MODEL 1
REMARK VINA RESULT:     -12.8      0.000      0.000
REMARK SMILES C[C@@H](NC(=O)[C@@H]1CC[C@@H]2CCCC[C@@H]2[NH2+]1)C(=O)OCCOC(=O)c1ccc(-c2c3nc(c(-c4cccc(S(=O)(=O)[O-])c4F)c4ccc([nH]4)c(-c4cccc(S(=O)(=O)[O-])c4F)c4nc(c(-c5cccc(S(=O)(=O)[O-])c5F)c5ccc2[nH]5)C=C4)C=C3)cc1
REMARK SMILES IDX 20 1 19 2 18 3 16 4 17 5 2 6 1 7 3 8 4 9 5 11 6 12 7 13
REMARK SMILES IDX 15 14 8 15 14 16 9 19 13 20 10 21 12 22 11 23 21 24 22 25
REMARK SMILES IDX 23 26 24 27 25 28 86 29 26 30 85 31 27 32 28 33 29 34 79 35
REMARK SMILES IDX 30 36 84 37 78 38 80 39 31 40 83 41 77 42 76 43 32 45 64 46
REMARK SMILES IDX 44 47 63 48 45 49 48 50 62 51 81 52 46 53 47 54 61 56 82 57
REMARK SMILES IDX 49 58 33 59 34 60 42 61 35 62 37 63 43 64 36 65 38 66 39 67
REMARK SMILES IDX 40 68 41 69 65 70 66 71 74 72 67 73 69 74 75 75 68 76 70 77
REMARK SMILES IDX 71 78 72 79 73 80 50 81 51 82 59 83 52 84 54 85 60 86 53 87
REMARK SMILES IDX 55 88 56 89 57 90 58 91
REMARK H PARENT 3 10 15 17 15 18 80 44 48 55
REMARK Flexibility Score: inf
ROOT
ATOM      1  C   UNL A   1      32.465  29.371  24.971  1.00  0.00     0.275 C 
ENDROOT
BRANCH   1   2
ATOM      2  C   UNL A   1      31.002  29.632  24.604  1.00  0.00     0.274 C 
BRANCH   2   3
ATOM      3  O   UNL A   1      30.472  28.409  24.035  1.00  0.00    -0.461 OA
BRANCH   3   4
ATOM      4  C   UNL A   1      30.785  28.028  22.676  1.00  0.00     0.328 C 
ATOM      5  O   UNL A   1      30.072  28.676  21.891  1.00  0.00    -0.250 OA
BRANCH   4   6
ATOM      6  C   UNL A   1      32.259  26.509  22.421  1.00  0.00     0.189 C 
ATOM      7  C   UNL A   1      32.146  25.889  20.394  1.00  0.00     0.043 C 
BRANCH   6   8
ATOM      8  N   UNL A   1      33.587  26.454  23.215  1.00  0.00    -0.338 N 
ATOM      9  C   UNL A   1      33.668  25.617  24.282  1.00  0.00     0.278 C 
ATOM     10  H   UNL A   1      34.354  27.011  22.951  1.00  0.00     0.164 HD
ATOM     11  O   UNL A   1      34.629  25.414  24.994  1.00  0.00    -0.268 OA
BRANCH   9  12
ATOM     12  C   UNL A   1      32.365  24.944  24.238  1.00  0.00     0.272 C 
ATOM     13  C   UNL A   1      32.125  24.748  26.081  1.00  0.00     0.076 C 
ATOM     14  N   UNL A   1      32.644  23.645  23.102  1.00  0.00    -0.333 N 
ATOM     15  C   UNL A   1      32.274  23.103  26.877  1.00  0.00     0.016 C 
ATOM     16  C   UNL A   1      33.401  22.172  23.752  1.00  0.00     0.186 C 
ATOM     17  H   UNL A   1      33.249  24.004  22.363  1.00  0.00     0.347 HD
ATOM     18  H   UNL A   1      31.717  23.357  22.789  1.00  0.00     0.347 HD
ATOM     19  C   UNL A   1      33.175  21.722  25.851  1.00  0.00     0.048 C 
ATOM     20  C   UNL A   1      35.113  22.931  23.235  1.00  0.00     0.065 C 
ATOM     21  C   UNL A   1      34.739  21.840  26.935  1.00  0.00     0.010 C 
ATOM     22  C   UNL A   1      36.402  23.153  24.537  1.00  0.00     0.006 C 
ATOM     23  C   UNL A   1      36.092  22.879  26.317  1.00  0.00     0.001 C 
ENDBRANCH   9  12
ENDBRANCH   6   8
ENDBRANCH   4   6
ENDBRANCH   3   4
ENDBRANCH   2   3
ENDBRANCH   1   2
BRANCH   1  24
ATOM     24  O   UNL A   1      32.600  29.428  26.407  1.00  0.00    -0.458 OA
BRANCH  24  25
ATOM     25  C   UNL A   1      32.989  30.624  26.918  1.00  0.00     0.338 C 
ATOM     26  O   UNL A   1      32.273  31.599  27.085  1.00  0.00    -0.246 OA
BRANCH  25  27
ATOM     27  C   UNL A   1      34.408  30.575  27.359  1.00  0.00     0.060 A 
ATOM     28  C   UNL A   1      35.014  29.359  27.660  1.00  0.00     0.016 A 
ATOM     29  C   UNL A   1      35.108  31.746  27.621  1.00  0.00     0.016 A 
ATOM     30  C   UNL A   1      36.220  29.294  28.355  1.00  0.00     0.010 A 
ATOM     31  C   UNL A   1      36.391  31.676  28.181  1.00  0.00     0.010 A 
ATOM     32  C   UNL A   1      36.950  30.452  28.608  1.00  0.00    -0.014 A 
BRANCH  32  33
ATOM     33  C   UNL A   1      38.258  30.441  29.332  1.00  0.00     0.031 A 
ATOM     34  C   UNL A   1      39.372  29.590  28.781  1.00  0.00     0.074 A 
ATOM     35  C   UNL A   1      38.459  31.097  30.496  1.00  0.00     0.049 A 
ATOM     36  N   UNL A   1      40.357  29.002  29.404  1.00  0.00    -0.248 NA
ATOM     37  C   UNL A   1      39.339  29.337  27.330  1.00  0.00     0.031 C 
ATOM     38  C   UNL A   1      37.557  32.067  31.116  1.00  0.00     0.029 A 
ATOM     39  N   UNL A   1      39.491  30.987  31.403  1.00  0.00    -0.354 N 
ATOM     40  C   UNL A   1      40.978  28.201  28.452  1.00  0.00     0.074 A 
ATOM     41  C   UNL A   1      40.285  28.419  27.199  1.00  0.00     0.031 C 
ATOM     42  C   UNL A   1      38.053  32.443  32.302  1.00  0.00     0.029 A 
ATOM     43  C   UNL A   1      39.228  31.635  32.590  1.00  0.00     0.049 A 
ATOM     44  H   UNL A   1      40.326  30.498  31.223  1.00  0.00     0.167 HD
ATOM     45  C   UNL A   1      42.009  27.341  28.625  1.00  0.00     0.034 A 
ATOM     46  C   UNL A   1      39.784  31.514  33.812  1.00  0.00     0.034 A 
ATOM     47  C   UNL A   1      42.726  27.208  29.865  1.00  0.00     0.049 A 
ATOM     48  C   UNL A   1      40.900  30.530  34.008  1.00  0.00     0.074 A 
ATOM     49  C   UNL A   1      43.807  26.393  30.155  1.00  0.00     0.029 A 
ATOM     50  N   UNL A   1      42.438  27.917  31.022  1.00  0.00    -0.354 N 
ATOM     51  N   UNL A   1      41.451  29.724  33.134  1.00  0.00    -0.248 NA
ATOM     52  C   UNL A   1      41.474  30.438  35.357  1.00  0.00     0.031 C 
ATOM     53  C   UNL A   1      44.152  26.590  31.497  1.00  0.00     0.029 A 
ATOM     54  C   UNL A   1      43.318  27.562  32.028  1.00  0.00     0.049 A 
ATOM     55  H   UNL A   1      41.715  28.579  31.113  1.00  0.00     0.167 HD
ATOM     56  C   UNL A   1      42.465  29.061  33.814  1.00  0.00     0.074 A 
ATOM     57  C   UNL A   1      42.454  29.564  35.173  1.00  0.00     0.031 C 
ATOM     58  C   UNL A   1      43.325  28.117  33.358  1.00  0.00     0.034 A 
BRANCH  45  59
ATOM     59  C   UNL A   1      42.395  26.453  27.468  1.00  0.00     0.023 A 
ATOM     60  C   UNL A   1      43.220  26.932  26.434  1.00  0.00     0.012 A 
ATOM     61  C   UNL A   1      41.952  25.113  27.431  1.00  0.00     0.148 A 
ATOM     62  C   UNL A   1      43.559  26.110  25.357  1.00  0.00     0.002 A 
ATOM     63  C   UNL A   1      42.339  24.285  26.384  1.00  0.00     0.091 A 
ATOM     64  F   UNL A   1      41.151  24.676  28.412  1.00  0.00    -0.205 F 
ATOM     65  C   UNL A   1      43.128  24.786  25.337  1.00  0.00     0.022 A 
BRANCH  63  66
ATOM     66  S   UNL A   1      41.905  22.543  26.315  1.00  0.00     0.127 S 
ATOM     67  O   UNL A   1      40.444  22.603  26.272  1.00  0.00    -0.237 OA
ATOM     68  O   UNL A   1      42.534  22.118  25.065  1.00  0.00    -0.237 OA
ATOM     69  O   UNL A   1      42.470  21.939  27.514  1.00  0.00    -0.744 OA
ENDBRANCH  63  66
ENDBRANCH  45  59
BRANCH  46  70
ATOM     70  C   UNL A   1      39.248  32.313  34.953  1.00  0.00     0.023 A 
ATOM     71  C   UNL A   1      38.261  31.755  35.786  1.00  0.00     0.012 A 
ATOM     72  C   UNL A   1      39.749  33.598  35.249  1.00  0.00     0.148 A 
ATOM     73  C   UNL A   1      37.772  32.466  36.884  1.00  0.00     0.002 A 
ATOM     74  C   UNL A   1      39.306  34.274  36.380  1.00  0.00     0.091 A 
ATOM     75  F   UNL A   1      40.677  34.121  34.435  1.00  0.00    -0.205 F 
ATOM     76  C   UNL A   1      38.305  33.716  37.189  1.00  0.00     0.022 A 
BRANCH  74  77
ATOM     77  S   UNL A   1      40.037  35.819  36.935  1.00  0.00     0.127 S 
ATOM     78  O   UNL A   1      41.441  35.446  37.089  1.00  0.00    -0.237 OA
ATOM     79  O   UNL A   1      39.754  36.705  35.805  1.00  0.00    -0.237 OA
ATOM     80  O   UNL A   1      39.338  36.168  38.164  1.00  0.00    -0.744 OA
ENDBRANCH  74  77
ENDBRANCH  46  70
BRANCH  58  81
ATOM     81  C   UNL A   1      44.386  27.626  34.304  1.00  0.00     0.023 A 
ATOM     82  C   UNL A   1      45.565  28.370  34.505  1.00  0.00     0.012 A 
ATOM     83  C   UNL A   1      44.168  26.454  35.055  1.00  0.00     0.148 A 
ATOM     84  C   UNL A   1      46.524  27.937  35.421  1.00  0.00     0.002 A 
ATOM     85  C   UNL A   1      45.100  26.060  36.004  1.00  0.00     0.091 A 
ATOM     86  F   UNL A   1      43.048  25.752  34.830  1.00  0.00    -0.205 F 
ATOM     87  C   UNL A   1      46.286  26.792  36.180  1.00  0.00     0.022 A 
BRANCH  85  88
ATOM     88  S   UNL A   1      44.829  24.661  37.095  1.00  0.00     0.127 S 
ATOM     89  O   UNL A   1      46.140  24.513  37.723  1.00  0.00    -0.237 OA
ATOM     90  O   UNL A   1      43.779  25.162  37.983  1.00  0.00    -0.237 OA
ATOM     91  O   UNL A   1      44.420  23.554  36.240  1.00  0.00    -0.744 OA
ENDBRANCH  85  88
ENDBRANCH  58  81
ENDBRANCH  32  33
ENDBRANCH  25  27
ENDBRANCH  24  25
ENDBRANCH   1  24
TORSDOF 16
ENDMDL
MODEL 2
REMARK VINA RESULT:     -12.8      1.052      1.822
REMARK SMILES C[C@@H](NC(=O)[C@@H]1CC[C@@H]2CCCC[C@@H]2[NH2+]1)C(=O)OCCOC(=O)c1ccc(-c2c3nc(c(-c4cccc(S(=O)(=O)[O-])c4F)c4ccc([nH]4)c(-c4cccc(S(=O)(=O)[O-])c4F)c4nc(c(-c5cccc(S(=O)(=O)[O-])c5F)c5ccc2[nH]5)C=C4)C=C3)cc1
REMARK SMILES IDX 20 1 19 2 18 3 16 4 17 5 2 6 1 7 3 8 4 9 5 11 6 12 7 13
REMARK SMILES IDX 15 14 8 15 14 16 9 19 13 20 10 21 12 22 11 23 21 24 22 25
REMARK SMILES IDX 23 26 24 27 25 28 86 29 26 30 85 31 27 32 28 33 29 34 79 35
REMARK SMILES IDX 30 36 84 37 78 38 80 39 31 40 83 41 77 42 76 43 32 45 64 46
REMARK SMILES IDX 44 47 63 48 45 49 48 50 62 51 81 52 46 53 47 54 61 56 82 57
REMARK SMILES IDX 49 58 33 59 34 60 42 61 35 62 37 63 43 64 36 65 38 66 39 67
REMARK SMILES IDX 40 68 41 69 65 70 66 71 74 72 67 73 69 74 75 75 68 76 70 77
REMARK SMILES IDX 71 78 72 79 73 80 50 81 51 82 59 83 52 84 54 85 60 86 53 87
REMARK SMILES IDX 55 88 56 89 57 90 58 91
REMARK H PARENT 3 10 15 17 15 18 80 44 48 55
REMARK Flexibility Score: inf
ROOT
ATOM      1  C   UNL A   1      32.437  29.295  24.454  1.00  0.00     0.275 C 
ENDROOT
BRANCH   1   2
ATOM      2  C   UNL A   1      33.347  28.896  23.289  1.00  0.00     0.274 C 
BRANCH   2   3
ATOM      3  O   UNL A   1      32.564  28.073  22.389  1.00  0.00    -0.461 OA
BRANCH   3   4
ATOM      4  C   UNL A   1      32.813  26.653  22.279  1.00  0.00     0.328 C 
ATOM      5  O   UNL A   1      33.623  26.445  21.359  1.00  0.00    -0.250 OA
BRANCH   4   6
ATOM      6  C   UNL A   1      31.737  25.385  23.613  1.00  0.00     0.189 C 
ATOM      7  C   UNL A   1      30.094  26.518  24.335  1.00  0.00     0.043 C 
BRANCH   6   8
ATOM      8  N   UNL A   1      31.661  23.846  23.467  1.00  0.00    -0.338 N 
ATOM      9  C   UNL A   1      32.757  23.110  23.786  1.00  0.00     0.278 C 
ATOM     10  H   UNL A   1      30.836  23.410  23.149  1.00  0.00     0.164 HD
ATOM     11  O   UNL A   1      32.871  21.902  23.771  1.00  0.00    -0.268 OA
BRANCH   9  12
ATOM     12  C   UNL A   1      33.678  24.139  24.283  1.00  0.00     0.272 C 
ATOM     13  C   UNL A   1      35.160  23.665  23.249  1.00  0.00     0.076 C 
ATOM     14  N   UNL A   1      33.546  23.967  26.017  1.00  0.00    -0.333 N 
ATOM     15  C   UNL A   1      36.615  22.851  24.012  1.00  0.00     0.016 C 
ATOM     16  C   UNL A   1      34.541  22.695  26.764  1.00  0.00     0.186 C 
ATOM     17  H   UNL A   1      32.570  23.765  26.235  1.00  0.00     0.347 HD
ATOM     18  H   UNL A   1      33.894  24.844  26.403  1.00  0.00     0.347 HD
ATOM     19  C   UNL A   1      36.344  22.057  25.763  1.00  0.00     0.048 C 
ATOM     20  C   UNL A   1      33.012  21.511  26.576  1.00  0.00     0.065 C 
ATOM     21  C   UNL A   1      36.354  20.292  25.041  1.00  0.00     0.010 C 
ATOM     22  C   UNL A   1      33.227  19.945  25.624  1.00  0.00     0.006 C 
ATOM     23  C   UNL A   1      34.743  19.538  24.688  1.00  0.00     0.001 C 
ENDBRANCH   9  12
ENDBRANCH   6   8
ENDBRANCH   4   6
ENDBRANCH   3   4
ENDBRANCH   2   3
ENDBRANCH   1   2
BRANCH   1  24
ATOM     24  O   UNL A   1      33.202  29.246  25.677  1.00  0.00    -0.458 OA
BRANCH  24  25
ATOM     25  C   UNL A   1      33.113  30.341  26.475  1.00  0.00     0.338 C 
ATOM     26  O   UNL A   1      32.177  31.123  26.516  1.00  0.00    -0.246 OA
BRANCH  25  27
ATOM     27  C   UNL A   1      34.279  30.423  27.393  1.00  0.00     0.060 A 
ATOM     28  C   UNL A   1      34.935  31.633  27.599  1.00  0.00     0.016 A 
ATOM     29  C   UNL A   1      34.825  29.272  27.946  1.00  0.00     0.016 A 
ATOM     30  C   UNL A   1      36.191  31.692  28.200  1.00  0.00     0.010 A 
ATOM     31  C   UNL A   1      36.014  29.354  28.685  1.00  0.00     0.010 A 
ATOM     32  C   UNL A   1      36.747  30.557  28.781  1.00  0.00    -0.014 A 
BRANCH  32  33
ATOM     33  C   UNL A   1      38.083  30.565  29.455  1.00  0.00     0.031 A 
ATOM     34  C   UNL A   1      39.179  29.711  28.876  1.00  0.00     0.074 A 
ATOM     35  C   UNL A   1      38.323  31.242  30.599  1.00  0.00     0.049 A 
ATOM     36  N   UNL A   1      40.191  29.139  29.471  1.00  0.00    -0.248 NA
ATOM     37  C   UNL A   1      39.093  29.433  27.432  1.00  0.00     0.031 C 
ATOM     38  C   UNL A   1      37.439  32.218  31.237  1.00  0.00     0.029 A 
ATOM     39  N   UNL A   1      39.390  31.152  31.468  1.00  0.00    -0.354 N 
ATOM     40  C   UNL A   1      40.780  28.325  28.509  1.00  0.00     0.074 A 
ATOM     41  C   UNL A   1      40.039  28.518  27.280  1.00  0.00     0.031 C 
ATOM     42  C   UNL A   1      37.978  32.616  32.397  1.00  0.00     0.029 A 
ATOM     43  C   UNL A   1      39.168  31.820  32.653  1.00  0.00     0.049 A 
ATOM     44  H   UNL A   1      40.221  30.665  31.264  1.00  0.00     0.167 HD
ATOM     45  C   UNL A   1      41.822  27.474  28.658  1.00  0.00     0.034 A 
ATOM     46  C   UNL A   1      39.771  31.722  33.855  1.00  0.00     0.034 A 
ATOM     47  C   UNL A   1      42.587  27.365  29.872  1.00  0.00     0.049 A 
ATOM     48  C   UNL A   1      40.899  30.747  34.025  1.00  0.00     0.074 A 
ATOM     49  C   UNL A   1      43.683  26.562  30.134  1.00  0.00     0.029 A 
ATOM     50  N   UNL A   1      42.339  28.093  31.026  1.00  0.00    -0.354 N 
ATOM     51  N   UNL A   1      41.422  29.930  33.144  1.00  0.00    -0.248 NA
ATOM     52  C   UNL A   1      41.524  30.682  35.353  1.00  0.00     0.031 C 
ATOM     53  C   UNL A   1      44.077  26.783  31.458  1.00  0.00     0.029 A 
ATOM     54  C   UNL A   1      43.258  27.760  32.004  1.00  0.00     0.049 A 
ATOM     55  H   UNL A   1      41.615  28.752  31.134  1.00  0.00     0.167 HD
ATOM     56  C   UNL A   1      42.465  29.284  33.796  1.00  0.00     0.074 A 
ATOM     57  C   UNL A   1      42.502  29.809  35.146  1.00  0.00     0.031 C 
ATOM     58  C   UNL A   1      43.313  28.337  33.324  1.00  0.00     0.034 A 
BRANCH  45  59
ATOM     59  C   UNL A   1      42.169  26.568  27.502  1.00  0.00     0.023 A 
ATOM     60  C   UNL A   1      42.923  27.044  26.413  1.00  0.00     0.012 A 
ATOM     61  C   UNL A   1      41.763  25.216  27.519  1.00  0.00     0.148 A 
ATOM     62  C   UNL A   1      43.226  26.206  25.338  1.00  0.00     0.002 A 
ATOM     63  C   UNL A   1      42.116  24.374  26.472  1.00  0.00     0.091 A 
ATOM     64  F   UNL A   1      41.029  24.782  28.553  1.00  0.00    -0.205 F 
ATOM     65  C   UNL A   1      42.832  24.870  25.372  1.00  0.00     0.022 A 
BRANCH  63  66
ATOM     66  S   UNL A   1      41.728  22.619  26.467  1.00  0.00     0.127 S 
ATOM     67  O   UNL A   1      40.265  22.640  26.445  1.00  0.00    -0.237 OA
ATOM     68  O   UNL A   1      42.350  22.171  25.222  1.00  0.00    -0.237 OA
ATOM     69  O   UNL A   1      42.326  22.071  27.676  1.00  0.00    -0.744 OA
ENDBRANCH  63  66
ENDBRANCH  45  59
BRANCH  46  70
ATOM     70  C   UNL A   1      39.273  32.538  35.001  1.00  0.00     0.023 A 
ATOM     71  C   UNL A   1      38.310  31.994  35.871  1.00  0.00     0.012 A 
ATOM     72  C   UNL A   1      39.789  33.824  35.267  1.00  0.00     0.148 A 
ATOM     73  C   UNL A   1      37.858  32.721  36.975  1.00  0.00     0.002 A 
ATOM     74  C   UNL A   1      39.384  34.515  36.402  1.00  0.00     0.091 A 
ATOM     75  F   UNL A   1      40.694  34.332  34.418  1.00  0.00    -0.205 F 
ATOM     76  C   UNL A   1      38.405  33.972  37.248  1.00  0.00     0.022 A 
BRANCH  74  77
ATOM     77  S   UNL A   1      40.139  36.063  36.915  1.00  0.00     0.127 S 
ATOM     78  O   UNL A   1      41.514  35.651  37.180  1.00  0.00    -0.237 OA
ATOM     79  O   UNL A   1      39.961  36.891  35.722  1.00  0.00    -0.237 OA
ATOM     80  O   UNL A   1      39.379  36.507  38.075  1.00  0.00    -0.744 OA
ENDBRANCH  74  77
ENDBRANCH  46  70
BRANCH  58  81
ATOM     81  C   UNL A   1      44.412  27.867  34.236  1.00  0.00     0.023 A 
ATOM     82  C   UNL A   1      45.653  28.532  34.261  1.00  0.00     0.012 A 
ATOM     83  C   UNL A   1      44.175  26.805  35.131  1.00  0.00     0.148 A 
ATOM     84  C   UNL A   1      46.653  28.126  35.146  1.00  0.00     0.002 A 
ATOM     85  C   UNL A   1      45.153  26.443  36.046  1.00  0.00     0.091 A 
ATOM     86  F   UNL A   1      42.992  26.175  35.072  1.00  0.00    -0.205 F 
ATOM     87  C   UNL A   1      46.398  27.092  36.046  1.00  0.00     0.022 A 
BRANCH  85  88
ATOM     88  S   UNL A   1      44.875  25.196  37.306  1.00  0.00     0.127 S 
ATOM     89  O   UNL A   1      44.672  23.995  36.498  1.00  0.00    -0.237 OA
ATOM     90  O   UNL A   1      46.135  25.225  38.051  1.00  0.00    -0.237 OA
ATOM     91  O   UNL A   1      43.713  25.639  38.065  1.00  0.00    -0.744 OA
ENDBRANCH  85  88
ENDBRANCH  58  81
ENDBRANCH  32  33
ENDBRANCH  25  27
ENDBRANCH  24  25
ENDBRANCH   1  24
TORSDOF 16
ENDMDL
MODEL 3
REMARK VINA RESULT:     -12.7      1.645      2.150
REMARK SMILES C[C@@H](NC(=O)[C@@H]1CC[C@@H]2CCCC[C@@H]2[NH2+]1)C(=O)OCCOC(=O)c1ccc(-c2c3nc(c(-c4cccc(S(=O)(=O)[O-])c4F)c4ccc([nH]4)c(-c4cccc(S(=O)(=O)[O-])c4F)c4nc(c(-c5cccc(S(=O)(=O)[O-])c5F)c5ccc2[nH]5)C=C4)C=C3)cc1
REMARK SMILES IDX 20 1 19 2 18 3 16 4 17 5 2 6 1 7 3 8 4 9 5 11 6 12 7 13
REMARK SMILES IDX 15 14 8 15 14 16 9 19 13 20 10 21 12 22 11 23 21 24 22 25
REMARK SMILES IDX 23 26 24 27 25 28 86 29 26 30 85 31 27 32 28 33 29 34 79 35
REMARK SMILES IDX 30 36 84 37 78 38 80 39 31 40 83 41 77 42 76 43 32 45 64 46
REMARK SMILES IDX 44 47 63 48 45 49 48 50 62 51 81 52 46 53 47 54 61 56 82 57
REMARK SMILES IDX 49 58 33 59 34 60 42 61 35 62 37 63 43 64 36 65 38 66 39 67
REMARK SMILES IDX 40 68 41 69 65 70 66 71 74 72 67 73 69 74 75 75 68 76 70 77
REMARK SMILES IDX 71 78 72 79 73 80 50 81 51 82 59 83 52 84 54 85 60 86 53 87
REMARK SMILES IDX 55 88 56 89 57 90 58 91
REMARK H PARENT 3 10 15 17 15 18 80 44 48 55
REMARK Flexibility Score: inf
ROOT
ATOM      1  C   UNL A   1      32.616  29.711  25.631  1.00  0.00     0.275 C 
ENDROOT
BRANCH   1   2
ATOM      2  C   UNL A   1      33.642  28.876  24.860  1.00  0.00     0.274 C 
BRANCH   2   3
ATOM      3  O   UNL A   1      33.391  29.077  23.447  1.00  0.00    -0.461 OA
BRANCH   3   4
ATOM      4  C   UNL A   1      33.213  27.950  22.559  1.00  0.00     0.328 C 
ATOM      5  O   UNL A   1      34.056  28.006  21.646  1.00  0.00    -0.250 OA
BRANCH   4   6
ATOM      6  C   UNL A   1      31.610  26.618  23.009  1.00  0.00     0.189 C 
ATOM      7  C   UNL A   1      29.823  27.755  22.882  1.00  0.00     0.043 C 
BRANCH   6   8
ATOM      8  N   UNL A   1      31.634  25.103  22.692  1.00  0.00    -0.338 N 
ATOM      9  C   UNL A   1      32.291  24.274  23.544  1.00  0.00     0.278 C 
ATOM     10  H   UNL A   1      31.183  24.749  21.891  1.00  0.00     0.164 HD
ATOM     11  O   UNL A   1      32.383  23.066  23.480  1.00  0.00    -0.268 OA
BRANCH   9  12
ATOM     12  C   UNL A   1      32.709  25.199  24.603  1.00  0.00     0.272 C 
ATOM     13  C   UNL A   1      34.554  24.951  24.435  1.00  0.00     0.076 C 
ATOM     14  N   UNL A   1      31.732  24.693  25.961  1.00  0.00    -0.333 N 
ATOM     15  C   UNL A   1      35.496  24.021  25.704  1.00  0.00     0.016 C 
ATOM     16  C   UNL A   1      32.340  23.313  26.905  1.00  0.00     0.186 C 
ATOM     17  H   UNL A   1      30.810  24.441  25.603  1.00  0.00     0.347 HD
ATOM     18  H   UNL A   1      31.735  25.484  26.606  1.00  0.00     0.347 HD
ATOM     19  C   UNL A   1      34.459  22.901  26.905  1.00  0.00     0.048 C 
ATOM     20  C   UNL A   1      31.262  22.170  25.762  1.00  0.00     0.065 C 
ATOM     21  C   UNL A   1      35.031  21.310  26.025  1.00  0.00     0.010 C 
ATOM     22  C   UNL A   1      32.104  20.820  24.828  1.00  0.00     0.006 C 
ATOM     23  C   UNL A   1      33.920  20.618  24.769  1.00  0.00     0.001 C 
ENDBRANCH   9  12
ENDBRANCH   6   8
ENDBRANCH   4   6
ENDBRANCH   3   4
ENDBRANCH   2   3
ENDBRANCH   1   2
BRANCH   1  24
ATOM     24  O   UNL A   1      33.027  29.791  27.013  1.00  0.00    -0.458 OA
BRANCH  24  25
ATOM     25  C   UNL A   1      33.581  30.969  27.398  1.00  0.00     0.338 C 
ATOM     26  O   UNL A   1      32.993  32.031  27.520  1.00  0.00    -0.246 OA
BRANCH  25  27
ATOM     27  C   UNL A   1      35.011  30.787  27.763  1.00  0.00     0.060 A 
ATOM     28  C   UNL A   1      35.509  29.523  28.064  1.00  0.00     0.016 A 
ATOM     29  C   UNL A   1      35.837  31.887  27.957  1.00  0.00     0.016 A 
ATOM     30  C   UNL A   1      36.740  29.352  28.694  1.00  0.00     0.010 A 
ATOM     31  C   UNL A   1      37.136  31.701  28.449  1.00  0.00     0.010 A 
ATOM     32  C   UNL A   1      37.594  30.436  28.877  1.00  0.00    -0.014 A 
BRANCH  32  33
ATOM     33  C   UNL A   1      38.933  30.309  29.531  1.00  0.00     0.031 A 
ATOM     34  C   UNL A   1      39.939  29.370  28.920  1.00  0.00     0.074 A 
ATOM     35  C   UNL A   1      39.250  30.937  30.683  1.00  0.00     0.049 A 
ATOM     36  N   UNL A   1      40.902  28.697  29.487  1.00  0.00    -0.248 NA
ATOM     37  C   UNL A   1      39.808  29.131  27.471  1.00  0.00     0.031 C 
ATOM     38  C   UNL A   1      38.468  31.977  31.354  1.00  0.00     0.029 A 
ATOM     39  N   UNL A   1      40.316  30.734  31.534  1.00  0.00    -0.354 N 
ATOM     40  C   UNL A   1      41.401  27.852  28.501  1.00  0.00     0.074 A 
ATOM     41  C   UNL A   1      40.664  28.137  27.288  1.00  0.00     0.031 C 
ATOM     42  C   UNL A   1      39.057  32.301  32.512  1.00  0.00     0.029 A 
ATOM     43  C   UNL A   1      40.172  31.395  32.735  1.00  0.00     0.049 A 
ATOM     44  H   UNL A   1      41.096  30.177  31.308  1.00  0.00     0.167 HD
ATOM     45  C   UNL A   1      42.363  26.906  28.618  1.00  0.00     0.034 A 
ATOM     46  C   UNL A   1      40.780  31.218  33.925  1.00  0.00     0.034 A 
ATOM     47  C   UNL A   1      43.131  26.704  29.818  1.00  0.00     0.049 A 
ATOM     48  C   UNL A   1      41.817  30.141  34.059  1.00  0.00     0.074 A 
ATOM     49  C   UNL A   1      44.153  25.799  30.048  1.00  0.00     0.029 A 
ATOM     50  N   UNL A   1      42.966  27.428  30.989  1.00  0.00    -0.354 N 
ATOM     51  N   UNL A   1      42.250  29.298  33.155  1.00  0.00    -0.248 NA
ATOM     52  C   UNL A   1      42.452  29.992  35.376  1.00  0.00     0.031 C 
ATOM     53  C   UNL A   1      44.583  25.956  31.369  1.00  0.00     0.029 A 
ATOM     54  C   UNL A   1      43.865  26.992  31.946  1.00  0.00     0.049 A 
ATOM     55  H   UNL A   1      42.308  28.148  31.120  1.00  0.00     0.167 HD
ATOM     56  C   UNL A   1      43.239  28.546  33.779  1.00  0.00     0.074 A 
ATOM     57  C   UNL A   1      43.342  29.039  35.138  1.00  0.00     0.031 C 
ATOM     58  C   UNL A   1      43.990  27.535  33.276  1.00  0.00     0.034 A 
BRANCH  45  59
ATOM     59  C   UNL A   1      42.610  25.996  27.440  1.00  0.00     0.023 A 
ATOM     60  C   UNL A   1      43.396  26.420  26.352  1.00  0.00     0.012 A 
ATOM     61  C   UNL A   1      42.075  24.690  27.434  1.00  0.00     0.148 A 
ATOM     62  C   UNL A   1      43.607  25.580  25.257  1.00  0.00     0.002 A 
ATOM     63  C   UNL A   1      42.334  23.840  26.366  1.00  0.00     0.091 A 
ATOM     64  F   UNL A   1      41.311  24.307  28.467  1.00  0.00    -0.205 F 
ATOM     65  C   UNL A   1      43.085  24.288  25.268  1.00  0.00     0.022 A 
BRANCH  63  66
ATOM     66  S   UNL A   1      41.778  22.132  26.330  1.00  0.00     0.127 S 
ATOM     67  O   UNL A   1      42.176  21.663  27.657  1.00  0.00    -0.237 OA
ATOM     68  O   UNL A   1      40.335  22.283  26.144  1.00  0.00    -0.237 OA
ATOM     69  O   UNL A   1      42.471  21.506  25.213  1.00  0.00    -0.744 OA
ENDBRANCH  63  66
ENDBRANCH  45  59
BRANCH  46  70
ATOM     70  C   UNL A   1      40.375  32.052  35.095  1.00  0.00     0.023 A 
ATOM     71  C   UNL A   1      40.932  33.334  35.257  1.00  0.00     0.012 A 
ATOM     72  C   UNL A   1      39.402  31.606  36.014  1.00  0.00     0.148 A 
ATOM     73  C   UNL A   1      40.540  34.151  36.319  1.00  0.00     0.002 A 
ATOM     74  C   UNL A   1      38.968  32.448  37.030  1.00  0.00     0.091 A 
ATOM     75  F   UNL A   1      38.894  30.376  35.853  1.00  0.00    -0.205 F 
ATOM     76  C   UNL A   1      39.548  33.714  37.195  1.00  0.00     0.022 A 
BRANCH  74  77
ATOM     77  S   UNL A   1      37.595  32.033  38.113  1.00  0.00     0.127 S 
ATOM     78  O   UNL A   1      38.153  32.329  39.430  1.00  0.00    -0.237 OA
ATOM     79  O   UNL A   1      36.563  32.963  37.656  1.00  0.00    -0.237 OA
ATOM     80  O   UNL A   1      37.299  30.631  37.855  1.00  0.00    -0.744 OA
ENDBRANCH  74  77
ENDBRANCH  46  70
BRANCH  58  81
ATOM     81  C   UNL A   1      45.054  26.949  34.162  1.00  0.00     0.023 A 
ATOM     82  C   UNL A   1      46.346  27.509  34.194  1.00  0.00     0.012 A 
ATOM     83  C   UNL A   1      44.738  25.883  35.027  1.00  0.00     0.148 A 
ATOM     84  C   UNL A   1      47.316  26.995  35.055  1.00  0.00     0.002 A 
ATOM     85  C   UNL A   1      45.690  25.413  35.920  1.00  0.00     0.091 A 
ATOM     86  F   UNL A   1      43.507  25.354  34.961  1.00  0.00    -0.205 F 
ATOM     87  C   UNL A   1      46.984  25.958  35.927  1.00  0.00     0.022 A 
BRANCH  85  88
ATOM     88  S   UNL A   1      45.320  24.155  37.145  1.00  0.00     0.127 S 
ATOM     89  O   UNL A   1      46.569  24.101  37.903  1.00  0.00    -0.237 OA
ATOM     90  O   UNL A   1      44.193  24.749  37.865  1.00  0.00    -0.237 OA
ATOM     91  O   UNL A   1      44.993  22.947  36.399  1.00  0.00    -0.744 OA
ENDBRANCH  85  88
ENDBRANCH  58  81
ENDBRANCH  32  33
ENDBRANCH  25  27
ENDBRANCH  24  25
ENDBRANCH   1  24
TORSDOF 16
ENDMDL
