MODEL 1
REMARK VINA RESULT:     -11.6      0.000      0.000
REMARK SMILES O=C(Cc1cccn1-c1ccccc1F)OCCOC(=O)c1ccc(-c2c3nc(c(-c4cccc(S(=O)(=O)[O-])c4F)c4ccc([nH]4)c(-c4cccc(S(=O)(=O)[O-])c4F)c4nc(c(-c5cccc(S(=O)(=O)[O-])c5F)c5ccc2[nH]5)C=C4)C=C3)cc1
REMARK SMILES IDX 18 1 17 2 16 3 2 4 1 5 3 6 4 7 5 8 8 9 6 10 7 11 9 12 10 13
REMARK SMILES IDX 14 14 11 15 13 16 15 17 12 18 19 19 20 20 21 21 22 22 23 23
REMARK SMILES IDX 84 24 24 25 83 26 25 27 26 28 27 29 77 30 28 31 82 32 76 33
REMARK SMILES IDX 78 34 29 35 81 36 75 37 74 38 30 40 62 41 42 42 61 43 43 44
REMARK SMILES IDX 46 45 60 46 79 47 44 48 45 49 59 51 80 52 47 53 31 54 32 55
REMARK SMILES IDX 40 56 33 57 35 58 41 59 34 60 36 61 37 62 38 63 39 64 63 65
REMARK SMILES IDX 64 66 72 67 65 68 67 69 73 70 66 71 68 72 69 73 70 74 71 75
REMARK SMILES IDX 48 76 49 77 57 78 50 79 52 80 58 81 51 82 53 83 54 84 55 85
REMARK SMILES IDX 56 86
REMARK H PARENT 78 39 46 50
REMARK Flexibility Score: inf
ROOT
ATOM      1  C   UNL A   1      33.203  31.694  27.630  1.00  0.00     0.275 C 
ENDROOT
BRANCH   1   2
ATOM      2  C   UNL A   1      34.271  30.634  27.519  1.00  0.00     0.274 C 
BRANCH   2   3
ATOM      3  O   UNL A   1      33.964  29.636  26.518  1.00  0.00    -0.462 OA
BRANCH   3   4
ATOM      4  C   UNL A   1      32.751  29.071  26.281  1.00  0.00     0.311 C 
ATOM      5  O   UNL A   1      32.179  28.449  27.179  1.00  0.00    -0.252 OA
BRANCH   4   6
ATOM      6  C   UNL A   1      32.107  29.213  24.923  1.00  0.00     0.177 C 
BRANCH   6   7
ATOM      7  C   UNL A   1      32.262  28.100  23.924  1.00  0.00     0.034 A 
ATOM      8  C   UNL A   1      33.457  27.438  23.666  1.00  0.00     0.024 A 
ATOM      9  N   UNL A   1      31.337  27.643  22.995  1.00  0.00    -0.318 N 
ATOM     10  C   UNL A   1      33.274  26.616  22.537  1.00  0.00     0.020 A 
ATOM     11  C   UNL A   1      31.974  26.784  22.127  1.00  0.00     0.091 A 
BRANCH   9  12
ATOM     12  C   UNL A   1      29.977  27.980  22.884  1.00  0.00     0.081 A 
ATOM     13  C   UNL A   1      29.016  27.193  23.518  1.00  0.00     0.030 A 
ATOM     14  C   UNL A   1      29.617  29.168  22.249  1.00  0.00     0.147 A 
ATOM     15  C   UNL A   1      27.698  27.647  23.578  1.00  0.00     0.002 A 
ATOM     16  C   UNL A   1      28.307  29.632  22.336  1.00  0.00     0.041 A 
ATOM     17  F   UNL A   1      30.545  29.963  21.696  1.00  0.00    -0.205 F 
ATOM     18  C   UNL A   1      27.350  28.877  23.015  1.00  0.00     0.003 A 
ENDBRANCH   9  12
ENDBRANCH   6   7
ENDBRANCH   4   6
ENDBRANCH   3   4
ENDBRANCH   2   3
ENDBRANCH   1   2
BRANCH   1  19
ATOM     19  O   UNL A   1      33.839  32.942  27.476  1.00  0.00    -0.458 OA
BRANCH  19  20
ATOM     20  C   UNL A   1      33.348  33.968  28.208  1.00  0.00     0.338 C 
ATOM     21  O   UNL A   1      32.354  34.620  28.003  1.00  0.00    -0.246 OA
BRANCH  20  22
ATOM     22  C   UNL A   1      34.353  34.244  29.243  1.00  0.00     0.060 A 
ATOM     23  C   UNL A   1      35.615  34.518  28.723  1.00  0.00     0.016 A 
ATOM     24  C   UNL A   1      34.150  33.611  30.474  1.00  0.00     0.016 A 
ATOM     25  C   UNL A   1      36.668  33.841  29.276  1.00  0.00     0.010 A 
ATOM     26  C   UNL A   1      35.159  32.814  30.923  1.00  0.00     0.010 A 
ATOM     27  C   UNL A   1      36.404  32.932  30.310  1.00  0.00    -0.014 A 
BRANCH  27  28
ATOM     28  C   UNL A   1      37.543  32.281  30.934  1.00  0.00     0.031 A 
ATOM     29  C   UNL A   1      37.883  31.046  30.059  1.00  0.00     0.074 A 
ATOM     30  C   UNL A   1      37.926  32.826  32.133  1.00  0.00     0.049 A 
ATOM     31  N   UNL A   1      38.165  29.834  30.418  1.00  0.00    -0.248 NA
ATOM     32  C   UNL A   1      37.707  31.110  28.570  1.00  0.00     0.031 C 
ATOM     33  C   UNL A   1      37.423  34.098  32.726  1.00  0.00     0.029 A 
ATOM     34  N   UNL A   1      38.807  32.433  33.110  1.00  0.00    -0.354 N 
ATOM     35  C   UNL A   1      38.464  29.110  29.237  1.00  0.00     0.074 A 
ATOM     36  C   UNL A   1      37.969  29.874  28.144  1.00  0.00     0.031 C 
ATOM     37  C   UNL A   1      37.920  34.290  33.974  1.00  0.00     0.029 A 
ATOM     38  C   UNL A   1      38.805  33.191  34.314  1.00  0.00     0.049 A 
ATOM     39  H   UNL A   1      39.410  31.666  32.984  1.00  0.00     0.167 HD
ATOM     40  C   UNL A   1      39.281  28.019  29.228  1.00  0.00     0.034 A 
ATOM     41  C   UNL A   1      39.437  32.892  35.497  1.00  0.00     0.034 A 
ATOM     42  C   UNL A   1      39.762  27.802  30.554  1.00  0.00     0.049 A 
ATOM     43  C   UNL A   1      40.230  31.696  35.179  1.00  0.00     0.074 A 
ATOM     44  C   UNL A   1      39.132  27.345  31.682  1.00  0.00     0.029 A 
ATOM     45  N   UNL A   1      40.873  28.542  30.899  1.00  0.00    -0.354 N 
ATOM     46  N   UNL A   1      41.280  31.692  34.413  1.00  0.00    -0.248 NA
ATOM     47  C   UNL A   1      39.723  30.388  35.607  1.00  0.00     0.031 C 
ATOM     48  C   UNL A   1      39.596  28.235  32.671  1.00  0.00     0.029 A 
ATOM     49  C   UNL A   1      40.682  28.976  32.185  1.00  0.00     0.049 A 
ATOM     50  H   UNL A   1      41.656  28.724  30.330  1.00  0.00     0.167 HD
ATOM     51  C   UNL A   1      41.311  30.390  33.980  1.00  0.00     0.074 A 
ATOM     52  C   UNL A   1      40.595  29.613  34.971  1.00  0.00     0.031 C 
ATOM     53  C   UNL A   1      41.430  30.119  32.652  1.00  0.00     0.034 A 
BRANCH  40  54
ATOM     54  C   UNL A   1      39.935  27.215  28.139  1.00  0.00     0.023 A 
ATOM     55  C   UNL A   1      39.653  25.820  28.181  1.00  0.00     0.012 A 
ATOM     56  C   UNL A   1      40.979  27.641  27.301  1.00  0.00     0.148 A 
ATOM     57  C   UNL A   1      40.441  24.879  27.526  1.00  0.00     0.002 A 
ATOM     58  C   UNL A   1      41.738  26.694  26.605  1.00  0.00     0.091 A 
ATOM     59  F   UNL A   1      41.288  28.941  27.241  1.00  0.00    -0.205 F 
ATOM     60  C   UNL A   1      41.495  25.318  26.748  1.00  0.00     0.022 A 
BRANCH  58  61
ATOM     61  S   UNL A   1      43.088  27.128  25.501  1.00  0.00     0.127 S 
ATOM     62  O   UNL A   1      42.439  28.062  24.583  1.00  0.00    -0.237 OA
ATOM     63  O   UNL A   1      44.038  27.750  26.426  1.00  0.00    -0.237 OA
ATOM     64  O   UNL A   1      43.552  25.875  24.925  1.00  0.00    -0.744 OA
ENDBRANCH  58  61
ENDBRANCH  40  54
BRANCH  41  65
ATOM     65  C   UNL A   1      39.433  33.319  36.956  1.00  0.00     0.023 A 
ATOM     66  C   UNL A   1      40.179  34.381  37.483  1.00  0.00     0.012 A 
ATOM     67  C   UNL A   1      38.532  32.685  37.875  1.00  0.00     0.148 A 
ATOM     68  C   UNL A   1      39.961  34.841  38.805  1.00  0.00     0.002 A 
ATOM     69  C   UNL A   1      38.219  33.223  39.118  1.00  0.00     0.091 A 
ATOM     70  F   UNL A   1      37.978  31.510  37.557  1.00  0.00    -0.205 F 
ATOM     71  C   UNL A   1      38.949  34.301  39.601  1.00  0.00     0.022 A 
BRANCH  69  72
ATOM     72  S   UNL A   1      36.782  32.667  40.065  1.00  0.00     0.127 S 
ATOM     73  O   UNL A   1      37.209  31.353  40.540  1.00  0.00    -0.237 OA
ATOM     74  O   UNL A   1      36.701  33.698  41.101  1.00  0.00    -0.237 OA
ATOM     75  O   UNL A   1      35.658  32.652  39.138  1.00  0.00    -0.744 OA
ENDBRANCH  69  72
ENDBRANCH  41  65
BRANCH  53  76
ATOM     76  C   UNL A   1      42.090  31.222  31.808  1.00  0.00     0.023 A 
ATOM     77  C   UNL A   1      41.242  31.977  30.974  1.00  0.00     0.012 A 
ATOM     78  C   UNL A   1      43.478  31.496  31.707  1.00  0.00     0.148 A 
ATOM     79  C   UNL A   1      41.735  32.934  30.079  1.00  0.00     0.002 A 
ATOM     80  C   UNL A   1      43.979  32.436  30.792  1.00  0.00     0.091 A 
ATOM     81  F   UNL A   1      44.317  30.857  32.514  1.00  0.00    -0.205 F 
ATOM     82  C   UNL A   1      43.102  33.161  29.983  1.00  0.00     0.022 A 
BRANCH  80  83
ATOM     83  S   UNL A   1      45.741  32.742  30.518  1.00  0.00     0.127 S 
ATOM     84  O   UNL A   1      46.145  33.415  31.757  1.00  0.00    -0.237 OA
ATOM     85  O   UNL A   1      46.274  31.391  30.374  1.00  0.00    -0.237 OA
ATOM     86  O   UNL A   1      45.833  33.587  29.334  1.00  0.00    -0.744 OA
ENDBRANCH  80  83
ENDBRANCH  53  76
ENDBRANCH  27  28
ENDBRANCH  20  22
ENDBRANCH  19  20
ENDBRANCH   1  19
TORSDOF 16
ENDMDL
MODEL 2
REMARK VINA RESULT:     -11.4      5.678      9.895
REMARK SMILES O=C(Cc1cccn1-c1ccccc1F)OCCOC(=O)c1ccc(-c2c3nc(c(-c4cccc(S(=O)(=O)[O-])c4F)c4ccc([nH]4)c(-c4cccc(S(=O)(=O)[O-])c4F)c4nc(c(-c5cccc(S(=O)(=O)[O-])c5F)c5ccc2[nH]5)C=C4)C=C3)cc1
REMARK SMILES IDX 18 1 17 2 16 3 2 4 1 5 3 6 4 7 5 8 8 9 6 10 7 11 9 12 10 13
REMARK SMILES IDX 14 14 11 15 13 16 15 17 12 18 19 19 20 20 21 21 22 22 23 23
REMARK SMILES IDX 84 24 24 25 83 26 25 27 26 28 27 29 77 30 28 31 82 32 76 33
REMARK SMILES IDX 78 34 29 35 81 36 75 37 74 38 30 40 62 41 42 42 61 43 43 44
REMARK SMILES IDX 46 45 60 46 79 47 44 48 45 49 59 51 80 52 47 53 31 54 32 55
REMARK SMILES IDX 40 56 33 57 35 58 41 59 34 60 36 61 37 62 38 63 39 64 63 65
REMARK SMILES IDX 64 66 72 67 65 68 67 69 73 70 66 71 68 72 69 73 70 74 71 75
REMARK SMILES IDX 48 76 49 77 57 78 50 79 52 80 58 81 51 82 53 83 54 84 55 85
REMARK SMILES IDX 56 86
REMARK H PARENT 78 39 46 50
REMARK Flexibility Score: inf
ROOT
ATOM      1  C   UNL A   1      37.640  31.399  31.201  1.00  0.00     0.275 C 
ENDROOT
BRANCH   1   2
ATOM      2  C   UNL A   1      38.899  31.520  32.025  1.00  0.00     0.274 C 
BRANCH   2   3
ATOM      3  O   UNL A   1      39.656  30.288  32.068  1.00  0.00    -0.462 OA
BRANCH   3   4
ATOM      4  C   UNL A   1      39.555  29.306  33.002  1.00  0.00     0.311 C 
ATOM      5  O   UNL A   1      38.494  29.147  33.612  1.00  0.00    -0.252 OA
BRANCH   4   6
ATOM      6  C   UNL A   1      40.735  28.409  33.282  1.00  0.00     0.177 C 
BRANCH   6   7
ATOM      7  C   UNL A   1      41.453  28.540  34.598  1.00  0.00     0.034 A 
ATOM      8  C   UNL A   1      41.512  29.711  35.345  1.00  0.00     0.024 A 
ATOM      9  N   UNL A   1      42.290  27.621  35.216  1.00  0.00    -0.318 N 
ATOM     10  C   UNL A   1      42.433  29.522  36.393  1.00  0.00     0.020 A 
ATOM     11  C   UNL A   1      42.919  28.242  36.273  1.00  0.00     0.091 A 
BRANCH   9  12
ATOM     12  C   UNL A   1      42.524  26.282  34.862  1.00  0.00     0.081 A 
ATOM     13  C   UNL A   1      43.590  25.966  34.019  1.00  0.00     0.030 A 
ATOM     14  C   UNL A   1      41.767  25.274  35.458  1.00  0.00     0.147 A 
ATOM     15  C   UNL A   1      43.941  24.628  33.840  1.00  0.00     0.002 A 
ATOM     16  C   UNL A   1      42.138  23.942  35.301  1.00  0.00     0.041 A 
ATOM     17  F   UNL A   1      40.784  25.570  36.321  1.00  0.00    -0.205 F 
ATOM     18  C   UNL A   1      43.236  23.619  34.503  1.00  0.00     0.003 A 
ENDBRANCH   9  12
ENDBRANCH   6   7
ENDBRANCH   4   6
ENDBRANCH   3   4
ENDBRANCH   2   3
ENDBRANCH   1   2
BRANCH   1  19
ATOM     19  O   UNL A   1      38.029  31.013  29.902  1.00  0.00    -0.458 OA
BRANCH  19  20
ATOM     20  C   UNL A   1      37.136  30.287  29.192  1.00  0.00     0.338 C 
ATOM     21  O   UNL A   1      35.951  30.475  29.073  1.00  0.00    -0.246 OA
BRANCH  20  22
ATOM     22  C   UNL A   1      37.870  29.113  28.702  1.00  0.00     0.060 A 
ATOM     23  C   UNL A   1      38.161  28.190  29.703  1.00  0.00     0.016 A 
ATOM     24  C   UNL A   1      38.693  29.329  27.591  1.00  0.00     0.016 A 
ATOM     25  C   UNL A   1      39.453  27.740  29.766  1.00  0.00     0.010 A 
ATOM     26  C   UNL A   1      40.011  29.017  27.740  1.00  0.00     0.010 A 
ATOM     27  C   UNL A   1      40.375  28.235  28.833  1.00  0.00    -0.014 A 
BRANCH  27  28
ATOM     28  C   UNL A   1      41.720  27.688  28.869  1.00  0.00     0.031 A 
ATOM     29  C   UNL A   1      41.618  26.222  28.375  1.00  0.00     0.074 A 
ATOM     30  C   UNL A   1      42.662  28.525  29.413  1.00  0.00     0.049 A 
ATOM     31  N   UNL A   1      42.162  25.150  28.857  1.00  0.00    -0.248 NA
ATOM     32  C   UNL A   1      40.629  25.856  27.308  1.00  0.00     0.031 C 
ATOM     33  C   UNL A   1      42.468  29.960  29.771  1.00  0.00     0.029 A 
ATOM     34  N   UNL A   1      43.971  28.355  29.788  1.00  0.00    -0.354 N 
ATOM     35  C   UNL A   1      41.807  24.081  27.997  1.00  0.00     0.074 A 
ATOM     36  C   UNL A   1      40.716  24.530  27.203  1.00  0.00     0.031 C 
ATOM     37  C   UNL A   1      43.562  30.464  30.394  1.00  0.00     0.029 A 
ATOM     38  C   UNL A   1      44.579  29.433  30.490  1.00  0.00     0.049 A 
ATOM     39  H   UNL A   1      44.464  27.529  29.583  1.00  0.00     0.167 HD
ATOM     40  C   UNL A   1      42.571  22.960  27.859  1.00  0.00     0.034 A 
ATOM     41  C   UNL A   1      45.793  29.439  31.136  1.00  0.00     0.034 A 
ATOM     42  C   UNL A   1      43.734  23.102  28.675  1.00  0.00     0.049 A 
ATOM     43  C   UNL A   1      46.373  28.130  30.804  1.00  0.00     0.074 A 
ATOM     44  C   UNL A   1      43.894  23.067  30.035  1.00  0.00     0.029 A 
ATOM     45  N   UNL A   1      44.774  23.796  28.094  1.00  0.00    -0.354 N 
ATOM     46  N   UNL A   1      46.804  27.793  29.625  1.00  0.00    -0.248 NA
ATOM     47  C   UNL A   1      46.317  27.066  31.813  1.00  0.00     0.031 C 
ATOM     48  C   UNL A   1      44.751  24.159  30.269  1.00  0.00     0.029 A 
ATOM     49  C   UNL A   1      45.303  24.611  29.061  1.00  0.00     0.049 A 
ATOM     50  H   UNL A   1      45.079  23.722  27.161  1.00  0.00     0.167 HD
ATOM     51  C   UNL A   1      46.703  26.425  29.666  1.00  0.00     0.074 A 
ATOM     52  C   UNL A   1      46.743  26.053  31.065  1.00  0.00     0.031 C 
ATOM     53  C   UNL A   1      46.076  25.760  28.657  1.00  0.00     0.034 A 
BRANCH  40  54
ATOM     54  C   UNL A   1      42.568  21.808  26.894  1.00  0.00     0.023 A 
ATOM     55  C   UNL A   1      41.484  20.901  27.058  1.00  0.00     0.012 A 
ATOM     56  C   UNL A   1      43.636  21.401  26.077  1.00  0.00     0.148 A 
ATOM     57  C   UNL A   1      41.507  19.608  26.545  1.00  0.00     0.002 A 
ATOM     58  C   UNL A   1      43.632  20.117  25.522  1.00  0.00     0.091 A 
ATOM     59  F   UNL A   1      44.683  22.216  25.906  1.00  0.00    -0.205 F 
ATOM     60  C   UNL A   1      42.592  19.212  25.787  1.00  0.00     0.022 A 
BRANCH  58  61
ATOM     61  S   UNL A   1      44.942  19.498  24.458  1.00  0.00     0.127 S 
ATOM     62  O   UNL A   1      45.057  18.109  24.897  1.00  0.00    -0.237 OA
ATOM     63  O   UNL A   1      44.348  19.666  23.129  1.00  0.00    -0.237 OA
ATOM     64  O   UNL A   1      46.095  20.351  24.706  1.00  0.00    -0.744 OA
ENDBRANCH  58  61
ENDBRANCH  40  54
BRANCH  41  65
ATOM     65  C   UNL A   1      46.573  30.279  32.133  1.00  0.00     0.023 A 
ATOM     66  C   UNL A   1      47.736  31.002  31.838  1.00  0.00     0.012 A 
ATOM     67  C   UNL A   1      46.057  30.461  33.459  1.00  0.00     0.148 A 
ATOM     68  C   UNL A   1      48.282  31.920  32.769  1.00  0.00     0.002 A 
ATOM     69  C   UNL A   1      46.508  31.460  34.315  1.00  0.00     0.091 A 
ATOM     70  F   UNL A   1      45.121  29.628  33.927  1.00  0.00    -0.205 F 
ATOM     71  C   UNL A   1      47.641  32.189  33.980  1.00  0.00     0.022 A 
BRANCH  69  72
ATOM     72  S   UNL A   1      45.573  31.956  35.781  1.00  0.00     0.127 S 
ATOM     73  O   UNL A   1      46.318  33.122  36.250  1.00  0.00    -0.237 OA
ATOM     74  O   UNL A   1      44.263  32.257  35.201  1.00  0.00    -0.237 OA
ATOM     75  O   UNL A   1      45.585  30.812  36.684  1.00  0.00    -0.744 OA
ENDBRANCH  69  72
ENDBRANCH  41  65
BRANCH  53  76
ATOM     76  C   UNL A   1      46.043  26.490  27.304  1.00  0.00     0.023 A 
ATOM     77  C   UNL A   1      44.808  27.043  26.911  1.00  0.00     0.012 A 
ATOM     78  C   UNL A   1      47.100  26.582  26.363  1.00  0.00     0.148 A 
ATOM     79  C   UNL A   1      44.621  27.636  25.657  1.00  0.00     0.002 A 
ATOM     80  C   UNL A   1      46.910  27.152  25.095  1.00  0.00     0.091 A 
ATOM     81  F   UNL A   1      48.301  26.131  26.706  1.00  0.00    -0.205 F 
ATOM     82  C   UNL A   1      45.668  27.686  24.746  1.00  0.00     0.022 A 
BRANCH  80  83
ATOM     83  S   UNL A   1      48.175  27.185  23.800  1.00  0.00     0.127 S 
ATOM     84  O   UNL A   1      49.308  27.823  24.477  1.00  0.00    -0.237 OA
ATOM     85  O   UNL A   1      48.371  25.766  23.520  1.00  0.00    -0.237 OA
ATOM     86  O   UNL A   1      47.623  27.974  22.706  1.00  0.00    -0.744 OA
ENDBRANCH  80  83
ENDBRANCH  53  76
ENDBRANCH  27  28
ENDBRANCH  20  22
ENDBRANCH  19  20
ENDBRANCH   1  19
TORSDOF 16
ENDMDL
MODEL 3
REMARK VINA RESULT:     -11.3      1.730      2.542
REMARK SMILES O=C(Cc1cccn1-c1ccccc1F)OCCOC(=O)c1ccc(-c2c3nc(c(-c4cccc(S(=O)(=O)[O-])c4F)c4ccc([nH]4)c(-c4cccc(S(=O)(=O)[O-])c4F)c4nc(c(-c5cccc(S(=O)(=O)[O-])c5F)c5ccc2[nH]5)C=C4)C=C3)cc1
REMARK SMILES IDX 18 1 17 2 16 3 2 4 1 5 3 6 4 7 5 8 8 9 6 10 7 11 9 12 10 13
REMARK SMILES IDX 14 14 11 15 13 16 15 17 12 18 19 19 20 20 21 21 22 22 23 23
REMARK SMILES IDX 84 24 24 25 83 26 25 27 26 28 27 29 77 30 28 31 82 32 76 33
REMARK SMILES IDX 78 34 29 35 81 36 75 37 74 38 30 40 62 41 42 42 61 43 43 44
REMARK SMILES IDX 46 45 60 46 79 47 44 48 45 49 59 51 80 52 47 53 31 54 32 55
REMARK SMILES IDX 40 56 33 57 35 58 41 59 34 60 36 61 37 62 38 63 39 64 63 65
REMARK SMILES IDX 64 66 72 67 65 68 67 69 73 70 66 71 68 72 69 73 70 74 71 75
REMARK SMILES IDX 48 76 49 77 57 78 50 79 52 80 58 81 51 82 53 83 54 84 55 85
REMARK SMILES IDX 56 86
REMARK H PARENT 78 39 46 50
REMARK Flexibility Score: inf
ROOT
ATOM      1  C   UNL A   1      32.743  32.158  27.266  1.00  0.00     0.275 C 
ENDROOT
BRANCH   1   2
ATOM      2  C   UNL A   1      33.465  30.844  27.098  1.00  0.00     0.274 C 
BRANCH   2   3
ATOM      3  O   UNL A   1      32.645  29.707  27.454  1.00  0.00    -0.462 OA
BRANCH   3   4
ATOM      4  C   UNL A   1      32.820  28.421  27.052  1.00  0.00     0.311 C 
ATOM      5  O   UNL A   1      33.953  28.010  26.791  1.00  0.00    -0.252 OA
BRANCH   4   6
ATOM      6  C   UNL A   1      31.630  27.501  26.933  1.00  0.00     0.177 C 
BRANCH   6   7
ATOM      7  C   UNL A   1      31.302  26.904  25.591  1.00  0.00     0.034 A 
ATOM      8  C   UNL A   1      30.562  27.549  24.606  1.00  0.00     0.024 A 
ATOM      9  N   UNL A   1      31.518  25.605  25.151  1.00  0.00    -0.318 N 
ATOM     10  C   UNL A   1      30.278  26.621  23.586  1.00  0.00     0.020 A 
ATOM     11  C   UNL A   1      30.849  25.429  23.960  1.00  0.00     0.091 A 
BRANCH   9  12
ATOM     12  C   UNL A   1      32.257  24.587  25.776  1.00  0.00     0.081 A 
ATOM     13  C   UNL A   1      33.647  24.569  25.658  1.00  0.00     0.030 A 
ATOM     14  C   UNL A   1      31.603  23.683  26.611  1.00  0.00     0.147 A 
ATOM     15  C   UNL A   1      34.384  23.686  26.446  1.00  0.00     0.002 A 
ATOM     16  C   UNL A   1      32.344  22.823  27.418  1.00  0.00     0.041 A 
ATOM     17  F   UNL A   1      30.274  23.738  26.781  1.00  0.00    -0.205 F 
ATOM     18  C   UNL A   1      33.737  22.835  27.346  1.00  0.00     0.003 A 
ENDBRANCH   9  12
ENDBRANCH   6   7
ENDBRANCH   4   6
ENDBRANCH   3   4
ENDBRANCH   2   3
ENDBRANCH   1   2
BRANCH   1  19
ATOM     19  O   UNL A   1      33.707  33.117  27.636  1.00  0.00    -0.458 OA
BRANCH  19  20
ATOM     20  C   UNL A   1      33.267  34.171  28.361  1.00  0.00     0.338 C 
ATOM     21  O   UNL A   1      32.322  34.886  28.136  1.00  0.00    -0.246 OA
BRANCH  20  22
ATOM     22  C   UNL A   1      34.265  34.378  29.418  1.00  0.00     0.060 A 
ATOM     23  C   UNL A   1      35.525  34.705  28.927  1.00  0.00     0.016 A 
ATOM     24  C   UNL A   1      34.063  33.651  30.597  1.00  0.00     0.016 A 
ATOM     25  C   UNL A   1      36.584  33.999  29.433  1.00  0.00     0.010 A 
ATOM     26  C   UNL A   1      35.079  32.833  30.989  1.00  0.00     0.010 A 
ATOM     27  C   UNL A   1      36.325  33.011  30.394  1.00  0.00    -0.014 A 
BRANCH  27  28
ATOM     28  C   UNL A   1      37.468  32.326  30.972  1.00  0.00     0.031 A 
ATOM     29  C   UNL A   1      37.774  31.117  30.051  1.00  0.00     0.074 A 
ATOM     30  C   UNL A   1      37.884  32.828  32.179  1.00  0.00     0.049 A 
ATOM     31  N   UNL A   1      38.048  29.891  30.365  1.00  0.00    -0.248 NA
ATOM     32  C   UNL A   1      37.568  31.230  28.569  1.00  0.00     0.031 C 
ATOM     33  C   UNL A   1      37.409  34.087  32.823  1.00  0.00     0.029 A 
ATOM     34  N   UNL A   1      38.780  32.394  33.124  1.00  0.00    -0.354 N 
ATOM     35  C   UNL A   1      38.313  29.201  29.156  1.00  0.00     0.074 A 
ATOM     36  C   UNL A   1      37.806  30.006  28.098  1.00  0.00     0.031 C 
ATOM     37  C   UNL A   1      37.934  34.233  34.065  1.00  0.00     0.029 A 
ATOM     38  C   UNL A   1      38.812  33.112  34.351  1.00  0.00     0.049 A 
ATOM     39  H   UNL A   1      39.370  31.623  32.961  1.00  0.00     0.167 HD
ATOM     40  C   UNL A   1      39.116  28.101  29.094  1.00  0.00     0.034 A 
ATOM     41  C   UNL A   1      39.465  32.768  35.511  1.00  0.00     0.034 A 
ATOM     42  C   UNL A   1      39.622  27.836  30.402  1.00  0.00     0.049 A 
ATOM     43  C   UNL A   1      40.236  31.574  35.138  1.00  0.00     0.074 A 
ATOM     44  C   UNL A   1      39.010  27.351  31.528  1.00  0.00     0.029 A 
ATOM     45  N   UNL A   1      40.749  28.551  30.747  1.00  0.00    -0.354 N 
ATOM     46  N   UNL A   1      41.270  31.581  34.350  1.00  0.00    -0.248 NA
ATOM     47  C   UNL A   1      39.722  30.258  35.535  1.00  0.00     0.031 C 
ATOM     48  C   UNL A   1      39.505  28.202  32.535  1.00  0.00     0.029 A 
ATOM     49  C   UNL A   1      40.591  28.946  32.050  1.00  0.00     0.049 A 
ATOM     50  H   UNL A   1      41.522  28.742  30.168  1.00  0.00     0.167 HD
ATOM     51  C   UNL A   1      41.275  30.294  33.876  1.00  0.00     0.074 A 
ATOM     52  C   UNL A   1      40.570  29.494  34.856  1.00  0.00     0.031 C 
ATOM     53  C   UNL A   1      41.363  30.064  32.537  1.00  0.00     0.034 A 
BRANCH  40  54
ATOM     54  C   UNL A   1      39.737  27.325  27.967  1.00  0.00     0.023 A 
ATOM     55  C   UNL A   1      39.308  25.971  27.872  1.00  0.00     0.012 A 
ATOM     56  C   UNL A   1      40.862  27.702  27.215  1.00  0.00     0.148 A 
ATOM     57  C   UNL A   1      40.024  25.007  27.170  1.00  0.00     0.002 A 
ATOM     58  C   UNL A   1      41.551  26.740  26.470  1.00  0.00     0.091 A 
ATOM     59  F   UNL A   1      41.309  28.961  27.285  1.00  0.00    -0.205 F 
ATOM     60  C   UNL A   1      41.157  25.392  26.479  1.00  0.00     0.022 A 
BRANCH  58  61
ATOM     61  S   UNL A   1      42.995  27.115  25.467  1.00  0.00     0.127 S 
ATOM     62  O   UNL A   1      43.318  25.807  24.900  1.00  0.00    -0.237 OA
ATOM     63  O   UNL A   1      42.447  28.074  24.506  1.00  0.00    -0.237 OA
ATOM     64  O   UNL A   1      43.977  27.683  26.379  1.00  0.00    -0.744 OA
ENDBRANCH  58  61
ENDBRANCH  40  54
BRANCH  41  65
ATOM     65  C   UNL A   1      39.497  33.148  36.982  1.00  0.00     0.023 A 
ATOM     66  C   UNL A   1      40.325  34.131  37.540  1.00  0.00     0.012 A 
ATOM     67  C   UNL A   1      38.550  32.559  37.884  1.00  0.00     0.148 A 
ATOM     68  C   UNL A   1      40.146  34.564  38.876  1.00  0.00     0.002 A 
ATOM     69  C   UNL A   1      38.283  33.080  39.145  1.00  0.00     0.091 A 
ATOM     70  F   UNL A   1      37.904  31.442  37.532  1.00  0.00    -0.205 F 
ATOM     71  C   UNL A   1      39.096  34.081  39.659  1.00  0.00     0.022 A 
BRANCH  69  72
ATOM     72  S   UNL A   1      36.807  32.610  40.080  1.00  0.00     0.127 S 
ATOM     73  O   UNL A   1      36.759  33.630  41.125  1.00  0.00    -0.237 OA
ATOM     74  O   UNL A   1      35.767  32.729  39.057  1.00  0.00    -0.237 OA
ATOM     75  O   UNL A   1      37.036  31.251  40.554  1.00  0.00    -0.744 OA
ENDBRANCH  69  72
ENDBRANCH  41  65
BRANCH  53  76
ATOM     76  C   UNL A   1      42.019  31.185  31.715  1.00  0.00     0.023 A 
ATOM     77  C   UNL A   1      41.163  31.980  30.928  1.00  0.00     0.012 A 
ATOM     78  C   UNL A   1      43.408  31.443  31.589  1.00  0.00     0.148 A 
ATOM     79  C   UNL A   1      41.649  32.960  30.054  1.00  0.00     0.002 A 
ATOM     80  C   UNL A   1      43.901  32.406  30.694  1.00  0.00     0.091 A 
ATOM     81  F   UNL A   1      44.256  30.764  32.353  1.00  0.00    -0.205 F 
ATOM     82  C   UNL A   1      43.016  33.170  29.932  1.00  0.00     0.022 A 
BRANCH  80  83
ATOM     83  S   UNL A   1      45.661  32.696  30.387  1.00  0.00     0.127 S 
ATOM     84  O   UNL A   1      46.122  31.390  29.908  1.00  0.00    -0.237 OA
ATOM     85  O   UNL A   1      45.631  33.731  29.359  1.00  0.00    -0.237 OA
ATOM     86  O   UNL A   1      46.241  33.092  31.665  1.00  0.00    -0.744 OA
ENDBRANCH  80  83
ENDBRANCH  53  76
ENDBRANCH  27  28
ENDBRANCH  20  22
ENDBRANCH  19  20
ENDBRANCH   1  19
TORSDOF 16
ENDMDL
