MODEL 1
REMARK VINA RESULT:     -11.8      0.000      0.000
REMARK SMILES C[C@@H](C(=O)OCCOC(=O)c1ccc(-c2c3nc(c(-c4cccc(S(=O)(=O)[O-])c4F)c4ccc([nH]4)c(-c4cccc(S(=O)(=O)[O-])c4F)c4nc(c(-c5cccc(S(=O)(=O)[O-])c5F)c5ccc2[nH]5)C=C4)C=C3)cc1)N1C(=O)/C(=C/c2ccc(N(C)C)cc2)SC1=S
REMARK SMILES IDX 6 1 5 2 3 3 4 4 2 5 1 6 74 7 75 8 89 9 76 10 77 11 88 12
REMARK SMILES IDX 90 13 78 14 79 15 80 16 87 17 81 18 86 19 82 20 83 21 84 22
REMARK SMILES IDX 85 23 7 24 8 25 9 26 10 27 11 28 12 29 73 30 13 31 72 32
REMARK SMILES IDX 14 33 15 34 16 35 66 36 17 37 71 38 65 39 67 40 18 41 70 42
REMARK SMILES IDX 64 43 63 44 19 46 51 47 31 48 50 49 32 50 35 51 49 52 68 53
REMARK SMILES IDX 33 54 34 55 48 57 69 58 36 59 20 60 21 61 29 62 22 63 24 64
REMARK SMILES IDX 30 65 23 66 25 67 26 68 27 69 28 70 52 71 53 72 61 73 54 74
REMARK SMILES IDX 56 75 62 76 55 77 57 78 58 79 59 80 60 81 37 82 38 83 46 84
REMARK SMILES IDX 39 85 41 86 47 87 40 88 42 89 43 90 44 91 45 92
REMARK H PARENT 67 45 35 56
REMARK Flexibility Score: inf
ROOT
ATOM      1  C   UNL A   1      35.310  21.176  25.866  1.00  0.00     0.274 C 
ENDROOT
BRANCH   1   2
ATOM      2  O   UNL A   1      34.017  20.538  25.824  1.00  0.00    -0.461 OA
BRANCH   2   3
ATOM      3  C   UNL A   1      32.933  21.349  25.662  1.00  0.00     0.329 C 
ATOM      4  O   UNL A   1      32.012  21.126  24.884  1.00  0.00    -0.250 OA
BRANCH   3   5
ATOM      5  C   UNL A   1      33.071  22.661  26.451  1.00  0.00     0.199 C 
ATOM      6  C   UNL A   1      32.875  22.506  27.959  1.00  0.00     0.044 C 
BRANCH   5   7
ATOM      7  N   UNL A   1      32.205  23.696  25.837  1.00  0.00    -0.279 N 
ATOM      8  C   UNL A   1      32.756  24.675  25.026  1.00  0.00     0.266 C 
ATOM      9  C   UNL A   1      30.857  23.835  26.113  1.00  0.00     0.149 C 
ATOM     10  O   UNL A   1      33.931  24.741  24.692  1.00  0.00    -0.268 OA
ATOM     11  C   UNL A   1      31.732  25.685  24.635  1.00  0.00     0.081 C 
ATOM     12  S   UNL A   1      30.209  25.238  25.276  1.00  0.00    -0.054 SA
ATOM     13  S   UNL A   1      29.885  22.853  27.051  1.00  0.00    -0.052 S 
ATOM     14  C   UNL A   1      32.059  26.769  23.914  1.00  0.00     0.029 C 
BRANCH  14  15
ATOM     15  C   UNL A   1      31.228  27.927  23.534  1.00  0.00    -0.024 A 
ATOM     16  C   UNL A   1      31.103  28.997  24.421  1.00  0.00     0.010 A 
ATOM     17  C   UNL A   1      30.438  27.950  22.385  1.00  0.00     0.010 A 
ATOM     18  C   UNL A   1      30.250  30.077  24.137  1.00  0.00     0.026 A 
ATOM     19  C   UNL A   1      29.598  29.042  22.106  1.00  0.00     0.026 A 
ATOM     20  C   UNL A   1      29.480  30.144  22.966  1.00  0.00     0.036 A 
BRANCH  20  21
ATOM     21  N   UNL A   1      28.640  31.211  22.686  1.00  0.00    -0.378 N 
ATOM     22  C   UNL A   1      27.644  31.685  23.646  1.00  0.00     0.143 C 
ATOM     23  C   UNL A   1      28.795  32.007  21.478  1.00  0.00     0.143 C 
ENDBRANCH  20  21
ENDBRANCH  14  15
ENDBRANCH   5   7
ENDBRANCH   3   5
ENDBRANCH   2   3
ENDBRANCH   1   2
BRANCH   1  24
ATOM     24  C   UNL A   1      36.304  20.441  24.972  1.00  0.00     0.275 C 
BRANCH  24  25
ATOM     25  O   UNL A   1      37.469  21.262  24.797  1.00  0.00    -0.458 OA
BRANCH  25  26
ATOM     26  C   UNL A   1      38.552  20.926  25.536  1.00  0.00     0.338 C 
ATOM     27  O   UNL A   1      38.998  19.808  25.715  1.00  0.00    -0.246 OA
BRANCH  26  28
ATOM     28  C   UNL A   1      39.119  22.147  26.140  1.00  0.00     0.060 A 
ATOM     29  C   UNL A   1      38.520  23.385  25.919  1.00  0.00     0.016 A 
ATOM     30  C   UNL A   1      40.315  22.070  26.853  1.00  0.00     0.016 A 
ATOM     31  C   UNL A   1      39.177  24.550  26.312  1.00  0.00     0.010 A 
ATOM     32  C   UNL A   1      40.920  23.241  27.330  1.00  0.00     0.010 A 
ATOM     33  C   UNL A   1      40.394  24.504  27.014  1.00  0.00    -0.014 A 
BRANCH  33  34
ATOM     34  C   UNL A   1      41.135  25.767  27.341  1.00  0.00     0.031 A 
ATOM     35  C   UNL A   1      40.511  26.823  28.227  1.00  0.00     0.074 A 
ATOM     36  C   UNL A   1      42.397  25.961  26.903  1.00  0.00     0.049 A 
ATOM     37  N   UNL A   1      40.944  28.027  28.511  1.00  0.00    -0.248 NA
ATOM     38  C   UNL A   1      39.226  26.494  28.867  1.00  0.00     0.031 C 
ATOM     39  C   UNL A   1      43.159  25.027  26.075  1.00  0.00     0.029 A 
ATOM     40  N   UNL A   1      43.277  26.996  27.122  1.00  0.00    -0.354 N 
ATOM     41  C   UNL A   1      39.972  28.609  29.315  1.00  0.00     0.074 A 
ATOM     42  C   UNL A   1      38.909  27.638  29.457  1.00  0.00     0.031 C 
ATOM     43  C   UNL A   1      44.412  25.481  25.933  1.00  0.00     0.029 A 
ATOM     44  C   UNL A   1      44.519  26.793  26.564  1.00  0.00     0.049 A 
ATOM     45  H   UNL A   1      43.041  27.805  27.629  1.00  0.00     0.167 HD
ATOM     46  C   UNL A   1      39.970  29.827  29.910  1.00  0.00     0.034 A 
ATOM     47  C   UNL A   1      45.619  27.573  26.538  1.00  0.00     0.034 A 
ATOM     48  C   UNL A   1      41.063  30.764  29.863  1.00  0.00     0.049 A 
ATOM     49  C   UNL A   1      45.577  28.938  27.167  1.00  0.00     0.074 A 
ATOM     50  C   UNL A   1      41.152  32.006  30.470  1.00  0.00     0.029 A 
ATOM     51  N   UNL A   1      42.266  30.555  29.207  1.00  0.00    -0.354 N 
ATOM     52  N   UNL A   1      44.603  29.517  27.821  1.00  0.00    -0.248 NA
ATOM     53  C   UNL A   1      46.795  29.755  27.059  1.00  0.00     0.031 C 
ATOM     54  C   UNL A   1      42.411  32.545  30.187  1.00  0.00     0.029 A 
ATOM     55  C   UNL A   1      43.117  31.629  29.427  1.00  0.00     0.049 A 
ATOM     56  H   UNL A   1      42.485  29.762  28.666  1.00  0.00     0.167 HD
ATOM     57  C   UNL A   1      45.097  30.748  28.236  1.00  0.00     0.074 A 
ATOM     58  C   UNL A   1      46.462  30.831  27.760  1.00  0.00     0.031 C 
ATOM     59  C   UNL A   1      44.472  31.717  28.949  1.00  0.00     0.034 A 
BRANCH  46  60
ATOM     60  C   UNL A   1      38.758  30.214  30.717  1.00  0.00     0.023 A 
ATOM     61  C   UNL A   1      38.702  29.901  32.090  1.00  0.00     0.012 A 
ATOM     62  C   UNL A   1      37.715  30.962  30.136  1.00  0.00     0.148 A 
ATOM     63  C   UNL A   1      37.616  30.307  32.866  1.00  0.00     0.002 A 
ATOM     64  C   UNL A   1      36.657  31.400  30.925  1.00  0.00     0.091 A 
ATOM     65  F   UNL A   1      37.774  31.231  28.824  1.00  0.00    -0.205 F 
ATOM     66  C   UNL A   1      36.602  31.066  32.288  1.00  0.00     0.022 A 
BRANCH  64  67
ATOM     67  S   UNL A   1      35.356  32.456  30.279  1.00  0.00     0.127 S 
ATOM     68  O   UNL A   1      34.421  32.498  31.402  1.00  0.00    -0.237 OA
ATOM     69  O   UNL A   1      36.064  33.713  30.030  1.00  0.00    -0.237 OA
ATOM     70  O   UNL A   1      34.871  31.793  29.075  1.00  0.00    -0.744 OA
ENDBRANCH  64  67
ENDBRANCH  46  60
BRANCH  47  71
ATOM     71  C   UNL A   1      46.877  27.044  25.932  1.00  0.00     0.023 A 
ATOM     72  C   UNL A   1      47.167  27.330  24.583  1.00  0.00     0.012 A 
ATOM     73  C   UNL A   1      47.822  26.337  26.697  1.00  0.00     0.148 A 
ATOM     74  C   UNL A   1      48.374  26.922  24.011  1.00  0.00     0.002 A 
ATOM     75  C   UNL A   1      49.053  26.003  26.144  1.00  0.00     0.091 A 
ATOM     76  F   UNL A   1      47.519  26.031  27.968  1.00  0.00    -0.205 F 
ATOM     77  C   UNL A   1      49.327  26.279  24.797  1.00  0.00     0.022 A 
BRANCH  75  78
ATOM     78  S   UNL A   1      50.384  25.360  27.165  1.00  0.00     0.127 S 
ATOM     79  O   UNL A   1      50.668  26.493  28.042  1.00  0.00    -0.237 OA
ATOM     80  O   UNL A   1      49.754  24.215  27.822  1.00  0.00    -0.237 OA
ATOM     81  O   UNL A   1      51.434  24.995  26.222  1.00  0.00    -0.744 OA
ENDBRANCH  75  78
ENDBRANCH  47  71
BRANCH  59  82
ATOM     82  C   UNL A   1      45.262  32.958  29.275  1.00  0.00     0.023 A 
ATOM     83  C   UNL A   1      46.070  32.988  30.428  1.00  0.00     0.012 A 
ATOM     84  C   UNL A   1      45.240  34.077  28.419  1.00  0.00     0.148 A 
ATOM     85  C   UNL A   1      46.814  34.125  30.744  1.00  0.00     0.002 A 
ATOM     86  C   UNL A   1      46.013  35.192  28.719  1.00  0.00     0.091 A 
ATOM     87  F   UNL A   1      44.459  34.034  27.331  1.00  0.00    -0.205 F 
ATOM     88  C   UNL A   1      46.792  35.223  29.886  1.00  0.00     0.022 A 
BRANCH  86  89
ATOM     89  S   UNL A   1      46.099  36.625  27.639  1.00  0.00     0.127 S 
ATOM     90  O   UNL A   1      44.765  37.202  27.805  1.00  0.00    -0.237 OA
ATOM     91  O   UNL A   1      47.181  37.403  28.242  1.00  0.00    -0.237 OA
ATOM     92  O   UNL A   1      46.392  36.109  26.309  1.00  0.00    -0.744 OA
ENDBRANCH  86  89
ENDBRANCH  59  82
ENDBRANCH  33  34
ENDBRANCH  26  28
ENDBRANCH  25  26
ENDBRANCH  24  25
ENDBRANCH   1  24
TORSDOF 17
ENDMDL
MODEL 2
REMARK VINA RESULT:     -11.7      5.125     10.415
REMARK SMILES C[C@@H](C(=O)OCCOC(=O)c1ccc(-c2c3nc(c(-c4cccc(S(=O)(=O)[O-])c4F)c4ccc([nH]4)c(-c4cccc(S(=O)(=O)[O-])c4F)c4nc(c(-c5cccc(S(=O)(=O)[O-])c5F)c5ccc2[nH]5)C=C4)C=C3)cc1)N1C(=O)/C(=C/c2ccc(N(C)C)cc2)SC1=S
REMARK SMILES IDX 6 1 5 2 3 3 4 4 2 5 1 6 74 7 75 8 89 9 76 10 77 11 88 12
REMARK SMILES IDX 90 13 78 14 79 15 80 16 87 17 81 18 86 19 82 20 83 21 84 22
REMARK SMILES IDX 85 23 7 24 8 25 9 26 10 27 11 28 12 29 73 30 13 31 72 32
REMARK SMILES IDX 14 33 15 34 16 35 66 36 17 37 71 38 65 39 67 40 18 41 70 42
REMARK SMILES IDX 64 43 63 44 19 46 51 47 31 48 50 49 32 50 35 51 49 52 68 53
REMARK SMILES IDX 33 54 34 55 48 57 69 58 36 59 20 60 21 61 29 62 22 63 24 64
REMARK SMILES IDX 30 65 23 66 25 67 26 68 27 69 28 70 52 71 53 72 61 73 54 74
REMARK SMILES IDX 56 75 62 76 55 77 57 78 58 79 59 80 60 81 37 82 38 83 46 84
REMARK SMILES IDX 39 85 41 86 47 87 40 88 42 89 43 90 44 91 45 92
REMARK H PARENT 67 45 35 56
REMARK Flexibility Score: inf
ROOT
ATOM      1  C   UNL A   1      31.488  29.420  25.716  1.00  0.00     0.274 C 
ENDROOT
BRANCH   1   2
ATOM      2  O   UNL A   1      31.821  29.158  24.336  1.00  0.00    -0.461 OA
BRANCH   2   3
ATOM      3  C   UNL A   1      32.638  28.094  24.089  1.00  0.00     0.329 C 
ATOM      4  O   UNL A   1      33.805  28.018  24.456  1.00  0.00    -0.250 OA
BRANCH   3   5
ATOM      5  C   UNL A   1      31.977  27.063  23.160  1.00  0.00     0.199 C 
ATOM      6  C   UNL A   1      30.551  27.421  22.742  1.00  0.00     0.044 C 
BRANCH   5   7
ATOM      7  N   UNL A   1      32.106  25.712  23.756  1.00  0.00    -0.279 N 
ATOM      8  C   UNL A   1      33.056  24.825  23.276  1.00  0.00     0.266 C 
ATOM      9  C   UNL A   1      31.244  25.207  24.712  1.00  0.00     0.149 C 
ATOM     10  O   UNL A   1      33.886  25.073  22.413  1.00  0.00    -0.268 OA
ATOM     11  C   UNL A   1      32.915  23.488  23.920  1.00  0.00     0.081 C 
ATOM     12  S   UNL A   1      31.662  23.540  25.086  1.00  0.00    -0.054 SA
ATOM     13  S   UNL A   1      29.989  25.986  25.491  1.00  0.00    -0.052 S 
ATOM     14  C   UNL A   1      33.680  22.449  23.551  1.00  0.00     0.029 C 
BRANCH  14  15
ATOM     15  C   UNL A   1      33.614  21.039  23.976  1.00  0.00    -0.024 A 
ATOM     16  C   UNL A   1      34.715  20.467  24.615  1.00  0.00     0.010 A 
ATOM     17  C   UNL A   1      32.554  20.194  23.646  1.00  0.00     0.010 A 
ATOM     18  C   UNL A   1      34.728  19.104  24.955  1.00  0.00     0.026 A 
ATOM     19  C   UNL A   1      32.574  18.835  24.002  1.00  0.00     0.026 A 
ATOM     20  C   UNL A   1      33.655  18.244  24.674  1.00  0.00     0.036 A 
BRANCH  20  21
ATOM     21  N   UNL A   1      33.668  16.900  25.011  1.00  0.00    -0.378 N 
ATOM     22  C   UNL A   1      34.914  16.147  25.144  1.00  0.00     0.143 C 
ATOM     23  C   UNL A   1      32.451  16.196  25.387  1.00  0.00     0.143 C 
ENDBRANCH  20  21
ENDBRANCH  14  15
ENDBRANCH   5   7
ENDBRANCH   3   5
ENDBRANCH   2   3
ENDBRANCH   1   2
BRANCH   1  24
ATOM     24  C   UNL A   1      31.943  30.817  26.124  1.00  0.00     0.275 C 
BRANCH  24  25
ATOM     25  O   UNL A   1      32.750  30.717  27.307  1.00  0.00    -0.458 OA
BRANCH  25  26
ATOM     26  C   UNL A   1      33.536  31.784  27.585  1.00  0.00     0.338 C 
ATOM     27  O   UNL A   1      33.237  32.960  27.489  1.00  0.00    -0.246 OA
BRANCH  26  28
ATOM     28  C   UNL A   1      34.867  31.304  28.005  1.00  0.00     0.060 A 
ATOM     29  C   UNL A   1      35.079  29.951  28.258  1.00  0.00     0.016 A 
ATOM     30  C   UNL A   1      35.887  32.225  28.245  1.00  0.00     0.016 A 
ATOM     31  C   UNL A   1      36.268  29.538  28.856  1.00  0.00     0.010 A 
ATOM     32  C   UNL A   1      37.116  31.788  28.757  1.00  0.00     0.010 A 
ATOM     33  C   UNL A   1      37.306  30.446  29.129  1.00  0.00    -0.014 A 
BRANCH  33  34
ATOM     34  C   UNL A   1      38.537  30.003  29.862  1.00  0.00     0.031 A 
ATOM     35  C   UNL A   1      39.534  29.071  29.208  1.00  0.00     0.074 A 
ATOM     36  C   UNL A   1      38.813  30.471  31.097  1.00  0.00     0.049 A 
ATOM     37  N   UNL A   1      40.581  28.481  29.729  1.00  0.00    -0.248 NA
ATOM     38  C   UNL A   1      39.322  28.746  27.787  1.00  0.00     0.031 C 
ATOM     39  C   UNL A   1      37.980  31.406  31.853  1.00  0.00     0.029 A 
ATOM     40  N   UNL A   1      39.891  30.254  31.924  1.00  0.00    -0.354 N 
ATOM     41  C   UNL A   1      41.119  27.686  28.724  1.00  0.00     0.074 A 
ATOM     42  C   UNL A   1      40.270  27.846  27.564  1.00  0.00     0.031 C 
ATOM     43  C   UNL A   1      38.615  31.751  32.982  1.00  0.00     0.029 A 
ATOM     44  C   UNL A   1      39.850  30.982  33.090  1.00  0.00     0.049 A 
ATOM     45  H   UNL A   1      40.623  29.634  31.702  1.00  0.00     0.167 HD
ATOM     46  C   UNL A   1      42.234  26.915  28.746  1.00  0.00     0.034 A 
ATOM     47  C   UNL A   1      40.692  31.021  34.144  1.00  0.00     0.034 A 
ATOM     48  C   UNL A   1      43.145  26.825  29.858  1.00  0.00     0.049 A 
ATOM     49  C   UNL A   1      41.898  30.124  34.163  1.00  0.00     0.074 A 
ATOM     50  C   UNL A   1      44.317  26.092  29.946  1.00  0.00     0.029 A 
ATOM     51  N   UNL A   1      43.013  27.508  31.057  1.00  0.00    -0.354 N 
ATOM     52  N   UNL A   1      42.324  29.290  33.249  1.00  0.00    -0.248 NA
ATOM     53  C   UNL A   1      42.747  30.181  35.364  1.00  0.00     0.031 C 
ATOM     54  C   UNL A   1      44.899  26.337  31.194  1.00  0.00     0.029 A 
ATOM     55  C   UNL A   1      44.103  27.244  31.873  1.00  0.00     0.049 A 
ATOM     56  H   UNL A   1      42.259  28.095  31.293  1.00  0.00     0.167 HD
ATOM     57  C   UNL A   1      43.505  28.750  33.741  1.00  0.00     0.074 A 
ATOM     58  C   UNL A   1      43.732  29.355  35.038  1.00  0.00     0.031 C 
ATOM     59  C   UNL A   1      44.327  27.838  33.166  1.00  0.00     0.034 A 
BRANCH  46  60
ATOM     60  C   UNL A   1      42.572  26.131  27.505  1.00  0.00     0.023 A 
ATOM     61  C   UNL A   1      43.348  26.726  26.490  1.00  0.00     0.012 A 
ATOM     62  C   UNL A   1      42.195  24.779  27.382  1.00  0.00     0.148 A 
ATOM     63  C   UNL A   1      43.724  25.995  25.364  1.00  0.00     0.002 A 
ATOM     64  C   UNL A   1      42.609  24.044  26.277  1.00  0.00     0.091 A 
ATOM     65  F   UNL A   1      41.436  24.236  28.346  1.00  0.00    -0.205 F 
ATOM     66  C   UNL A   1      43.366  24.653  25.263  1.00  0.00     0.022 A 
BRANCH  64  67
ATOM     67  S   UNL A   1      42.266  22.289  26.113  1.00  0.00     0.127 S 
ATOM     68  O   UNL A   1      42.808  21.762  27.364  1.00  0.00    -0.237 OA
ATOM     69  O   UNL A   1      40.805  22.260  26.024  1.00  0.00    -0.237 OA
ATOM     70  O   UNL A   1      42.950  21.865  24.899  1.00  0.00    -0.744 OA
ENDBRANCH  64  67
ENDBRANCH  46  60
BRANCH  47  71
ATOM     71  C   UNL A   1      40.440  31.996  35.247  1.00  0.00     0.023 A 
ATOM     72  C   UNL A   1      41.152  33.211  35.271  1.00  0.00     0.012 A 
ATOM     73  C   UNL A   1      39.447  31.768  36.216  1.00  0.00     0.148 A 
ATOM     74  C   UNL A   1      40.878  34.179  36.240  1.00  0.00     0.002 A 
ATOM     75  C   UNL A   1      39.125  32.767  37.128  1.00  0.00     0.091 A 
ATOM     76  F   UNL A   1      38.803  30.591  36.212  1.00  0.00    -0.205 F 
ATOM     77  C   UNL A   1      39.850  33.967  37.154  1.00  0.00     0.022 A 
BRANCH  75  78
ATOM     78  S   UNL A   1      37.681  32.625  38.187  1.00  0.00     0.127 S 
ATOM     79  O   UNL A   1      37.969  33.609  39.226  1.00  0.00    -0.237 OA
ATOM     80  O   UNL A   1      36.589  32.985  37.283  1.00  0.00    -0.237 OA
ATOM     81  O   UNL A   1      37.663  31.229  38.606  1.00  0.00    -0.744 OA
ENDBRANCH  75  78
ENDBRANCH  47  71
BRANCH  59  82
ATOM     82  C   UNL A   1      45.564  27.439  33.928  1.00  0.00     0.023 A 
ATOM     83  C   UNL A   1      46.748  28.185  33.774  1.00  0.00     0.012 A 
ATOM     84  C   UNL A   1      45.543  26.354  34.827  1.00  0.00     0.148 A 
ATOM     85  C   UNL A   1      47.903  27.835  34.476  1.00  0.00     0.002 A 
ATOM     86  C   UNL A   1      46.685  26.035  35.552  1.00  0.00     0.091 A 
ATOM     87  F   UNL A   1      44.410  25.649  34.953  1.00  0.00    -0.205 F 
ATOM     88  C   UNL A   1      47.869  26.766  35.370  1.00  0.00     0.022 A 
BRANCH  86  89
ATOM     89  S   UNL A   1      46.716  24.718  36.773  1.00  0.00     0.127 S 
ATOM     90  O   UNL A   1      45.412  24.879  37.416  1.00  0.00    -0.237 OA
ATOM     91  O   UNL A   1      46.841  23.523  35.937  1.00  0.00    -0.237 OA
ATOM     92  O   UNL A   1      47.866  24.986  37.625  1.00  0.00    -0.744 OA
ENDBRANCH  86  89
ENDBRANCH  59  82
ENDBRANCH  33  34
ENDBRANCH  26  28
ENDBRANCH  25  26
ENDBRANCH  24  25
ENDBRANCH   1  24
TORSDOF 17
ENDMDL
MODEL 3
REMARK VINA RESULT:     -11.6      1.671      7.647
REMARK SMILES C[C@@H](C(=O)OCCOC(=O)c1ccc(-c2c3nc(c(-c4cccc(S(=O)(=O)[O-])c4F)c4ccc([nH]4)c(-c4cccc(S(=O)(=O)[O-])c4F)c4nc(c(-c5cccc(S(=O)(=O)[O-])c5F)c5ccc2[nH]5)C=C4)C=C3)cc1)N1C(=O)/C(=C/c2ccc(N(C)C)cc2)SC1=S
REMARK SMILES IDX 6 1 5 2 3 3 4 4 2 5 1 6 74 7 75 8 89 9 76 10 77 11 88 12
REMARK SMILES IDX 90 13 78 14 79 15 80 16 87 17 81 18 86 19 82 20 83 21 84 22
REMARK SMILES IDX 85 23 7 24 8 25 9 26 10 27 11 28 12 29 73 30 13 31 72 32
REMARK SMILES IDX 14 33 15 34 16 35 66 36 17 37 71 38 65 39 67 40 18 41 70 42
REMARK SMILES IDX 64 43 63 44 19 46 51 47 31 48 50 49 32 50 35 51 49 52 68 53
REMARK SMILES IDX 33 54 34 55 48 57 69 58 36 59 20 60 21 61 29 62 22 63 24 64
REMARK SMILES IDX 30 65 23 66 25 67 26 68 27 69 28 70 52 71 53 72 61 73 54 74
REMARK SMILES IDX 56 75 62 76 55 77 57 78 58 79 59 80 60 81 37 82 38 83 46 84
REMARK SMILES IDX 39 85 41 86 47 87 40 88 42 89 43 90 44 91 45 92
REMARK H PARENT 67 45 35 56
REMARK Flexibility Score: inf
ROOT
ATOM      1  C   UNL A   1      36.086  20.068  25.000  1.00  0.00     0.274 C 
ENDROOT
BRANCH   1   2
ATOM      2  O   UNL A   1      35.424  21.016  25.864  1.00  0.00    -0.461 OA
BRANCH   2   3
ATOM      3  C   UNL A   1      34.583  21.910  25.270  1.00  0.00     0.329 C 
ATOM      4  O   UNL A   1      34.288  21.898  24.080  1.00  0.00    -0.250 OA
BRANCH   3   5
ATOM      5  C   UNL A   1      34.168  23.037  26.230  1.00  0.00     0.199 C 
ATOM      6  C   UNL A   1      33.733  22.552  27.612  1.00  0.00     0.044 C 
BRANCH   5   7
ATOM      7  N   UNL A   1      33.175  23.911  25.559  1.00  0.00    -0.279 N 
ATOM      8  C   UNL A   1      33.547  25.164  25.099  1.00  0.00     0.266 C 
ATOM      9  C   UNL A   1      31.830  23.610  25.458  1.00  0.00     0.149 C 
ATOM     10  O   UNL A   1      34.679  25.624  25.128  1.00  0.00    -0.268 OA
ATOM     11  C   UNL A   1      32.366  25.919  24.591  1.00  0.00     0.081 C 
ATOM     12  S   UNL A   1      30.967  24.938  24.695  1.00  0.00    -0.054 SA
ATOM     13  S   UNL A   1      31.044  22.210  25.919  1.00  0.00    -0.052 S 
ATOM     14  C   UNL A   1      32.476  27.188  24.168  1.00  0.00     0.029 C 
BRANCH  14  15
ATOM     15  C   UNL A   1      31.423  28.131  23.748  1.00  0.00    -0.024 A 
ATOM     16  C   UNL A   1      30.858  28.000  22.479  1.00  0.00     0.010 A 
ATOM     17  C   UNL A   1      31.055  29.244  24.502  1.00  0.00     0.010 A 
ATOM     18  C   UNL A   1      29.918  28.931  22.005  1.00  0.00     0.026 A 
ATOM     19  C   UNL A   1      30.105  30.162  24.022  1.00  0.00     0.026 A 
ATOM     20  C   UNL A   1      29.498  30.034  22.764  1.00  0.00     0.036 A 
BRANCH  20  21
ATOM     21  N   UNL A   1      28.570  30.951  22.296  1.00  0.00    -0.378 N 
ATOM     22  C   UNL A   1      28.028  30.882  20.940  1.00  0.00     0.143 C 
ATOM     23  C   UNL A   1      27.977  31.950  23.173  1.00  0.00     0.143 C 
ENDBRANCH  20  21
ENDBRANCH  14  15
ENDBRANCH   5   7
ENDBRANCH   3   5
ENDBRANCH   2   3
ENDBRANCH   1   2
BRANCH   1  24
ATOM     24  C   UNL A   1      37.546  20.456  24.791  1.00  0.00     0.275 C 
BRANCH  24  25
ATOM     25  O   UNL A   1      37.967  21.292  25.879  1.00  0.00    -0.458 OA
BRANCH  25  26
ATOM     26  C   UNL A   1      39.293  21.297  26.149  1.00  0.00     0.338 C 
ATOM     27  O   UNL A   1      40.088  20.400  25.934  1.00  0.00    -0.246 OA
BRANCH  26  28
ATOM     28  C   UNL A   1      39.649  22.576  26.794  1.00  0.00     0.060 A 
ATOM     29  C   UNL A   1      38.937  23.735  26.495  1.00  0.00     0.016 A 
ATOM     30  C   UNL A   1      40.763  22.639  27.630  1.00  0.00     0.016 A 
ATOM     31  C   UNL A   1      39.410  24.969  26.939  1.00  0.00     0.010 A 
ATOM     32  C   UNL A   1      41.175  23.873  28.152  1.00  0.00     0.010 A 
ATOM     33  C   UNL A   1      40.543  25.066  27.765  1.00  0.00    -0.014 A 
BRANCH  33  34
ATOM     34  C   UNL A   1      41.094  26.407  28.152  1.00  0.00     0.031 A 
ATOM     35  C   UNL A   1      42.518  26.786  27.807  1.00  0.00     0.074 A 
ATOM     36  C   UNL A   1      40.316  27.325  28.762  1.00  0.00     0.049 A 
ATOM     37  N   UNL A   1      43.205  27.841  28.170  1.00  0.00    -0.248 NA
ATOM     38  C   UNL A   1      43.277  25.855  26.954  1.00  0.00     0.031 C 
ATOM     39  C   UNL A   1      38.912  27.136  29.128  1.00  0.00     0.029 A 
ATOM     40  N   UNL A   1      40.583  28.618  29.151  1.00  0.00    -0.354 N 
ATOM     41  C   UNL A   1      44.477  27.678  27.637  1.00  0.00     0.074 A 
ATOM     42  C   UNL A   1      44.481  26.410  26.942  1.00  0.00     0.031 C 
ATOM     43  C   UNL A   1      38.419  28.289  29.600  1.00  0.00     0.029 A 
ATOM     44  C   UNL A   1      39.494  29.274  29.676  1.00  0.00     0.049 A 
ATOM     45  H   UNL A   1      41.471  29.033  29.062  1.00  0.00     0.167 HD
ATOM     46  C   UNL A   1      45.541  28.517  27.688  1.00  0.00     0.034 A 
ATOM     47  C   UNL A   1      39.365  30.518  30.183  1.00  0.00     0.034 A 
ATOM     48  C   UNL A   1      45.523  29.827  28.286  1.00  0.00     0.049 A 
ATOM     49  C   UNL A   1      40.570  31.412  30.269  1.00  0.00     0.074 A 
ATOM     50  C   UNL A   1      46.552  30.753  28.349  1.00  0.00     0.029 A 
ATOM     51  N   UNL A   1      44.423  30.414  28.891  1.00  0.00    -0.354 N 
ATOM     52  N   UNL A   1      41.795  31.191  29.865  1.00  0.00    -0.248 NA
ATOM     53  C   UNL A   1      40.370  32.736  30.879  1.00  0.00     0.031 C 
ATOM     54  C   UNL A   1      46.072  31.903  28.985  1.00  0.00     0.029 A 
ATOM     55  C   UNL A   1      44.737  31.704  29.294  1.00  0.00     0.049 A 
ATOM     56  H   UNL A   1      43.547  29.980  29.015  1.00  0.00     0.167 HD
ATOM     57  C   UNL A   1      42.505  32.355  30.134  1.00  0.00     0.074 A 
ATOM     58  C   UNL A   1      41.569  33.284  30.735  1.00  0.00     0.031 C 
ATOM     59  C   UNL A   1      43.811  32.626  29.899  1.00  0.00     0.034 A 
BRANCH  46  60
ATOM     60  C   UNL A   1      46.822  28.070  27.034  1.00  0.00     0.023 A 
ATOM     61  C   UNL A   1      47.866  27.545  27.824  1.00  0.00     0.012 A 
ATOM     62  C   UNL A   1      46.960  28.088  25.632  1.00  0.00     0.148 A 
ATOM     63  C   UNL A   1      49.033  27.068  27.229  1.00  0.00     0.002 A 
ATOM     64  C   UNL A   1      48.109  27.571  25.044  1.00  0.00     0.091 A 
ATOM     65  F   UNL A   1      45.968  28.613  24.898  1.00  0.00    -0.205 F 
ATOM     66  C   UNL A   1      49.150  27.068  25.842  1.00  0.00     0.022 A 
BRANCH  64  67
ATOM     67  S   UNL A   1      48.301  27.454  23.262  1.00  0.00     0.127 S 
ATOM     68  O   UNL A   1      47.153  28.225  22.788  1.00  0.00    -0.237 OA
ATOM     69  O   UNL A   1      49.598  28.097  23.042  1.00  0.00    -0.237 OA
ATOM     70  O   UNL A   1      48.278  26.030  22.956  1.00  0.00    -0.744 OA
ENDBRANCH  64  67
ENDBRANCH  46  60
BRANCH  47  71
ATOM     71  C   UNL A   1      38.015  31.002  30.599  1.00  0.00     0.023 A 
ATOM     72  C   UNL A   1      37.655  30.958  31.960  1.00  0.00     0.012 A 
ATOM     73  C   UNL A   1      37.125  31.581  29.677  1.00  0.00     0.148 A 
ATOM     74  C   UNL A   1      36.435  31.480  32.392  1.00  0.00     0.002 A 
ATOM     75  C   UNL A   1      35.948  32.170  30.125  1.00  0.00     0.091 A 
ATOM     76  F   UNL A   1      37.457  31.580  28.377  1.00  0.00    -0.205 F 
ATOM     77  C   UNL A   1      35.591  32.107  31.479  1.00  0.00     0.022 A 
BRANCH  75  78
ATOM     78  S   UNL A   1      34.932  33.163  29.025  1.00  0.00     0.127 S 
ATOM     79  O   UNL A   1      34.399  32.155  28.113  1.00  0.00    -0.237 OA
ATOM     80  O   UNL A   1      33.952  33.746  29.941  1.00  0.00    -0.237 OA
ATOM     81  O   UNL A   1      35.851  34.136  28.447  1.00  0.00    -0.744 OA
ENDBRANCH  75  78
ENDBRANCH  47  71
BRANCH  59  82
ATOM     82  C   UNL A   1      44.317  33.993  30.282  1.00  0.00     0.023 A 
ATOM     83  C   UNL A   1      44.924  34.186  31.538  1.00  0.00     0.012 A 
ATOM     84  C   UNL A   1      44.231  35.076  29.383  1.00  0.00     0.148 A 
ATOM     85  C   UNL A   1      45.405  35.443  31.908  1.00  0.00     0.002 A 
ATOM     86  C   UNL A   1      44.747  36.315  29.743  1.00  0.00     0.091 A 
ATOM     87  F   UNL A   1      43.643  34.876  28.196  1.00  0.00    -0.205 F 
ATOM     88  C   UNL A   1      45.324  36.504  31.008  1.00  0.00     0.022 A 
BRANCH  86  89
ATOM     89  S   UNL A   1      44.746  37.721  28.624  1.00  0.00     0.127 S 
ATOM     90  O   UNL A   1      45.561  38.687  29.362  1.00  0.00    -0.237 OA
ATOM     91  O   UNL A   1      45.387  37.167  27.431  1.00  0.00    -0.237 OA
ATOM     92  O   UNL A   1      43.350  38.093  28.447  1.00  0.00    -0.744 OA
ENDBRANCH  86  89
ENDBRANCH  59  82
ENDBRANCH  33  34
ENDBRANCH  26  28
ENDBRANCH  25  26
ENDBRANCH  24  25
ENDBRANCH   1  24
TORSDOF 17
ENDMDL
