MODEL 1
REMARK VINA RESULT:     -12.3      0.000      0.000
REMARK SMILES CC1(C)CCC[C@H]1NC(=O)N[C@@H]1COC[C@@]1(C)C(=O)OCCOC(=O)c1ccc(-c2c3nc(c(-c4cccc(S(=O)(=O)[O-])c4F)c4ccc([nH]4)c(-c4cccc(S(=O)(=O)[O-])c4F)c4nc(c(-c5cccc(S(=O)(=O)[O-])c5F)c5ccc2[nH]5)C=C4)C=C3)cc1
REMARK SMILES IDX 22 1 21 2 20 3 18 4 19 5 16 6 12 7 13 8 14 9 15 10 17 11
REMARK SMILES IDX 11 12 8 13 9 14 10 16 7 18 1 19 2 20 3 21 4 22 5 23 6 24
REMARK SMILES IDX 23 25 24 26 25 27 26 28 27 29 88 30 28 31 87 32 29 33 30 34
REMARK SMILES IDX 31 35 81 36 32 37 86 38 80 39 82 40 33 41 85 42 79 43 78 44
REMARK SMILES IDX 34 46 66 47 46 48 65 49 47 50 50 51 64 52 83 53 48 54 49 55
REMARK SMILES IDX 63 57 84 58 51 59 35 60 36 61 44 62 37 63 39 64 45 65 38 66
REMARK SMILES IDX 40 67 41 68 42 69 43 70 67 71 68 72 76 73 69 74 71 75 77 76
REMARK SMILES IDX 70 77 72 78 73 79 74 80 75 81 52 82 53 83 61 84 54 85 56 86
REMARK SMILES IDX 62 87 55 88 57 89 58 90 59 91 60 92
REMARK H PARENT 8 15 11 17 82 45 50 56
REMARK Flexibility Score: inf
ROOT
ATOM      1  C   UNL A   1      36.130  21.288  24.610  1.00  0.00     0.275 C 
ENDROOT
BRANCH   1   2
ATOM      2  C   UNL A   1      34.854  20.533  25.016  1.00  0.00     0.274 C 
BRANCH   2   3
ATOM      3  O   UNL A   1      33.710  21.407  24.881  1.00  0.00    -0.462 OA
BRANCH   3   4
ATOM      4  C   UNL A   1      33.342  22.134  25.977  1.00  0.00     0.316 C 
ATOM      5  O   UNL A   1      33.397  21.710  27.121  1.00  0.00    -0.251 OA
BRANCH   4   6
ATOM      6  C   UNL A   1      32.937  23.564  25.578  1.00  0.00     0.111 C 
ATOM      7  C   UNL A   1      32.353  23.673  24.167  1.00  0.00     0.129 C 
ATOM      8  C   UNL A   1      30.881  24.037  24.339  1.00  0.00     0.186 C 
ATOM      9  O   UNL A   1      30.754  24.614  25.631  1.00  0.00    -0.378 OA
ATOM     10  C   UNL A   1      31.755  24.007  26.456  1.00  0.00     0.181 C 
ATOM     11  C   UNL A   1      34.173  24.429  25.807  1.00  0.00     0.028 C 
BRANCH   7  12
ATOM     12  N   UNL A   1      33.046  24.525  23.177  1.00  0.00    -0.332 N 
ATOM     13  N   UNL A   1      32.759  26.902  23.364  1.00  0.00    -0.335 N 
ATOM     14  C   UNL A   1      33.221  25.789  22.800  1.00  0.00     0.315 C 
ATOM     15  H   UNL A   1      33.125  27.697  22.913  1.00  0.00     0.165 HD
ATOM     16  O   UNL A   1      33.929  25.944  21.796  1.00  0.00    -0.249 OA
ATOM     17  H   UNL A   1      33.570  23.945  22.578  1.00  0.00     0.165 HD
BRANCH  13  18
ATOM     18  C   UNL A   1      31.867  27.292  24.457  1.00  0.00     0.089 C 
ATOM     19  C   UNL A   1      34.081  28.025  25.759  1.00  0.00     0.013 C 
ATOM     20  C   UNL A   1      32.555  28.156  25.581  1.00  0.00    -0.015 C 
ATOM     21  C   UNL A   1      31.892  27.857  26.947  1.00  0.00     0.013 C 
ATOM     22  C   UNL A   1      32.244  29.593  25.139  1.00  0.00     0.008 C 
ATOM     23  C   UNL A   1      30.827  29.528  24.605  1.00  0.00     0.003 C 
ATOM     24  C   UNL A   1      30.726  28.175  23.908  1.00  0.00     0.025 C 
ENDBRANCH  13  18
ENDBRANCH   7  12
ENDBRANCH   4   6
ENDBRANCH   3   4
ENDBRANCH   2   3
ENDBRANCH   1   2
BRANCH   1  25
ATOM     25  O   UNL A   1      36.889  21.559  25.800  1.00  0.00    -0.458 OA
BRANCH  25  26
ATOM     26  C   UNL A   1      38.222  21.326  25.746  1.00  0.00     0.338 C 
ATOM     27  O   UNL A   1      38.765  20.322  25.297  1.00  0.00    -0.246 OA
BRANCH  26  28
ATOM     28  C   UNL A   1      38.941  22.498  26.305  1.00  0.00     0.060 A 
ATOM     29  C   UNL A   1      40.051  22.309  27.129  1.00  0.00     0.016 A 
ATOM     30  C   UNL A   1      38.516  23.797  26.034  1.00  0.00     0.016 A 
ATOM     31  C   UNL A   1      40.689  23.384  27.742  1.00  0.00     0.010 A 
ATOM     32  C   UNL A   1      39.250  24.885  26.534  1.00  0.00     0.010 A 
ATOM     33  C   UNL A   1      40.346  24.693  27.398  1.00  0.00    -0.014 A 
BRANCH  33  34
ATOM     34  C   UNL A   1      41.155  25.854  27.881  1.00  0.00     0.031 A 
ATOM     35  C   UNL A   1      40.511  26.929  28.716  1.00  0.00     0.074 A 
ATOM     36  C   UNL A   1      42.447  25.993  27.509  1.00  0.00     0.049 A 
ATOM     37  N   UNL A   1      40.929  28.141  28.970  1.00  0.00    -0.248 NA
ATOM     38  C   UNL A   1      39.211  26.603  29.326  1.00  0.00     0.031 C 
ATOM     39  C   UNL A   1      43.220  25.027  26.723  1.00  0.00     0.029 A 
ATOM     40  N   UNL A   1      43.335  27.025  27.714  1.00  0.00    -0.354 N 
ATOM     41  C   UNL A   1      39.905  28.756  29.682  1.00  0.00     0.074 A 
ATOM     42  C   UNL A   1      38.856  27.771  29.845  1.00  0.00     0.031 C 
ATOM     43  C   UNL A   1      44.456  25.500  26.521  1.00  0.00     0.029 A 
ATOM     44  C   UNL A   1      44.539  26.849  27.064  1.00  0.00     0.049 A 
ATOM     45  H   UNL A   1      43.131  27.811  28.269  1.00  0.00     0.167 HD
ATOM     46  C   UNL A   1      39.845  30.024  30.154  1.00  0.00     0.034 A 
ATOM     47  C   UNL A   1      45.570  27.692  26.859  1.00  0.00     0.034 A 
ATOM     48  C   UNL A   1      40.928  30.968  30.062  1.00  0.00     0.049 A 
ATOM     49  C   UNL A   1      45.486  29.090  27.400  1.00  0.00     0.074 A 
ATOM     50  C   UNL A   1      40.984  32.261  30.551  1.00  0.00     0.029 A 
ATOM     51  N   UNL A   1      42.149  30.717  29.456  1.00  0.00    -0.354 N 
ATOM     52  N   UNL A   1      44.520  29.647  28.090  1.00  0.00    -0.248 NA
ATOM     53  C   UNL A   1      46.630  29.974  27.144  1.00  0.00     0.031 C 
ATOM     54  C   UNL A   1      42.236  32.796  30.231  1.00  0.00     0.029 A 
ATOM     55  C   UNL A   1      42.967  31.828  29.560  1.00  0.00     0.049 A 
ATOM     56  H   UNL A   1      42.397  29.872  29.016  1.00  0.00     0.167 HD
ATOM     57  C   UNL A   1      44.953  30.936  28.376  1.00  0.00     0.074 A 
ATOM     58  C   UNL A   1      46.276  31.072  27.799  1.00  0.00     0.031 C 
ATOM     59  C   UNL A   1      44.306  31.924  29.040  1.00  0.00     0.034 A 
BRANCH  46  60
ATOM     60  C   UNL A   1      38.574  30.470  30.828  1.00  0.00     0.023 A 
ATOM     61  C   UNL A   1      38.405  30.278  32.212  1.00  0.00     0.012 A 
ATOM     62  C   UNL A   1      37.573  31.141  30.095  1.00  0.00     0.148 A 
ATOM     63  C   UNL A   1      37.247  30.718  32.853  1.00  0.00     0.002 A 
ATOM     64  C   UNL A   1      36.440  31.613  30.748  1.00  0.00     0.091 A 
ATOM     65  F   UNL A   1      37.741  31.296  28.774  1.00  0.00    -0.205 F 
ATOM     66  C   UNL A   1      36.270  31.394  32.125  1.00  0.00     0.022 A 
BRANCH  64  67
ATOM     67  S   UNL A   1      35.167  32.564  29.909  1.00  0.00     0.127 S 
ATOM     68  O   UNL A   1      34.232  32.833  31.000  1.00  0.00    -0.237 OA
ATOM     69  O   UNL A   1      35.912  33.736  29.443  1.00  0.00    -0.237 OA
ATOM     70  O   UNL A   1      34.663  31.708  28.846  1.00  0.00    -0.744 OA
ENDBRANCH  64  67
ENDBRANCH  46  60
BRANCH  47  71
ATOM     71  C   UNL A   1      46.767  27.230  26.097  1.00  0.00     0.023 A 
ATOM     72  C   UNL A   1      46.845  27.482  24.714  1.00  0.00     0.012 A 
ATOM     73  C   UNL A   1      47.849  26.594  26.739  1.00  0.00     0.148 A 
ATOM     74  C   UNL A   1      47.968  27.095  23.982  1.00  0.00     0.002 A 
ATOM     75  C   UNL A   1      48.991  26.268  26.017  1.00  0.00     0.091 A 
ATOM     76  F   UNL A   1      47.749  26.340  28.052  1.00  0.00    -0.205 F 
ATOM     77  C   UNL A   1      49.046  26.503  24.635  1.00  0.00     0.022 A 
BRANCH  75  78
ATOM     78  S   UNL A   1      50.479  25.644  26.807  1.00  0.00     0.127 S 
ATOM     79  O   UNL A   1      51.391  25.518  25.674  1.00  0.00    -0.237 OA
ATOM     80  O   UNL A   1      50.803  26.721  27.743  1.00  0.00    -0.237 OA
ATOM     81  O   UNL A   1      50.085  24.396  27.449  1.00  0.00    -0.744 OA
ENDBRANCH  75  78
ENDBRANCH  47  71
BRANCH  59  82
ATOM     82  C   UNL A   1      45.029  33.227  29.233  1.00  0.00     0.023 A 
ATOM     83  C   UNL A   1      45.865  33.405  30.352  1.00  0.00     0.012 A 
ATOM     84  C   UNL A   1      44.952  34.237  28.254  1.00  0.00     0.148 A 
ATOM     85  C   UNL A   1      46.603  34.579  30.502  1.00  0.00     0.002 A 
ATOM     86  C   UNL A   1      45.724  35.385  28.389  1.00  0.00     0.091 A 
ATOM     87  F   UNL A   1      44.133  34.053  27.210  1.00  0.00    -0.205 F 
ATOM     88  C   UNL A   1      46.543  35.561  29.515  1.00  0.00     0.022 A 
BRANCH  86  89
ATOM     89  S   UNL A   1      45.781  36.659  27.124  1.00  0.00     0.127 S 
ATOM     90  O   UNL A   1      46.744  37.600  27.694  1.00  0.00    -0.237 OA
ATOM     91  O   UNL A   1      46.268  35.918  25.960  1.00  0.00    -0.237 OA
ATOM     92  O   UNL A   1      44.420  37.161  26.996  1.00  0.00    -0.744 OA
ENDBRANCH  86  89
ENDBRANCH  59  82
ENDBRANCH  33  34
ENDBRANCH  26  28
ENDBRANCH  25  26
ENDBRANCH   1  25
TORSDOF 16
ENDMDL
MODEL 2
REMARK VINA RESULT:     -12.1      4.704      9.872
REMARK SMILES CC1(C)CCC[C@H]1NC(=O)N[C@@H]1COC[C@@]1(C)C(=O)OCCOC(=O)c1ccc(-c2c3nc(c(-c4cccc(S(=O)(=O)[O-])c4F)c4ccc([nH]4)c(-c4cccc(S(=O)(=O)[O-])c4F)c4nc(c(-c5cccc(S(=O)(=O)[O-])c5F)c5ccc2[nH]5)C=C4)C=C3)cc1
REMARK SMILES IDX 22 1 21 2 20 3 18 4 19 5 16 6 12 7 13 8 14 9 15 10 17 11
REMARK SMILES IDX 11 12 8 13 9 14 10 16 7 18 1 19 2 20 3 21 4 22 5 23 6 24
REMARK SMILES IDX 23 25 24 26 25 27 26 28 27 29 88 30 28 31 87 32 29 33 30 34
REMARK SMILES IDX 31 35 81 36 32 37 86 38 80 39 82 40 33 41 85 42 79 43 78 44
REMARK SMILES IDX 34 46 66 47 46 48 65 49 47 50 50 51 64 52 83 53 48 54 49 55
REMARK SMILES IDX 63 57 84 58 51 59 35 60 36 61 44 62 37 63 39 64 45 65 38 66
REMARK SMILES IDX 40 67 41 68 42 69 43 70 67 71 68 72 76 73 69 74 71 75 77 76
REMARK SMILES IDX 70 77 72 78 73 79 74 80 75 81 52 82 53 83 61 84 54 85 56 86
REMARK SMILES IDX 62 87 55 88 57 89 58 90 59 91 60 92
REMARK H PARENT 8 15 11 17 82 45 50 56
REMARK Flexibility Score: inf
ROOT
ATOM      1  C   UNL A   1      31.492  29.834  25.323  1.00  0.00     0.275 C 
ENDROOT
BRANCH   1   2
ATOM      2  C   UNL A   1      31.565  29.036  24.012  1.00  0.00     0.274 C 
BRANCH   2   3
ATOM      3  O   UNL A   1      32.212  27.765  24.253  1.00  0.00    -0.462 OA
BRANCH   3   4
ATOM      4  C   UNL A   1      31.779  26.691  23.528  1.00  0.00     0.316 C 
ATOM      5  O   UNL A   1      30.945  26.765  22.639  1.00  0.00    -0.251 OA
BRANCH   4   6
ATOM      6  C   UNL A   1      32.540  25.415  23.928  1.00  0.00     0.111 C 
ATOM      7  C   UNL A   1      31.647  24.314  24.506  1.00  0.00     0.129 C 
ATOM      8  C   UNL A   1      31.652  23.177  23.488  1.00  0.00     0.186 C 
ATOM      9  O   UNL A   1      32.822  23.346  22.698  1.00  0.00    -0.378 OA
ATOM     10  C   UNL A   1      33.094  24.751  22.656  1.00  0.00     0.181 C 
ATOM     11  C   UNL A   1      33.655  25.868  24.865  1.00  0.00     0.028 C 
BRANCH   7  12
ATOM     12  N   UNL A   1      31.899  23.851  25.888  1.00  0.00    -0.332 N 
ATOM     13  N   UNL A   1      33.815  22.453  26.259  1.00  0.00    -0.335 N 
ATOM     14  C   UNL A   1      32.715  23.104  26.627  1.00  0.00     0.315 C 
ATOM     15  H   UNL A   1      34.260  22.056  27.042  1.00  0.00     0.165 HD
ATOM     16  O   UNL A   1      32.411  23.023  27.825  1.00  0.00    -0.249 OA
ATOM     17  H   UNL A   1      31.211  24.238  26.477  1.00  0.00     0.165 HD
BRANCH  13  18
ATOM     18  C   UNL A   1      34.558  22.153  25.034  1.00  0.00     0.089 C 
ATOM     19  C   UNL A   1      36.384  23.882  25.935  1.00  0.00     0.013 C 
ATOM     20  C   UNL A   1      36.041  22.684  25.027  1.00  0.00    -0.015 C 
ATOM     21  C   UNL A   1      36.457  23.052  23.582  1.00  0.00     0.013 C 
ATOM     22  C   UNL A   1      36.837  21.466  25.518  1.00  0.00     0.008 C 
ATOM     23  C   UNL A   1      36.160  20.280  24.862  1.00  0.00     0.003 C 
ATOM     24  C   UNL A   1      34.673  20.625  24.856  1.00  0.00     0.025 C 
ENDBRANCH  13  18
ENDBRANCH   7  12
ENDBRANCH   4   6
ENDBRANCH   3   4
ENDBRANCH   2   3
ENDBRANCH   1   2
BRANCH   1  25
ATOM     25  O   UNL A   1      32.834  30.073  25.779  1.00  0.00    -0.458 OA
BRANCH  25  26
ATOM     26  C   UNL A   1      32.995  30.987  26.765  1.00  0.00     0.338 C 
ATOM     27  O   UNL A   1      32.183  31.843  27.100  1.00  0.00    -0.246 OA
BRANCH  26  28
ATOM     28  C   UNL A   1      34.319  30.780  27.404  1.00  0.00     0.060 A 
ATOM     29  C   UNL A   1      35.107  31.879  27.750  1.00  0.00     0.016 A 
ATOM     30  C   UNL A   1      34.803  29.498  27.654  1.00  0.00     0.016 A 
ATOM     31  C   UNL A   1      36.390  31.716  28.264  1.00  0.00     0.010 A 
ATOM     32  C   UNL A   1      36.035  29.338  28.309  1.00  0.00     0.010 A 
ATOM     33  C   UNL A   1      36.848  30.445  28.621  1.00  0.00    -0.014 A 
BRANCH  33  34
ATOM     34  C   UNL A   1      38.131  30.270  29.367  1.00  0.00     0.031 A 
ATOM     35  C   UNL A   1      39.216  29.388  28.808  1.00  0.00     0.074 A 
ATOM     36  C   UNL A   1      38.300  30.833  30.584  1.00  0.00     0.049 A 
ATOM     37  N   UNL A   1      40.247  28.860  29.413  1.00  0.00    -0.248 NA
ATOM     38  C   UNL A   1      39.112  29.034  27.382  1.00  0.00     0.031 C 
ATOM     39  C   UNL A   1      37.354  31.732  31.250  1.00  0.00     0.029 A 
ATOM     40  N   UNL A   1      39.321  30.704  31.500  1.00  0.00    -0.354 N 
ATOM     41  C   UNL A   1      40.858  28.035  28.475  1.00  0.00     0.074 A 
ATOM     42  C   UNL A   1      40.097  28.155  27.249  1.00  0.00     0.031 C 
ATOM     43  C   UNL A   1      37.835  32.079  32.451  1.00  0.00     0.029 A 
ATOM     44  C   UNL A   1      39.069  31.346  32.694  1.00  0.00     0.049 A 
ATOM     45  H   UNL A   1      40.149  30.204  31.319  1.00  0.00     0.167 HD
ATOM     46  C   UNL A   1      41.951  27.249  28.624  1.00  0.00     0.034 A 
ATOM     47  C   UNL A   1      39.710  31.302  33.878  1.00  0.00     0.034 A 
ATOM     48  C   UNL A   1      42.751  27.201  29.819  1.00  0.00     0.049 A 
ATOM     49  C   UNL A   1      40.925  30.431  34.017  1.00  0.00     0.074 A 
ATOM     50  C   UNL A   1      43.904  26.473  30.053  1.00  0.00     0.029 A 
ATOM     51  N   UNL A   1      42.492  27.922  30.975  1.00  0.00    -0.354 N 
ATOM     52  N   UNL A   1      41.502  29.675  33.115  1.00  0.00    -0.248 NA
ATOM     53  C   UNL A   1      41.584  30.409  35.330  1.00  0.00     0.031 C 
ATOM     54  C   UNL A   1      44.337  26.746  31.355  1.00  0.00     0.029 A 
ATOM     55  C   UNL A   1      43.464  27.660  31.924  1.00  0.00     0.049 A 
ATOM     56  H   UNL A   1      41.729  28.531  31.102  1.00  0.00     0.167 HD
ATOM     57  C   UNL A   1      42.606  29.112  33.740  1.00  0.00     0.074 A 
ATOM     58  C   UNL A   1      42.629  29.627  35.095  1.00  0.00     0.031 C 
ATOM     59  C   UNL A   1      43.510  28.233  33.244  1.00  0.00     0.034 A 
BRANCH  46  60
ATOM     60  C   UNL A   1      42.362  26.381  27.463  1.00  0.00     0.023 A 
ATOM     61  C   UNL A   1      43.186  26.904  26.449  1.00  0.00     0.012 A 
ATOM     62  C   UNL A   1      41.983  25.023  27.415  1.00  0.00     0.148 A 
ATOM     63  C   UNL A   1      43.602  26.099  25.387  1.00  0.00     0.002 A 
ATOM     64  C   UNL A   1      42.435  24.217  26.377  1.00  0.00     0.091 A 
ATOM     65  F   UNL A   1      41.181  24.547  28.379  1.00  0.00    -0.205 F 
ATOM     66  C   UNL A   1      43.236  24.755  25.357  1.00  0.00     0.022 A 
BRANCH  64  67
ATOM     67  S   UNL A   1      42.082  22.457  26.296  1.00  0.00     0.127 S 
ATOM     68  O   UNL A   1      40.620  22.451  26.253  1.00  0.00    -0.237 OA
ATOM     69  O   UNL A   1      42.729  22.067  25.042  1.00  0.00    -0.237 OA
ATOM     70  O   UNL A   1      42.677  21.873  27.489  1.00  0.00    -0.744 OA
ENDBRANCH  64  67
ENDBRANCH  46  60
BRANCH  47  71
ATOM     71  C   UNL A   1      39.201  32.106  35.029  1.00  0.00     0.023 A 
ATOM     72  C   UNL A   1      38.269  31.533  35.913  1.00  0.00     0.012 A 
ATOM     73  C   UNL A   1      39.675  33.410  35.282  1.00  0.00     0.148 A 
ATOM     74  C   UNL A   1      37.804  32.248  37.018  1.00  0.00     0.002 A 
ATOM     75  C   UNL A   1      39.256  34.092  36.419  1.00  0.00     0.091 A 
ATOM     76  F   UNL A   1      40.546  33.950  34.417  1.00  0.00    -0.205 F 
ATOM     77  C   UNL A   1      38.308  33.519  37.279  1.00  0.00     0.022 A 
BRANCH  75  78
ATOM     78  S   UNL A   1      39.970  35.667  36.908  1.00  0.00     0.127 S 
ATOM     79  O   UNL A   1      39.275  35.933  38.165  1.00  0.00    -0.237 OA
ATOM     80  O   UNL A   1      41.387  35.329  37.047  1.00  0.00    -0.237 OA
ATOM     81  O   UNL A   1      39.680  36.583  35.813  1.00  0.00    -0.744 OA
ENDBRANCH  75  78
ENDBRANCH  47  71
BRANCH  59  82
ATOM     82  C   UNL A   1      44.637  27.805  34.143  1.00  0.00     0.023 A 
ATOM     83  C   UNL A   1      45.811  28.578  34.209  1.00  0.00     0.012 A 
ATOM     84  C   UNL A   1      44.488  26.689  34.990  1.00  0.00     0.148 A 
ATOM     85  C   UNL A   1      46.832  28.236  35.096  1.00  0.00     0.002 A 
ATOM     86  C   UNL A   1      45.490  26.382  35.903  1.00  0.00     0.091 A 
ATOM     87  F   UNL A   1      43.369  25.958  34.893  1.00  0.00    -0.205 F 
ATOM     88  C   UNL A   1      46.665  27.148  35.951  1.00  0.00     0.022 A 
BRANCH  86  89
ATOM     89  S   UNL A   1      45.323  25.058  37.105  1.00  0.00     0.127 S 
ATOM     90  O   UNL A   1      45.247  23.881  36.242  1.00  0.00    -0.237 OA
ATOM     91  O   UNL A   1      46.565  25.175  37.869  1.00  0.00    -0.237 OA
ATOM     92  O   UNL A   1      44.115  25.353  37.863  1.00  0.00    -0.744 OA
ENDBRANCH  86  89
ENDBRANCH  59  82
ENDBRANCH  33  34
ENDBRANCH  26  28
ENDBRANCH  25  26
ENDBRANCH   1  25
TORSDOF 16
ENDMDL
MODEL 3
REMARK VINA RESULT:     -12.0      1.708      2.485
REMARK SMILES CC1(C)CCC[C@H]1NC(=O)N[C@@H]1COC[C@@]1(C)C(=O)OCCOC(=O)c1ccc(-c2c3nc(c(-c4cccc(S(=O)(=O)[O-])c4F)c4ccc([nH]4)c(-c4cccc(S(=O)(=O)[O-])c4F)c4nc(c(-c5cccc(S(=O)(=O)[O-])c5F)c5ccc2[nH]5)C=C4)C=C3)cc1
REMARK SMILES IDX 22 1 21 2 20 3 18 4 19 5 16 6 12 7 13 8 14 9 15 10 17 11
REMARK SMILES IDX 11 12 8 13 9 14 10 16 7 18 1 19 2 20 3 21 4 22 5 23 6 24
REMARK SMILES IDX 23 25 24 26 25 27 26 28 27 29 88 30 28 31 87 32 29 33 30 34
REMARK SMILES IDX 31 35 81 36 32 37 86 38 80 39 82 40 33 41 85 42 79 43 78 44
REMARK SMILES IDX 34 46 66 47 46 48 65 49 47 50 50 51 64 52 83 53 48 54 49 55
REMARK SMILES IDX 63 57 84 58 51 59 35 60 36 61 44 62 37 63 39 64 45 65 38 66
REMARK SMILES IDX 40 67 41 68 42 69 43 70 67 71 68 72 76 73 69 74 71 75 77 76
REMARK SMILES IDX 70 77 72 78 73 79 74 80 75 81 52 82 53 83 61 84 54 85 56 86
REMARK SMILES IDX 62 87 55 88 57 89 58 90 59 91 60 92
REMARK H PARENT 8 15 11 17 82 45 50 56
REMARK Flexibility Score: inf
ROOT
ATOM      1  C   UNL A   1      37.378  21.259  24.592  1.00  0.00     0.275 C 
ENDROOT
BRANCH   1   2
ATOM      2  C   UNL A   1      36.586  22.347  23.849  1.00  0.00     0.274 C 
BRANCH   2   3
ATOM      3  O   UNL A   1      35.179  22.219  24.158  1.00  0.00    -0.462 OA
BRANCH   3   4
ATOM      4  C   UNL A   1      34.730  22.820  25.301  1.00  0.00     0.316 C 
ATOM      5  O   UNL A   1      35.033  23.955  25.634  1.00  0.00    -0.251 OA
BRANCH   4   6
ATOM      6  C   UNL A   1      33.739  21.909  26.048  1.00  0.00     0.111 C 
ATOM      7  C   UNL A   1      32.326  21.916  25.459  1.00  0.00     0.129 C 
ATOM      8  C   UNL A   1      32.100  20.527  24.868  1.00  0.00     0.186 C 
ATOM      9  O   UNL A   1      33.022  19.658  25.513  1.00  0.00    -0.378 OA
ATOM     10  C   UNL A   1      34.168  20.446  25.850  1.00  0.00     0.181 C 
ATOM     11  C   UNL A   1      33.805  22.330  27.512  1.00  0.00     0.028 C 
BRANCH   7  12
ATOM     12  N   UNL A   1      31.206  22.368  26.313  1.00  0.00    -0.332 N 
ATOM     13  N   UNL A   1      30.676  24.710  26.302  1.00  0.00    -0.335 N 
ATOM     14  C   UNL A   1      30.533  23.449  26.700  1.00  0.00     0.315 C 
ATOM     15  H   UNL A   1      29.978  25.280  26.698  1.00  0.00     0.165 HD
ATOM     16  O   UNL A   1      29.640  23.240  27.532  1.00  0.00    -0.249 OA
ATOM     17  H   UNL A   1      30.814  21.581  26.756  1.00  0.00     0.165 HD
BRANCH  13  18
ATOM     18  C   UNL A   1      31.566  25.499  25.449  1.00  0.00     0.089 C 
ATOM     19  C   UNL A   1      29.347  26.333  24.218  1.00  0.00     0.013 C 
ATOM     20  C   UNL A   1      30.831  26.574  24.561  1.00  0.00    -0.015 C 
ATOM     21  C   UNL A   1      31.599  26.764  23.231  1.00  0.00     0.013 C 
ATOM     22  C   UNL A   1      30.927  27.843  25.419  1.00  0.00     0.008 C 
ATOM     23  C   UNL A   1      32.309  27.782  26.037  1.00  0.00     0.003 C 
ATOM     24  C   UNL A   1      32.550  26.303  26.325  1.00  0.00     0.025 C 
ENDBRANCH  13  18
ENDBRANCH   7  12
ENDBRANCH   4   6
ENDBRANCH   3   4
ENDBRANCH   2   3
ENDBRANCH   1   2
BRANCH   1  25
ATOM     25  O   UNL A   1      37.829  21.807  25.842  1.00  0.00    -0.458 OA
BRANCH  25  26
ATOM     26  C   UNL A   1      39.120  21.577  26.183  1.00  0.00     0.338 C 
ATOM     27  O   UNL A   1      39.728  20.521  26.049  1.00  0.00    -0.246 OA
BRANCH  26  28
ATOM     28  C   UNL A   1      39.702  22.824  26.738  1.00  0.00     0.060 A 
ATOM     29  C   UNL A   1      40.755  22.757  27.652  1.00  0.00     0.016 A 
ATOM     30  C   UNL A   1      39.205  24.073  26.373  1.00  0.00     0.016 A 
ATOM     31  C   UNL A   1      41.260  23.904  28.259  1.00  0.00     0.010 A 
ATOM     32  C   UNL A   1      39.814  25.235  26.873  1.00  0.00     0.010 A 
ATOM     33  C   UNL A   1      40.848  25.167  27.827  1.00  0.00    -0.014 A 
BRANCH  33  34
ATOM     34  C   UNL A   1      41.528  26.407  28.313  1.00  0.00     0.031 A 
ATOM     35  C   UNL A   1      40.743  27.458  29.053  1.00  0.00     0.074 A 
ATOM     36  C   UNL A   1      42.829  26.635  28.026  1.00  0.00     0.049 A 
ATOM     37  N   UNL A   1      41.046  28.708  29.282  1.00  0.00    -0.248 NA
ATOM     38  C   UNL A   1      39.432  27.052  29.585  1.00  0.00     0.031 C 
ATOM     39  C   UNL A   1      43.729  25.705  27.339  1.00  0.00     0.029 A 
ATOM     40  N   UNL A   1      43.617  27.742  28.246  1.00  0.00    -0.354 N 
ATOM     41  C   UNL A   1      39.929  29.265  29.893  1.00  0.00     0.074 A 
ATOM     42  C   UNL A   1      38.950  28.206  30.027  1.00  0.00     0.031 C 
ATOM     43  C   UNL A   1      44.937  26.268  27.203  1.00  0.00     0.029 A 
ATOM     44  C   UNL A   1      44.875  27.638  27.690  1.00  0.00     0.049 A 
ATOM     45  H   UNL A   1      43.313  28.530  28.751  1.00  0.00     0.167 HD
ATOM     46  C   UNL A   1      39.737  30.542  30.304  1.00  0.00     0.034 A 
ATOM     47  C   UNL A   1      45.849  28.553  27.520  1.00  0.00     0.034 A 
ATOM     48  C   UNL A   1      40.747  31.566  30.246  1.00  0.00     0.049 A 
ATOM     49  C   UNL A   1      45.618  29.959  27.992  1.00  0.00     0.074 A 
ATOM     50  C   UNL A   1      40.666  32.877  30.679  1.00  0.00     0.029 A 
ATOM     51  N   UNL A   1      42.024  31.391  29.738  1.00  0.00    -0.354 N 
ATOM     52  N   UNL A   1      44.565  30.464  28.588  1.00  0.00    -0.248 NA
ATOM     53  C   UNL A   1      46.706  30.923  27.777  1.00  0.00     0.031 C 
ATOM     54  C   UNL A   1      41.894  33.499  30.424  1.00  0.00     0.029 A 
ATOM     55  C   UNL A   1      42.744  32.567  29.849  1.00  0.00     0.049 A 
ATOM     56  H   UNL A   1      42.369  30.552  29.353  1.00  0.00     0.167 HD
ATOM     57  C   UNL A   1      44.874  31.793  28.846  1.00  0.00     0.074 A 
ATOM     58  C   UNL A   1      46.221  32.013  28.357  1.00  0.00     0.031 C 
ATOM     59  C   UNL A   1      44.106  32.750  29.419  1.00  0.00     0.034 A 
BRANCH  46  60
ATOM     60  C   UNL A   1      38.389  30.909  30.867  1.00  0.00     0.023 A 
ATOM     61  C   UNL A   1      38.111  30.688  32.230  1.00  0.00     0.012 A 
ATOM     62  C   UNL A   1      37.421  31.537  30.057  1.00  0.00     0.148 A 
ATOM     63  C   UNL A   1      36.878  31.057  32.771  1.00  0.00     0.002 A 
ATOM     64  C   UNL A   1      36.211  31.939  30.612  1.00  0.00     0.091 A 
ATOM     65  F   UNL A   1      37.696  31.721  28.757  1.00  0.00    -0.205 F 
ATOM     66  C   UNL A   1      35.934  31.691  31.966  1.00  0.00     0.022 A 
BRANCH  64  67
ATOM     67  S   UNL A   1      34.968  32.833  29.673  1.00  0.00     0.127 S 
ATOM     68  O   UNL A   1      35.775  33.865  29.022  1.00  0.00    -0.237 OA
ATOM     69  O   UNL A   1      34.458  31.800  28.770  1.00  0.00    -0.237 OA
ATOM     70  O   UNL A   1      34.000  33.315  30.647  1.00  0.00    -0.744 OA
ENDBRANCH  64  67
ENDBRANCH  46  60
BRANCH  47  71
ATOM     71  C   UNL A   1      47.131  28.161  26.864  1.00  0.00     0.023 A 
ATOM     72  C   UNL A   1      48.246  27.843  27.661  1.00  0.00     0.012 A 
ATOM     73  C   UNL A   1      47.236  28.047  25.462  1.00  0.00     0.148 A 
ATOM     74  C   UNL A   1      49.447  27.437  27.076  1.00  0.00     0.002 A 
ATOM     75  C   UNL A   1      48.414  27.582  24.889  1.00  0.00     0.091 A 
ATOM     76  F   UNL A   1      46.171  28.375  24.716  1.00  0.00    -0.205 F 
ATOM     77  C   UNL A   1      49.526  27.292  25.693  1.00  0.00     0.022 A 
BRANCH  75  78
ATOM     78  S   UNL A   1      48.548  27.221  23.134  1.00  0.00     0.127 S 
ATOM     79  O   UNL A   1      49.954  27.517  22.874  1.00  0.00    -0.237 OA
ATOM     80  O   UNL A   1      48.197  25.801  23.086  1.00  0.00    -0.237 OA
ATOM     81  O   UNL A   1      47.582  28.096  22.482  1.00  0.00    -0.744 OA
ENDBRANCH  75  78
ENDBRANCH  47  71
BRANCH  59  82
ATOM     82  C   UNL A   1      44.710  34.114  29.605  1.00  0.00     0.023 A 
ATOM     83  C   UNL A   1      45.410  34.415  30.789  1.00  0.00     0.012 A 
ATOM     84  C   UNL A   1      44.663  35.062  28.563  1.00  0.00     0.148 A 
ATOM     85  C   UNL A   1      46.042  35.649  30.941  1.00  0.00     0.002 A 
ATOM     86  C   UNL A   1      45.333  36.271  28.705  1.00  0.00     0.091 A 
ATOM     87  F   UNL A   1      43.973  34.759  27.455  1.00  0.00    -0.205 F 
ATOM     88  C   UNL A   1      46.015  36.570  29.895  1.00  0.00     0.022 A 
BRANCH  86  89
ATOM     89  S   UNL A   1      45.431  37.478  27.378  1.00  0.00     0.127 S 
ATOM     90  O   UNL A   1      44.019  37.693  27.066  1.00  0.00    -0.237 OA
ATOM     91  O   UNL A   1      46.090  38.607  28.034  1.00  0.00    -0.237 OA
ATOM     92  O   UNL A   1      46.213  36.851  26.321  1.00  0.00    -0.744 OA
ENDBRANCH  86  89
ENDBRANCH  59  82
ENDBRANCH  33  34
ENDBRANCH  26  28
ENDBRANCH  25  26
ENDBRANCH   1  25
TORSDOF 16
ENDMDL
