MODEL 1
REMARK VINA RESULT:     -11.3      0.000      0.000
REMARK SMILES C[C@H](C(=O)OCCOC(=O)c1ccc(-c2c3nc(c(-c4cccc(S(=O)(=O)[O-])c4F)c4ccc([nH]4)c(-c4cccc(S(=O)(=O)[O-])c4F)c4nc(c(-c5cccc(S(=O)(=O)[O-])c5F)c5ccc2[nH]5)C=C4)C=C3)cc1)c1cccc(C(=O)c2ccccc2)c1
REMARK SMILES IDX 6 1 5 2 3 3 4 4 2 5 1 6 74 7 75 8 87 9 76 10 78 11 77 12
REMARK SMILES IDX 79 13 80 14 81 15 82 16 86 17 83 18 85 19 84 20 7 21 8 22
REMARK SMILES IDX 9 23 10 24 11 25 12 26 73 27 13 28 72 29 14 30 15 31 16 32
REMARK SMILES IDX 66 33 17 34 71 35 65 36 67 37 18 38 70 39 64 40 63 41 19 43
REMARK SMILES IDX 51 44 31 45 50 46 32 47 35 48 49 49 68 50 33 51 34 52 48 54
REMARK SMILES IDX 69 55 36 56 20 57 21 58 29 59 22 60 24 61 30 62 23 63 25 64
REMARK SMILES IDX 26 65 27 66 28 67 52 68 53 69 61 70 54 71 56 72 62 73 55 74
REMARK SMILES IDX 57 75 58 76 59 77 60 78 37 79 38 80 46 81 39 82 41 83 47 84
REMARK SMILES IDX 40 85 42 86 43 87 44 88 45 89
REMARK H PARENT 67 42 35 53
REMARK Flexibility Score: inf
ROOT
ATOM      1  C   UNL A   1      31.379  31.599  26.551  1.00  0.00     0.274 C 
ENDROOT
BRANCH   1   2
ATOM      2  O   UNL A   1      32.181  30.643  27.271  1.00  0.00    -0.462 OA
BRANCH   2   3
ATOM      3  C   UNL A   1      32.322  29.412  26.700  1.00  0.00     0.313 C 
ATOM      4  O   UNL A   1      31.510  28.504  26.822  1.00  0.00    -0.252 OA
BRANCH   3   5
ATOM      5  C   UNL A   1      33.677  29.253  26.011  1.00  0.00     0.126 C 
ATOM      6  C   UNL A   1      34.789  28.969  27.030  1.00  0.00     0.025 C 
BRANCH   5   7
ATOM      7  C   UNL A   1      33.681  28.267  24.849  1.00  0.00    -0.033 A 
ATOM      8  C   UNL A   1      33.479  28.752  23.545  1.00  0.00     0.004 A 
ATOM      9  C   UNL A   1      33.872  26.885  25.026  1.00  0.00     0.016 A 
ATOM     10  C   UNL A   1      33.479  27.888  22.450  1.00  0.00     0.001 A 
ATOM     11  C   UNL A   1      33.878  26.012  23.926  1.00  0.00     0.023 A 
ATOM     12  C   UNL A   1      33.683  26.524  22.639  1.00  0.00     0.012 A 
BRANCH  11  13
ATOM     13  C   UNL A   1      34.138  24.549  24.054  1.00  0.00     0.193 C 
ATOM     14  O   UNL A   1      34.736  23.935  23.175  1.00  0.00    -0.289 OA
BRANCH  13  15
ATOM     15  C   UNL A   1      33.736  23.820  25.265  1.00  0.00     0.022 A 
ATOM     16  C   UNL A   1      34.728  23.377  26.144  1.00  0.00     0.012 A 
ATOM     17  C   UNL A   1      32.385  23.591  25.525  1.00  0.00     0.012 A 
ATOM     18  C   UNL A   1      34.358  22.739  27.323  1.00  0.00     0.001 A 
ATOM     19  C   UNL A   1      32.025  22.933  26.698  1.00  0.00     0.001 A 
ATOM     20  C   UNL A   1      33.010  22.526  27.600  1.00  0.00     0.000 A 
ENDBRANCH  13  15
ENDBRANCH  11  13
ENDBRANCH   5   7
ENDBRANCH   3   5
ENDBRANCH   2   3
ENDBRANCH   1   2
BRANCH   1  21
ATOM     21  C   UNL A   1      31.808  33.046  26.807  1.00  0.00     0.275 C 
BRANCH  21  22
ATOM     22  O   UNL A   1      33.205  33.142  27.139  1.00  0.00    -0.458 OA
BRANCH  22  23
ATOM     23  C   UNL A   1      33.482  33.925  28.201  1.00  0.00     0.338 C 
ATOM     24  O   UNL A   1      32.840  34.900  28.583  1.00  0.00    -0.246 OA
BRANCH  23  25
ATOM     25  C   UNL A   1      34.625  33.399  28.956  1.00  0.00     0.060 A 
ATOM     26  C   UNL A   1      35.900  33.748  28.510  1.00  0.00     0.016 A 
ATOM     27  C   UNL A   1      34.467  32.478  29.993  1.00  0.00     0.016 A 
ATOM     28  C   UNL A   1      37.023  33.145  29.065  1.00  0.00     0.010 A 
ATOM     29  C   UNL A   1      35.602  31.885  30.565  1.00  0.00     0.010 A 
ATOM     30  C   UNL A   1      36.885  32.190  30.082  1.00  0.00    -0.014 A 
BRANCH  30  31
ATOM     31  C   UNL A   1      38.111  31.545  30.612  1.00  0.00     0.031 A 
ATOM     32  C   UNL A   1      38.698  31.950  31.933  1.00  0.00     0.074 A 
ATOM     33  C   UNL A   1      38.641  30.501  29.951  1.00  0.00     0.049 A 
ATOM     34  N   UNL A   1      39.512  31.270  32.700  1.00  0.00    -0.248 NA
ATOM     35  C   UNL A   1      38.282  33.240  32.501  1.00  0.00     0.031 C 
ATOM     36  C   UNL A   1      38.179  29.998  28.658  1.00  0.00     0.029 A 
ATOM     37  N   UNL A   1      39.702  29.693  30.270  1.00  0.00    -0.354 N 
ATOM     38  C   UNL A   1      39.593  31.980  33.888  1.00  0.00     0.074 A 
ATOM     39  C   UNL A   1      38.817  33.188  33.716  1.00  0.00     0.031 C 
ATOM     40  C   UNL A   1      38.989  29.000  28.268  1.00  0.00     0.029 A 
ATOM     41  C   UNL A   1      40.028  28.807  29.276  1.00  0.00     0.049 A 
ATOM     42  H   UNL A   1      40.182  29.744  31.129  1.00  0.00     0.167 HD
ATOM     43  C   UNL A   1      40.219  31.624  35.034  1.00  0.00     0.034 A 
ATOM     44  C   UNL A   1      41.073  27.963  29.173  1.00  0.00     0.034 A 
ATOM     45  C   UNL A   1      41.146  30.531  35.135  1.00  0.00     0.049 A 
ATOM     46  C   UNL A   1      42.013  27.821  30.336  1.00  0.00     0.074 A 
ATOM     47  C   UNL A   1      41.867  30.105  36.237  1.00  0.00     0.029 A 
ATOM     48  N   UNL A   1      41.559  29.755  34.064  1.00  0.00    -0.354 N 
ATOM     49  N   UNL A   1      41.904  28.319  31.544  1.00  0.00    -0.248 NA
ATOM     50  C   UNL A   1      43.204  26.984  30.137  1.00  0.00     0.031 C 
ATOM     51  C   UNL A   1      42.773  29.124  35.809  1.00  0.00     0.029 A 
ATOM     52  C   UNL A   1      42.594  28.922  34.449  1.00  0.00     0.049 A 
ATOM     53  H   UNL A   1      41.172  29.793  33.159  1.00  0.00     0.167 HD
ATOM     54  C   UNL A   1      42.995  27.839  32.258  1.00  0.00     0.074 A 
ATOM     55  C   UNL A   1      43.749  26.999  31.347  1.00  0.00     0.031 C 
ATOM     56  C   UNL A   1      43.339  28.078  33.548  1.00  0.00     0.034 A 
BRANCH  43  57
ATOM     57  C   UNL A   1      39.889  32.404  36.271  1.00  0.00     0.023 A 
ATOM     58  C   UNL A   1      40.658  33.550  36.561  1.00  0.00     0.012 A 
ATOM     59  C   UNL A   1      38.815  32.058  37.107  1.00  0.00     0.148 A 
ATOM     60  C   UNL A   1      40.363  34.342  37.670  1.00  0.00     0.002 A 
ATOM     61  C   UNL A   1      38.522  32.857  38.208  1.00  0.00     0.091 A 
ATOM     62  F   UNL A   1      38.121  30.946  36.826  1.00  0.00    -0.205 F 
ATOM     63  C   UNL A   1      39.291  33.999  38.489  1.00  0.00     0.022 A 
BRANCH  61  64
ATOM     64  S   UNL A   1      37.159  32.503  39.322  1.00  0.00     0.127 S 
ATOM     65  O   UNL A   1      37.358  33.515  40.359  1.00  0.00    -0.237 OA
ATOM     66  O   UNL A   1      35.993  32.727  38.467  1.00  0.00    -0.237 OA
ATOM     67  O   UNL A   1      37.343  31.125  39.754  1.00  0.00    -0.744 OA
ENDBRANCH  61  64
ENDBRANCH  43  57
BRANCH  44  68
ATOM     68  C   UNL A   1      41.281  27.224  27.899  1.00  0.00     0.023 A 
ATOM     69  C   UNL A   1      41.766  27.887  26.761  1.00  0.00     0.012 A 
ATOM     70  C   UNL A   1      41.053  25.833  27.843  1.00  0.00     0.148 A 
ATOM     71  C   UNL A   1      42.023  27.177  25.585  1.00  0.00     0.002 A 
ATOM     72  C   UNL A   1      41.367  25.123  26.692  1.00  0.00     0.091 A 
ATOM     73  F   UNL A   1      40.548  25.224  28.926  1.00  0.00    -0.205 F 
ATOM     74  C   UNL A   1      41.841  25.795  25.556  1.00  0.00     0.022 A 
BRANCH  72  75
ATOM     75  S   UNL A   1      41.297  23.328  26.647  1.00  0.00     0.127 S 
ATOM     76  O   UNL A   1      42.014  23.030  25.411  1.00  0.00    -0.237 OA
ATOM     77  O   UNL A   1      42.004  22.958  27.874  1.00  0.00    -0.237 OA
ATOM     78  O   UNL A   1      39.876  23.000  26.660  1.00  0.00    -0.744 OA
ENDBRANCH  72  75
ENDBRANCH  44  68
BRANCH  56  79
ATOM     79  C   UNL A   1      44.605  27.447  34.062  1.00  0.00     0.023 A 
ATOM     80  C   UNL A   1      45.797  28.199  34.070  1.00  0.00     0.012 A 
ATOM     81  C   UNL A   1      44.605  26.146  34.601  1.00  0.00     0.148 A 
ATOM     82  C   UNL A   1      46.973  27.657  34.586  1.00  0.00     0.002 A 
ATOM     83  C   UNL A   1      45.771  25.631  35.155  1.00  0.00     0.091 A 
ATOM     84  F   UNL A   1      43.469  25.434  34.560  1.00  0.00    -0.205 F 
ATOM     85  C   UNL A   1      46.958  26.379  35.141  1.00  0.00     0.022 A 
BRANCH  83  86
ATOM     86  S   UNL A   1      45.801  24.033  35.976  1.00  0.00     0.127 S 
ATOM     87  O   UNL A   1      47.156  24.002  36.524  1.00  0.00    -0.237 OA
ATOM     88  O   UNL A   1      44.742  24.169  36.978  1.00  0.00    -0.237 OA
ATOM     89  O   UNL A   1      45.516  23.055  34.935  1.00  0.00    -0.744 OA
ENDBRANCH  83  86
ENDBRANCH  56  79
ENDBRANCH  30  31
ENDBRANCH  23  25
ENDBRANCH  22  23
ENDBRANCH  21  22
ENDBRANCH   1  21
TORSDOF 17
ENDMDL
MODEL 2
REMARK VINA RESULT:     -11.2      1.838      3.314
REMARK SMILES C[C@H](C(=O)OCCOC(=O)c1ccc(-c2c3nc(c(-c4cccc(S(=O)(=O)[O-])c4F)c4ccc([nH]4)c(-c4cccc(S(=O)(=O)[O-])c4F)c4nc(c(-c5cccc(S(=O)(=O)[O-])c5F)c5ccc2[nH]5)C=C4)C=C3)cc1)c1cccc(C(=O)c2ccccc2)c1
REMARK SMILES IDX 6 1 5 2 3 3 4 4 2 5 1 6 74 7 75 8 87 9 76 10 78 11 77 12
REMARK SMILES IDX 79 13 80 14 81 15 82 16 86 17 83 18 85 19 84 20 7 21 8 22
REMARK SMILES IDX 9 23 10 24 11 25 12 26 73 27 13 28 72 29 14 30 15 31 16 32
REMARK SMILES IDX 66 33 17 34 71 35 65 36 67 37 18 38 70 39 64 40 63 41 19 43
REMARK SMILES IDX 51 44 31 45 50 46 32 47 35 48 49 49 68 50 33 51 34 52 48 54
REMARK SMILES IDX 69 55 36 56 20 57 21 58 29 59 22 60 24 61 30 62 23 63 25 64
REMARK SMILES IDX 26 65 27 66 28 67 52 68 53 69 61 70 54 71 56 72 62 73 55 74
REMARK SMILES IDX 57 75 58 76 59 77 60 78 37 79 38 80 46 81 39 82 41 83 47 84
REMARK SMILES IDX 40 85 42 86 43 87 44 88 45 89
REMARK H PARENT 67 42 35 53
REMARK Flexibility Score: inf
ROOT
ATOM      1  C   UNL A   1      33.388  31.438  27.258  1.00  0.00     0.274 C 
ENDROOT
BRANCH   1   2
ATOM      2  O   UNL A   1      32.650  30.239  26.951  1.00  0.00    -0.462 OA
BRANCH   2   3
ATOM      3  C   UNL A   1      33.384  29.137  26.627  1.00  0.00     0.313 C 
ATOM      4  O   UNL A   1      34.589  29.158  26.407  1.00  0.00    -0.252 OA
BRANCH   3   5
ATOM      5  C   UNL A   1      32.507  27.902  26.429  1.00  0.00     0.126 C 
ATOM      6  C   UNL A   1      31.465  27.775  27.550  1.00  0.00     0.025 C 
BRANCH   5   7
ATOM      7  C   UNL A   1      31.890  27.783  25.040  1.00  0.00    -0.033 A 
ATOM      8  C   UNL A   1      32.603  27.107  24.036  1.00  0.00     0.004 A 
ATOM      9  C   UNL A   1      30.635  28.329  24.717  1.00  0.00     0.016 A 
ATOM     10  C   UNL A   1      32.078  26.969  22.751  1.00  0.00     0.001 A 
ATOM     11  C   UNL A   1      30.099  28.188  23.426  1.00  0.00     0.023 A 
ATOM     12  C   UNL A   1      30.828  27.503  22.449  1.00  0.00     0.012 A 
BRANCH  11  13
ATOM     13  C   UNL A   1      28.747  28.694  23.051  1.00  0.00     0.193 C 
ATOM     14  O   UNL A   1      27.755  27.977  23.151  1.00  0.00    -0.289 OA
BRANCH  13  15
ATOM     15  C   UNL A   1      28.563  30.083  22.608  1.00  0.00     0.022 A 
ATOM     16  C   UNL A   1      28.740  31.113  23.536  1.00  0.00     0.012 A 
ATOM     17  C   UNL A   1      28.228  30.355  21.282  1.00  0.00     0.012 A 
ATOM     18  C   UNL A   1      28.627  32.434  23.117  1.00  0.00     0.001 A 
ATOM     19  C   UNL A   1      28.098  31.679  20.876  1.00  0.00     0.001 A 
ATOM     20  C   UNL A   1      28.315  32.713  21.789  1.00  0.00     0.000 A 
ENDBRANCH  13  15
ENDBRANCH  11  13
ENDBRANCH   5   7
ENDBRANCH   3   5
ENDBRANCH   2   3
ENDBRANCH   1   2
BRANCH   1  21
ATOM     21  C   UNL A   1      32.484  32.656  27.465  1.00  0.00     0.275 C 
BRANCH  21  22
ATOM     22  O   UNL A   1      33.243  33.861  27.668  1.00  0.00    -0.458 OA
BRANCH  22  23
ATOM     23  C   UNL A   1      33.659  34.062  28.934  1.00  0.00     0.338 C 
ATOM     24  O   UNL A   1      33.082  34.709  29.804  1.00  0.00    -0.246 OA
BRANCH  23  25
ATOM     25  C   UNL A   1      34.881  33.296  29.211  1.00  0.00     0.060 A 
ATOM     26  C   UNL A   1      34.833  32.374  30.256  1.00  0.00     0.016 A 
ATOM     27  C   UNL A   1      36.086  33.563  28.559  1.00  0.00     0.016 A 
ATOM     28  C   UNL A   1      35.995  31.747  30.687  1.00  0.00     0.010 A 
ATOM     29  C   UNL A   1      37.255  32.915  28.983  1.00  0.00     0.010 A 
ATOM     30  C   UNL A   1      37.224  32.028  30.071  1.00  0.00    -0.014 A 
BRANCH  30  31
ATOM     31  C   UNL A   1      38.442  31.364  30.595  1.00  0.00     0.031 A 
ATOM     32  C   UNL A   1      39.032  31.750  31.920  1.00  0.00     0.074 A 
ATOM     33  C   UNL A   1      38.961  30.321  29.924  1.00  0.00     0.049 A 
ATOM     34  N   UNL A   1      39.838  31.053  32.681  1.00  0.00    -0.248 NA
ATOM     35  C   UNL A   1      38.630  33.038  32.501  1.00  0.00     0.031 C 
ATOM     36  C   UNL A   1      38.495  29.836  28.625  1.00  0.00     0.029 A 
ATOM     37  N   UNL A   1      40.012  29.498  30.236  1.00  0.00    -0.354 N 
ATOM     38  C   UNL A   1      39.926  31.750  33.877  1.00  0.00     0.074 A 
ATOM     39  C   UNL A   1      39.164  32.968  33.716  1.00  0.00     0.031 C 
ATOM     40  C   UNL A   1      39.294  28.834  28.226  1.00  0.00     0.029 A 
ATOM     41  C   UNL A   1      40.330  28.619  29.233  1.00  0.00     0.049 A 
ATOM     42  H   UNL A   1      40.492  29.535  31.095  1.00  0.00     0.167 HD
ATOM     43  C   UNL A   1      40.547  31.376  35.019  1.00  0.00     0.034 A 
ATOM     44  C   UNL A   1      41.366  27.765  29.123  1.00  0.00     0.034 A 
ATOM     45  C   UNL A   1      41.462  30.271  35.110  1.00  0.00     0.049 A 
ATOM     46  C   UNL A   1      42.303  27.600  30.284  1.00  0.00     0.074 A 
ATOM     47  C   UNL A   1      42.177  29.826  36.208  1.00  0.00     0.029 A 
ATOM     48  N   UNL A   1      41.867  29.502  34.031  1.00  0.00    -0.354 N 
ATOM     49  N   UNL A   1      42.199  28.088  31.497  1.00  0.00    -0.248 NA
ATOM     50  C   UNL A   1      43.484  26.753  30.078  1.00  0.00     0.031 C 
ATOM     51  C   UNL A   1      43.073  28.840  35.771  1.00  0.00     0.029 A 
ATOM     52  C   UNL A   1      42.893  28.653  34.409  1.00  0.00     0.049 A 
ATOM     53  H   UNL A   1      41.482  29.553  33.127  1.00  0.00     0.167 HD
ATOM     54  C   UNL A   1      43.284  27.589  32.207  1.00  0.00     0.074 A 
ATOM     55  C   UNL A   1      44.029  26.749  31.289  1.00  0.00     0.031 C 
ATOM     56  C   UNL A   1      43.629  27.811  33.500  1.00  0.00     0.034 A 
BRANCH  43  57
ATOM     57  C   UNL A   1      40.225  32.147  36.264  1.00  0.00     0.023 A 
ATOM     58  C   UNL A   1      41.128  33.147  36.681  1.00  0.00     0.012 A 
ATOM     59  C   UNL A   1      39.038  31.939  36.985  1.00  0.00     0.148 A 
ATOM     60  C   UNL A   1      40.853  33.930  37.801  1.00  0.00     0.002 A 
ATOM     61  C   UNL A   1      38.767  32.728  38.098  1.00  0.00     0.091 A 
ATOM     62  F   UNL A   1      38.213  30.961  36.585  1.00  0.00    -0.205 F 
ATOM     63  C   UNL A   1      39.670  33.725  38.505  1.00  0.00     0.022 A 
BRANCH  61  64
ATOM     64  S   UNL A   1      37.268  32.546  39.070  1.00  0.00     0.127 S 
ATOM     65  O   UNL A   1      37.374  31.157  39.515  1.00  0.00    -0.237 OA
ATOM     66  O   UNL A   1      37.459  33.542  40.123  1.00  0.00    -0.237 OA
ATOM     67  O   UNL A   1      36.166  32.825  38.160  1.00  0.00    -0.744 OA
ENDBRANCH  61  64
ENDBRANCH  43  57
BRANCH  44  68
ATOM     68  C   UNL A   1      41.567  27.036  27.841  1.00  0.00     0.023 A 
ATOM     69  C   UNL A   1      42.103  27.694  26.723  1.00  0.00     0.012 A 
ATOM     70  C   UNL A   1      41.279  25.657  27.758  1.00  0.00     0.148 A 
ATOM     71  C   UNL A   1      42.351  26.990  25.542  1.00  0.00     0.002 A 
ATOM     72  C   UNL A   1      41.585  24.951  26.603  1.00  0.00     0.091 A 
ATOM     73  F   UNL A   1      40.727  25.055  28.822  1.00  0.00    -0.205 F 
ATOM     74  C   UNL A   1      42.111  25.619  25.487  1.00  0.00     0.022 A 
BRANCH  72  75
ATOM     75  S   UNL A   1      41.438  23.162  26.528  1.00  0.00     0.127 S 
ATOM     76  O   UNL A   1      42.263  22.841  25.368  1.00  0.00    -0.237 OA
ATOM     77  O   UNL A   1      41.997  22.750  27.817  1.00  0.00    -0.237 OA
ATOM     78  O   UNL A   1      40.009  22.902  26.393  1.00  0.00    -0.744 OA
ENDBRANCH  72  75
ENDBRANCH  44  68
BRANCH  56  79
ATOM     79  C   UNL A   1      44.888  27.161  34.008  1.00  0.00     0.023 A 
ATOM     80  C   UNL A   1      46.088  27.899  34.025  1.00  0.00     0.012 A 
ATOM     81  C   UNL A   1      44.873  25.855  34.534  1.00  0.00     0.148 A 
ATOM     82  C   UNL A   1      47.257  27.340  34.536  1.00  0.00     0.002 A 
ATOM     83  C   UNL A   1      46.033  25.321  35.084  1.00  0.00     0.091 A 
ATOM     84  F   UNL A   1      43.729  25.155  34.485  1.00  0.00    -0.205 F 
ATOM     85  C   UNL A   1      47.228  26.056  35.078  1.00  0.00     0.022 A 
BRANCH  83  86
ATOM     86  S   UNL A   1      46.044  23.715  35.889  1.00  0.00     0.127 S 
ATOM     87  O   UNL A   1      45.762  22.816  34.771  1.00  0.00    -0.237 OA
ATOM     88  O   UNL A   1      47.410  23.628  36.410  1.00  0.00    -0.237 OA
ATOM     89  O   UNL A   1      45.016  23.788  36.918  1.00  0.00    -0.744 OA
ENDBRANCH  83  86
ENDBRANCH  56  79
ENDBRANCH  30  31
ENDBRANCH  23  25
ENDBRANCH  22  23
ENDBRANCH  21  22
ENDBRANCH   1  21
TORSDOF 17
ENDMDL
MODEL 3
REMARK VINA RESULT:     -11.1      2.981      9.350
REMARK SMILES C[C@H](C(=O)OCCOC(=O)c1ccc(-c2c3nc(c(-c4cccc(S(=O)(=O)[O-])c4F)c4ccc([nH]4)c(-c4cccc(S(=O)(=O)[O-])c4F)c4nc(c(-c5cccc(S(=O)(=O)[O-])c5F)c5ccc2[nH]5)C=C4)C=C3)cc1)c1cccc(C(=O)c2ccccc2)c1
REMARK SMILES IDX 6 1 5 2 3 3 4 4 2 5 1 6 74 7 75 8 87 9 76 10 78 11 77 12
REMARK SMILES IDX 79 13 80 14 81 15 82 16 86 17 83 18 85 19 84 20 7 21 8 22
REMARK SMILES IDX 9 23 10 24 11 25 12 26 73 27 13 28 72 29 14 30 15 31 16 32
REMARK SMILES IDX 66 33 17 34 71 35 65 36 67 37 18 38 70 39 64 40 63 41 19 43
REMARK SMILES IDX 51 44 31 45 50 46 32 47 35 48 49 49 68 50 33 51 34 52 48 54
REMARK SMILES IDX 69 55 36 56 20 57 21 58 29 59 22 60 24 61 30 62 23 63 25 64
REMARK SMILES IDX 26 65 27 66 28 67 52 68 53 69 61 70 54 71 56 72 62 73 55 74
REMARK SMILES IDX 57 75 58 76 59 77 60 78 37 79 38 80 46 81 39 82 41 83 47 84
REMARK SMILES IDX 40 85 42 86 43 87 44 88 45 89
REMARK H PARENT 67 42 35 53
REMARK Flexibility Score: inf
ROOT
ATOM      1  C   UNL A   1      43.426  21.018  25.329  1.00  0.00     0.274 C 
ENDROOT
BRANCH   1   2
ATOM      2  O   UNL A   1      42.014  21.301  25.368  1.00  0.00    -0.462 OA
BRANCH   2   3
ATOM      3  C   UNL A   1      41.232  20.413  26.047  1.00  0.00     0.313 C 
ATOM      4  O   UNL A   1      41.120  19.231  25.745  1.00  0.00    -0.252 OA
BRANCH   3   5
ATOM      5  C   UNL A   1      40.404  21.093  27.136  1.00  0.00     0.126 C 
ATOM      6  C   UNL A   1      41.304  21.684  28.231  1.00  0.00     0.025 C 
BRANCH   5   7
ATOM      7  C   UNL A   1      39.381  22.095  26.614  1.00  0.00    -0.033 A 
ATOM      8  C   UNL A   1      39.339  23.381  27.180  1.00  0.00     0.004 A 
ATOM      9  C   UNL A   1      38.468  21.785  25.591  1.00  0.00     0.016 A 
ATOM     10  C   UNL A   1      38.423  24.333  26.733  1.00  0.00     0.001 A 
ATOM     11  C   UNL A   1      37.546  22.742  25.133  1.00  0.00     0.023 A 
ATOM     12  C   UNL A   1      37.534  24.016  25.710  1.00  0.00     0.012 A 
BRANCH  11  13
ATOM     13  C   UNL A   1      36.600  22.483  24.009  1.00  0.00     0.193 C 
ATOM     14  O   UNL A   1      36.922  22.717  22.848  1.00  0.00    -0.289 OA
BRANCH  13  15
ATOM     15  C   UNL A   1      35.281  21.886  24.263  1.00  0.00     0.022 A 
ATOM     16  C   UNL A   1      34.156  22.467  23.673  1.00  0.00     0.012 A 
ATOM     17  C   UNL A   1      35.171  20.755  25.072  1.00  0.00     0.012 A 
ATOM     18  C   UNL A   1      32.910  21.878  23.856  1.00  0.00     0.001 A 
ATOM     19  C   UNL A   1      33.917  20.184  25.267  1.00  0.00     0.001 A 
ATOM     20  C   UNL A   1      32.796  20.735  24.645  1.00  0.00     0.000 A 
ENDBRANCH  13  15
ENDBRANCH  11  13
ENDBRANCH   5   7
ENDBRANCH   3   5
ENDBRANCH   2   3
ENDBRANCH   1   2
BRANCH   1  21
ATOM     21  C   UNL A   1      44.284  22.284  25.259  1.00  0.00     0.275 C 
BRANCH  21  22
ATOM     22  O   UNL A   1      43.489  23.459  25.018  1.00  0.00    -0.458 OA
BRANCH  22  23
ATOM     23  C   UNL A   1      44.133  24.628  25.211  1.00  0.00     0.338 C 
ATOM     24  O   UNL A   1      45.113  25.038  24.595  1.00  0.00    -0.246 OA
BRANCH  23  25
ATOM     25  C   UNL A   1      43.439  25.449  26.211  1.00  0.00     0.060 A 
ATOM     26  C   UNL A   1      43.890  26.757  26.386  1.00  0.00     0.016 A 
ATOM     27  C   UNL A   1      42.461  24.920  27.054  1.00  0.00     0.016 A 
ATOM     28  C   UNL A   1      43.400  27.530  27.432  1.00  0.00     0.010 A 
ATOM     29  C   UNL A   1      41.954  25.707  28.098  1.00  0.00     0.010 A 
ATOM     30  C   UNL A   1      42.444  27.005  28.314  1.00  0.00    -0.014 A 
BRANCH  30  31
ATOM     31  C   UNL A   1      41.984  27.855  29.440  1.00  0.00     0.031 A 
ATOM     32  C   UNL A   1      40.771  28.729  29.314  1.00  0.00     0.074 A 
ATOM     33  C   UNL A   1      42.600  27.754  30.631  1.00  0.00     0.049 A 
ATOM     34  N   UNL A   1      40.032  29.231  30.271  1.00  0.00    -0.248 NA
ATOM     35  C   UNL A   1      40.280  29.030  27.962  1.00  0.00     0.031 C 
ATOM     36  C   UNL A   1      43.791  26.949  30.901  1.00  0.00     0.029 A 
ATOM     37  N   UNL A   1      42.318  28.356  31.831  1.00  0.00    -0.354 N 
ATOM     38  C   UNL A   1      38.925  29.782  29.643  1.00  0.00     0.074 A 
ATOM     39  C   UNL A   1      39.126  29.634  28.219  1.00  0.00     0.031 C 
ATOM     40  C   UNL A   1      44.170  27.150  32.173  1.00  0.00     0.029 A 
ATOM     41  C   UNL A   1      43.257  28.106  32.798  1.00  0.00     0.049 A 
ATOM     42  H   UNL A   1      41.520  28.912  31.982  1.00  0.00     0.167 HD
ATOM     43  C   UNL A   1      37.821  30.318  30.214  1.00  0.00     0.034 A 
ATOM     44  C   UNL A   1      43.389  28.622  34.035  1.00  0.00     0.034 A 
ATOM     45  C   UNL A   1      37.716  30.643  31.610  1.00  0.00     0.049 A 
ATOM     46  C   UNL A   1      42.319  29.533  34.562  1.00  0.00     0.074 A 
ATOM     47  C   UNL A   1      36.659  31.223  32.288  1.00  0.00     0.029 A 
ATOM     48  N   UNL A   1      38.751  30.510  32.522  1.00  0.00    -0.354 N 
ATOM     49  N   UNL A   1      41.155  29.824  34.033  1.00  0.00    -0.248 NA
ATOM     50  C   UNL A   1      42.561  30.169  35.864  1.00  0.00     0.031 C 
ATOM     51  C   UNL A   1      37.087  31.513  33.591  1.00  0.00     0.029 A 
ATOM     52  C   UNL A   1      38.398  31.085  33.730  1.00  0.00     0.049 A 
ATOM     53  H   UNL A   1      39.612  30.069  32.337  1.00  0.00     0.167 HD
ATOM     54  C   UNL A   1      40.514  30.655  34.944  1.00  0.00     0.074 A 
ATOM     55  C   UNL A   1      41.417  30.812  36.067  1.00  0.00     0.031 C 
ATOM     56  C   UNL A   1      39.291  31.235  34.852  1.00  0.00     0.034 A 
BRANCH  43  57
ATOM     57  C   UNL A   1      36.631  30.548  29.331  1.00  0.00     0.023 A 
ATOM     58  C   UNL A   1      36.073  29.438  28.663  1.00  0.00     0.012 A 
ATOM     59  C   UNL A   1      36.034  31.811  29.197  1.00  0.00     0.148 A 
ATOM     60  C   UNL A   1      34.935  29.584  27.871  1.00  0.00     0.002 A 
ATOM     61  C   UNL A   1      34.894  31.949  28.411  1.00  0.00     0.091 A 
ATOM     62  F   UNL A   1      36.603  32.854  29.818  1.00  0.00    -0.205 F 
ATOM     63  C   UNL A   1      34.342  30.838  27.750  1.00  0.00     0.022 A 
BRANCH  61  64
ATOM     64  S   UNL A   1      34.053  33.520  28.195  1.00  0.00     0.127 S 
ATOM     65  O   UNL A   1      32.867  33.116  27.440  1.00  0.00    -0.237 OA
ATOM     66  O   UNL A   1      33.789  33.923  29.576  1.00  0.00    -0.237 OA
ATOM     67  O   UNL A   1      34.985  34.377  27.477  1.00  0.00    -0.744 OA
ENDBRANCH  61  64
ENDBRANCH  43  57
BRANCH  44  68
ATOM     68  C   UNL A   1      44.607  28.299  34.826  1.00  0.00     0.023 A 
ATOM     69  C   UNL A   1      44.624  27.190  35.687  1.00  0.00     0.012 A 
ATOM     70  C   UNL A   1      45.778  29.068  34.668  1.00  0.00     0.148 A 
ATOM     71  C   UNL A   1      45.790  26.851  36.378  1.00  0.00     0.002 A 
ATOM     72  C   UNL A   1      46.950  28.691  35.310  1.00  0.00     0.091 A 
ATOM     73  F   UNL A   1      45.730  30.150  33.876  1.00  0.00    -0.205 F 
ATOM     74  C   UNL A   1      46.956  27.588  36.176  1.00  0.00     0.022 A 
BRANCH  72  75
ATOM     75  S   UNL A   1      48.513  29.510  34.971  1.00  0.00     0.127 S 
ATOM     76  O   UNL A   1      49.440  28.742  35.796  1.00  0.00    -0.237 OA
ATOM     77  O   UNL A   1      48.662  29.312  33.528  1.00  0.00    -0.237 OA
ATOM     78  O   UNL A   1      48.308  30.900  35.359  1.00  0.00    -0.744 OA
ENDBRANCH  72  75
ENDBRANCH  44  68
BRANCH  56  79
ATOM     79  C   UNL A   1      38.853  32.123  35.985  1.00  0.00     0.023 A 
ATOM     80  C   UNL A   1      39.062  33.514  35.891  1.00  0.00     0.012 A 
ATOM     81  C   UNL A   1      38.174  31.600  37.102  1.00  0.00     0.148 A 
ATOM     82  C   UNL A   1      38.622  34.366  36.903  1.00  0.00     0.002 A 
ATOM     83  C   UNL A   1      37.698  32.461  38.084  1.00  0.00     0.091 A 
ATOM     84  F   UNL A   1      38.008  30.272  37.188  1.00  0.00    -0.205 F 
ATOM     85  C   UNL A   1      37.928  33.843  37.992  1.00  0.00     0.022 A 
BRANCH  83  86
ATOM     86  S   UNL A   1      36.710  31.868  39.462  1.00  0.00     0.127 S 
ATOM     87  O   UNL A   1      37.102  32.787  40.529  1.00  0.00    -0.237 OA
ATOM     88  O   UNL A   1      35.341  32.050  38.975  1.00  0.00    -0.237 OA
ATOM     89  O   UNL A   1      37.097  30.477  39.649  1.00  0.00    -0.744 OA
ENDBRANCH  83  86
ENDBRANCH  56  79
ENDBRANCH  30  31
ENDBRANCH  23  25
ENDBRANCH  22  23
ENDBRANCH  21  22
ENDBRANCH   1  21
TORSDOF 17
ENDMDL
