MODEL 1
REMARK VINA RESULT:     -12.8      0.000      0.000
REMARK SMILES Cc1ccc2c(c1)c(-c1ccnc3c(C)cccc13)c(C)n2CC(=O)OCCOC(=O)c1ccc(-c2c3nc(c(-c4cccc(S(=O)(=O)[O-])c4F)c4ccc([nH]4)c(-c4cccc(S(=O)(=O)[O-])c4F)c4nc(c(-c5cccc(S(=O)(=O)[O-])c5F)c5ccc2[nH]5)C=C4)C=C3)cc1
REMARK SMILES IDX 28 1 27 2 26 3 24 4 25 5 23 6 22 7 1 8 2 9 3 10 7 11 4 12
REMARK SMILES IDX 6 13 5 14 8 15 20 16 21 17 9 18 10 19 19 20 11 21 13 22
REMARK SMILES IDX 18 23 12 24 14 25 17 26 15 27 16 28 29 29 30 30 31 31 32 32
REMARK SMILES IDX 33 33 94 34 34 35 93 36 35 37 36 38 37 39 87 40 38 41 92 42
REMARK SMILES IDX 86 43 88 44 39 45 91 46 85 47 84 48 40 50 72 51 52 52 71 53
REMARK SMILES IDX 53 54 56 55 70 56 89 57 54 58 55 59 69 61 90 62 57 63 41 64
REMARK SMILES IDX 42 65 50 66 43 67 45 68 51 69 44 70 46 71 47 72 48 73 49 74
REMARK SMILES IDX 73 75 74 76 82 77 75 78 77 79 83 80 76 81 78 82 79 83 80 84
REMARK SMILES IDX 81 85 58 86 59 87 67 88 60 89 62 90 68 91 61 92 63 93 64 94
REMARK SMILES IDX 65 95 66 96
REMARK H PARENT 88 49 56 60
REMARK Flexibility Score: inf
ROOT
ATOM      1  C   UNL A   1      32.956  30.380  26.956  1.00  0.00     0.275 C 
ENDROOT
BRANCH   1   2
ATOM      2  C   UNL A   1      32.495  29.438  25.838  1.00  0.00     0.274 C 
BRANCH   2   3
ATOM      3  O   UNL A   1      32.602  28.048  26.251  1.00  0.00    -0.461 OA
BRANCH   3   4
ATOM      4  C   UNL A   1      31.510  27.535  26.875  1.00  0.00     0.326 C 
ATOM      5  O   UNL A   1      31.135  27.914  27.984  1.00  0.00    -0.250 OA
BRANCH   4   6
ATOM      6  C   UNL A   1      30.750  26.458  26.138  1.00  0.00     0.244 C 
BRANCH   6   7
ATOM      7  N   UNL A   1      31.470  25.480  25.332  1.00  0.00    -0.333 N 
ATOM      8  C   UNL A   1      32.646  25.520  19.822  1.00  0.00     0.044 C 
ATOM      9  C   UNL A   1      32.292  25.550  21.275  1.00  0.00    -0.050 A 
ATOM     10  C   UNL A   1      31.632  26.666  21.791  1.00  0.00     0.005 A 
ATOM     11  C   UNL A   1      32.604  24.467  22.110  1.00  0.00     0.014 A 
ATOM     12  C   UNL A   1      31.286  26.738  23.135  1.00  0.00     0.027 A 
ATOM     13  C   UNL A   1      32.312  24.542  23.484  1.00  0.00     0.008 A 
ATOM     14  C   UNL A   1      31.643  25.666  23.967  1.00  0.00     0.049 A 
ATOM     15  C   UNL A   1      32.583  23.712  24.600  1.00  0.00     0.011 A 
ATOM     16  C   UNL A   1      32.326  24.465  25.734  1.00  0.00     0.024 A 
ATOM     17  C   UNL A   1      32.898  24.221  27.084  1.00  0.00     0.065 C 
BRANCH  15  18
ATOM     18  C   UNL A   1      33.219  22.407  24.688  1.00  0.00    -0.005 A 
ATOM     19  C   UNL A   1      32.423  21.268  24.734  1.00  0.00     0.029 A 
ATOM     20  C   UNL A   1      34.632  22.300  24.652  1.00  0.00     0.008 A 
ATOM     21  C   UNL A   1      33.063  20.051  24.777  1.00  0.00     0.112 A 
ATOM     22  C   UNL A   1      35.188  21.005  24.742  1.00  0.00     0.074 A 
ATOM     23  C   UNL A   1      35.494  23.420  24.523  1.00  0.00     0.011 A 
ATOM     24  N   UNL A   1      34.405  19.905  24.806  1.00  0.00    -0.256 NA
ATOM     25  C   UNL A   1      36.587  20.884  24.761  1.00  0.00    -0.025 A 
ATOM     26  C   UNL A   1      36.874  23.279  24.512  1.00  0.00     0.001 A 
ATOM     27  C   UNL A   1      37.255  19.546  24.929  1.00  0.00     0.047 C 
ATOM     28  C   UNL A   1      37.420  22.014  24.649  1.00  0.00     0.005 A 
ENDBRANCH  15  18
ENDBRANCH   6   7
ENDBRANCH   4   6
ENDBRANCH   3   4
ENDBRANCH   2   3
ENDBRANCH   1   2
BRANCH   1  29
ATOM     29  O   UNL A   1      34.391  30.460  26.947  1.00  0.00    -0.458 OA
BRANCH  29  30
ATOM     30  C   UNL A   1      34.931  31.464  27.677  1.00  0.00     0.338 C 
ATOM     31  O   UNL A   1      34.399  32.524  27.973  1.00  0.00    -0.246 OA
BRANCH  30  32
ATOM     32  C   UNL A   1      36.076  30.868  28.390  1.00  0.00     0.060 A 
ATOM     33  C   UNL A   1      37.188  31.592  28.799  1.00  0.00     0.016 A 
ATOM     34  C   UNL A   1      36.117  29.480  28.393  1.00  0.00     0.016 A 
ATOM     35  C   UNL A   1      38.383  30.908  29.017  1.00  0.00     0.010 A 
ATOM     36  C   UNL A   1      37.306  28.800  28.576  1.00  0.00     0.010 A 
ATOM     37  C   UNL A   1      38.461  29.524  28.790  1.00  0.00    -0.014 A 
BRANCH  37  38
ATOM     38  C   UNL A   1      39.674  28.785  29.109  1.00  0.00     0.031 A 
ATOM     39  C   UNL A   1      39.965  28.907  30.551  1.00  0.00     0.074 A 
ATOM     40  C   UNL A   1      40.435  28.003  28.316  1.00  0.00     0.049 A 
ATOM     41  N   UNL A   1      40.683  29.837  31.081  1.00  0.00    -0.248 NA
ATOM     42  C   UNL A   1      39.196  28.104  31.513  1.00  0.00     0.031 C 
ATOM     43  C   UNL A   1      40.178  27.491  26.969  1.00  0.00     0.029 A 
ATOM     44  N   UNL A   1      41.643  27.447  28.621  1.00  0.00    -0.354 N 
ATOM     45  C   UNL A   1      40.671  29.564  32.437  1.00  0.00     0.074 A 
ATOM     46  C   UNL A   1      39.571  28.665  32.666  1.00  0.00     0.031 C 
ATOM     47  C   UNL A   1      41.117  26.559  26.651  1.00  0.00     0.029 A 
ATOM     48  C   UNL A   1      42.127  26.525  27.697  1.00  0.00     0.049 A 
ATOM     49  H   UNL A   1      42.139  27.682  29.439  1.00  0.00     0.167 HD
ATOM     50  C   UNL A   1      41.747  29.865  33.208  1.00  0.00     0.034 A 
ATOM     51  C   UNL A   1      43.275  25.805  27.817  1.00  0.00     0.034 A 
ATOM     52  C   UNL A   1      42.682  30.714  32.514  1.00  0.00     0.049 A 
ATOM     53  C   UNL A   1      44.154  26.592  28.715  1.00  0.00     0.074 A 
ATOM     54  C   UNL A   1      42.626  31.965  31.932  1.00  0.00     0.029 A 
ATOM     55  N   UNL A   1      43.771  30.080  31.968  1.00  0.00    -0.354 N 
ATOM     56  N   UNL A   1      44.659  27.752  28.403  1.00  0.00    -0.248 NA
ATOM     57  C   UNL A   1      44.193  26.244  30.124  1.00  0.00     0.031 C 
ATOM     58  C   UNL A   1      43.430  31.866  30.759  1.00  0.00     0.029 A 
ATOM     59  C   UNL A   1      43.975  30.581  30.711  1.00  0.00     0.049 A 
ATOM     60  H   UNL A   1      44.313  29.385  32.406  1.00  0.00     0.167 HD
ATOM     61  C   UNL A   1      44.659  28.454  29.598  1.00  0.00     0.074 A 
ATOM     62  C   UNL A   1      44.484  27.442  30.635  1.00  0.00     0.031 C 
ATOM     63  C   UNL A   1      44.513  29.809  29.611  1.00  0.00     0.034 A 
BRANCH  50  64
ATOM     64  C   UNL A   1      42.151  29.063  34.410  1.00  0.00     0.023 A 
ATOM     65  C   UNL A   1      42.455  29.768  35.592  1.00  0.00     0.012 A 
ATOM     66  C   UNL A   1      42.492  27.693  34.361  1.00  0.00     0.148 A 
ATOM     67  C   UNL A   1      43.073  29.134  36.673  1.00  0.00     0.002 A 
ATOM     68  C   UNL A   1      43.023  27.049  35.468  1.00  0.00     0.091 A 
ATOM     69  F   UNL A   1      42.442  27.034  33.198  1.00  0.00    -0.205 F 
ATOM     70  C   UNL A   1      43.338  27.770  36.619  1.00  0.00     0.022 A 
BRANCH  68  71
ATOM     71  S   UNL A   1      43.345  25.282  35.455  1.00  0.00     0.127 S 
ATOM     72  O   UNL A   1      42.015  24.747  35.183  1.00  0.00    -0.237 OA
ATOM     73  O   UNL A   1      44.302  25.163  34.356  1.00  0.00    -0.237 OA
ATOM     74  O   UNL A   1      43.904  24.981  36.767  1.00  0.00    -0.744 OA
ENDBRANCH  68  71
ENDBRANCH  50  64
BRANCH  51  75
ATOM     75  C   UNL A   1      43.659  24.420  27.427  1.00  0.00     0.023 A 
ATOM     76  C   UNL A   1      42.888  23.335  27.911  1.00  0.00     0.012 A 
ATOM     77  C   UNL A   1      44.515  24.178  26.334  1.00  0.00     0.148 A 
ATOM     78  C   UNL A   1      42.896  22.087  27.275  1.00  0.00     0.002 A 
ATOM     79  C   UNL A   1      44.526  22.929  25.708  1.00  0.00     0.091 A 
ATOM     80  F   UNL A   1      45.240  25.193  25.846  1.00  0.00    -0.205 F 
ATOM     81  C   UNL A   1      43.702  21.889  26.160  1.00  0.00     0.022 A 
BRANCH  79  82
ATOM     82  S   UNL A   1      45.535  22.594  24.256  1.00  0.00     0.127 S 
ATOM     83  O   UNL A   1      46.412  21.522  24.732  1.00  0.00    -0.237 OA
ATOM     84  O   UNL A   1      44.534  22.175  23.280  1.00  0.00    -0.237 OA
ATOM     85  O   UNL A   1      46.226  23.844  23.965  1.00  0.00    -0.744 OA
ENDBRANCH  79  82
ENDBRANCH  51  75
BRANCH  63  86
ATOM     86  C   UNL A   1      44.695  30.555  28.316  1.00  0.00     0.023 A 
ATOM     87  C   UNL A   1      43.618  30.861  27.459  1.00  0.00     0.012 A 
ATOM     88  C   UNL A   1      45.946  31.151  28.086  1.00  0.00     0.148 A 
ATOM     89  C   UNL A   1      43.786  31.763  26.402  1.00  0.00     0.002 A 
ATOM     90  C   UNL A   1      46.097  32.079  27.066  1.00  0.00     0.091 A 
ATOM     91  F   UNL A   1      46.951  30.842  28.920  1.00  0.00    -0.205 F 
ATOM     92  C   UNL A   1      45.020  32.386  26.218  1.00  0.00     0.022 A 
BRANCH  90  93
ATOM     93  S   UNL A   1      47.616  33.009  26.851  1.00  0.00     0.127 S 
ATOM     94  O   UNL A   1      47.781  33.635  28.162  1.00  0.00    -0.237 OA
ATOM     95  O   UNL A   1      48.581  31.950  26.552  1.00  0.00    -0.237 OA
ATOM     96  O   UNL A   1      47.376  33.937  25.753  1.00  0.00    -0.744 OA
ENDBRANCH  90  93
ENDBRANCH  63  86
ENDBRANCH  37  38
ENDBRANCH  30  32
ENDBRANCH  29  30
ENDBRANCH   1  29
TORSDOF 16
ENDMDL
MODEL 2
REMARK VINA RESULT:     -12.8      4.601      9.713
REMARK SMILES Cc1ccc2c(c1)c(-c1ccnc3c(C)cccc13)c(C)n2CC(=O)OCCOC(=O)c1ccc(-c2c3nc(c(-c4cccc(S(=O)(=O)[O-])c4F)c4ccc([nH]4)c(-c4cccc(S(=O)(=O)[O-])c4F)c4nc(c(-c5cccc(S(=O)(=O)[O-])c5F)c5ccc2[nH]5)C=C4)C=C3)cc1
REMARK SMILES IDX 28 1 27 2 26 3 24 4 25 5 23 6 22 7 1 8 2 9 3 10 7 11 4 12
REMARK SMILES IDX 6 13 5 14 8 15 20 16 21 17 9 18 10 19 19 20 11 21 13 22
REMARK SMILES IDX 18 23 12 24 14 25 17 26 15 27 16 28 29 29 30 30 31 31 32 32
REMARK SMILES IDX 33 33 94 34 34 35 93 36 35 37 36 38 37 39 87 40 38 41 92 42
REMARK SMILES IDX 86 43 88 44 39 45 91 46 85 47 84 48 40 50 72 51 52 52 71 53
REMARK SMILES IDX 53 54 56 55 70 56 89 57 54 58 55 59 69 61 90 62 57 63 41 64
REMARK SMILES IDX 42 65 50 66 43 67 45 68 51 69 44 70 46 71 47 72 48 73 49 74
REMARK SMILES IDX 73 75 74 76 82 77 75 78 77 79 83 80 76 81 78 82 79 83 80 84
REMARK SMILES IDX 81 85 58 86 59 87 67 88 60 89 62 90 68 91 61 92 63 93 64 94
REMARK SMILES IDX 65 95 66 96
REMARK H PARENT 88 49 56 60
REMARK Flexibility Score: inf
ROOT
ATOM      1  C   UNL A   1      40.599  24.326  26.455  1.00  0.00     0.275 C 
ENDROOT
BRANCH   1   2
ATOM      2  C   UNL A   1      40.069  22.893  26.578  1.00  0.00     0.274 C 
BRANCH   2   3
ATOM      3  O   UNL A   1      38.692  22.806  26.120  1.00  0.00    -0.461 OA
BRANCH   3   4
ATOM      4  C   UNL A   1      38.341  21.633  25.532  1.00  0.00     0.326 C 
ATOM      5  O   UNL A   1      38.799  20.547  25.884  1.00  0.00    -0.250 OA
BRANCH   4   6
ATOM      6  C   UNL A   1      37.338  21.710  24.405  1.00  0.00     0.244 C 
BRANCH   6   7
ATOM      7  N   UNL A   1      35.911  21.644  24.694  1.00  0.00    -0.333 N 
ATOM      8  C   UNL A   1      32.521  17.159  25.078  1.00  0.00     0.044 C 
ATOM      9  C   UNL A   1      33.460  18.317  24.947  1.00  0.00    -0.050 A 
ATOM     10  C   UNL A   1      34.814  18.070  24.717  1.00  0.00     0.005 A 
ATOM     11  C   UNL A   1      32.989  19.635  25.040  1.00  0.00     0.014 A 
ATOM     12  C   UNL A   1      35.723  19.115  24.591  1.00  0.00     0.027 A 
ATOM     13  C   UNL A   1      33.900  20.705  24.969  1.00  0.00     0.008 A 
ATOM     14  C   UNL A   1      35.245  20.427  24.729  1.00  0.00     0.049 A 
ATOM     15  C   UNL A   1      33.792  22.108  25.134  1.00  0.00     0.011 A 
ATOM     16  C   UNL A   1      35.081  22.598  25.263  1.00  0.00     0.024 A 
ATOM     17  C   UNL A   1      35.460  23.879  25.916  1.00  0.00     0.065 C 
BRANCH  15  18
ATOM     18  C   UNL A   1      32.635  22.956  25.368  1.00  0.00    -0.005 A 
ATOM     19  C   UNL A   1      31.983  22.889  26.595  1.00  0.00     0.029 A 
ATOM     20  C   UNL A   1      32.225  23.890  24.382  1.00  0.00     0.008 A 
ATOM     21  C   UNL A   1      30.917  23.735  26.791  1.00  0.00     0.112 A 
ATOM     22  C   UNL A   1      31.094  24.684  24.670  1.00  0.00     0.074 A 
ATOM     23  C   UNL A   1      32.900  24.062  23.146  1.00  0.00     0.011 A 
ATOM     24  N   UNL A   1      30.455  24.597  25.858  1.00  0.00    -0.256 NA
ATOM     25  C   UNL A   1      30.642  25.577  23.684  1.00  0.00    -0.025 A 
ATOM     26  C   UNL A   1      32.458  24.972  22.196  1.00  0.00     0.001 A 
ATOM     27  C   UNL A   1      29.401  26.403  23.885  1.00  0.00     0.047 C 
ATOM     28  C   UNL A   1      31.320  25.715  22.458  1.00  0.00     0.005 A 
ENDBRANCH  15  18
ENDBRANCH   6   7
ENDBRANCH   4   6
ENDBRANCH   3   4
ENDBRANCH   2   3
ENDBRANCH   1   2
BRANCH   1  29
ATOM     29  O   UNL A   1      39.898  25.171  27.381  1.00  0.00    -0.458 OA
BRANCH  29  30
ATOM     30  C   UNL A   1      40.541  25.435  28.543  1.00  0.00     0.338 C 
ATOM     31  O   UNL A   1      41.597  24.952  28.924  1.00  0.00    -0.246 OA
BRANCH  30  32
ATOM     32  C   UNL A   1      39.967  26.701  29.037  1.00  0.00     0.060 A 
ATOM     33  C   UNL A   1      40.468  27.953  28.707  1.00  0.00     0.016 A 
ATOM     34  C   UNL A   1      39.059  26.576  30.080  1.00  0.00     0.016 A 
ATOM     35  C   UNL A   1      40.195  29.025  29.556  1.00  0.00     0.010 A 
ATOM     36  C   UNL A   1      38.812  27.625  30.944  1.00  0.00     0.010 A 
ATOM     37  C   UNL A   1      39.461  28.825  30.737  1.00  0.00    -0.014 A 
BRANCH  37  38
ATOM     38  C   UNL A   1      39.086  29.952  31.578  1.00  0.00     0.031 A 
ATOM     39  C   UNL A   1      38.041  30.749  30.906  1.00  0.00     0.074 A 
ATOM     40  C   UNL A   1      39.492  30.261  32.827  1.00  0.00     0.049 A 
ATOM     41  N   UNL A   1      38.268  31.735  30.107  1.00  0.00    -0.248 NA
ATOM     42  C   UNL A   1      36.654  30.262  30.900  1.00  0.00     0.031 C 
ATOM     43  C   UNL A   1      40.260  29.473  33.792  1.00  0.00     0.029 A 
ATOM     44  N   UNL A   1      39.225  31.406  33.521  1.00  0.00    -0.354 N 
ATOM     45  C   UNL A   1      37.015  32.164  29.710  1.00  0.00     0.074 A 
ATOM     46  C   UNL A   1      36.098  31.098  30.019  1.00  0.00     0.031 C 
ATOM     47  C   UNL A   1      40.239  30.093  35.003  1.00  0.00     0.029 A 
ATOM     48  C   UNL A   1      39.600  31.392  34.862  1.00  0.00     0.049 A 
ATOM     49  H   UNL A   1      38.796  32.187  33.102  1.00  0.00     0.167 HD
ATOM     50  C   UNL A   1      36.792  33.475  29.435  1.00  0.00     0.034 A 
ATOM     51  C   UNL A   1      39.382  32.391  35.759  1.00  0.00     0.034 A 
ATOM     52  C   UNL A   1      38.023  34.216  29.330  1.00  0.00     0.049 A 
ATOM     53  C   UNL A   1      39.270  33.635  34.960  1.00  0.00     0.074 A 
ATOM     54  C   UNL A   1      39.149  34.139  28.535  1.00  0.00     0.029 A 
ATOM     55  N   UNL A   1      38.381  34.937  30.442  1.00  0.00    -0.354 N 
ATOM     56  N   UNL A   1      40.256  34.159  34.289  1.00  0.00    -0.248 NA
ATOM     57  C   UNL A   1      37.944  34.119  34.617  1.00  0.00     0.031 C 
ATOM     58  C   UNL A   1      40.238  34.452  29.401  1.00  0.00     0.029 A 
ATOM     59  C   UNL A   1      39.720  34.752  30.662  1.00  0.00     0.049 A 
ATOM     60  H   UNL A   1      37.779  35.492  30.988  1.00  0.00     0.167 HD
ATOM     61  C   UNL A   1      39.654  34.683  33.156  1.00  0.00     0.074 A 
ATOM     62  C   UNL A   1      38.231  34.742  33.473  1.00  0.00     0.031 C 
ATOM     63  C   UNL A   1      40.330  34.749  31.975  1.00  0.00     0.034 A 
BRANCH  50  64
ATOM     64  C   UNL A   1      35.479  34.157  29.678  1.00  0.00     0.023 A 
ATOM     65  C   UNL A   1      34.861  34.793  28.582  1.00  0.00     0.012 A 
ATOM     66  C   UNL A   1      34.957  34.423  30.964  1.00  0.00     0.148 A 
ATOM     67  C   UNL A   1      33.777  35.655  28.763  1.00  0.00     0.002 A 
ATOM     68  C   UNL A   1      33.827  35.207  31.129  1.00  0.00     0.091 A 
ATOM     69  F   UNL A   1      35.636  34.039  32.050  1.00  0.00    -0.205 F 
ATOM     70  C   UNL A   1      33.246  35.847  30.034  1.00  0.00     0.022 A 
BRANCH  68  71
ATOM     71  S   UNL A   1      33.086  35.450  32.747  1.00  0.00     0.127 S 
ATOM     72  O   UNL A   1      31.974  36.338  32.427  1.00  0.00    -0.237 OA
ATOM     73  O   UNL A   1      32.710  34.084  33.109  1.00  0.00    -0.237 OA
ATOM     74  O   UNL A   1      34.143  36.015  33.576  1.00  0.00    -0.744 OA
ENDBRANCH  68  71
ENDBRANCH  50  64
BRANCH  51  75
ATOM     75  C   UNL A   1      39.053  32.407  37.211  1.00  0.00     0.023 A 
ATOM     76  C   UNL A   1      39.627  33.409  38.032  1.00  0.00     0.012 A 
ATOM     77  C   UNL A   1      37.941  31.705  37.718  1.00  0.00     0.148 A 
ATOM     78  C   UNL A   1      39.061  33.764  39.263  1.00  0.00     0.002 A 
ATOM     79  C   UNL A   1      37.385  32.057  38.950  1.00  0.00     0.091 A 
ATOM     80  F   UNL A   1      37.370  30.765  36.954  1.00  0.00    -0.205 F 
ATOM     81  C   UNL A   1      37.927  33.100  39.714  1.00  0.00     0.022 A 
BRANCH  79  82
ATOM     82  S   UNL A   1      35.914  31.251  39.602  1.00  0.00     0.127 S 
ATOM     83  O   UNL A   1      35.936  29.963  38.907  1.00  0.00    -0.237 OA
ATOM     84  O   UNL A   1      36.214  31.180  41.029  1.00  0.00    -0.237 OA
ATOM     85  O   UNL A   1      34.799  32.112  39.228  1.00  0.00    -0.744 OA
ENDBRANCH  79  82
ENDBRANCH  51  75
BRANCH  63  86
ATOM     86  C   UNL A   1      41.825  34.567  32.000  1.00  0.00     0.023 A 
ATOM     87  C   UNL A   1      42.709  35.605  32.358  1.00  0.00     0.012 A 
ATOM     88  C   UNL A   1      42.316  33.256  31.880  1.00  0.00     0.148 A 
ATOM     89  C   UNL A   1      44.058  35.333  32.611  1.00  0.00     0.002 A 
ATOM     90  C   UNL A   1      43.644  32.983  32.176  1.00  0.00     0.091 A 
ATOM     91  F   UNL A   1      41.450  32.289  31.541  1.00  0.00    -0.205 F 
ATOM     92  C   UNL A   1      44.520  34.019  32.539  1.00  0.00     0.022 A 
BRANCH  90  93
ATOM     93  S   UNL A   1      44.274  31.304  32.226  1.00  0.00     0.127 S 
ATOM     94  O   UNL A   1      43.858  30.781  30.926  1.00  0.00    -0.237 OA
ATOM     95  O   UNL A   1      45.714  31.524  32.364  1.00  0.00    -0.237 OA
ATOM     96  O   UNL A   1      43.646  30.665  33.375  1.00  0.00    -0.744 OA
ENDBRANCH  90  93
ENDBRANCH  63  86
ENDBRANCH  37  38
ENDBRANCH  30  32
ENDBRANCH  29  30
ENDBRANCH   1  29
TORSDOF 16
ENDMDL
MODEL 3
REMARK VINA RESULT:     -12.7      3.541      7.826
REMARK SMILES Cc1ccc2c(c1)c(-c1ccnc3c(C)cccc13)c(C)n2CC(=O)OCCOC(=O)c1ccc(-c2c3nc(c(-c4cccc(S(=O)(=O)[O-])c4F)c4ccc([nH]4)c(-c4cccc(S(=O)(=O)[O-])c4F)c4nc(c(-c5cccc(S(=O)(=O)[O-])c5F)c5ccc2[nH]5)C=C4)C=C3)cc1
REMARK SMILES IDX 28 1 27 2 26 3 24 4 25 5 23 6 22 7 1 8 2 9 3 10 7 11 4 12
REMARK SMILES IDX 6 13 5 14 8 15 20 16 21 17 9 18 10 19 19 20 11 21 13 22
REMARK SMILES IDX 18 23 12 24 14 25 17 26 15 27 16 28 29 29 30 30 31 31 32 32
REMARK SMILES IDX 33 33 94 34 34 35 93 36 35 37 36 38 37 39 87 40 38 41 92 42
REMARK SMILES IDX 86 43 88 44 39 45 91 46 85 47 84 48 40 50 72 51 52 52 71 53
REMARK SMILES IDX 53 54 56 55 70 56 89 57 54 58 55 59 69 61 90 62 57 63 41 64
REMARK SMILES IDX 42 65 50 66 43 67 45 68 51 69 44 70 46 71 47 72 48 73 49 74
REMARK SMILES IDX 73 75 74 76 82 77 75 78 77 79 83 80 76 81 78 82 79 83 80 84
REMARK SMILES IDX 81 85 58 86 59 87 67 88 60 89 62 90 68 91 61 92 63 93 64 94
REMARK SMILES IDX 65 95 66 96
REMARK H PARENT 88 49 56 60
REMARK Flexibility Score: inf
ROOT
ATOM      1  C   UNL A   1      31.400  30.247  25.608  1.00  0.00     0.275 C 
ENDROOT
BRANCH   1   2
ATOM      2  C   UNL A   1      31.720  28.903  24.945  1.00  0.00     0.274 C 
BRANCH   2   3
ATOM      3  O   UNL A   1      32.227  27.949  25.919  1.00  0.00    -0.461 OA
BRANCH   3   4
ATOM      4  C   UNL A   1      31.285  27.258  26.611  1.00  0.00     0.326 C 
ATOM      5  O   UNL A   1      30.970  27.535  27.767  1.00  0.00    -0.250 OA
BRANCH   4   6
ATOM      6  C   UNL A   1      30.618  26.111  25.891  1.00  0.00     0.244 C 
BRANCH   6   7
ATOM      7  N   UNL A   1      31.420  25.173  25.115  1.00  0.00    -0.333 N 
ATOM      8  C   UNL A   1      32.757  25.248  19.642  1.00  0.00     0.044 C 
ATOM      9  C   UNL A   1      32.358  25.266  21.084  1.00  0.00    -0.050 A 
ATOM     10  C   UNL A   1      31.617  26.343  21.571  1.00  0.00     0.005 A 
ATOM     11  C   UNL A   1      32.709  24.209  21.937  1.00  0.00     0.014 A 
ATOM     12  C   UNL A   1      31.227  26.403  22.903  1.00  0.00     0.027 A 
ATOM     13  C   UNL A   1      32.371  24.275  23.301  1.00  0.00     0.008 A 
ATOM     14  C   UNL A   1      31.622  25.360  23.755  1.00  0.00     0.049 A 
ATOM     15  C   UNL A   1      32.658  23.470  24.431  1.00  0.00     0.011 A 
ATOM     16  C   UNL A   1      32.322  24.214  25.551  1.00  0.00     0.024 A 
ATOM     17  C   UNL A   1      32.867  24.014  26.919  1.00  0.00     0.065 C 
BRANCH  15  18
ATOM     18  C   UNL A   1      33.368  22.207  24.549  1.00  0.00    -0.005 A 
ATOM     19  C   UNL A   1      32.644  21.020  24.539  1.00  0.00     0.029 A 
ATOM     20  C   UNL A   1      34.785  22.188  24.598  1.00  0.00     0.008 A 
ATOM     21  C   UNL A   1      33.355  19.845  24.613  1.00  0.00     0.112 A 
ATOM     22  C   UNL A   1      35.415  20.930  24.713  1.00  0.00     0.074 A 
ATOM     23  C   UNL A   1      35.581  23.361  24.529  1.00  0.00     0.011 A 
ATOM     24  N   UNL A   1      34.700  19.783  24.723  1.00  0.00    -0.256 NA
ATOM     25  C   UNL A   1      36.815  20.896  24.816  1.00  0.00    -0.025 A 
ATOM     26  C   UNL A   1      36.966  23.306  24.601  1.00  0.00     0.001 A 
ATOM     27  C   UNL A   1      37.554  19.600  25.016  1.00  0.00     0.047 C 
ATOM     28  C   UNL A   1      37.580  22.076  24.763  1.00  0.00     0.005 A 
ENDBRANCH  15  18
ENDBRANCH   6   7
ENDBRANCH   4   6
ENDBRANCH   3   4
ENDBRANCH   2   3
ENDBRANCH   1   2
BRANCH   1  29
ATOM     29  O   UNL A   1      32.603  30.797  26.169  1.00  0.00    -0.458 OA
BRANCH  29  30
ATOM     30  C   UNL A   1      32.449  31.919  26.912  1.00  0.00     0.338 C 
ATOM     31  O   UNL A   1      31.413  32.541  27.096  1.00  0.00    -0.246 OA
BRANCH  30  32
ATOM     32  C   UNL A   1      33.639  31.989  27.780  1.00  0.00     0.060 A 
ATOM     33  C   UNL A   1      34.271  33.177  28.124  1.00  0.00     0.016 A 
ATOM     34  C   UNL A   1      34.273  30.777  28.020  1.00  0.00     0.016 A 
ATOM     35  C   UNL A   1      35.606  33.129  28.523  1.00  0.00     0.010 A 
ATOM     36  C   UNL A   1      35.604  30.725  28.384  1.00  0.00     0.010 A 
ATOM     37  C   UNL A   1      36.299  31.908  28.539  1.00  0.00    -0.014 A 
BRANCH  37  38
ATOM     38  C   UNL A   1      37.660  31.832  29.047  1.00  0.00     0.031 A 
ATOM     39  C   UNL A   1      38.206  30.481  28.805  1.00  0.00     0.074 A 
ATOM     40  C   UNL A   1      38.430  32.800  29.584  1.00  0.00     0.049 A 
ATOM     41  N   UNL A   1      38.105  29.489  29.621  1.00  0.00    -0.248 NA
ATOM     42  C   UNL A   1      38.665  30.120  27.456  1.00  0.00     0.031 C 
ATOM     43  C   UNL A   1      38.226  34.248  29.636  1.00  0.00     0.029 A 
ATOM     44  N   UNL A   1      39.649  32.649  30.180  1.00  0.00    -0.354 N 
ATOM     45  C   UNL A   1      38.739  28.439  28.983  1.00  0.00     0.074 A 
ATOM     46  C   UNL A   1      38.840  28.803  27.594  1.00  0.00     0.031 C 
ATOM     47  C   UNL A   1      39.366  34.852  30.069  1.00  0.00     0.029 A 
ATOM     48  C   UNL A   1      40.319  33.833  30.477  1.00  0.00     0.049 A 
ATOM     49  H   UNL A   1      40.028  31.763  30.386  1.00  0.00     0.167 HD
ATOM     50  C   UNL A   1      39.393  27.492  29.702  1.00  0.00     0.034 A 
ATOM     51  C   UNL A   1      41.564  33.928  31.016  1.00  0.00     0.034 A 
ATOM     52  C   UNL A   1      39.083  27.576  31.107  1.00  0.00     0.049 A 
ATOM     53  C   UNL A   1      41.782  32.664  31.759  1.00  0.00     0.074 A 
ATOM     54  C   UNL A   1      37.930  27.496  31.863  1.00  0.00     0.029 A 
ATOM     55  N   UNL A   1      40.014  28.219  31.885  1.00  0.00    -0.354 N 
ATOM     56  N   UNL A   1      41.113  32.322  32.823  1.00  0.00    -0.248 NA
ATOM     57  C   UNL A   1      42.519  31.597  31.106  1.00  0.00     0.031 C 
ATOM     58  C   UNL A   1      38.094  28.466  32.895  1.00  0.00     0.029 A 
ATOM     59  C   UNL A   1      39.353  29.051  32.748  1.00  0.00     0.049 A 
ATOM     60  H   UNL A   1      40.990  28.101  31.832  1.00  0.00     0.167 HD
ATOM     61  C   UNL A   1      40.976  30.947  32.710  1.00  0.00     0.074 A 
ATOM     62  C   UNL A   1      41.963  30.547  31.712  1.00  0.00     0.031 C 
ATOM     63  C   UNL A   1      39.887  30.310  33.224  1.00  0.00     0.034 A 
BRANCH  50  64
ATOM     64  C   UNL A   1      40.614  26.775  29.206  1.00  0.00     0.023 A 
ATOM     65  C   UNL A   1      41.817  27.507  29.137  1.00  0.00     0.012 A 
ATOM     66  C   UNL A   1      40.580  25.514  28.570  1.00  0.00     0.148 A 
ATOM     67  C   UNL A   1      42.932  27.003  28.462  1.00  0.00     0.002 A 
ATOM     68  C   UNL A   1      41.715  24.981  27.980  1.00  0.00     0.091 A 
ATOM     69  F   UNL A   1      39.414  24.883  28.403  1.00  0.00    -0.205 F 
ATOM     70  C   UNL A   1      42.888  25.731  27.901  1.00  0.00     0.022 A 
BRANCH  68  71
ATOM     71  S   UNL A   1      41.714  23.328  27.277  1.00  0.00     0.127 S 
ATOM     72  O   UNL A   1      41.553  22.505  28.472  1.00  0.00    -0.237 OA
ATOM     73  O   UNL A   1      40.549  23.381  26.395  1.00  0.00    -0.237 OA
ATOM     74  O   UNL A   1      42.986  23.204  26.577  1.00  0.00    -0.744 OA
ENDBRANCH  68  71
ENDBRANCH  50  64
BRANCH  51  75
ATOM     75  C   UNL A   1      42.693  34.879  30.819  1.00  0.00     0.023 A 
ATOM     76  C   UNL A   1      43.171  35.111  29.506  1.00  0.00     0.012 A 
ATOM     77  C   UNL A   1      43.054  35.805  31.819  1.00  0.00     0.148 A 
ATOM     78  C   UNL A   1      43.897  36.264  29.181  1.00  0.00     0.002 A 
ATOM     79  C   UNL A   1      43.785  36.950  31.491  1.00  0.00     0.091 A 
ATOM     80  F   UNL A   1      42.599  35.618  33.065  1.00  0.00    -0.205 F 
ATOM     81  C   UNL A   1      44.188  37.194  30.171  1.00  0.00     0.022 A 
BRANCH  79  82
ATOM     82  S   UNL A   1      44.197  38.205  32.712  1.00  0.00     0.127 S 
ATOM     83  O   UNL A   1      42.988  38.240  33.537  1.00  0.00    -0.237 OA
ATOM     84  O   UNL A   1      45.365  37.622  33.365  1.00  0.00    -0.237 OA
ATOM     85  O   UNL A   1      44.435  39.426  31.952  1.00  0.00    -0.744 OA
ENDBRANCH  79  82
ENDBRANCH  51  75
BRANCH  63  86
ATOM     86  C   UNL A   1      39.018  31.061  34.199  1.00  0.00     0.023 A 
ATOM     87  C   UNL A   1      39.353  31.198  35.562  1.00  0.00     0.012 A 
ATOM     88  C   UNL A   1      37.969  31.829  33.667  1.00  0.00     0.148 A 
ATOM     89  C   UNL A   1      38.661  32.103  36.374  1.00  0.00     0.002 A 
ATOM     90  C   UNL A   1      37.316  32.757  34.464  1.00  0.00     0.091 A 
ATOM     91  F   UNL A   1      37.676  31.678  32.367  1.00  0.00    -0.205 F 
ATOM     92  C   UNL A   1      37.656  32.896  35.820  1.00  0.00     0.022 A 
BRANCH  90  93
ATOM     93  S   UNL A   1      36.104  33.895  33.790  1.00  0.00     0.127 S 
ATOM     94  O   UNL A   1      35.291  33.016  32.951  1.00  0.00    -0.237 OA
ATOM     95  O   UNL A   1      35.434  34.378  34.999  1.00  0.00    -0.237 OA
ATOM     96  O   UNL A   1      36.855  34.913  33.067  1.00  0.00    -0.744 OA
ENDBRANCH  90  93
ENDBRANCH  63  86
ENDBRANCH  37  38
ENDBRANCH  30  32
ENDBRANCH  29  30
ENDBRANCH   1  29
TORSDOF 16
ENDMDL
