MODEL 1
REMARK VINA RESULT:     -10.4      0.000      0.000
REMARK SMILES CCc1nsc(NC[C@H](CC(C)C)C(=O)OCCOC(=O)c2ccc(-c3c4nc(c(-c5cccc(S(=O)(=O)[O-])c5F)c5ccc([nH]5)c(-c5cccc(S(=O)(=O)[O-])c5F)c5nc(c(-c6cccc(S(=O)(=O)[O-])c6F)c6ccc3[nH]6)C=C5)C=C4)cc2)n1
REMARK SMILES IDX 17 1 16 2 14 3 15 4 9 5 8 6 7 7 6 9 3 10 4 11 85 12 5 13
REMARK SMILES IDX 2 14 1 15 10 16 11 17 12 18 13 19 18 20 19 21 20 22 21 23
REMARK SMILES IDX 22 24 23 25 84 26 24 27 83 28 25 29 26 30 27 31 77 32 28 33
REMARK SMILES IDX 82 34 76 35 78 36 29 37 81 38 75 39 74 40 30 42 62 43 42 44
REMARK SMILES IDX 61 45 43 46 46 47 60 48 79 49 44 50 45 51 59 53 80 54 47 55
REMARK SMILES IDX 31 56 32 57 40 58 33 59 35 60 41 61 34 62 36 63 37 64 38 65
REMARK SMILES IDX 39 66 63 67 64 68 72 69 65 70 67 71 73 72 66 73 68 74 69 75
REMARK SMILES IDX 70 76 71 77 48 78 49 79 57 80 50 81 52 82 58 83 51 84 53 85
REMARK SMILES IDX 54 86 55 87 56 88
REMARK H PARENT 7 8 78 41 46 52
REMARK Flexibility Score: inf
ROOT
ATOM      1  C   UNL A   1      36.234  20.301  24.995  1.00  0.00     0.274 C 
ENDROOT
BRANCH   1   2
ATOM      2  O   UNL A   1      35.027  21.052  24.758  1.00  0.00    -0.462 OA
BRANCH   2   3
ATOM      3  C   UNL A   1      33.869  20.458  25.139  1.00  0.00     0.310 C 
ATOM      4  O   UNL A   1      33.428  20.472  26.282  1.00  0.00    -0.252 OA
BRANCH   3   5
ATOM      5  C   UNL A   1      33.166  19.711  24.015  1.00  0.00     0.118 C 
BRANCH   5   6
ATOM      6  C   UNL A   1      32.141  20.695  23.419  1.00  0.00     0.130 C 
BRANCH   6   7
ATOM      7  N   UNL A   1      32.057  21.893  24.235  1.00  0.00    -0.359 N 
ATOM      8  H   UNL A   1      32.209  21.789  25.202  1.00  0.00     0.162 HD
BRANCH   7   9
ATOM      9  C   UNL A   1      31.788  23.137  23.783  1.00  0.00     0.202 A 
ATOM     10  C   UNL A   1      30.742  25.072  23.577  1.00  0.00     0.144 A 
ATOM     11  N   UNL A   1      31.685  25.364  22.679  1.00  0.00    -0.174 NA
ATOM     12  N   UNL A   1      30.757  23.834  24.208  1.00  0.00    -0.204 NA
ATOM     13  S   UNL A   1      32.692  24.040  22.615  1.00  0.00     0.004 S 
BRANCH  10  14
ATOM     14  C   UNL A   1      29.654  26.049  23.871  1.00  0.00     0.075 C 
ATOM     15  C   UNL A   1      30.108  27.494  23.748  1.00  0.00     0.012 C 
ENDBRANCH  10  14
ENDBRANCH   7   9
ENDBRANCH   6   7
ENDBRANCH   5   6
BRANCH   5  16
ATOM     16  C   UNL A   1      32.489  18.381  24.415  1.00  0.00     0.020 C 
BRANCH  16  17
ATOM     17  C   UNL A   1      33.502  17.243  24.698  1.00  0.00    -0.017 C 
ATOM     18  C   UNL A   1      32.883  16.133  25.547  1.00  0.00     0.007 C 
ATOM     19  C   UNL A   1      34.008  16.637  23.382  1.00  0.00     0.007 C 
ENDBRANCH  16  17
ENDBRANCH   5  16
ENDBRANCH   3   5
ENDBRANCH   2   3
ENDBRANCH   1   2
BRANCH   1  20
ATOM     20  C   UNL A   1      37.478  21.170  24.816  1.00  0.00     0.275 C 
BRANCH  20  21
ATOM     21  O   UNL A   1      37.948  21.649  26.086  1.00  0.00    -0.458 OA
BRANCH  21  22
ATOM     22  C   UNL A   1      39.275  21.536  26.300  1.00  0.00     0.338 C 
ATOM     23  O   UNL A   1      39.977  20.544  26.133  1.00  0.00    -0.246 OA
BRANCH  22  24
ATOM     24  C   UNL A   1      39.807  22.808  26.792  1.00  0.00     0.060 A 
ATOM     25  C   UNL A   1      39.425  24.008  26.186  1.00  0.00     0.016 A 
ATOM     26  C   UNL A   1      40.764  22.791  27.807  1.00  0.00     0.016 A 
ATOM     27  C   UNL A   1      40.022  25.203  26.583  1.00  0.00     0.010 A 
ATOM     28  C   UNL A   1      41.333  23.992  28.228  1.00  0.00     0.010 A 
ATOM     29  C   UNL A   1      40.979  25.203  27.609  1.00  0.00    -0.014 A 
BRANCH  29  30
ATOM     30  C   UNL A   1      41.599  26.465  28.071  1.00  0.00     0.031 A 
ATOM     31  C   UNL A   1      40.772  27.500  28.777  1.00  0.00     0.074 A 
ATOM     32  C   UNL A   1      42.891  26.703  27.779  1.00  0.00     0.049 A 
ATOM     33  N   UNL A   1      41.098  28.716  29.126  1.00  0.00    -0.248 NA
ATOM     34  C   UNL A   1      39.393  27.121  29.128  1.00  0.00     0.031 C 
ATOM     35  C   UNL A   1      43.779  25.770  27.084  1.00  0.00     0.029 A 
ATOM     36  N   UNL A   1      43.670  27.810  27.997  1.00  0.00    -0.354 N 
ATOM     37  C   UNL A   1      39.959  29.264  29.705  1.00  0.00     0.074 A 
ATOM     38  C   UNL A   1      38.932  28.245  29.661  1.00  0.00     0.031 C 
ATOM     39  C   UNL A   1      44.976  26.353  26.912  1.00  0.00     0.029 A 
ATOM     40  C   UNL A   1      44.926  27.709  27.449  1.00  0.00     0.049 A 
ATOM     41  H   UNL A   1      43.359  28.600  28.497  1.00  0.00     0.167 HD
ATOM     42  C   UNL A   1      39.794  30.498  30.235  1.00  0.00     0.034 A 
ATOM     43  C   UNL A   1      45.917  28.617  27.362  1.00  0.00     0.034 A 
ATOM     44  C   UNL A   1      40.834  31.491  30.305  1.00  0.00     0.049 A 
ATOM     45  C   UNL A   1      45.709  29.977  27.962  1.00  0.00     0.074 A 
ATOM     46  C   UNL A   1      40.782  32.756  30.863  1.00  0.00     0.029 A 
ATOM     47  N   UNL A   1      42.115  31.329  29.800  1.00  0.00    -0.354 N 
ATOM     48  N   UNL A   1      44.658  30.447  28.591  1.00  0.00    -0.248 NA
ATOM     49  C   UNL A   1      46.825  30.927  27.862  1.00  0.00     0.031 C 
ATOM     50  C   UNL A   1      42.033  33.360  30.693  1.00  0.00     0.029 A 
ATOM     51  C   UNL A   1      42.863  32.471  30.030  1.00  0.00     0.049 A 
ATOM     52  H   UNL A   1      42.445  30.520  29.345  1.00  0.00     0.167 HD
ATOM     53  C   UNL A   1      44.990  31.740  28.975  1.00  0.00     0.074 A 
ATOM     54  C   UNL A   1      46.350  31.971  28.532  1.00  0.00     0.031 C 
ATOM     55  C   UNL A   1      44.231  32.661  29.618  1.00  0.00     0.034 A 
BRANCH  42  56
ATOM     56  C   UNL A   1      38.452  30.832  30.829  1.00  0.00     0.023 A 
ATOM     57  C   UNL A   1      38.190  30.491  32.171  1.00  0.00     0.012 A 
ATOM     58  C   UNL A   1      37.478  31.531  30.090  1.00  0.00     0.148 A 
ATOM     59  C   UNL A   1      36.973  30.825  32.764  1.00  0.00     0.002 A 
ATOM     60  C   UNL A   1      36.278  31.887  30.697  1.00  0.00     0.091 A 
ATOM     61  F   UNL A   1      37.733  31.821  28.805  1.00  0.00    -0.205 F 
ATOM     62  C   UNL A   1      36.022  31.531  32.032  1.00  0.00     0.022 A 
BRANCH  60  63
ATOM     63  S   UNL A   1      35.020  32.848  29.846  1.00  0.00     0.127 S 
ATOM     64  O   UNL A   1      34.505  31.876  28.884  1.00  0.00    -0.237 OA
ATOM     65  O   UNL A   1      34.093  33.183  30.929  1.00  0.00    -0.237 OA
ATOM     66  O   UNL A   1      35.717  33.993  29.278  1.00  0.00    -0.744 OA
ENDBRANCH  60  63
ENDBRANCH  42  56
BRANCH  43  67
ATOM     67  C   UNL A   1      47.205  28.231  26.724  1.00  0.00     0.023 A 
ATOM     68  C   UNL A   1      48.310  27.923  27.539  1.00  0.00     0.012 A 
ATOM     69  C   UNL A   1      47.319  28.081  25.328  1.00  0.00     0.148 A 
ATOM     70  C   UNL A   1      49.507  27.481  26.975  1.00  0.00     0.002 A 
ATOM     71  C   UNL A   1      48.497  27.586  24.777  1.00  0.00     0.091 A 
ATOM     72  F   UNL A   1      46.266  28.403  24.562  1.00  0.00    -0.205 F 
ATOM     73  C   UNL A   1      49.595  27.296  25.598  1.00  0.00     0.022 A 
BRANCH  71  74
ATOM     74  S   UNL A   1      48.620  27.184  23.030  1.00  0.00     0.127 S 
ATOM     75  O   UNL A   1      47.684  28.131  22.434  1.00  0.00    -0.237 OA
ATOM     76  O   UNL A   1      50.031  27.451  22.744  1.00  0.00    -0.237 OA
ATOM     77  O   UNL A   1      48.255  25.775  22.940  1.00  0.00    -0.744 OA
ENDBRANCH  71  74
ENDBRANCH  43  67
BRANCH  55  78
ATOM     78  C   UNL A   1      44.854  34.005  29.878  1.00  0.00     0.023 A 
ATOM     79  C   UNL A   1      45.586  34.203  31.064  1.00  0.00     0.012 A 
ATOM     80  C   UNL A   1      44.773  35.041  28.928  1.00  0.00     0.148 A 
ATOM     81  C   UNL A   1      46.213  35.423  31.313  1.00  0.00     0.002 A 
ATOM     82  C   UNL A   1      45.431  36.243  29.168  1.00  0.00     0.091 A 
ATOM     83  F   UNL A   1      44.051  34.839  27.817  1.00  0.00    -0.205 F 
ATOM     84  C   UNL A   1      46.145  36.438  30.360  1.00  0.00     0.022 A 
BRANCH  82  85
ATOM     85  S   UNL A   1      45.451  37.569  27.955  1.00  0.00     0.127 S 
ATOM     86  O   UNL A   1      46.066  36.910  26.803  1.00  0.00    -0.237 OA
ATOM     87  O   UNL A   1      44.029  37.875  27.795  1.00  0.00    -0.237 OA
ATOM     88  O   UNL A   1      46.228  38.642  28.561  1.00  0.00    -0.744 OA
ENDBRANCH  82  85
ENDBRANCH  55  78
ENDBRANCH  29  30
ENDBRANCH  22  24
ENDBRANCH  21  22
ENDBRANCH  20  21
ENDBRANCH   1  20
TORSDOF 20
ENDMDL
MODEL 2
REMARK VINA RESULT:     -10.4      5.575     10.238
REMARK SMILES CCc1nsc(NC[C@H](CC(C)C)C(=O)OCCOC(=O)c2ccc(-c3c4nc(c(-c5cccc(S(=O)(=O)[O-])c5F)c5ccc([nH]5)c(-c5cccc(S(=O)(=O)[O-])c5F)c5nc(c(-c6cccc(S(=O)(=O)[O-])c6F)c6ccc3[nH]6)C=C5)C=C4)cc2)n1
REMARK SMILES IDX 17 1 16 2 14 3 15 4 9 5 8 6 7 7 6 9 3 10 4 11 85 12 5 13
REMARK SMILES IDX 2 14 1 15 10 16 11 17 12 18 13 19 18 20 19 21 20 22 21 23
REMARK SMILES IDX 22 24 23 25 84 26 24 27 83 28 25 29 26 30 27 31 77 32 28 33
REMARK SMILES IDX 82 34 76 35 78 36 29 37 81 38 75 39 74 40 30 42 62 43 42 44
REMARK SMILES IDX 61 45 43 46 46 47 60 48 79 49 44 50 45 51 59 53 80 54 47 55
REMARK SMILES IDX 31 56 32 57 40 58 33 59 35 60 41 61 34 62 36 63 37 64 38 65
REMARK SMILES IDX 39 66 63 67 64 68 72 69 65 70 67 71 73 72 66 73 68 74 69 75
REMARK SMILES IDX 70 76 71 77 48 78 49 79 57 80 50 81 52 82 58 83 51 84 53 85
REMARK SMILES IDX 54 86 55 87 56 88
REMARK H PARENT 7 8 78 41 46 52
REMARK Flexibility Score: inf
ROOT
ATOM      1  C   UNL A   1      33.618  28.841  25.260  1.00  0.00     0.274 C 
ENDROOT
BRANCH   1   2
ATOM      2  O   UNL A   1      32.884  27.974  24.373  1.00  0.00    -0.462 OA
BRANCH   2   3
ATOM      3  C   UNL A   1      33.463  27.715  23.174  1.00  0.00     0.310 C 
ATOM      4  O   UNL A   1      34.213  28.488  22.588  1.00  0.00    -0.252 OA
BRANCH   3   5
ATOM      5  C   UNL A   1      33.059  26.377  22.575  1.00  0.00     0.118 C 
BRANCH   5   6
ATOM      6  C   UNL A   1      31.655  26.581  21.974  1.00  0.00     0.130 C 
BRANCH   6   7
ATOM      7  N   UNL A   1      31.273  27.980  22.046  1.00  0.00    -0.359 N 
ATOM      8  H   UNL A   1      31.976  28.647  21.870  1.00  0.00     0.162 HD
BRANCH   7   9
ATOM      9  C   UNL A   1      30.038  28.445  22.332  1.00  0.00     0.202 A 
ATOM     10  C   UNL A   1      28.307  29.818  22.347  1.00  0.00     0.144 A 
ATOM     11  N   UNL A   1      27.713  28.888  23.099  1.00  0.00    -0.174 NA
ATOM     12  N   UNL A   1      29.609  29.613  21.908  1.00  0.00    -0.204 NA
ATOM     13  S   UNL A   1      28.814  27.649  23.263  1.00  0.00     0.004 S 
BRANCH  10  14
ATOM     14  C   UNL A   1      27.595  31.086  22.018  1.00  0.00     0.075 C 
ATOM     15  C   UNL A   1      28.513  32.143  21.427  1.00  0.00     0.012 C 
ENDBRANCH  10  14
ENDBRANCH   7   9
ENDBRANCH   6   7
ENDBRANCH   5   6
BRANCH   5  16
ATOM     16  C   UNL A   1      33.074  25.176  23.548  1.00  0.00     0.020 C 
BRANCH  16  17
ATOM     17  C   UNL A   1      34.502  24.772  23.993  1.00  0.00    -0.017 C 
ATOM     18  C   UNL A   1      34.684  24.910  25.505  1.00  0.00     0.007 C 
ATOM     19  C   UNL A   1      34.800  23.322  23.590  1.00  0.00     0.007 C 
ENDBRANCH  16  17
ENDBRANCH   5  16
ENDBRANCH   3   5
ENDBRANCH   2   3
ENDBRANCH   1   2
BRANCH   1  20
ATOM     20  C   UNL A   1      32.741  29.977  25.784  1.00  0.00     0.275 C 
BRANCH  20  21
ATOM     21  O   UNL A   1      33.037  30.251  27.163  1.00  0.00    -0.458 OA
BRANCH  21  22
ATOM     22  C   UNL A   1      33.704  31.398  27.402  1.00  0.00     0.338 C 
ATOM     23  O   UNL A   1      33.360  32.538  27.108  1.00  0.00    -0.246 OA
BRANCH  22  24
ATOM     24  C   UNL A   1      34.964  31.104  28.087  1.00  0.00     0.060 A 
ATOM     25  C   UNL A   1      36.012  32.027  28.053  1.00  0.00     0.016 A 
ATOM     26  C   UNL A   1      35.127  29.857  28.691  1.00  0.00     0.016 A 
ATOM     27  C   UNL A   1      37.246  31.692  28.607  1.00  0.00     0.010 A 
ATOM     28  C   UNL A   1      36.351  29.538  29.278  1.00  0.00     0.010 A 
ATOM     29  C   UNL A   1      37.423  30.446  29.226  1.00  0.00    -0.014 A 
BRANCH  29  30
ATOM     30  C   UNL A   1      38.713  30.084  29.855  1.00  0.00     0.031 A 
ATOM     31  C   UNL A   1      39.604  29.058  29.218  1.00  0.00     0.074 A 
ATOM     32  C   UNL A   1      39.035  30.630  31.042  1.00  0.00     0.049 A 
ATOM     33  N   UNL A   1      40.694  28.509  29.687  1.00  0.00    -0.248 NA
ATOM     34  C   UNL A   1      39.214  28.577  27.883  1.00  0.00     0.031 C 
ATOM     35  C   UNL A   1      38.233  31.626  31.754  1.00  0.00     0.029 A 
ATOM     36  N   UNL A   1      40.101  30.400  31.874  1.00  0.00    -0.354 N 
ATOM     37  C   UNL A   1      41.102  27.593  28.725  1.00  0.00     0.074 A 
ATOM     38  C   UNL A   1      40.143  27.660  27.643  1.00  0.00     0.031 C 
ATOM     39  C   UNL A   1      38.822  31.905  32.926  1.00  0.00     0.029 A 
ATOM     40  C   UNL A   1      40.020  31.082  33.065  1.00  0.00     0.049 A 
ATOM     41  H   UNL A   1      40.850  29.805  31.641  1.00  0.00     0.167 HD
ATOM     42  C   UNL A   1      42.186  26.783  28.741  1.00  0.00     0.034 A 
ATOM     43  C   UNL A   1      40.804  31.029  34.157  1.00  0.00     0.034 A 
ATOM     44  C   UNL A   1      43.153  26.750  29.806  1.00  0.00     0.049 A 
ATOM     45  C   UNL A   1      42.003  30.124  34.146  1.00  0.00     0.074 A 
ATOM     46  C   UNL A   1      44.311  25.997  29.897  1.00  0.00     0.029 A 
ATOM     47  N   UNL A   1      43.075  27.505  30.967  1.00  0.00    -0.354 N 
ATOM     48  N   UNL A   1      42.428  29.335  33.189  1.00  0.00    -0.248 NA
ATOM     49  C   UNL A   1      42.842  30.115  35.352  1.00  0.00     0.031 C 
ATOM     50  C   UNL A   1      44.931  26.296  31.115  1.00  0.00     0.029 A 
ATOM     51  C   UNL A   1      44.160  27.235  31.782  1.00  0.00     0.049 A 
ATOM     52  H   UNL A   1      42.353  28.140  31.179  1.00  0.00     0.167 HD
ATOM     53  C   UNL A   1      43.592  28.747  33.669  1.00  0.00     0.074 A 
ATOM     54  C   UNL A   1      43.819  29.291  34.993  1.00  0.00     0.031 C 
ATOM     55  C   UNL A   1      44.389  27.823  33.077  1.00  0.00     0.034 A 
BRANCH  42  56
ATOM     56  C   UNL A   1      42.415  25.896  27.546  1.00  0.00     0.023 A 
ATOM     57  C   UNL A   1      43.103  26.412  26.429  1.00  0.00     0.012 A 
ATOM     58  C   UNL A   1      42.010  24.548  27.546  1.00  0.00     0.148 A 
ATOM     59  C   UNL A   1      43.370  25.603  25.325  1.00  0.00     0.002 A 
ATOM     60  C   UNL A   1      42.305  23.739  26.454  1.00  0.00     0.091 A 
ATOM     61  F   UNL A   1      41.330  24.082  28.605  1.00  0.00    -0.205 F 
ATOM     62  C   UNL A   1      42.981  24.266  25.340  1.00  0.00     0.022 A 
BRANCH  60  63
ATOM     63  S   UNL A   1      41.893  21.991  26.414  1.00  0.00     0.127 S 
ATOM     64  O   UNL A   1      40.443  22.032  26.237  1.00  0.00    -0.237 OA
ATOM     65  O   UNL A   1      42.636  21.518  25.244  1.00  0.00    -0.237 OA
ATOM     66  O   UNL A   1      42.361  21.447  27.681  1.00  0.00    -0.744 OA
ENDBRANCH  60  63
ENDBRANCH  42  56
BRANCH  43  67
ATOM     67  C   UNL A   1      40.496  31.904  35.321  1.00  0.00     0.023 A 
ATOM     68  C   UNL A   1      41.256  33.071  35.524  1.00  0.00     0.012 A 
ATOM     69  C   UNL A   1      39.405  31.640  36.171  1.00  0.00     0.148 A 
ATOM     70  C   UNL A   1      40.940  33.954  36.557  1.00  0.00     0.002 A 
ATOM     71  C   UNL A   1      39.061  32.552  37.164  1.00  0.00     0.091 A 
ATOM     72  F   UNL A   1      38.705  30.511  35.982  1.00  0.00    -0.205 F 
ATOM     73  C   UNL A   1      39.834  33.705  37.365  1.00  0.00     0.022 A 
BRANCH  71  74
ATOM     74  S   UNL A   1      37.562  32.363  38.136  1.00  0.00     0.127 S 
ATOM     75  O   UNL A   1      37.898  33.089  39.357  1.00  0.00    -0.237 OA
ATOM     76  O   UNL A   1      36.555  33.011  37.293  1.00  0.00    -0.237 OA
ATOM     77  O   UNL A   1      37.379  30.923  38.273  1.00  0.00    -0.744 OA
ENDBRANCH  71  74
ENDBRANCH  43  67
BRANCH  55  78
ATOM     78  C   UNL A   1      45.580  27.341  33.859  1.00  0.00     0.023 A 
ATOM     79  C   UNL A   1      46.788  28.060  33.779  1.00  0.00     0.012 A 
ATOM     80  C   UNL A   1      45.487  26.228  34.715  1.00  0.00     0.148 A 
ATOM     81  C   UNL A   1      47.896  27.664  34.526  1.00  0.00     0.002 A 
ATOM     82  C   UNL A   1      46.587  25.860  35.483  1.00  0.00     0.091 A 
ATOM     83  F   UNL A   1      44.335  25.543  34.757  1.00  0.00    -0.205 F 
ATOM     84  C   UNL A   1      47.793  26.572  35.386  1.00  0.00     0.022 A 
BRANCH  82  85
ATOM     85  S   UNL A   1      46.506  24.513  36.669  1.00  0.00     0.127 S 
ATOM     86  O   UNL A   1      47.893  24.430  37.123  1.00  0.00    -0.237 OA
ATOM     87  O   UNL A   1      45.566  25.024  37.668  1.00  0.00    -0.237 OA
ATOM     88  O   UNL A   1      46.014  23.363  35.921  1.00  0.00    -0.744 OA
ENDBRANCH  82  85
ENDBRANCH  55  78
ENDBRANCH  29  30
ENDBRANCH  22  24
ENDBRANCH  21  22
ENDBRANCH  20  21
ENDBRANCH   1  20
TORSDOF 20
ENDMDL
MODEL 3
REMARK VINA RESULT:     -10.3      5.261      9.972
REMARK SMILES CCc1nsc(NC[C@H](CC(C)C)C(=O)OCCOC(=O)c2ccc(-c3c4nc(c(-c5cccc(S(=O)(=O)[O-])c5F)c5ccc([nH]5)c(-c5cccc(S(=O)(=O)[O-])c5F)c5nc(c(-c6cccc(S(=O)(=O)[O-])c6F)c6ccc3[nH]6)C=C5)C=C4)cc2)n1
REMARK SMILES IDX 17 1 16 2 14 3 15 4 9 5 8 6 7 7 6 9 3 10 4 11 85 12 5 13
REMARK SMILES IDX 2 14 1 15 10 16 11 17 12 18 13 19 18 20 19 21 20 22 21 23
REMARK SMILES IDX 22 24 23 25 84 26 24 27 83 28 25 29 26 30 27 31 77 32 28 33
REMARK SMILES IDX 82 34 76 35 78 36 29 37 81 38 75 39 74 40 30 42 62 43 42 44
REMARK SMILES IDX 61 45 43 46 46 47 60 48 79 49 44 50 45 51 59 53 80 54 47 55
REMARK SMILES IDX 31 56 32 57 40 58 33 59 35 60 41 61 34 62 36 63 37 64 38 65
REMARK SMILES IDX 39 66 63 67 64 68 72 69 65 70 67 71 73 72 66 73 68 74 69 75
REMARK SMILES IDX 70 76 71 77 48 78 49 79 57 80 50 81 52 82 58 83 51 84 53 85
REMARK SMILES IDX 54 86 55 87 56 88
REMARK H PARENT 7 8 78 41 46 52
REMARK Flexibility Score: inf
ROOT
ATOM      1  C   UNL A   1      31.522  28.477  26.828  1.00  0.00     0.274 C 
ENDROOT
BRANCH   1   2
ATOM      2  O   UNL A   1      32.348  27.401  26.343  1.00  0.00    -0.462 OA
BRANCH   2   3
ATOM      3  C   UNL A   1      31.741  26.195  26.208  1.00  0.00     0.310 C 
ATOM      4  O   UNL A   1      30.795  25.817  26.890  1.00  0.00    -0.252 OA
BRANCH   3   5
ATOM      5  C   UNL A   1      32.375  25.305  25.150  1.00  0.00     0.118 C 
BRANCH   5   6
ATOM      6  C   UNL A   1      31.350  24.194  24.851  1.00  0.00     0.130 C 
BRANCH   6   7
ATOM      7  N   UNL A   1      30.285  24.702  24.007  1.00  0.00    -0.359 N 
ATOM      8  H   UNL A   1      29.505  24.118  23.866  1.00  0.00     0.162 HD
BRANCH   7   9
ATOM      9  C   UNL A   1      30.271  25.907  23.397  1.00  0.00     0.202 A 
ATOM     10  C   UNL A   1      29.611  27.957  22.901  1.00  0.00     0.144 A 
ATOM     11  N   UNL A   1      30.629  27.960  22.038  1.00  0.00    -0.174 NA
ATOM     12  N   UNL A   1      29.370  26.825  23.671  1.00  0.00    -0.204 NA
ATOM     13  S   UNL A   1      31.375  26.480  22.193  1.00  0.00     0.004 S 
BRANCH  10  14
ATOM     14  C   UNL A   1      28.711  29.141  23.008  1.00  0.00     0.075 C 
ATOM     15  C   UNL A   1      27.245  28.761  23.131  1.00  0.00     0.012 C 
ENDBRANCH  10  14
ENDBRANCH   7   9
ENDBRANCH   6   7
ENDBRANCH   5   6
BRANCH   5  16
ATOM     16  C   UNL A   1      33.751  24.705  25.517  1.00  0.00     0.020 C 
BRANCH  16  17
ATOM     17  C   UNL A   1      33.748  23.156  25.558  1.00  0.00    -0.017 C 
ATOM     18  C   UNL A   1      34.602  22.559  24.439  1.00  0.00     0.007 C 
ATOM     19  C   UNL A   1      34.279  22.654  26.907  1.00  0.00     0.007 C 
ENDBRANCH  16  17
ENDBRANCH   5  16
ENDBRANCH   3   5
ENDBRANCH   2   3
ENDBRANCH   1   2
BRANCH   1  20
ATOM     20  C   UNL A   1      31.558  29.678  25.885  1.00  0.00     0.275 C 
BRANCH  20  21
ATOM     21  O   UNL A   1      32.872  30.259  25.854  1.00  0.00    -0.458 OA
BRANCH  21  22
ATOM     22  C   UNL A   1      33.125  31.186  26.800  1.00  0.00     0.338 C 
ATOM     23  O   UNL A   1      32.433  32.152  27.104  1.00  0.00    -0.246 OA
BRANCH  22  24
ATOM     24  C   UNL A   1      34.402  30.890  27.454  1.00  0.00     0.060 A 
ATOM     25  C   UNL A   1      34.715  29.578  27.817  1.00  0.00     0.016 A 
ATOM     26  C   UNL A   1      35.249  31.947  27.786  1.00  0.00     0.016 A 
ATOM     27  C   UNL A   1      35.877  29.319  28.540  1.00  0.00     0.010 A 
ATOM     28  C   UNL A   1      36.431  31.682  28.478  1.00  0.00     0.010 A 
ATOM     29  C   UNL A   1      36.745  30.370  28.874  1.00  0.00    -0.014 A 
BRANCH  29  30
ATOM     30  C   UNL A   1      38.004  30.114  29.609  1.00  0.00     0.031 A 
ATOM     31  C   UNL A   1      39.029  29.172  29.049  1.00  0.00     0.074 A 
ATOM     32  C   UNL A   1      38.177  30.674  30.820  1.00  0.00     0.049 A 
ATOM     33  N   UNL A   1      40.118  28.713  29.607  1.00  0.00    -0.248 NA
ATOM     34  C   UNL A   1      38.795  28.672  27.684  1.00  0.00     0.031 C 
ATOM     35  C   UNL A   1      37.235  31.592  31.463  1.00  0.00     0.029 A 
ATOM     36  N   UNL A   1      39.184  30.527  31.739  1.00  0.00    -0.354 N 
ATOM     37  C   UNL A   1      40.682  27.844  28.682  1.00  0.00     0.074 A 
ATOM     38  C   UNL A   1      39.816  27.839  27.522  1.00  0.00     0.031 C 
ATOM     39  C   UNL A   1      37.698  31.909  32.682  1.00  0.00     0.029 A 
ATOM     40  C   UNL A   1      38.945  31.190  32.920  1.00  0.00     0.049 A 
ATOM     41  H   UNL A   1      39.998  30.000  31.570  1.00  0.00     0.167 HD
ATOM     42  C   UNL A   1      41.826  27.127  28.788  1.00  0.00     0.034 A 
ATOM     43  C   UNL A   1      39.636  31.193  34.075  1.00  0.00     0.034 A 
ATOM     44  C   UNL A   1      42.699  27.167  29.931  1.00  0.00     0.049 A 
ATOM     45  C   UNL A   1      40.904  30.392  34.164  1.00  0.00     0.074 A 
ATOM     46  C   UNL A   1      43.904  26.514  30.119  1.00  0.00     0.029 A 
ATOM     47  N   UNL A   1      42.459  27.902  31.083  1.00  0.00    -0.354 N 
ATOM     48  N   UNL A   1      41.474  29.650  33.245  1.00  0.00    -0.248 NA
ATOM     49  C   UNL A   1      41.636  30.444  35.437  1.00  0.00     0.031 C 
ATOM     50  C   UNL A   1      44.392  26.853  31.386  1.00  0.00     0.029 A 
ATOM     51  C   UNL A   1      43.491  27.717  31.986  1.00  0.00     0.049 A 
ATOM     52  H   UNL A   1      41.670  28.472  31.234  1.00  0.00     0.167 HD
ATOM     53  C   UNL A   1      42.639  29.159  33.821  1.00  0.00     0.074 A 
ATOM     54  C   UNL A   1      42.706  29.709  35.161  1.00  0.00     0.031 C 
ATOM     55  C   UNL A   1      43.558  28.311  33.298  1.00  0.00     0.034 A 
BRANCH  42  56
ATOM     56  C   UNL A   1      42.230  26.274  27.615  1.00  0.00     0.023 A 
ATOM     57  C   UNL A   1      43.030  26.835  26.600  1.00  0.00     0.012 A 
ATOM     58  C   UNL A   1      41.874  24.914  27.543  1.00  0.00     0.148 A 
ATOM     59  C   UNL A   1      43.457  26.059  25.523  1.00  0.00     0.002 A 
ATOM     60  C   UNL A   1      42.329  24.139  26.481  1.00  0.00     0.091 A 
ATOM     61  F   UNL A   1      41.086  24.404  28.502  1.00  0.00    -0.205 F 
ATOM     62  C   UNL A   1      43.116  24.710  25.468  1.00  0.00     0.022 A 
BRANCH  60  63
ATOM     63  S   UNL A   1      41.985  22.378  26.361  1.00  0.00     0.127 S 
ATOM     64  O   UNL A   1      42.627  22.037  25.093  1.00  0.00    -0.237 OA
ATOM     65  O   UNL A   1      42.658  21.844  27.547  1.00  0.00    -0.237 OA
ATOM     66  O   UNL A   1      40.534  22.258  26.389  1.00  0.00    -0.744 OA
ENDBRANCH  60  63
ENDBRANCH  42  56
BRANCH  43  67
ATOM     67  C   UNL A   1      39.157  32.029  35.210  1.00  0.00     0.023 A 
ATOM     68  C   UNL A   1      38.280  31.466  36.155  1.00  0.00     0.012 A 
ATOM     69  C   UNL A   1      39.631  33.340  35.409  1.00  0.00     0.148 A 
ATOM     70  C   UNL A   1      37.877  32.196  37.273  1.00  0.00     0.002 A 
ATOM     71  C   UNL A   1      39.270  34.042  36.555  1.00  0.00     0.091 A 
ATOM     72  F   UNL A   1      40.447  33.872  34.487  1.00  0.00    -0.205 F 
ATOM     73  C   UNL A   1      38.384  33.475  37.482  1.00  0.00     0.022 A 
BRANCH  71  74
ATOM     74  S   UNL A   1      40.008  35.631  36.955  1.00  0.00     0.127 S 
ATOM     75  O   UNL A   1      41.424  35.291  37.052  1.00  0.00    -0.237 OA
ATOM     76  O   UNL A   1      39.650  36.447  35.793  1.00  0.00    -0.237 OA
ATOM     77  O   UNL A   1      39.360  36.048  38.192  1.00  0.00    -0.744 OA
ENDBRANCH  71  74
ENDBRANCH  43  67
BRANCH  55  78
ATOM     78  C   UNL A   1      44.716  27.924  34.176  1.00  0.00     0.023 A 
ATOM     79  C   UNL A   1      45.858  28.746  34.206  1.00  0.00     0.012 A 
ATOM     80  C   UNL A   1      44.648  26.796  35.015  1.00  0.00     0.148 A 
ATOM     81  C   UNL A   1      46.929  28.439  35.044  1.00  0.00     0.002 A 
ATOM     82  C   UNL A   1      45.706  26.516  35.874  1.00  0.00     0.091 A 
ATOM     83  F   UNL A   1      43.561  26.014  34.954  1.00  0.00    -0.205 F 
ATOM     84  C   UNL A   1      46.848  27.331  35.885  1.00  0.00     0.022 A 
BRANCH  82  85
ATOM     85  S   UNL A   1      45.642  25.151  37.040  1.00  0.00     0.127 S 
ATOM     86  O   UNL A   1      46.838  25.390  37.846  1.00  0.00    -0.237 OA
ATOM     87  O   UNL A   1      44.379  25.389  37.740  1.00  0.00    -0.237 OA
ATOM     88  O   UNL A   1      45.656  23.941  36.229  1.00  0.00    -0.744 OA
ENDBRANCH  82  85
ENDBRANCH  55  78
ENDBRANCH  29  30
ENDBRANCH  22  24
ENDBRANCH  21  22
ENDBRANCH  20  21
ENDBRANCH   1  20
TORSDOF 20
ENDMDL
