MODEL 1
REMARK VINA RESULT:     -12.5      0.000      0.000
REMARK SMILES O=C(Cn1nc(-c2cccs2)ccc1=O)N[C@H](Cc1ccccc1)C(=O)OCCOC(=O)c1ccc(-c2c3nc(c(-c4cccc(S(=O)(=O)[O-])c4F)c4ccc([nH]4)c(-c4cccc(S(=O)(=O)[O-])c4F)c4nc(c(-c5cccc(S(=O)(=O)[O-])c5F)c5ccc2[nH]5)C=C4)C=C3)cc1
REMARK SMILES IDX 28 1 27 2 25 3 26 4 17 5 16 6 1 7 2 8 3 10 4 11 5 12 14 13
REMARK SMILES IDX 6 14 13 15 15 16 12 17 7 18 8 19 11 20 9 21 10 22 18 23
REMARK SMILES IDX 19 24 20 25 24 26 21 27 23 28 22 29 29 30 30 31 31 32 32 33
REMARK SMILES IDX 33 34 34 35 95 36 35 37 94 38 36 39 37 40 38 41 88 42 39 43
REMARK SMILES IDX 93 44 87 45 89 46 40 47 92 48 86 49 85 50 41 52 73 53 53 54
REMARK SMILES IDX 72 55 54 56 57 57 71 58 90 59 55 60 56 61 70 63 91 64 58 65
REMARK SMILES IDX 42 66 43 67 51 68 44 69 46 70 52 71 45 72 47 73 48 74 49 75
REMARK SMILES IDX 50 76 74 77 75 78 83 79 76 80 78 81 84 82 77 83 79 84 80 85
REMARK SMILES IDX 81 86 82 87 59 88 60 89 68 90 61 91 63 92 69 93 62 94 64 95
REMARK SMILES IDX 65 96 66 97 67 98
REMARK H PARENT 16 9 89 51 57 62
REMARK Flexibility Score: inf
ROOT
ATOM      1  C   UNL A   1      31.583  29.235  24.624  1.00  0.00     0.274 C 
ENDROOT
BRANCH   1   2
ATOM      2  O   UNL A   1      30.727  28.205  25.150  1.00  0.00    -0.461 OA
BRANCH   2   3
ATOM      3  C   UNL A   1      31.322  27.364  26.034  1.00  0.00     0.329 C 
ATOM      4  O   UNL A   1      31.401  27.571  27.245  1.00  0.00    -0.250 OA
BRANCH   3   5
ATOM      5  C   UNL A   1      32.065  26.198  25.378  1.00  0.00     0.196 C 
BRANCH   5   6
ATOM      6  N   UNL A   1      31.495  24.998  26.017  1.00  0.00    -0.341 N 
ATOM      7  O   UNL A   1      30.410  24.193  24.155  1.00  0.00    -0.273 OA
ATOM      8  C   UNL A   1      30.785  24.042  25.315  1.00  0.00     0.242 C 
ATOM      9  H   UNL A   1      31.626  24.872  26.985  1.00  0.00     0.164 HD
BRANCH   8  10
ATOM     10  C   UNL A   1      30.539  22.749  26.083  1.00  0.00     0.248 C 
BRANCH  10  11
ATOM     11  N   UNL A   1      31.781  21.988  26.102  1.00  0.00    -0.220 N 
ATOM     12  N   UNL A   1      31.878  20.948  25.196  1.00  0.00    -0.168 NA
ATOM     13  C   UNL A   1      32.758  22.298  27.039  1.00  0.00     0.267 A 
ATOM     14  C   UNL A   1      32.929  20.181  25.251  1.00  0.00     0.101 A 
ATOM     15  C   UNL A   1      33.943  21.419  27.050  1.00  0.00     0.075 A 
ATOM     16  O   UNL A   1      32.710  23.234  27.831  1.00  0.00    -0.268 OA
ATOM     17  C   UNL A   1      34.040  20.390  26.209  1.00  0.00     0.037 A 
BRANCH  14  18
ATOM     18  C   UNL A   1      33.032  19.100  24.289  1.00  0.00     0.054 A 
ATOM     19  C   UNL A   1      32.396  18.998  23.066  1.00  0.00     0.022 A 
ATOM     20  S   UNL A   1      33.980  17.710  24.615  1.00  0.00    -0.142 S 
ATOM     21  C   UNL A   1      32.714  17.788  22.385  1.00  0.00     0.012 A 
ATOM     22  C   UNL A   1      33.556  16.987  23.126  1.00  0.00     0.065 A 
ENDBRANCH  14  18
ENDBRANCH  10  11
ENDBRANCH   8  10
ENDBRANCH   5   6
BRANCH   5  23
ATOM     23  C   UNL A   1      33.600  26.241  25.349  1.00  0.00     0.072 C 
BRANCH  23  24
ATOM     24  C   UNL A   1      34.346  25.016  24.861  1.00  0.00    -0.045 A 
ATOM     25  C   UNL A   1      33.939  24.426  23.651  1.00  0.00     0.004 A 
ATOM     26  C   UNL A   1      35.474  24.490  25.503  1.00  0.00     0.004 A 
ATOM     27  C   UNL A   1      34.605  23.317  23.126  1.00  0.00     0.000 A 
ATOM     28  C   UNL A   1      36.130  23.366  24.987  1.00  0.00     0.000 A 
ATOM     29  C   UNL A   1      35.693  22.778  23.802  1.00  0.00     0.000 A 
ENDBRANCH  23  24
ENDBRANCH   5  23
ENDBRANCH   3   5
ENDBRANCH   2   3
ENDBRANCH   1   2
BRANCH   1  30
ATOM     30  C   UNL A   1      31.683  30.407  25.592  1.00  0.00     0.275 C 
BRANCH  30  31
ATOM     31  O   UNL A   1      33.009  30.470  26.142  1.00  0.00    -0.458 OA
BRANCH  31  32
ATOM     32  C   UNL A   1      33.209  31.453  27.050  1.00  0.00     0.338 C 
ATOM     33  O   UNL A   1      32.531  32.452  27.220  1.00  0.00    -0.246 OA
BRANCH  32  34
ATOM     34  C   UNL A   1      34.471  31.201  27.764  1.00  0.00     0.060 A 
ATOM     35  C   UNL A   1      34.749  29.892  28.157  1.00  0.00     0.016 A 
ATOM     36  C   UNL A   1      35.403  32.219  27.983  1.00  0.00     0.016 A 
ATOM     37  C   UNL A   1      35.953  29.609  28.798  1.00  0.00     0.010 A 
ATOM     38  C   UNL A   1      36.643  31.917  28.551  1.00  0.00     0.010 A 
ATOM     39  C   UNL A   1      36.919  30.614  28.988  1.00  0.00    -0.014 A 
BRANCH  39  40
ATOM     40  C   UNL A   1      38.203  30.275  29.652  1.00  0.00     0.031 A 
ATOM     41  C   UNL A   1      38.502  30.767  31.041  1.00  0.00     0.074 A 
ATOM     42  C   UNL A   1      39.093  29.492  29.011  1.00  0.00     0.049 A 
ATOM     43  N   UNL A   1      39.480  30.420  31.838  1.00  0.00    -0.248 NA
ATOM     44  C   UNL A   1      37.601  31.784  31.609  1.00  0.00     0.031 C 
ATOM     45  C   UNL A   1      38.966  29.024  27.629  1.00  0.00     0.029 A 
ATOM     46  N   UNL A   1      40.273  28.939  29.442  1.00  0.00    -0.354 N 
ATOM     47  C   UNL A   1      39.317  31.174  32.991  1.00  0.00     0.074 A 
ATOM     48  C   UNL A   1      38.173  32.033  32.779  1.00  0.00     0.031 C 
ATOM     49  C   UNL A   1      40.003  28.222  27.340  1.00  0.00     0.029 A 
ATOM     50  C   UNL A   1      40.865  28.114  28.514  1.00  0.00     0.049 A 
ATOM     51  H   UNL A   1      40.659  29.116  30.330  1.00  0.00     0.167 HD
ATOM     52  C   UNL A   1      40.025  31.125  34.142  1.00  0.00     0.034 A 
ATOM     53  C   UNL A   1      41.954  27.326  28.611  1.00  0.00     0.034 A 
ATOM     54  C   UNL A   1      41.125  30.232  34.376  1.00  0.00     0.049 A 
ATOM     55  C   UNL A   1      42.687  27.238  29.921  1.00  0.00     0.074 A 
ATOM     56  C   UNL A   1      41.844  30.042  35.542  1.00  0.00     0.029 A 
ATOM     57  N   UNL A   1      41.663  29.380  33.426  1.00  0.00    -0.354 N 
ATOM     58  N   UNL A   1      42.410  27.829  31.058  1.00  0.00    -0.248 NA
ATOM     59  C   UNL A   1      43.856  26.347  29.975  1.00  0.00     0.031 C 
ATOM     60  C   UNL A   1      42.819  29.071  35.298  1.00  0.00     0.029 A 
ATOM     61  C   UNL A   1      42.707  28.661  33.978  1.00  0.00     0.049 A 
ATOM     62  H   UNL A   1      41.350  29.298  32.497  1.00  0.00     0.167 HD
ATOM     63  C   UNL A   1      43.355  27.365  31.967  1.00  0.00     0.074 A 
ATOM     64  C   UNL A   1      44.203  26.433  31.254  1.00  0.00     0.031 C 
ATOM     65  C   UNL A   1      43.510  27.697  33.271  1.00  0.00     0.034 A 
BRANCH  52  66
ATOM     66  C   UNL A   1      39.570  31.993  35.280  1.00  0.00     0.023 A 
ATOM     67  C   UNL A   1      39.886  33.366  35.252  1.00  0.00     0.012 A 
ATOM     68  C   UNL A   1      38.780  31.481  36.326  1.00  0.00     0.148 A 
ATOM     69  C   UNL A   1      39.433  34.219  36.256  1.00  0.00     0.002 A 
ATOM     70  C   UNL A   1      38.313  32.343  37.312  1.00  0.00     0.091 A 
ATOM     71  F   UNL A   1      38.507  30.169  36.337  1.00  0.00    -0.205 F 
ATOM     72  C   UNL A   1      38.641  33.709  37.281  1.00  0.00     0.022 A 
BRANCH  70  73
ATOM     73  S   UNL A   1      37.257  31.800  38.660  1.00  0.00     0.127 S 
ATOM     74  O   UNL A   1      38.122  32.025  39.819  1.00  0.00    -0.237 OA
ATOM     75  O   UNL A   1      36.127  32.722  38.556  1.00  0.00    -0.237 OA
ATOM     76  O   UNL A   1      36.938  30.406  38.388  1.00  0.00    -0.744 OA
ENDBRANCH  70  73
ENDBRANCH  52  66
BRANCH  53  77
ATOM     77  C   UNL A   1      42.334  26.462  27.461  1.00  0.00     0.023 A 
ATOM     78  C   UNL A   1      43.156  26.995  26.449  1.00  0.00     0.012 A 
ATOM     79  C   UNL A   1      41.944  25.112  27.394  1.00  0.00     0.148 A 
ATOM     80  C   UNL A   1      43.574  26.201  25.382  1.00  0.00     0.002 A 
ATOM     81  C   UNL A   1      42.391  24.316  26.345  1.00  0.00     0.091 A 
ATOM     82  F   UNL A   1      41.159  24.632  28.369  1.00  0.00    -0.205 F 
ATOM     83  C   UNL A   1      43.199  24.861  25.335  1.00  0.00     0.022 A 
BRANCH  81  84
ATOM     84  S   UNL A   1      42.037  22.558  26.240  1.00  0.00     0.127 S 
ATOM     85  O   UNL A   1      42.717  22.192  24.999  1.00  0.00    -0.237 OA
ATOM     86  O   UNL A   1      42.667  22.053  27.460  1.00  0.00    -0.237 OA
ATOM     87  O   UNL A   1      40.586  22.447  26.214  1.00  0.00    -0.744 OA
ENDBRANCH  81  84
ENDBRANCH  53  77
BRANCH  65  88
ATOM     88  C   UNL A   1      44.637  27.063  34.036  1.00  0.00     0.023 A 
ATOM     89  C   UNL A   1      45.883  27.716  34.082  1.00  0.00     0.012 A 
ATOM     90  C   UNL A   1      44.422  25.912  34.819  1.00  0.00     0.148 A 
ATOM     91  C   UNL A   1      46.903  27.232  34.899  1.00  0.00     0.002 A 
ATOM     92  C   UNL A   1      45.432  25.454  35.655  1.00  0.00     0.091 A 
ATOM     93  F   UNL A   1      43.228  25.306  34.748  1.00  0.00    -0.205 F 
ATOM     94  C   UNL A   1      46.675  26.111  35.695  1.00  0.00     0.022 A 
BRANCH  92  95
ATOM     95  S   UNL A   1      45.209  24.068  36.777  1.00  0.00     0.127 S 
ATOM     96  O   UNL A   1      46.552  23.914  37.332  1.00  0.00    -0.237 OA
ATOM     97  O   UNL A   1      44.215  24.589  37.717  1.00  0.00    -0.237 OA
ATOM     98  O   UNL A   1      44.744  22.957  35.958  1.00  0.00    -0.744 OA
ENDBRANCH  92  95
ENDBRANCH  65  88
ENDBRANCH  39  40
ENDBRANCH  32  34
ENDBRANCH  31  32
ENDBRANCH  30  31
ENDBRANCH   1  30
TORSDOF 20
ENDMDL
MODEL 2
REMARK VINA RESULT:     -12.1      1.865      3.023
REMARK SMILES O=C(Cn1nc(-c2cccs2)ccc1=O)N[C@H](Cc1ccccc1)C(=O)OCCOC(=O)c1ccc(-c2c3nc(c(-c4cccc(S(=O)(=O)[O-])c4F)c4ccc([nH]4)c(-c4cccc(S(=O)(=O)[O-])c4F)c4nc(c(-c5cccc(S(=O)(=O)[O-])c5F)c5ccc2[nH]5)C=C4)C=C3)cc1
REMARK SMILES IDX 28 1 27 2 25 3 26 4 17 5 16 6 1 7 2 8 3 10 4 11 5 12 14 13
REMARK SMILES IDX 6 14 13 15 15 16 12 17 7 18 8 19 11 20 9 21 10 22 18 23
REMARK SMILES IDX 19 24 20 25 24 26 21 27 23 28 22 29 29 30 30 31 31 32 32 33
REMARK SMILES IDX 33 34 34 35 95 36 35 37 94 38 36 39 37 40 38 41 88 42 39 43
REMARK SMILES IDX 93 44 87 45 89 46 40 47 92 48 86 49 85 50 41 52 73 53 53 54
REMARK SMILES IDX 72 55 54 56 57 57 71 58 90 59 55 60 56 61 70 63 91 64 58 65
REMARK SMILES IDX 42 66 43 67 51 68 44 69 46 70 52 71 45 72 47 73 48 74 49 75
REMARK SMILES IDX 50 76 74 77 75 78 83 79 76 80 78 81 84 82 77 83 79 84 80 85
REMARK SMILES IDX 81 86 82 87 59 88 60 89 68 90 61 91 63 92 69 93 62 94 64 95
REMARK SMILES IDX 65 96 66 97 67 98
REMARK H PARENT 16 9 89 51 57 62
REMARK Flexibility Score: inf
ROOT
ATOM      1  C   UNL A   1      31.673  28.731  26.419  1.00  0.00     0.274 C 
ENDROOT
BRANCH   1   2
ATOM      2  O   UNL A   1      31.557  27.667  25.458  1.00  0.00    -0.461 OA
BRANCH   2   3
ATOM      3  C   UNL A   1      30.607  26.741  25.743  1.00  0.00     0.329 C 
ATOM      4  O   UNL A   1      30.464  26.206  26.844  1.00  0.00    -0.250 OA
BRANCH   3   5
ATOM      5  C   UNL A   1      29.821  26.261  24.520  1.00  0.00     0.196 C 
BRANCH   5   6
ATOM      6  N   UNL A   1      30.003  24.799  24.523  1.00  0.00    -0.341 N 
ATOM      7  O   UNL A   1      32.115  24.790  23.612  1.00  0.00    -0.273 OA
ATOM      8  C   UNL A   1      31.188  24.191  24.149  1.00  0.00     0.242 C 
ATOM      9  H   UNL A   1      29.250  24.230  24.805  1.00  0.00     0.164 HD
BRANCH   8  10
ATOM     10  C   UNL A   1      31.274  22.711  24.500  1.00  0.00     0.248 C 
BRANCH  10  11
ATOM     11  N   UNL A   1      32.274  22.550  25.548  1.00  0.00    -0.220 N 
ATOM     12  N   UNL A   1      33.529  22.136  25.140  1.00  0.00    -0.168 NA
ATOM     13  C   UNL A   1      31.914  22.759  26.872  1.00  0.00     0.267 A 
ATOM     14  C   UNL A   1      34.419  21.882  26.056  1.00  0.00     0.101 A 
ATOM     15  C   UNL A   1      32.961  22.483  27.876  1.00  0.00     0.075 A 
ATOM     16  O   UNL A   1      30.819  23.156  27.256  1.00  0.00    -0.268 OA
ATOM     17  C   UNL A   1      34.165  22.050  27.507  1.00  0.00     0.037 A 
BRANCH  14  18
ATOM     18  C   UNL A   1      35.739  21.462  25.623  1.00  0.00     0.054 A 
ATOM     19  C   UNL A   1      36.095  20.247  25.068  1.00  0.00     0.022 A 
ATOM     20  S   UNL A   1      37.102  22.481  25.817  1.00  0.00    -0.142 S 
ATOM     21  C   UNL A   1      37.487  20.169  24.776  1.00  0.00     0.012 A 
ATOM     22  C   UNL A   1      38.156  21.313  25.149  1.00  0.00     0.065 A 
ENDBRANCH  14  18
ENDBRANCH  10  11
ENDBRANCH   8  10
ENDBRANCH   5   6
BRANCH   5  23
ATOM     23  C   UNL A   1      30.096  26.939  23.170  1.00  0.00     0.072 C 
BRANCH  23  24
ATOM     24  C   UNL A   1      29.402  28.251  22.867  1.00  0.00    -0.045 A 
ATOM     25  C   UNL A   1      28.036  28.368  23.177  1.00  0.00     0.004 A 
ATOM     26  C   UNL A   1      30.067  29.383  22.379  1.00  0.00     0.004 A 
ATOM     27  C   UNL A   1      27.343  29.560  22.957  1.00  0.00     0.000 A 
ATOM     28  C   UNL A   1      29.368  30.573  22.140  1.00  0.00     0.000 A 
ATOM     29  C   UNL A   1      28.007  30.659  22.425  1.00  0.00     0.000 A 
ENDBRANCH  23  24
ENDBRANCH   5  23
ENDBRANCH   3   5
ENDBRANCH   2   3
ENDBRANCH   1   2
BRANCH   1  30
ATOM     30  C   UNL A   1      31.808  30.081  25.726  1.00  0.00     0.275 C 
BRANCH  30  31
ATOM     31  O   UNL A   1      33.127  30.608  25.942  1.00  0.00    -0.458 OA
BRANCH  31  32
ATOM     32  C   UNL A   1      33.230  31.508  26.947  1.00  0.00     0.338 C 
ATOM     33  O   UNL A   1      32.480  32.438  27.186  1.00  0.00    -0.246 OA
BRANCH  32  34
ATOM     34  C   UNL A   1      34.482  31.269  27.681  1.00  0.00     0.060 A 
ATOM     35  C   UNL A   1      34.758  29.967  28.097  1.00  0.00     0.016 A 
ATOM     36  C   UNL A   1      35.409  32.292  27.899  1.00  0.00     0.016 A 
ATOM     37  C   UNL A   1      35.955  29.696  28.758  1.00  0.00     0.010 A 
ATOM     38  C   UNL A   1      36.641  32.002  28.488  1.00  0.00     0.010 A 
ATOM     39  C   UNL A   1      36.915  30.706  28.947  1.00  0.00    -0.014 A 
BRANCH  39  40
ATOM     40  C   UNL A   1      38.191  30.380  29.633  1.00  0.00     0.031 A 
ATOM     41  C   UNL A   1      38.444  30.842  31.041  1.00  0.00     0.074 A 
ATOM     42  C   UNL A   1      39.115  29.636  28.994  1.00  0.00     0.049 A 
ATOM     43  N   UNL A   1      39.412  30.497  31.852  1.00  0.00    -0.248 NA
ATOM     44  C   UNL A   1      37.506  31.822  31.614  1.00  0.00     0.031 C 
ATOM     45  C   UNL A   1      39.032  29.202  27.597  1.00  0.00     0.029 A 
ATOM     46  N   UNL A   1      40.297  29.100  29.439  1.00  0.00    -0.354 N 
ATOM     47  C   UNL A   1      39.202  31.217  33.021  1.00  0.00     0.074 A 
ATOM     48  C   UNL A   1      38.043  32.053  32.803  1.00  0.00     0.031 C 
ATOM     49  C   UNL A   1      40.095  28.433  27.313  1.00  0.00     0.029 A 
ATOM     50  C   UNL A   1      40.931  28.314  28.505  1.00  0.00     0.049 A 
ATOM     51  H   UNL A   1      40.658  29.262  30.340  1.00  0.00     0.167 HD
ATOM     52  C   UNL A   1      39.884  31.154  34.187  1.00  0.00     0.034 A 
ATOM     53  C   UNL A   1      42.036  27.550  28.608  1.00  0.00     0.034 A 
ATOM     54  C   UNL A   1      40.999  30.281  34.424  1.00  0.00     0.049 A 
ATOM     55  C   UNL A   1      42.740  27.445  29.932  1.00  0.00     0.074 A 
ATOM     56  C   UNL A   1      41.695  30.077  35.602  1.00  0.00     0.029 A 
ATOM     57  N   UNL A   1      41.581  29.467  33.466  1.00  0.00    -0.354 N 
ATOM     58  N   UNL A   1      42.422  27.998  31.077  1.00  0.00    -0.248 NA
ATOM     59  C   UNL A   1      43.928  26.580  29.992  1.00  0.00     0.031 C 
ATOM     60  C   UNL A   1      42.699  29.136  35.357  1.00  0.00     0.029 A 
ATOM     61  C   UNL A   1      42.628  28.759  34.024  1.00  0.00     0.049 A 
ATOM     62  H   UNL A   1      41.292  29.403  32.528  1.00  0.00     0.167 HD
ATOM     63  C   UNL A   1      43.355  27.533  31.996  1.00  0.00     0.074 A 
ATOM     64  C   UNL A   1      44.243  26.640  31.280  1.00  0.00     0.031 C 
ATOM     65  C   UNL A   1      43.471  27.834  33.312  1.00  0.00     0.034 A 
BRANCH  52  66
ATOM     66  C   UNL A   1      39.381  31.980  35.336  1.00  0.00     0.023 A 
ATOM     67  C   UNL A   1      38.470  31.396  36.239  1.00  0.00     0.012 A 
ATOM     68  C   UNL A   1      39.851  33.286  35.565  1.00  0.00     0.148 A 
ATOM     69  C   UNL A   1      38.023  32.106  37.351  1.00  0.00     0.002 A 
ATOM     70  C   UNL A   1      39.418  33.979  36.689  1.00  0.00     0.091 A 
ATOM     71  F   UNL A   1      40.704  33.822  34.682  1.00  0.00    -0.205 F 
ATOM     72  C   UNL A   1      38.502  33.393  37.581  1.00  0.00     0.022 A 
BRANCH  70  73
ATOM     73  S   UNL A   1      39.995  35.629  37.100  1.00  0.00     0.127 S 
ATOM     74  O   UNL A   1      39.253  35.902  38.332  1.00  0.00    -0.237 OA
ATOM     75  O   UNL A   1      41.430  35.415  37.287  1.00  0.00    -0.237 OA
ATOM     76  O   UNL A   1      39.645  36.475  35.967  1.00  0.00    -0.744 OA
ENDBRANCH  70  73
ENDBRANCH  52  66
BRANCH  53  77
ATOM     77  C   UNL A   1      42.465  26.727  27.445  1.00  0.00     0.023 A 
ATOM     78  C   UNL A   1      43.262  27.318  26.445  1.00  0.00     0.012 A 
ATOM     79  C   UNL A   1      42.145  25.359  27.354  1.00  0.00     0.148 A 
ATOM     80  C   UNL A   1      43.724  26.564  25.367  1.00  0.00     0.002 A 
ATOM     81  C   UNL A   1      42.636  24.605  26.294  1.00  0.00     0.091 A 
ATOM     82  F   UNL A   1      41.383  24.823  28.317  1.00  0.00    -0.205 F 
ATOM     83  C   UNL A   1      43.419  25.208  25.296  1.00  0.00     0.022 A 
BRANCH  81  84
ATOM     84  S   UNL A   1      42.374  22.834  26.157  1.00  0.00     0.127 S 
ATOM     85  O   UNL A   1      42.925  22.552  24.834  1.00  0.00    -0.237 OA
ATOM     86  O   UNL A   1      43.169  22.327  27.276  1.00  0.00    -0.237 OA
ATOM     87  O   UNL A   1      40.939  22.634  26.292  1.00  0.00    -0.744 OA
ENDBRANCH  81  84
ENDBRANCH  53  77
BRANCH  65  88
ATOM     88  C   UNL A   1      44.595  27.206  34.088  1.00  0.00     0.023 A 
ATOM     89  C   UNL A   1      45.744  27.971  34.364  1.00  0.00     0.012 A 
ATOM     90  C   UNL A   1      44.453  25.928  34.661  1.00  0.00     0.148 A 
ATOM     91  C   UNL A   1      46.739  27.471  35.202  1.00  0.00     0.002 A 
ATOM     92  C   UNL A   1      45.433  25.449  35.520  1.00  0.00     0.091 A 
ATOM     93  F   UNL A   1      43.352  25.218  34.372  1.00  0.00    -0.205 F 
ATOM     94  C   UNL A   1      46.579  26.218  35.790  1.00  0.00     0.022 A 
BRANCH  92  95
ATOM     95  S   UNL A   1      45.281  23.884  36.390  1.00  0.00     0.127 S 
ATOM     96  O   UNL A   1      46.564  23.250  36.090  1.00  0.00    -0.237 OA
ATOM     97  O   UNL A   1      45.123  24.316  37.779  1.00  0.00    -0.237 OA
ATOM     98  O   UNL A   1      44.114  23.221  35.824  1.00  0.00    -0.744 OA
ENDBRANCH  92  95
ENDBRANCH  65  88
ENDBRANCH  39  40
ENDBRANCH  32  34
ENDBRANCH  31  32
ENDBRANCH  30  31
ENDBRANCH   1  30
TORSDOF 20
ENDMDL
MODEL 3
REMARK VINA RESULT:     -12.1      5.289     10.189
REMARK SMILES O=C(Cn1nc(-c2cccs2)ccc1=O)N[C@H](Cc1ccccc1)C(=O)OCCOC(=O)c1ccc(-c2c3nc(c(-c4cccc(S(=O)(=O)[O-])c4F)c4ccc([nH]4)c(-c4cccc(S(=O)(=O)[O-])c4F)c4nc(c(-c5cccc(S(=O)(=O)[O-])c5F)c5ccc2[nH]5)C=C4)C=C3)cc1
REMARK SMILES IDX 28 1 27 2 25 3 26 4 17 5 16 6 1 7 2 8 3 10 4 11 5 12 14 13
REMARK SMILES IDX 6 14 13 15 15 16 12 17 7 18 8 19 11 20 9 21 10 22 18 23
REMARK SMILES IDX 19 24 20 25 24 26 21 27 23 28 22 29 29 30 30 31 31 32 32 33
REMARK SMILES IDX 33 34 34 35 95 36 35 37 94 38 36 39 37 40 38 41 88 42 39 43
REMARK SMILES IDX 93 44 87 45 89 46 40 47 92 48 86 49 85 50 41 52 73 53 53 54
REMARK SMILES IDX 72 55 54 56 57 57 71 58 90 59 55 60 56 61 70 63 91 64 58 65
REMARK SMILES IDX 42 66 43 67 51 68 44 69 46 70 52 71 45 72 47 73 48 74 49 75
REMARK SMILES IDX 50 76 74 77 75 78 83 79 76 80 78 81 84 82 77 83 79 84 80 85
REMARK SMILES IDX 81 86 82 87 59 88 60 89 68 90 61 91 63 92 69 93 62 94 64 95
REMARK SMILES IDX 65 96 66 97 67 98
REMARK H PARENT 16 9 89 51 57 62
REMARK Flexibility Score: inf
ROOT
ATOM      1  C   UNL A   1      35.059  20.888  24.964  1.00  0.00     0.274 C 
ENDROOT
BRANCH   1   2
ATOM      2  O   UNL A   1      34.364  21.908  24.226  1.00  0.00    -0.461 OA
BRANCH   2   3
ATOM      3  C   UNL A   1      33.042  22.020  24.513  1.00  0.00     0.329 C 
ATOM      4  O   UNL A   1      32.228  21.101  24.414  1.00  0.00    -0.250 OA
BRANCH   3   5
ATOM      5  C   UNL A   1      32.588  23.453  24.801  1.00  0.00     0.196 C 
BRANCH   5   6
ATOM      6  N   UNL A   1      32.535  24.091  23.473  1.00  0.00    -0.341 N 
ATOM      7  O   UNL A   1      30.245  24.063  23.254  1.00  0.00    -0.273 OA
ATOM      8  C   UNL A   1      31.346  24.427  22.851  1.00  0.00     0.242 C 
ATOM      9  H   UNL A   1      33.382  24.287  23.009  1.00  0.00     0.164 HD
BRANCH   8  10
ATOM     10  C   UNL A   1      31.506  25.334  21.637  1.00  0.00     0.248 C 
BRANCH  10  11
ATOM     11  N   UNL A   1      31.788  26.682  22.110  1.00  0.00    -0.220 N 
ATOM     12  N   UNL A   1      30.692  27.486  22.366  1.00  0.00    -0.168 NA
ATOM     13  C   UNL A   1      33.106  27.103  22.225  1.00  0.00     0.267 A 
ATOM     14  C   UNL A   1      30.904  28.728  22.693  1.00  0.00     0.101 A 
ATOM     15  C   UNL A   1      33.302  28.511  22.621  1.00  0.00     0.075 A 
ATOM     16  O   UNL A   1      34.095  26.402  22.034  1.00  0.00    -0.268 OA
ATOM     17  C   UNL A   1      32.259  29.312  22.838  1.00  0.00     0.037 A 
BRANCH  14  18
ATOM     18  C   UNL A   1      29.751  29.563  22.974  1.00  0.00     0.054 A 
ATOM     19  C   UNL A   1      29.734  30.784  23.623  1.00  0.00     0.022 A 
ATOM     20  S   UNL A   1      28.169  29.063  22.548  1.00  0.00    -0.142 S 
ATOM     21  C   UNL A   1      28.419  31.318  23.742  1.00  0.00     0.012 A 
ATOM     22  C   UNL A   1      27.470  30.474  23.211  1.00  0.00     0.065 A 
ENDBRANCH  14  18
ENDBRANCH  10  11
ENDBRANCH   8  10
ENDBRANCH   5   6
BRANCH   5  23
ATOM     23  C   UNL A   1      33.349  24.255  25.867  1.00  0.00     0.072 C 
BRANCH  23  24
ATOM     24  C   UNL A   1      33.029  25.727  26.026  1.00  0.00    -0.045 A 
ATOM     25  C   UNL A   1      31.698  26.095  26.290  1.00  0.00     0.004 A 
ATOM     26  C   UNL A   1      34.001  26.736  26.013  1.00  0.00     0.004 A 
ATOM     27  C   UNL A   1      31.340  27.430  26.483  1.00  0.00     0.000 A 
ATOM     28  C   UNL A   1      33.639  28.077  26.187  1.00  0.00     0.000 A 
ATOM     29  C   UNL A   1      32.311  28.424  26.417  1.00  0.00     0.000 A 
ENDBRANCH  23  24
ENDBRANCH   5  23
ENDBRANCH   3   5
ENDBRANCH   2   3
ENDBRANCH   1   2
BRANCH   1  30
ATOM     30  C   UNL A   1      36.559  20.959  24.713  1.00  0.00     0.275 C 
BRANCH  30  31
ATOM     31  O   UNL A   1      37.228  21.422  25.896  1.00  0.00    -0.458 OA
BRANCH  31  32
ATOM     32  C   UNL A   1      38.574  21.273  25.893  1.00  0.00     0.338 C 
ATOM     33  O   UNL A   1      39.206  20.276  25.593  1.00  0.00    -0.246 OA
BRANCH  32  34
ATOM     34  C   UNL A   1      39.195  22.495  26.429  1.00  0.00     0.060 A 
ATOM     35  C   UNL A   1      40.362  22.359  27.180  1.00  0.00     0.016 A 
ATOM     36  C   UNL A   1      38.683  23.763  26.141  1.00  0.00     0.016 A 
ATOM     37  C   UNL A   1      41.002  23.497  27.667  1.00  0.00     0.010 A 
ATOM     38  C   UNL A   1      39.371  24.904  26.561  1.00  0.00     0.010 A 
ATOM     39  C   UNL A   1      40.523  24.781  27.351  1.00  0.00    -0.014 A 
BRANCH  39  40
ATOM     40  C   UNL A   1      41.240  25.974  27.865  1.00  0.00     0.031 A 
ATOM     41  C   UNL A   1      42.671  26.233  27.483  1.00  0.00     0.074 A 
ATOM     42  C   UNL A   1      40.589  26.848  28.658  1.00  0.00     0.049 A 
ATOM     43  N   UNL A   1      43.389  27.308  27.686  1.00  0.00    -0.248 NA
ATOM     44  C   UNL A   1      43.397  25.150  26.797  1.00  0.00     0.031 C 
ATOM     45  C   UNL A   1      39.231  26.668  29.176  1.00  0.00     0.029 A 
ATOM     46  N   UNL A   1      40.975  28.068  29.153  1.00  0.00    -0.354 N 
ATOM     47  C   UNL A   1      44.644  27.031  27.160  1.00  0.00     0.074 A 
ATOM     48  C   UNL A   1      44.609  25.672  26.668  1.00  0.00     0.031 C 
ATOM     49  C   UNL A   1      38.883  27.757  29.882  1.00  0.00     0.029 A 
ATOM     50  C   UNL A   1      39.988  28.712  29.861  1.00  0.00     0.049 A 
ATOM     51  H   UNL A   1      41.873  28.447  29.015  1.00  0.00     0.167 HD
ATOM     52  C   UNL A   1      45.716  27.849  27.054  1.00  0.00     0.034 A 
ATOM     53  C   UNL A   1      39.958  29.949  30.397  1.00  0.00     0.034 A 
ATOM     54  C   UNL A   1      45.734  29.217  27.489  1.00  0.00     0.049 A 
ATOM     55  C   UNL A   1      41.136  30.863  30.209  1.00  0.00     0.074 A 
ATOM     56  C   UNL A   1      46.741  30.153  27.337  1.00  0.00     0.029 A 
ATOM     57  N   UNL A   1      44.698  29.845  28.159  1.00  0.00    -0.354 N 
ATOM     58  N   UNL A   1      42.250  30.643  29.554  1.00  0.00    -0.248 NA
ATOM     59  C   UNL A   1      41.041  32.208  30.797  1.00  0.00     0.031 C 
ATOM     60  C   UNL A   1      46.312  31.351  27.915  1.00  0.00     0.029 A 
ATOM     61  C   UNL A   1      45.039  31.156  28.429  1.00  0.00     0.049 A 
ATOM     62  H   UNL A   1      43.845  29.420  28.406  1.00  0.00     0.167 HD
ATOM     63  C   UNL A   1      42.977  31.825  29.631  1.00  0.00     0.074 A 
ATOM     64  C   UNL A   1      42.173  32.765  30.384  1.00  0.00     0.031 C 
ATOM     65  C   UNL A   1      44.208  32.097  29.134  1.00  0.00     0.034 A 
BRANCH  52  66
ATOM     66  C   UNL A   1      46.931  27.318  26.348  1.00  0.00     0.023 A 
ATOM     67  C   UNL A   1      47.060  27.543  24.962  1.00  0.00     0.012 A 
ATOM     68  C   UNL A   1      47.967  26.672  27.049  1.00  0.00     0.148 A 
ATOM     69  C   UNL A   1      48.197  27.120  24.279  1.00  0.00     0.002 A 
ATOM     70  C   UNL A   1      49.109  26.275  26.364  1.00  0.00     0.091 A 
ATOM     71  F   UNL A   1      47.812  26.458  28.363  1.00  0.00    -0.205 F 
ATOM     72  C   UNL A   1      49.224  26.494  24.980  1.00  0.00     0.022 A 
BRANCH  70  73
ATOM     73  S   UNL A   1      50.507  25.489  27.172  1.00  0.00     0.127 S 
ATOM     74  O   UNL A   1      49.892  24.277  27.712  1.00  0.00    -0.237 OA
ATOM     75  O   UNL A   1      51.422  25.264  26.054  1.00  0.00    -0.237 OA
ATOM     76  O   UNL A   1      50.982  26.438  28.171  1.00  0.00    -0.744 OA
ENDBRANCH  70  73
ENDBRANCH  52  66
BRANCH  53  77
ATOM     77  C   UNL A   1      38.712  30.430  31.053  1.00  0.00     0.023 A 
ATOM     78  C   UNL A   1      38.569  30.274  32.445  1.00  0.00     0.012 A 
ATOM     79  C   UNL A   1      37.705  31.090  30.324  1.00  0.00     0.148 A 
ATOM     80  C   UNL A   1      37.438  30.758  33.101  1.00  0.00     0.002 A 
ATOM     81  C   UNL A   1      36.595  31.600  30.989  1.00  0.00     0.091 A 
ATOM     82  F   UNL A   1      37.866  31.222  29.000  1.00  0.00    -0.205 F 
ATOM     83  C   UNL A   1      36.456  31.427  32.376  1.00  0.00     0.022 A 
BRANCH  81  84
ATOM     84  S   UNL A   1      35.319  32.554  30.160  1.00  0.00     0.127 S 
ATOM     85  O   UNL A   1      36.067  33.726  29.712  1.00  0.00    -0.237 OA
ATOM     86  O   UNL A   1      34.908  31.640  29.094  1.00  0.00    -0.237 OA
ATOM     87  O   UNL A   1      34.299  32.810  31.167  1.00  0.00    -0.744 OA
ENDBRANCH  81  84
ENDBRANCH  53  77
BRANCH  65  88
ATOM     88  C   UNL A   1      44.786  33.462  29.378  1.00  0.00     0.023 A 
ATOM     89  C   UNL A   1      45.450  33.715  30.594  1.00  0.00     0.012 A 
ATOM     90  C   UNL A   1      44.801  34.434  28.359  1.00  0.00     0.148 A 
ATOM     91  C   UNL A   1      46.122  34.920  30.793  1.00  0.00     0.002 A 
ATOM     92  C   UNL A   1      45.500  35.619  28.552  1.00  0.00     0.091 A 
ATOM     93  F   UNL A   1      44.152  34.169  27.215  1.00  0.00    -0.205 F 
ATOM     94  C   UNL A   1      46.158  35.865  29.769  1.00  0.00     0.022 A 
BRANCH  92  95
ATOM     95  S   UNL A   1      45.674  36.863  27.267  1.00  0.00     0.127 S 
ATOM     96  O   UNL A   1      46.733  37.709  27.813  1.00  0.00    -0.237 OA
ATOM     97  O   UNL A   1      46.070  36.058  26.110  1.00  0.00    -0.237 OA
ATOM     98  O   UNL A   1      44.370  37.501  27.144  1.00  0.00    -0.744 OA
ENDBRANCH  92  95
ENDBRANCH  65  88
ENDBRANCH  39  40
ENDBRANCH  32  34
ENDBRANCH  31  32
ENDBRANCH  30  31
ENDBRANCH   1  30
TORSDOF 20
ENDMDL
