MODEL 1
REMARK VINA RESULT:     -11.8      0.000      0.000
REMARK SMILES Cc1cc(=O)n(CC(=O)OCCOC(=O)c2ccc(-c3c4nc(c(-c5cccc(S(=O)(=O)[O-])c5F)c5ccc([nH]5)c(-c5cccc(S(=O)(=O)[O-])c5F)c5nc(c(-c6cccc(S(=O)(=O)[O-])c6F)c6ccc3[nH]6)C=C5)C=C4)cc2)c(N2CCC(C)CC2)n1
REMARK SMILES IDX 12 1 11 2 10 3 8 4 9 5 7 6 6 7 1 8 2 9 3 10 87 11 4 12 79 13
REMARK SMILES IDX 5 14 80 15 81 16 86 17 82 18 85 19 83 20 84 21 13 22 14 23
REMARK SMILES IDX 15 24 16 25 17 26 78 27 18 28 77 29 19 30 20 31 21 32 71 33
REMARK SMILES IDX 22 34 76 35 70 36 72 37 23 38 75 39 69 40 68 41 24 43 56 44
REMARK SMILES IDX 36 45 55 46 37 47 40 48 54 49 73 50 38 51 39 52 53 54 74 55
REMARK SMILES IDX 41 56 25 57 26 58 34 59 27 60 29 61 35 62 28 63 30 64 31 65
REMARK SMILES IDX 32 66 33 67 57 68 58 69 66 70 59 71 61 72 67 73 60 74 62 75
REMARK SMILES IDX 63 76 64 77 65 78 42 79 43 80 51 81 44 82 46 83 52 84 45 85
REMARK SMILES IDX 47 86 48 87 49 88 50 89
REMARK H PARENT 72 42 40 53
REMARK Flexibility Score: inf
ROOT
ATOM      1  C   UNL A   1      31.679  29.517  25.728  1.00  0.00     0.275 C 
ENDROOT
BRANCH   1   2
ATOM      2  C   UNL A   1      31.428  28.310  26.629  1.00  0.00     0.274 C 
BRANCH   2   3
ATOM      3  O   UNL A   1      31.656  27.066  25.932  1.00  0.00    -0.461 OA
BRANCH   3   4
ATOM      4  C   UNL A   1      30.550  26.294  25.754  1.00  0.00     0.326 C 
ATOM      5  O   UNL A   1      29.927  25.761  26.668  1.00  0.00    -0.250 OA
BRANCH   4   6
ATOM      6  C   UNL A   1      30.188  26.034  24.299  1.00  0.00     0.251 C 
BRANCH   6   7
ATOM      7  N   UNL A   1      29.850  27.187  23.470  1.00  0.00    -0.267 N 
ATOM      8  C   UNL A   1      29.001  30.804  21.524  1.00  0.00     0.067 C 
ATOM      9  C   UNL A   1      29.242  29.485  22.198  1.00  0.00     0.047 A 
ATOM     10  C   UNL A   1      28.266  28.909  22.904  1.00  0.00     0.095 A 
ATOM     11  N   UNL A   1      30.476  28.915  22.002  1.00  0.00    -0.220 NA
ATOM     12  C   UNL A   1      28.541  27.606  23.501  1.00  0.00     0.255 A 
ATOM     13  C   UNL A   1      30.746  27.787  22.602  1.00  0.00     0.209 A 
ATOM     14  O   UNL A   1      27.612  26.943  23.949  1.00  0.00    -0.269 OA
BRANCH  13  15
ATOM     15  N   UNL A   1      31.940  27.148  22.333  1.00  0.00    -0.342 N 
ATOM     16  C   UNL A   1      31.983  25.958  21.493  1.00  0.00     0.120 C 
ATOM     17  C   UNL A   1      33.180  27.547  23.006  1.00  0.00     0.120 C 
ATOM     18  C   UNL A   1      32.669  24.793  22.202  1.00  0.00     0.025 C 
ATOM     19  C   UNL A   1      33.818  26.381  23.741  1.00  0.00     0.025 C 
ATOM     20  C   UNL A   1      34.029  25.213  22.775  1.00  0.00    -0.011 C 
ATOM     21  C   UNL A   1      34.731  24.055  23.473  1.00  0.00     0.008 C 
ENDBRANCH  13  15
ENDBRANCH   6   7
ENDBRANCH   4   6
ENDBRANCH   3   4
ENDBRANCH   2   3
ENDBRANCH   1   2
BRANCH   1  22
ATOM     22  O   UNL A   1      33.024  29.997  25.883  1.00  0.00    -0.458 OA
BRANCH  22  23
ATOM     23  C   UNL A   1      33.165  31.025  26.756  1.00  0.00     0.338 C 
ATOM     24  O   UNL A   1      32.433  31.992  26.874  1.00  0.00    -0.246 OA
BRANCH  23  25
ATOM     25  C   UNL A   1      34.361  30.779  27.573  1.00  0.00     0.060 A 
ATOM     26  C   UNL A   1      34.610  29.510  28.086  1.00  0.00     0.016 A 
ATOM     27  C   UNL A   1      35.284  31.807  27.764  1.00  0.00     0.016 A 
ATOM     28  C   UNL A   1      35.791  29.286  28.798  1.00  0.00     0.010 A 
ATOM     29  C   UNL A   1      36.490  31.570  28.413  1.00  0.00     0.010 A 
ATOM     30  C   UNL A   1      36.746  30.311  28.953  1.00  0.00    -0.014 A 
BRANCH  30  31
ATOM     31  C   UNL A   1      38.031  30.044  29.637  1.00  0.00     0.031 A 
ATOM     32  C   UNL A   1      38.310  30.592  31.005  1.00  0.00     0.074 A 
ATOM     33  C   UNL A   1      38.962  29.309  28.999  1.00  0.00     0.049 A 
ATOM     34  N   UNL A   1      39.303  30.312  31.810  1.00  0.00    -0.248 NA
ATOM     35  C   UNL A   1      37.370  31.592  31.541  1.00  0.00     0.031 C 
ATOM     36  C   UNL A   1      38.855  28.831  27.618  1.00  0.00     0.029 A 
ATOM     37  N   UNL A   1      40.170  28.824  29.429  1.00  0.00    -0.354 N 
ATOM     38  C   UNL A   1      39.106  31.091  32.942  1.00  0.00     0.074 A 
ATOM     39  C   UNL A   1      37.928  31.896  32.705  1.00  0.00     0.031 C 
ATOM     40  C   UNL A   1      39.923  28.069  27.336  1.00  0.00     0.029 A 
ATOM     41  C   UNL A   1      40.787  28.008  28.511  1.00  0.00     0.049 A 
ATOM     42  H   UNL A   1      40.556  29.039  30.308  1.00  0.00     0.167 HD
ATOM     43  C   UNL A   1      39.815  31.097  34.094  1.00  0.00     0.034 A 
ATOM     44  C   UNL A   1      41.899  27.257  28.621  1.00  0.00     0.034 A 
ATOM     45  C   UNL A   1      40.964  30.268  34.334  1.00  0.00     0.049 A 
ATOM     46  C   UNL A   1      42.634  27.225  29.929  1.00  0.00     0.074 A 
ATOM     47  C   UNL A   1      41.707  30.142  35.493  1.00  0.00     0.029 A 
ATOM     48  N   UNL A   1      41.534  29.422  33.396  1.00  0.00    -0.354 N 
ATOM     49  N   UNL A   1      42.342  27.842  31.049  1.00  0.00    -0.248 NA
ATOM     50  C   UNL A   1      43.828  26.373  30.004  1.00  0.00     0.031 C 
ATOM     51  C   UNL A   1      42.729  29.219  35.256  1.00  0.00     0.029 A 
ATOM     52  C   UNL A   1      42.620  28.768  33.950  1.00  0.00     0.049 A 
ATOM     53  H   UNL A   1      41.214  29.304  32.472  1.00  0.00     0.167 HD
ATOM     54  C   UNL A   1      43.305  27.441  31.968  1.00  0.00     0.074 A 
ATOM     55  C   UNL A   1      44.180  26.514  31.277  1.00  0.00     0.031 C 
ATOM     56  C   UNL A   1      43.455  27.819  33.259  1.00  0.00     0.034 A 
BRANCH  43  57
ATOM     57  C   UNL A   1      39.308  31.950  35.223  1.00  0.00     0.023 A 
ATOM     58  C   UNL A   1      38.364  31.396  36.114  1.00  0.00     0.012 A 
ATOM     59  C   UNL A   1      39.806  33.245  35.457  1.00  0.00     0.148 A 
ATOM     60  C   UNL A   1      37.911  32.125  37.212  1.00  0.00     0.002 A 
ATOM     61  C   UNL A   1      39.370  33.955  36.571  1.00  0.00     0.091 A 
ATOM     62  F   UNL A   1      40.690  33.755  34.589  1.00  0.00    -0.205 F 
ATOM     63  C   UNL A   1      38.420  33.399  37.445  1.00  0.00     0.022 A 
BRANCH  61  64
ATOM     64  S   UNL A   1      39.995  35.585  36.994  1.00  0.00     0.127 S 
ATOM     65  O   UNL A   1      39.281  35.860  38.241  1.00  0.00    -0.237 OA
ATOM     66  O   UNL A   1      41.427  35.331  37.157  1.00  0.00    -0.237 OA
ATOM     67  O   UNL A   1      39.652  36.453  35.878  1.00  0.00    -0.744 OA
ENDBRANCH  61  64
ENDBRANCH  43  57
BRANCH  44  68
ATOM     68  C   UNL A   1      42.281  26.371  27.490  1.00  0.00     0.023 A 
ATOM     69  C   UNL A   1      43.170  26.860  26.513  1.00  0.00     0.012 A 
ATOM     70  C   UNL A   1      41.862  25.028  27.436  1.00  0.00     0.148 A 
ATOM     71  C   UNL A   1      43.634  26.026  25.496  1.00  0.00     0.002 A 
ATOM     72  C   UNL A   1      42.356  24.194  26.439  1.00  0.00     0.091 A 
ATOM     73  F   UNL A   1      41.021  24.589  28.382  1.00  0.00    -0.205 F 
ATOM     74  C   UNL A   1      43.235  24.692  25.465  1.00  0.00     0.022 A 
BRANCH  72  75
ATOM     75  S   UNL A   1      41.981  22.439  26.366  1.00  0.00     0.127 S 
ATOM     76  O   UNL A   1      42.519  21.964  27.640  1.00  0.00    -0.237 OA
ATOM     77  O   UNL A   1      40.520  22.450  26.282  1.00  0.00    -0.237 OA
ATOM     78  O   UNL A   1      42.657  21.934  25.179  1.00  0.00    -0.744 OA
ENDBRANCH  72  75
ENDBRANCH  44  68
BRANCH  56  79
ATOM     79  C   UNL A   1      44.614  27.250  34.030  1.00  0.00     0.023 A 
ATOM     80  C   UNL A   1      45.832  27.953  34.053  1.00  0.00     0.012 A 
ATOM     81  C   UNL A   1      44.454  26.104  34.832  1.00  0.00     0.148 A 
ATOM     82  C   UNL A   1      46.881  27.522  34.863  1.00  0.00     0.002 A 
ATOM     83  C   UNL A   1      45.492  25.697  35.661  1.00  0.00     0.091 A 
ATOM     84  F   UNL A   1      43.284  25.450  34.784  1.00  0.00    -0.205 F 
ATOM     85  C   UNL A   1      46.707  26.402  35.674  1.00  0.00     0.022 A 
BRANCH  83  86
ATOM     86  S   UNL A   1      45.342  24.315  36.798  1.00  0.00     0.127 S 
ATOM     87  O   UNL A   1      44.309  24.794  37.714  1.00  0.00    -0.237 OA
ATOM     88  O   UNL A   1      44.917  23.231  35.911  1.00  0.00    -0.237 OA
ATOM     89  O   UNL A   1      46.660  24.134  37.393  1.00  0.00    -0.744 OA
ENDBRANCH  83  86
ENDBRANCH  56  79
ENDBRANCH  30  31
ENDBRANCH  23  25
ENDBRANCH  22  23
ENDBRANCH   1  22
TORSDOF 16
ENDMDL
MODEL 2
REMARK VINA RESULT:     -11.7      5.165     10.089
REMARK SMILES Cc1cc(=O)n(CC(=O)OCCOC(=O)c2ccc(-c3c4nc(c(-c5cccc(S(=O)(=O)[O-])c5F)c5ccc([nH]5)c(-c5cccc(S(=O)(=O)[O-])c5F)c5nc(c(-c6cccc(S(=O)(=O)[O-])c6F)c6ccc3[nH]6)C=C5)C=C4)cc2)c(N2CCC(C)CC2)n1
REMARK SMILES IDX 12 1 11 2 10 3 8 4 9 5 7 6 6 7 1 8 2 9 3 10 87 11 4 12 79 13
REMARK SMILES IDX 5 14 80 15 81 16 86 17 82 18 85 19 83 20 84 21 13 22 14 23
REMARK SMILES IDX 15 24 16 25 17 26 78 27 18 28 77 29 19 30 20 31 21 32 71 33
REMARK SMILES IDX 22 34 76 35 70 36 72 37 23 38 75 39 69 40 68 41 24 43 56 44
REMARK SMILES IDX 36 45 55 46 37 47 40 48 54 49 73 50 38 51 39 52 53 54 74 55
REMARK SMILES IDX 41 56 25 57 26 58 34 59 27 60 29 61 35 62 28 63 30 64 31 65
REMARK SMILES IDX 32 66 33 67 57 68 58 69 66 70 59 71 61 72 67 73 60 74 62 75
REMARK SMILES IDX 63 76 64 77 65 78 42 79 43 80 51 81 44 82 46 83 52 84 45 85
REMARK SMILES IDX 47 86 48 87 49 88 50 89
REMARK H PARENT 72 42 40 53
REMARK Flexibility Score: inf
ROOT
ATOM      1  C   UNL A   1      36.146  21.677  24.398  1.00  0.00     0.275 C 
ENDROOT
BRANCH   1   2
ATOM      2  C   UNL A   1      35.810  22.970  23.658  1.00  0.00     0.274 C 
BRANCH   2   3
ATOM      3  O   UNL A   1      34.760  22.774  22.686  1.00  0.00    -0.461 OA
BRANCH   3   4
ATOM      4  C   UNL A   1      33.735  23.664  22.757  1.00  0.00     0.326 C 
ATOM      5  O   UNL A   1      33.880  24.884  22.741  1.00  0.00    -0.250 OA
BRANCH   4   6
ATOM      6  C   UNL A   1      32.366  23.038  22.975  1.00  0.00     0.251 C 
BRANCH   6   7
ATOM      7  N   UNL A   1      32.320  21.700  23.557  1.00  0.00    -0.267 N 
ATOM      8  C   UNL A   1      32.727  17.847  25.162  1.00  0.00     0.067 C 
ATOM      9  C   UNL A   1      32.530  19.201  24.545  1.00  0.00     0.047 A 
ATOM     10  C   UNL A   1      32.390  19.318  23.223  1.00  0.00     0.095 A 
ATOM     11  N   UNL A   1      32.456  20.263  25.413  1.00  0.00    -0.220 NA
ATOM     12  C   UNL A   1      32.157  20.653  22.681  1.00  0.00     0.255 A 
ATOM     13  C   UNL A   1      32.326  21.465  24.921  1.00  0.00     0.209 A 
ATOM     14  O   UNL A   1      31.792  20.773  21.517  1.00  0.00    -0.269 OA
BRANCH  13  15
ATOM     15  N   UNL A   1      32.145  22.530  25.781  1.00  0.00    -0.342 N 
ATOM     16  C   UNL A   1      30.836  23.148  25.948  1.00  0.00     0.120 C 
ATOM     17  C   UNL A   1      33.287  23.178  26.433  1.00  0.00     0.120 C 
ATOM     18  C   UNL A   1      30.886  24.652  25.690  1.00  0.00     0.025 C 
ATOM     19  C   UNL A   1      33.339  24.664  26.124  1.00  0.00     0.025 C 
ATOM     20  C   UNL A   1      32.007  25.318  26.498  1.00  0.00    -0.011 C 
ATOM     21  C   UNL A   1      32.058  26.822  26.262  1.00  0.00     0.008 C 
ENDBRANCH  13  15
ENDBRANCH   6   7
ENDBRANCH   4   6
ENDBRANCH   3   4
ENDBRANCH   2   3
ENDBRANCH   1   2
BRANCH   1  22
ATOM     22  O   UNL A   1      36.738  21.960  25.675  1.00  0.00    -0.458 OA
BRANCH  22  23
ATOM     23  C   UNL A   1      38.058  21.663  25.769  1.00  0.00     0.338 C 
ATOM     24  O   UNL A   1      38.607  20.641  25.398  1.00  0.00    -0.246 OA
BRANCH  23  25
ATOM     25  C   UNL A   1      38.747  22.804  26.389  1.00  0.00     0.060 A 
ATOM     26  C   UNL A   1      39.933  22.609  27.089  1.00  0.00     0.016 A 
ATOM     27  C   UNL A   1      38.244  24.091  26.203  1.00  0.00     0.016 A 
ATOM     28  C   UNL A   1      40.605  23.719  27.606  1.00  0.00     0.010 A 
ATOM     29  C   UNL A   1      38.945  25.202  26.658  1.00  0.00     0.010 A 
ATOM     30  C   UNL A   1      40.123  25.024  27.381  1.00  0.00    -0.014 A 
BRANCH  30  31
ATOM     31  C   UNL A   1      40.884  26.200  27.861  1.00  0.00     0.031 A 
ATOM     32  C   UNL A   1      42.317  26.408  27.468  1.00  0.00     0.074 A 
ATOM     33  C   UNL A   1      40.269  27.080  28.674  1.00  0.00     0.049 A 
ATOM     34  N   UNL A   1      43.069  27.462  27.656  1.00  0.00    -0.248 NA
ATOM     35  C   UNL A   1      43.006  25.294  26.796  1.00  0.00     0.031 C 
ATOM     36  C   UNL A   1      38.922  26.917  29.225  1.00  0.00     0.029 A 
ATOM     37  N   UNL A   1      40.688  28.288  29.167  1.00  0.00    -0.354 N 
ATOM     38  C   UNL A   1      44.311  27.142  27.122  1.00  0.00     0.074 A 
ATOM     39  C   UNL A   1      44.232  25.778  26.648  1.00  0.00     0.031 C 
ATOM     40  C   UNL A   1      38.601  28.013  29.928  1.00  0.00     0.029 A 
ATOM     41  C   UNL A   1      39.719  28.952  29.880  1.00  0.00     0.049 A 
ATOM     42  H   UNL A   1      41.595  28.645  29.024  1.00  0.00     0.167 HD
ATOM     43  C   UNL A   1      45.401  27.933  26.994  1.00  0.00     0.034 A 
ATOM     44  C   UNL A   1      39.713  30.195  30.395  1.00  0.00     0.034 A 
ATOM     45  C   UNL A   1      45.459  29.299  27.436  1.00  0.00     0.049 A 
ATOM     46  C   UNL A   1      40.907  31.080  30.185  1.00  0.00     0.074 A 
ATOM     47  C   UNL A   1      46.489  30.208  27.285  1.00  0.00     0.029 A 
ATOM     48  N   UNL A   1      44.442  29.950  28.115  1.00  0.00    -0.354 N 
ATOM     49  N   UNL A   1      42.015  30.821  29.532  1.00  0.00    -0.248 NA
ATOM     50  C   UNL A   1      40.842  32.436  30.747  1.00  0.00     0.031 C 
ATOM     51  C   UNL A   1      46.095  31.413  27.874  1.00  0.00     0.029 A 
ATOM     52  C   UNL A   1      44.818  31.253  28.389  1.00  0.00     0.049 A 
ATOM     53  H   UNL A   1      43.580  29.546  28.366  1.00  0.00     0.167 HD
ATOM     54  C   UNL A   1      42.772  31.984  29.590  1.00  0.00     0.074 A 
ATOM     55  C   UNL A   1      41.990  32.956  30.328  1.00  0.00     0.031 C 
ATOM     56  C   UNL A   1      44.009  32.218  29.090  1.00  0.00     0.034 A 
BRANCH  43  57
ATOM     57  C   UNL A   1      46.586  27.376  26.254  1.00  0.00     0.023 A 
ATOM     58  C   UNL A   1      46.629  27.513  24.851  1.00  0.00     0.012 A 
ATOM     59  C   UNL A   1      47.677  26.798  26.929  1.00  0.00     0.148 A 
ATOM     60  C   UNL A   1      47.734  27.069  24.128  1.00  0.00     0.002 A 
ATOM     61  C   UNL A   1      48.788  26.383  26.203  1.00  0.00     0.091 A 
ATOM     62  F   UNL A   1      47.606  26.664  28.261  1.00  0.00    -0.205 F 
ATOM     63  C   UNL A   1      48.815  26.513  24.803  1.00  0.00     0.022 A 
BRANCH  61  64
ATOM     64  S   UNL A   1      50.258  25.697  26.976  1.00  0.00     0.127 S 
ATOM     65  O   UNL A   1      49.739  24.454  27.545  1.00  0.00    -0.237 OA
ATOM     66  O   UNL A   1      51.151  25.516  25.831  1.00  0.00    -0.237 OA
ATOM     67  O   UNL A   1      50.702  26.686  27.947  1.00  0.00    -0.744 OA
ENDBRANCH  61  64
ENDBRANCH  43  57
BRANCH  44  68
ATOM     68  C   UNL A   1      38.469  30.703  31.031  1.00  0.00     0.023 A 
ATOM     69  C   UNL A   1      38.342  30.630  32.432  1.00  0.00     0.012 A 
ATOM     70  C   UNL A   1      37.470  31.350  30.277  1.00  0.00     0.148 A 
ATOM     71  C   UNL A   1      37.237  31.189  33.073  1.00  0.00     0.002 A 
ATOM     72  C   UNL A   1      36.390  31.936  30.927  1.00  0.00     0.091 A 
ATOM     73  F   UNL A   1      37.622  31.410  28.947  1.00  0.00    -0.205 F 
ATOM     74  C   UNL A   1      36.268  31.850  32.323  1.00  0.00     0.022 A 
BRANCH  72  75
ATOM     75  S   UNL A   1      35.139  32.892  30.064  1.00  0.00     0.127 S 
ATOM     76  O   UNL A   1      34.229  33.246  31.152  1.00  0.00    -0.237 OA
ATOM     77  O   UNL A   1      35.927  34.004  29.534  1.00  0.00    -0.237 OA
ATOM     78  O   UNL A   1      34.582  32.002  29.054  1.00  0.00    -0.744 OA
ENDBRANCH  72  75
ENDBRANCH  44  68
BRANCH  56  79
ATOM     79  C   UNL A   1      44.620  33.572  29.322  1.00  0.00     0.023 A 
ATOM     80  C   UNL A   1      45.403  33.781  30.473  1.00  0.00     0.012 A 
ATOM     81  C   UNL A   1      44.532  34.581  28.344  1.00  0.00     0.148 A 
ATOM     82  C   UNL A   1      46.089  34.981  30.651  1.00  0.00     0.002 A 
ATOM     83  C   UNL A   1      45.244  35.762  28.513  1.00  0.00     0.091 A 
ATOM     84  F   UNL A   1      43.773  34.356  27.262  1.00  0.00    -0.205 F 
ATOM     85  C   UNL A   1      46.019  35.965  29.667  1.00  0.00     0.022 A 
BRANCH  83  86
ATOM     86  S   UNL A   1      45.281  37.059  27.271  1.00  0.00     0.127 S 
ATOM     87  O   UNL A   1      45.953  38.140  27.989  1.00  0.00    -0.237 OA
ATOM     88  O   UNL A   1      46.077  36.445  26.208  1.00  0.00    -0.237 OA
ATOM     89  O   UNL A   1      43.891  37.321  26.917  1.00  0.00    -0.744 OA
ENDBRANCH  83  86
ENDBRANCH  56  79
ENDBRANCH  30  31
ENDBRANCH  23  25
ENDBRANCH  22  23
ENDBRANCH   1  22
TORSDOF 16
ENDMDL
MODEL 3
REMARK VINA RESULT:     -11.7      1.380      2.478
REMARK SMILES Cc1cc(=O)n(CC(=O)OCCOC(=O)c2ccc(-c3c4nc(c(-c5cccc(S(=O)(=O)[O-])c5F)c5ccc([nH]5)c(-c5cccc(S(=O)(=O)[O-])c5F)c5nc(c(-c6cccc(S(=O)(=O)[O-])c6F)c6ccc3[nH]6)C=C5)C=C4)cc2)c(N2CCC(C)CC2)n1
REMARK SMILES IDX 12 1 11 2 10 3 8 4 9 5 7 6 6 7 1 8 2 9 3 10 87 11 4 12 79 13
REMARK SMILES IDX 5 14 80 15 81 16 86 17 82 18 85 19 83 20 84 21 13 22 14 23
REMARK SMILES IDX 15 24 16 25 17 26 78 27 18 28 77 29 19 30 20 31 21 32 71 33
REMARK SMILES IDX 22 34 76 35 70 36 72 37 23 38 75 39 69 40 68 41 24 43 56 44
REMARK SMILES IDX 36 45 55 46 37 47 40 48 54 49 73 50 38 51 39 52 53 54 74 55
REMARK SMILES IDX 41 56 25 57 26 58 34 59 27 60 29 61 35 62 28 63 30 64 31 65
REMARK SMILES IDX 32 66 33 67 57 68 58 69 66 70 59 71 61 72 67 73 60 74 62 75
REMARK SMILES IDX 63 76 64 77 65 78 42 79 43 80 51 81 44 82 46 83 52 84 45 85
REMARK SMILES IDX 47 86 48 87 49 88 50 89
REMARK H PARENT 72 42 40 53
REMARK Flexibility Score: inf
ROOT
ATOM      1  C   UNL A   1      31.417  30.449  25.655  1.00  0.00     0.275 C 
ENDROOT
BRANCH   1   2
ATOM      2  C   UNL A   1      31.234  29.492  24.480  1.00  0.00     0.274 C 
BRANCH   2   3
ATOM      3  O   UNL A   1      32.500  29.080  23.922  1.00  0.00    -0.461 OA
BRANCH   3   4
ATOM      4  C   UNL A   1      32.689  27.735  23.852  1.00  0.00     0.326 C 
ATOM      5  O   UNL A   1      32.431  27.053  22.863  1.00  0.00    -0.250 OA
BRANCH   4   6
ATOM      6  C   UNL A   1      33.149  27.092  25.152  1.00  0.00     0.251 C 
BRANCH   6   7
ATOM      7  N   UNL A   1      32.427  25.910  25.613  1.00  0.00    -0.267 N 
ATOM      8  C   UNL A   1      30.064  22.556  26.481  1.00  0.00     0.067 C 
ATOM      9  C   UNL A   1      30.896  23.781  26.236  1.00  0.00     0.047 A 
ATOM     10  C   UNL A   1      30.440  24.981  26.604  1.00  0.00     0.095 A 
ATOM     11  N   UNL A   1      32.132  23.578  25.673  1.00  0.00    -0.220 NA
ATOM     12  C   UNL A   1      31.309  26.133  26.382  1.00  0.00     0.255 A 
ATOM     13  C   UNL A   1      32.874  24.617  25.404  1.00  0.00     0.209 A 
ATOM     14  O   UNL A   1      31.034  27.203  26.913  1.00  0.00    -0.269 OA
BRANCH  13  15
ATOM     15  N   UNL A   1      34.159  24.426  24.936  1.00  0.00    -0.342 N 
ATOM     16  C   UNL A   1      34.406  24.028  23.556  1.00  0.00     0.120 C 
ATOM     17  C   UNL A   1      35.309  24.459  25.846  1.00  0.00     0.120 C 
ATOM     18  C   UNL A   1      35.256  22.762  23.478  1.00  0.00     0.025 C 
ATOM     19  C   UNL A   1      36.111  23.172  25.782  1.00  0.00     0.025 C 
ATOM     20  C   UNL A   1      36.522  22.889  24.335  1.00  0.00    -0.011 C 
ATOM     21  C   UNL A   1      37.388  21.638  24.254  1.00  0.00     0.008 C 
ENDBRANCH  13  15
ENDBRANCH   6   7
ENDBRANCH   4   6
ENDBRANCH   3   4
ENDBRANCH   2   3
ENDBRANCH   1   2
BRANCH   1  22
ATOM     22  O   UNL A   1      32.754  30.372  26.172  1.00  0.00    -0.458 OA
BRANCH  22  23
ATOM     23  C   UNL A   1      33.107  31.391  26.995  1.00  0.00     0.338 C 
ATOM     24  O   UNL A   1      32.452  32.385  27.252  1.00  0.00    -0.246 OA
BRANCH  23  25
ATOM     25  C   UNL A   1      34.432  31.094  27.559  1.00  0.00     0.060 A 
ATOM     26  C   UNL A   1      35.321  32.127  27.837  1.00  0.00     0.016 A 
ATOM     27  C   UNL A   1      34.759  29.778  27.884  1.00  0.00     0.016 A 
ATOM     28  C   UNL A   1      36.544  31.824  28.440  1.00  0.00     0.010 A 
ATOM     29  C   UNL A   1      35.945  29.482  28.545  1.00  0.00     0.010 A 
ATOM     30  C   UNL A   1      36.858  30.501  28.812  1.00  0.00    -0.014 A 
BRANCH  30  31
ATOM     31  C   UNL A   1      38.120  30.199  29.524  1.00  0.00     0.031 A 
ATOM     32  C   UNL A   1      38.375  30.729  30.905  1.00  0.00     0.074 A 
ATOM     33  C   UNL A   1      39.050  29.450  28.903  1.00  0.00     0.049 A 
ATOM     34  N   UNL A   1      39.341  30.420  31.731  1.00  0.00    -0.248 NA
ATOM     35  C   UNL A   1      37.445  31.744  31.427  1.00  0.00     0.031 C 
ATOM     36  C   UNL A   1      38.968  28.987  27.516  1.00  0.00     0.029 A 
ATOM     37  N   UNL A   1      40.235  28.934  29.359  1.00  0.00    -0.354 N 
ATOM     38  C   UNL A   1      39.133  31.192  32.866  1.00  0.00     0.074 A 
ATOM     39  C   UNL A   1      37.980  32.025  32.607  1.00  0.00     0.031 C 
ATOM     40  C   UNL A   1      40.025  28.205  27.253  1.00  0.00     0.029 A 
ATOM     41  C   UNL A   1      40.857  28.113  28.449  1.00  0.00     0.049 A 
ATOM     42  H   UNL A   1      40.604  29.132  30.250  1.00  0.00     0.167 HD
ATOM     43  C   UNL A   1      39.813  31.172  34.036  1.00  0.00     0.034 A 
ATOM     44  C   UNL A   1      41.950  27.337  28.580  1.00  0.00     0.034 A 
ATOM     45  C   UNL A   1      40.936  30.315  34.296  1.00  0.00     0.049 A 
ATOM     46  C   UNL A   1      42.651  27.277  29.906  1.00  0.00     0.074 A 
ATOM     47  C   UNL A   1      41.646  30.163  35.472  1.00  0.00     0.029 A 
ATOM     48  N   UNL A   1      41.512  29.466  33.365  1.00  0.00    -0.354 N 
ATOM     49  N   UNL A   1      42.344  27.889  31.024  1.00  0.00    -0.248 NA
ATOM     50  C   UNL A   1      43.824  26.398  30.003  1.00  0.00     0.031 C 
ATOM     51  C   UNL A   1      42.654  29.219  35.253  1.00  0.00     0.029 A 
ATOM     52  C   UNL A   1      42.569  28.783  33.940  1.00  0.00     0.049 A 
ATOM     53  H   UNL A   1      41.213  29.363  32.432  1.00  0.00     0.167 HD
ATOM     54  C   UNL A   1      43.274  27.459  31.962  1.00  0.00     0.074 A 
ATOM     55  C   UNL A   1      44.145  26.519  31.285  1.00  0.00     0.031 C 
ATOM     56  C   UNL A   1      43.400  27.822  33.261  1.00  0.00     0.034 A 
BRANCH  43  57
ATOM     57  C   UNL A   1      39.295  32.026  35.160  1.00  0.00     0.023 A 
ATOM     58  C   UNL A   1      38.311  31.488  36.016  1.00  0.00     0.012 A 
ATOM     59  C   UNL A   1      39.822  33.304  35.423  1.00  0.00     0.148 A 
ATOM     60  C   UNL A   1      37.846  32.216  37.109  1.00  0.00     0.002 A 
ATOM     61  C   UNL A   1      39.372  34.013  36.533  1.00  0.00     0.091 A 
ATOM     62  F   UNL A   1      40.744  33.800  34.588  1.00  0.00    -0.205 F 
ATOM     63  C   UNL A   1      38.382  33.473  37.372  1.00  0.00     0.022 A 
BRANCH  61  64
ATOM     64  S   UNL A   1      40.029  35.620  36.994  1.00  0.00     0.127 S 
ATOM     65  O   UNL A   1      39.652  36.435  35.839  1.00  0.00    -0.237 OA
ATOM     66  O   UNL A   1      39.283  35.917  38.217  1.00  0.00    -0.237 OA
ATOM     67  O   UNL A   1      41.460  35.433  37.181  1.00  0.00    -0.744 OA
ENDBRANCH  61  64
ENDBRANCH  43  57
BRANCH  44  68
ATOM     68  C   UNL A   1      42.341  26.452  27.450  1.00  0.00     0.023 A 
ATOM     69  C   UNL A   1      43.256  26.935  26.495  1.00  0.00     0.012 A 
ATOM     70  C   UNL A   1      41.902  25.116  27.378  1.00  0.00     0.148 A 
ATOM     71  C   UNL A   1      43.727  26.101  25.481  1.00  0.00     0.002 A 
ATOM     72  C   UNL A   1      42.404  24.282  26.386  1.00  0.00     0.091 A 
ATOM     73  F   UNL A   1      41.037  24.684  28.305  1.00  0.00    -0.205 F 
ATOM     74  C   UNL A   1      43.309  24.774  25.433  1.00  0.00     0.022 A 
BRANCH  72  75
ATOM     75  S   UNL A   1      42.004  22.533  26.293  1.00  0.00     0.127 S 
ATOM     76  O   UNL A   1      42.690  22.134  25.065  1.00  0.00    -0.237 OA
ATOM     77  O   UNL A   1      42.605  22.025  27.526  1.00  0.00    -0.237 OA
ATOM     78  O   UNL A   1      40.550  22.457  26.245  1.00  0.00    -0.744 OA
ENDBRANCH  72  75
ENDBRANCH  44  68
BRANCH  56  79
ATOM     79  C   UNL A   1      44.525  27.220  34.055  1.00  0.00     0.023 A 
ATOM     80  C   UNL A   1      45.772  27.871  34.076  1.00  0.00     0.012 A 
ATOM     81  C   UNL A   1      44.309  26.099  34.879  1.00  0.00     0.148 A 
ATOM     82  C   UNL A   1      46.794  27.412  34.905  1.00  0.00     0.002 A 
ATOM     83  C   UNL A   1      45.321  25.666  35.727  1.00  0.00     0.091 A 
ATOM     84  F   UNL A   1      43.112  25.495  34.833  1.00  0.00    -0.205 F 
ATOM     85  C   UNL A   1      46.565  26.319  35.738  1.00  0.00     0.022 A 
BRANCH  83  86
ATOM     86  S   UNL A   1      45.101  24.316  36.891  1.00  0.00     0.127 S 
ATOM     87  O   UNL A   1      44.023  24.825  37.737  1.00  0.00    -0.237 OA
ATOM     88  O   UNL A   1      44.718  23.211  36.012  1.00  0.00    -0.237 OA
ATOM     89  O   UNL A   1      46.384  24.145  37.561  1.00  0.00    -0.744 OA
ENDBRANCH  83  86
ENDBRANCH  56  79
ENDBRANCH  30  31
ENDBRANCH  23  25
ENDBRANCH  22  23
ENDBRANCH   1  22
TORSDOF 16
ENDMDL
