MODEL 1
REMARK VINA RESULT:     -12.5      0.000      0.000
REMARK SMILES O=C(OCCOC(=O)[C@H](c1c[nH]c2cc(OCc3ccccc3)ccc12)[NH+]1CC[NH+]([C@H]2CCS(=O)(=O)C2)CC1)c1ccc(-c2c3nc(c(-c4cccc(S(=O)(=O)[O-])c4F)c4ccc([nH]4)c(-c4cccc(S(=O)(=O)[O-])c4F)c4nc(c(-c5cccc(S(=O)(=O)[O-])c5F)c5ccc2[nH]5)C=C4)C=C3)cc1
REMARK SMILES IDX 5 1 4 2 3 3 2 4 1 5 40 6 41 7 102 8 42 9 101 10 43 11 44 12
REMARK SMILES IDX 45 13 95 14 46 15 100 16 94 17 96 18 47 19 99 20 93 21 92 22
REMARK SMILES IDX 48 24 80 25 60 26 79 27 61 28 64 29 78 30 97 31 62 32 63 33
REMARK SMILES IDX 77 35 98 36 65 37 49 38 50 39 58 40 51 41 53 42 59 43 52 44
REMARK SMILES IDX 54 45 55 46 56 47 57 48 81 49 82 50 90 51 83 52 85 53 91 54
REMARK SMILES IDX 84 55 86 56 87 57 88 58 89 59 66 60 67 61 75 62 68 63 70 64
REMARK SMILES IDX 76 65 69 66 71 67 72 68 73 69 74 70 6 71 7 72 8 73 9 74
REMARK SMILES IDX 27 75 28 76 39 77 29 79 38 80 30 81 31 83 32 84 37 85 33 86
REMARK SMILES IDX 34 87 35 88 36 89 10 90 11 91 26 92 12 93 13 94 25 95 14 97
REMARK SMILES IDX 24 98 15 99 16 100 17 101 18 102 19 103 23 104 20 105 22 106
REMARK SMILES IDX 21 107
REMARK H PARENT 96 23 64 34 27 78 30 82 12 96
REMARK Flexibility Score: inf
ROOT
ATOM      1  C   UNL A   1      47.234  22.188  37.487  1.00  0.00     0.274 C 
ENDROOT
BRANCH   1   2
ATOM      2  C   UNL A   1      46.049  23.103  37.790  1.00  0.00     0.275 C 
BRANCH   2   3
ATOM      3  O   UNL A   1      46.389  24.491  37.808  1.00  0.00    -0.458 OA
BRANCH   3   4
ATOM      4  C   UNL A   1      46.623  25.333  36.779  1.00  0.00     0.338 C 
ATOM      5  O   UNL A   1      47.775  25.758  36.664  1.00  0.00    -0.246 OA
BRANCH   4   6
ATOM      6  C   UNL A   1      45.587  25.855  35.811  1.00  0.00     0.060 A 
ATOM      7  C   UNL A   1      44.257  25.460  35.637  1.00  0.00     0.016 A 
ATOM      8  C   UNL A   1      46.003  26.973  35.080  1.00  0.00     0.016 A 
ATOM      9  C   UNL A   1      43.357  26.221  34.855  1.00  0.00     0.010 A 
ATOM     10  C   UNL A   1      45.081  27.790  34.420  1.00  0.00     0.010 A 
ATOM     11  C   UNL A   1      43.746  27.424  34.259  1.00  0.00    -0.014 A 
BRANCH  11  12
ATOM     12  C   UNL A   1      42.825  28.246  33.409  1.00  0.00     0.031 A 
ATOM     13  C   UNL A   1      42.700  27.942  31.937  1.00  0.00     0.074 A 
ATOM     14  C   UNL A   1      42.149  29.316  33.890  1.00  0.00     0.049 A 
ATOM     15  N   UNL A   1      41.892  28.483  31.063  1.00  0.00    -0.248 NA
ATOM     16  C   UNL A   1      43.650  26.984  31.343  1.00  0.00     0.031 C 
ATOM     17  C   UNL A   1      42.389  29.929  35.186  1.00  0.00     0.029 A 
ATOM     18  N   UNL A   1      41.155  30.106  33.357  1.00  0.00    -0.354 N 
ATOM     19  C   UNL A   1      42.266  27.948  29.842  1.00  0.00     0.074 A 
ATOM     20  C   UNL A   1      43.466  27.183  30.052  1.00  0.00     0.031 C 
ATOM     21  C   UNL A   1      41.533  30.946  35.388  1.00  0.00     0.029 A 
ATOM     22  C   UNL A   1      40.665  31.059  34.231  1.00  0.00     0.049 A 
ATOM     23  H   UNL A   1      40.824  30.002  32.436  1.00  0.00     0.167 HD
ATOM     24  C   UNL A   1      41.607  27.974  28.664  1.00  0.00     0.034 A 
ATOM     25  C   UNL A   1      39.614  31.899  34.124  1.00  0.00     0.034 A 
ATOM     26  C   UNL A   1      40.383  28.682  28.469  1.00  0.00     0.049 A 
ATOM     27  C   UNL A   1      38.807  31.833  32.852  1.00  0.00     0.074 A 
ATOM     28  C   UNL A   1      39.568  28.709  27.357  1.00  0.00     0.029 A 
ATOM     29  N   UNL A   1      39.802  29.500  29.425  1.00  0.00    -0.354 N 
ATOM     30  N   UNL A   1      39.023  31.105  31.783  1.00  0.00    -0.248 NA
ATOM     31  C   UNL A   1      37.594  32.660  32.781  1.00  0.00     0.031 C 
ATOM     32  C   UNL A   1      38.497  29.564  27.635  1.00  0.00     0.029 A 
ATOM     33  C   UNL A   1      38.632  30.038  28.932  1.00  0.00     0.049 A 
ATOM     34  H   UNL A   1      40.170  29.671  30.322  1.00  0.00     0.167 HD
ATOM     35  C   UNL A   1      37.968  31.369  30.922  1.00  0.00     0.074 A 
ATOM     36  C   UNL A   1      37.088  32.291  31.612  1.00  0.00     0.031 C 
ATOM     37  C   UNL A   1      37.756  30.914  29.663  1.00  0.00     0.034 A 
BRANCH  24  38
ATOM     38  C   UNL A   1      42.169  27.114  27.569  1.00  0.00     0.023 A 
ATOM     39  C   UNL A   1      42.921  27.720  26.535  1.00  0.00     0.012 A 
ATOM     40  C   UNL A   1      41.918  25.734  27.523  1.00  0.00     0.148 A 
ATOM     41  C   UNL A   1      43.356  26.979  25.441  1.00  0.00     0.002 A 
ATOM     42  C   UNL A   1      42.405  24.989  26.456  1.00  0.00     0.091 A 
ATOM     43  F   UNL A   1      41.183  25.185  28.501  1.00  0.00    -0.205 F 
ATOM     44  C   UNL A   1      43.104  25.612  25.406  1.00  0.00     0.022 A 
BRANCH  42  45
ATOM     45  S   UNL A   1      42.198  23.212  26.340  1.00  0.00     0.127 S 
ATOM     46  O   UNL A   1      42.997  22.745  27.474  1.00  0.00    -0.237 OA
ATOM     47  O   UNL A   1      40.753  23.069  26.511  1.00  0.00    -0.237 OA
ATOM     48  O   UNL A   1      42.707  22.829  25.031  1.00  0.00    -0.744 OA
ENDBRANCH  42  45
ENDBRANCH  24  38
BRANCH  25  49
ATOM     49  C   UNL A   1      39.157  32.770  35.258  1.00  0.00     0.023 A 
ATOM     50  C   UNL A   1      39.584  34.117  35.291  1.00  0.00     0.012 A 
ATOM     51  C   UNL A   1      38.394  32.278  36.337  1.00  0.00     0.148 A 
ATOM     52  C   UNL A   1      39.317  34.933  36.394  1.00  0.00     0.002 A 
ATOM     53  C   UNL A   1      38.111  33.106  37.426  1.00  0.00     0.091 A 
ATOM     54  F   UNL A   1      37.999  30.998  36.309  1.00  0.00    -0.205 F 
ATOM     55  C   UNL A   1      38.580  34.428  37.460  1.00  0.00     0.022 A 
BRANCH  53  56
ATOM     56  S   UNL A   1      37.185  32.528  38.859  1.00  0.00     0.127 S 
ATOM     57  O   UNL A   1      35.805  32.731  38.423  1.00  0.00    -0.237 OA
ATOM     58  O   UNL A   1      37.584  31.123  38.957  1.00  0.00    -0.237 OA
ATOM     59  O   UNL A   1      37.623  33.359  39.974  1.00  0.00    -0.744 OA
ENDBRANCH  53  56
ENDBRANCH  25  49
BRANCH  37  60
ATOM     60  C   UNL A   1      36.513  31.375  28.964  1.00  0.00     0.023 A 
ATOM     61  C   UNL A   1      36.312  32.746  28.717  1.00  0.00     0.012 A 
ATOM     62  C   UNL A   1      35.590  30.433  28.473  1.00  0.00     0.148 A 
ATOM     63  C   UNL A   1      35.188  33.176  28.017  1.00  0.00     0.002 A 
ATOM     64  C   UNL A   1      34.506  30.864  27.726  1.00  0.00     0.091 A 
ATOM     65  F   UNL A   1      35.797  29.135  28.741  1.00  0.00    -0.205 F 
ATOM     66  C   UNL A   1      34.294  32.236  27.510  1.00  0.00     0.022 A 
BRANCH  64  67
ATOM     67  S   UNL A   1      33.374  29.715  26.939  1.00  0.00     0.127 S 
ATOM     68  O   UNL A   1      32.383  30.621  26.363  1.00  0.00    -0.237 OA
ATOM     69  O   UNL A   1      34.238  29.052  25.962  1.00  0.00    -0.237 OA
ATOM     70  O   UNL A   1      32.884  28.844  28.000  1.00  0.00    -0.744 OA
ENDBRANCH  64  67
ENDBRANCH  37  60
ENDBRANCH  11  12
ENDBRANCH   4   6
ENDBRANCH   3   4
ENDBRANCH   2   3
ENDBRANCH   1   2
BRANCH   1  71
ATOM     71  O   UNL A   1      47.062  20.857  37.991  1.00  0.00    -0.457 OA
BRANCH  71  72
ATOM     72  C   UNL A   1      47.682  20.535  39.166  1.00  0.00     0.370 C 
ATOM     73  O   UNL A   1      47.630  21.244  40.169  1.00  0.00    -0.245 OA
BRANCH  72  74
ATOM     74  C   UNL A   1      48.472  19.184  39.119  1.00  0.00     0.328 C 
BRANCH  74  75
ATOM     75  N   UNL A   1      49.911  19.299  39.495  1.00  0.00    -0.310 N 
ATOM     76  C   UNL A   1      50.827  18.413  38.723  1.00  0.00     0.325 C 
ATOM     77  C   UNL A   1      50.459  20.652  39.343  1.00  0.00     0.325 C 
ATOM     78  H   UNL A   1      49.884  19.018  40.475  1.00  0.00     0.349 HD
ATOM     79  C   UNL A   1      51.212  18.903  37.280  1.00  0.00     0.324 C 
ATOM     80  C   UNL A   1      50.665  21.157  37.928  1.00  0.00     0.324 C 
ATOM     81  N   UNL A   1      51.643  20.322  37.223  1.00  0.00    -0.322 N 
ATOM     82  H   UNL A   1      52.538  20.378  37.710  1.00  0.00     0.348 HD
BRANCH  81  83
ATOM     83  C   UNL A   1      51.983  20.824  35.883  1.00  0.00     0.200 C 
ATOM     84  C   UNL A   1      53.415  21.374  35.749  1.00  0.00     0.082 C 
ATOM     85  C   UNL A   1      51.824  19.739  34.797  1.00  0.00     0.201 C 
ATOM     86  C   UNL A   1      53.689  21.581  34.269  1.00  0.00     0.143 C 
ATOM     87  S   UNL A   1      52.803  20.295  33.417  1.00  0.00     0.156 S 
ATOM     88  O   UNL A   1      51.946  20.907  32.432  1.00  0.00    -0.229 OA
ATOM     89  O   UNL A   1      53.751  19.248  33.065  1.00  0.00    -0.229 OA
ENDBRANCH  81  83
ENDBRANCH  74  75
BRANCH  74  90
ATOM     90  C   UNL A   1      47.751  18.145  39.976  1.00  0.00     0.046 A 
ATOM     91  C   UNL A   1      48.162  17.544  41.162  1.00  0.00     0.094 A 
ATOM     92  C   UNL A   1      46.460  17.586  39.701  1.00  0.00     0.009 A 
ATOM     93  N   UNL A   1      47.169  16.731  41.628  1.00  0.00    -0.361 N 
ATOM     94  C   UNL A   1      46.092  16.794  40.788  1.00  0.00     0.050 A 
ATOM     95  C   UNL A   1      45.571  17.671  38.618  1.00  0.00     0.015 A 
ATOM     96  H   UNL A   1      47.220  16.181  42.443  1.00  0.00     0.166 HD
ATOM     97  C   UNL A   1      44.834  16.204  40.906  1.00  0.00     0.073 A 
ATOM     98  C   UNL A   1      44.348  17.006  38.684  1.00  0.00     0.047 A 
ATOM     99  C   UNL A   1      43.931  16.405  39.865  1.00  0.00     0.121 A 
BRANCH  99 100
ATOM    100  O   UNL A   1      42.651  16.028  40.153  1.00  0.00    -0.489 OA
BRANCH 100 101
ATOM    101  C   UNL A   1      42.290  14.660  39.946  1.00  0.00     0.265 C 
BRANCH 101 102
ATOM    102  C   UNL A   1      41.812  13.987  41.230  1.00  0.00    -0.011 A 
ATOM    103  C   UNL A   1      41.735  14.720  42.421  1.00  0.00     0.007 A 
ATOM    104  C   UNL A   1      41.419  12.639  41.266  1.00  0.00     0.007 A 
ATOM    105  C   UNL A   1      41.280  14.121  43.601  1.00  0.00     0.000 A 
ATOM    106  C   UNL A   1      40.937  12.046  42.434  1.00  0.00     0.000 A 
ATOM    107  C   UNL A   1      40.873  12.788  43.605  1.00  0.00     0.000 A 
ENDBRANCH 101 102
ENDBRANCH 100 101
ENDBRANCH  99 100
ENDBRANCH  74  90
ENDBRANCH  72  74
ENDBRANCH  71  72
ENDBRANCH   1  71
TORSDOF 20
ENDMDL
MODEL 2
REMARK VINA RESULT:     -11.3      9.154     19.291
REMARK SMILES O=C(OCCOC(=O)[C@H](c1c[nH]c2cc(OCc3ccccc3)ccc12)[NH+]1CC[NH+]([C@H]2CCS(=O)(=O)C2)CC1)c1ccc(-c2c3nc(c(-c4cccc(S(=O)(=O)[O-])c4F)c4ccc([nH]4)c(-c4cccc(S(=O)(=O)[O-])c4F)c4nc(c(-c5cccc(S(=O)(=O)[O-])c5F)c5ccc2[nH]5)C=C4)C=C3)cc1
REMARK SMILES IDX 5 1 4 2 3 3 2 4 1 5 40 6 41 7 102 8 42 9 101 10 43 11 44 12
REMARK SMILES IDX 45 13 95 14 46 15 100 16 94 17 96 18 47 19 99 20 93 21 92 22
REMARK SMILES IDX 48 24 80 25 60 26 79 27 61 28 64 29 78 30 97 31 62 32 63 33
REMARK SMILES IDX 77 35 98 36 65 37 49 38 50 39 58 40 51 41 53 42 59 43 52 44
REMARK SMILES IDX 54 45 55 46 56 47 57 48 81 49 82 50 90 51 83 52 85 53 91 54
REMARK SMILES IDX 84 55 86 56 87 57 88 58 89 59 66 60 67 61 75 62 68 63 70 64
REMARK SMILES IDX 76 65 69 66 71 67 72 68 73 69 74 70 6 71 7 72 8 73 9 74
REMARK SMILES IDX 27 75 28 76 39 77 29 79 38 80 30 81 31 83 32 84 37 85 33 86
REMARK SMILES IDX 34 87 35 88 36 89 10 90 11 91 26 92 12 93 13 94 25 95 14 97
REMARK SMILES IDX 24 98 15 99 16 100 17 101 18 102 19 103 23 104 20 105 22 106
REMARK SMILES IDX 21 107
REMARK H PARENT 96 23 64 34 27 78 30 82 12 96
REMARK Flexibility Score: inf
ROOT
ATOM      1  C   UNL A   1      47.792  40.112  26.917  1.00  0.00     0.274 C 
ENDROOT
BRANCH   1   2
ATOM      2  C   UNL A   1      47.525  38.624  27.137  1.00  0.00     0.275 C 
BRANCH   2   3
ATOM      3  O   UNL A   1      46.138  38.306  27.269  1.00  0.00    -0.458 OA
BRANCH   3   4
ATOM      4  C   UNL A   1      45.475  37.765  28.313  1.00  0.00     0.338 C 
ATOM      5  O   UNL A   1      45.456  38.422  29.356  1.00  0.00    -0.246 OA
BRANCH   4   6
ATOM      6  C   UNL A   1      44.826  36.401  28.336  1.00  0.00     0.060 A 
ATOM      7  C   UNL A   1      43.976  35.807  27.396  1.00  0.00     0.016 A 
ATOM      8  C   UNL A   1      45.245  35.587  29.394  1.00  0.00     0.016 A 
ATOM      9  C   UNL A   1      43.657  34.430  27.456  1.00  0.00     0.010 A 
ATOM     10  C   UNL A   1      45.035  34.206  29.373  1.00  0.00     0.010 A 
ATOM     11  C   UNL A   1      44.213  33.594  28.430  1.00  0.00    -0.014 A 
BRANCH  11  12
ATOM     12  C   UNL A   1      43.882  32.136  28.534  1.00  0.00     0.031 A 
ATOM     13  C   UNL A   1      42.596  31.709  29.196  1.00  0.00     0.074 A 
ATOM     14  C   UNL A   1      44.732  31.164  28.128  1.00  0.00     0.049 A 
ATOM     15  N   UNL A   1      42.098  30.505  29.300  1.00  0.00    -0.248 NA
ATOM     16  C   UNL A   1      41.809  32.732  29.909  1.00  0.00     0.031 C 
ATOM     17  C   UNL A   1      46.121  31.384  27.759  1.00  0.00     0.029 A 
ATOM     18  N   UNL A   1      44.589  29.803  27.982  1.00  0.00    -0.354 N 
ATOM     19  C   UNL A   1      40.978  30.641  30.103  1.00  0.00     0.074 A 
ATOM     20  C   UNL A   1      40.960  31.993  30.597  1.00  0.00     0.031 C 
ATOM     21  C   UNL A   1      46.689  30.232  27.365  1.00  0.00     0.029 A 
ATOM     22  C   UNL A   1      45.698  29.175  27.443  1.00  0.00     0.049 A 
ATOM     23  H   UNL A   1      43.772  29.319  28.241  1.00  0.00     0.167 HD
ATOM     24  C   UNL A   1      39.972  29.767  30.316  1.00  0.00     0.034 A 
ATOM     25  C   UNL A   1      45.878  27.905  27.024  1.00  0.00     0.034 A 
ATOM     26  C   UNL A   1      39.958  28.446  29.776  1.00  0.00     0.049 A 
ATOM     27  C   UNL A   1      44.705  26.966  27.151  1.00  0.00     0.074 A 
ATOM     28  C   UNL A   1      38.957  27.499  29.837  1.00  0.00     0.029 A 
ATOM     29  N   UNL A   1      41.013  27.886  29.074  1.00  0.00    -0.354 N 
ATOM     30  N   UNL A   1      43.528  27.194  27.682  1.00  0.00    -0.248 NA
ATOM     31  C   UNL A   1      44.859  25.617  26.587  1.00  0.00     0.031 C 
ATOM     32  C   UNL A   1      39.418  26.351  29.183  1.00  0.00     0.029 A 
ATOM     33  C   UNL A   1      40.690  26.602  28.689  1.00  0.00     0.049 A 
ATOM     34  H   UNL A   1      41.866  28.337  28.881  1.00  0.00     0.167 HD
ATOM     35  C   UNL A   1      42.796  26.030  27.501  1.00  0.00     0.074 A 
ATOM     36  C   UNL A   1      43.647  25.112  26.771  1.00  0.00     0.031 C 
ATOM     37  C   UNL A   1      41.543  25.733  27.923  1.00  0.00     0.034 A 
BRANCH  24  38
ATOM     38  C   UNL A   1      38.784  30.292  31.070  1.00  0.00     0.023 A 
ATOM     39  C   UNL A   1      38.644  29.973  32.442  1.00  0.00     0.012 A 
ATOM     40  C   UNL A   1      37.788  31.045  30.431  1.00  0.00     0.148 A 
ATOM     41  C   UNL A   1      37.500  30.337  33.144  1.00  0.00     0.002 A 
ATOM     42  C   UNL A   1      36.675  31.455  31.154  1.00  0.00     0.091 A 
ATOM     43  F   UNL A   1      37.930  31.315  29.125  1.00  0.00    -0.205 F 
ATOM     44  C   UNL A   1      36.519  31.084  32.503  1.00  0.00     0.022 A 
BRANCH  42  45
ATOM     45  S   UNL A   1      35.382  32.477  30.448  1.00  0.00     0.127 S 
ATOM     46  O   UNL A   1      34.910  31.640  29.345  1.00  0.00    -0.237 OA
ATOM     47  O   UNL A   1      34.449  32.594  31.568  1.00  0.00    -0.237 OA
ATOM     48  O   UNL A   1      36.023  33.721  30.045  1.00  0.00    -0.744 OA
ENDBRANCH  42  45
ENDBRANCH  24  38
BRANCH  25  49
ATOM     49  C   UNL A   1      47.128  27.453  26.328  1.00  0.00     0.023 A 
ATOM     50  C   UNL A   1      47.214  27.605  24.925  1.00  0.00     0.012 A 
ATOM     51  C   UNL A   1      48.183  26.801  27.000  1.00  0.00     0.148 A 
ATOM     52  C   UNL A   1      48.285  27.070  24.204  1.00  0.00     0.002 A 
ATOM     53  C   UNL A   1      49.260  26.287  26.276  1.00  0.00     0.091 A 
ATOM     54  F   UNL A   1      48.094  26.647  28.329  1.00  0.00    -0.205 F 
ATOM     55  C   UNL A   1      49.308  26.412  24.879  1.00  0.00     0.022 A 
BRANCH  53  56
ATOM     56  S   UNL A   1      50.616  25.401  27.065  1.00  0.00     0.127 S 
ATOM     57  O   UNL A   1      51.504  25.147  25.933  1.00  0.00    -0.237 OA
ATOM     58  O   UNL A   1      51.128  26.381  28.023  1.00  0.00    -0.237 OA
ATOM     59  O   UNL A   1      50.014  24.220  27.673  1.00  0.00    -0.744 OA
ENDBRANCH  53  56
ENDBRANCH  25  49
BRANCH  37  60
ATOM     60  C   UNL A   1      41.002  24.378  27.577  1.00  0.00     0.023 A 
ATOM     61  C   UNL A   1      41.599  23.224  28.118  1.00  0.00     0.012 A 
ATOM     62  C   UNL A   1      39.844  24.262  26.788  1.00  0.00     0.148 A 
ATOM     63  C   UNL A   1      41.067  21.966  27.850  1.00  0.00     0.002 A 
ATOM     64  C   UNL A   1      39.285  23.011  26.573  1.00  0.00     0.091 A 
ATOM     65  F   UNL A   1      39.308  25.377  26.269  1.00  0.00    -0.205 F 
ATOM     66  C   UNL A   1      39.904  21.861  27.090  1.00  0.00     0.022 A 
BRANCH  64  67
ATOM     67  S   UNL A   1      37.728  22.800  25.708  1.00  0.00     0.127 S 
ATOM     68  O   UNL A   1      37.594  21.345  25.688  1.00  0.00    -0.237 OA
ATOM     69  O   UNL A   1      36.787  23.489  26.592  1.00  0.00    -0.237 OA
ATOM     70  O   UNL A   1      37.903  23.430  24.405  1.00  0.00    -0.744 OA
ENDBRANCH  64  67
ENDBRANCH  37  60
ENDBRANCH  11  12
ENDBRANCH   4   6
ENDBRANCH   3   4
ENDBRANCH   2   3
ENDBRANCH   1   2
BRANCH   1  71
ATOM     71  O   UNL A   1      47.106  40.953  27.855  1.00  0.00    -0.457 OA
BRANCH  71  72
ATOM     72  C   UNL A   1      47.237  42.305  27.712  1.00  0.00     0.370 C 
ATOM     73  O   UNL A   1      48.293  42.849  27.390  1.00  0.00    -0.245 OA
BRANCH  72  74
ATOM     74  C   UNL A   1      45.923  43.105  28.000  1.00  0.00     0.328 C 
BRANCH  74  75
ATOM     75  N   UNL A   1      45.999  44.009  29.184  1.00  0.00    -0.310 N 
ATOM     76  C   UNL A   1      44.682  44.348  29.794  1.00  0.00     0.325 C 
ATOM     77  C   UNL A   1      46.811  43.479  30.285  1.00  0.00     0.325 C 
ATOM     78  H   UNL A   1      46.427  44.839  28.774  1.00  0.00     0.349 HD
ATOM     79  C   UNL A   1      44.048  43.253  30.727  1.00  0.00     0.324 C 
ATOM     80  C   UNL A   1      46.238  42.310  31.065  1.00  0.00     0.324 C 
ATOM     81  N   UNL A   1      44.991  42.701  31.730  1.00  0.00    -0.322 N 
ATOM     82  H   UNL A   1      45.189  43.452  32.392  1.00  0.00     0.348 HD
BRANCH  81  83
ATOM     83  C   UNL A   1      44.439  41.652  32.602  1.00  0.00     0.200 C 
ATOM     84  C   UNL A   1      43.617  40.576  31.869  1.00  0.00     0.082 C 
ATOM     85  C   UNL A   1      45.540  40.909  33.387  1.00  0.00     0.201 C 
ATOM     86  C   UNL A   1      43.368  39.444  32.851  1.00  0.00     0.143 C 
ATOM     87  S   UNL A   1      44.809  39.365  33.892  1.00  0.00     0.156 S 
ATOM     88  O   UNL A   1      44.383  39.459  35.266  1.00  0.00    -0.229 OA
ATOM     89  O   UNL A   1      45.650  38.274  33.422  1.00  0.00    -0.229 OA
ENDBRANCH  81  83
ENDBRANCH  74  75
BRANCH  74  90
ATOM     90  C   UNL A   1      45.506  43.866  26.743  1.00  0.00     0.046 A 
ATOM     91  C   UNL A   1      45.815  45.167  26.357  1.00  0.00     0.094 A 
ATOM     92  C   UNL A   1      44.689  43.347  25.685  1.00  0.00     0.009 A 
ATOM     93  N   UNL A   1      45.294  45.410  25.118  1.00  0.00    -0.361 N 
ATOM     94  C   UNL A   1      44.662  44.290  24.658  1.00  0.00     0.050 A 
ATOM     95  C   UNL A   1      43.959  42.161  25.509  1.00  0.00     0.015 A 
ATOM     96  H   UNL A   1      45.363  46.263  24.631  1.00  0.00     0.166 HD
ATOM     97  C   UNL A   1      44.063  44.049  23.422  1.00  0.00     0.073 A 
ATOM     98  C   UNL A   1      43.276  41.950  24.312  1.00  0.00     0.047 A 
ATOM     99  C   UNL A   1      43.446  42.814  23.238  1.00  0.00     0.121 A 
BRANCH  99 100
ATOM    100  O   UNL A   1      43.111  42.542  21.943  1.00  0.00    -0.489 OA
BRANCH 100 101
ATOM    101  C   UNL A   1      41.828  42.964  21.476  1.00  0.00     0.265 C 
BRANCH 101 102
ATOM    102  C   UNL A   1      41.883  43.515  20.053  1.00  0.00    -0.011 A 
ATOM    103  C   UNL A   1      40.893  44.397  19.603  1.00  0.00     0.007 A 
ATOM    104  C   UNL A   1      42.916  43.182  19.161  1.00  0.00     0.007 A 
ATOM    105  C   UNL A   1      40.941  44.925  18.308  1.00  0.00     0.000 A 
ATOM    106  C   UNL A   1      42.983  43.730  17.879  1.00  0.00     0.000 A 
ATOM    107  C   UNL A   1      41.990  44.599  17.450  1.00  0.00     0.000 A 
ENDBRANCH 101 102
ENDBRANCH 100 101
ENDBRANCH  99 100
ENDBRANCH  74  90
ENDBRANCH  72  74
ENDBRANCH  71  72
ENDBRANCH   1  71
TORSDOF 20
ENDMDL
MODEL 3
REMARK VINA RESULT:     -11.2      8.005     13.622
REMARK SMILES O=C(OCCOC(=O)[C@H](c1c[nH]c2cc(OCc3ccccc3)ccc12)[NH+]1CC[NH+]([C@H]2CCS(=O)(=O)C2)CC1)c1ccc(-c2c3nc(c(-c4cccc(S(=O)(=O)[O-])c4F)c4ccc([nH]4)c(-c4cccc(S(=O)(=O)[O-])c4F)c4nc(c(-c5cccc(S(=O)(=O)[O-])c5F)c5ccc2[nH]5)C=C4)C=C3)cc1
REMARK SMILES IDX 5 1 4 2 3 3 2 4 1 5 40 6 41 7 102 8 42 9 101 10 43 11 44 12
REMARK SMILES IDX 45 13 95 14 46 15 100 16 94 17 96 18 47 19 99 20 93 21 92 22
REMARK SMILES IDX 48 24 80 25 60 26 79 27 61 28 64 29 78 30 97 31 62 32 63 33
REMARK SMILES IDX 77 35 98 36 65 37 49 38 50 39 58 40 51 41 53 42 59 43 52 44
REMARK SMILES IDX 54 45 55 46 56 47 57 48 81 49 82 50 90 51 83 52 85 53 91 54
REMARK SMILES IDX 84 55 86 56 87 57 88 58 89 59 66 60 67 61 75 62 68 63 70 64
REMARK SMILES IDX 76 65 69 66 71 67 72 68 73 69 74 70 6 71 7 72 8 73 9 74
REMARK SMILES IDX 27 75 28 76 39 77 29 79 38 80 30 81 31 83 32 84 37 85 33 86
REMARK SMILES IDX 34 87 35 88 36 89 10 90 11 91 26 92 12 93 13 94 25 95 14 97
REMARK SMILES IDX 24 98 15 99 16 100 17 101 18 102 19 103 23 104 20 105 22 106
REMARK SMILES IDX 21 107
REMARK H PARENT 96 23 64 34 27 78 30 82 12 96
REMARK Flexibility Score: inf
ROOT
ATOM      1  C   UNL A   1      47.010  31.332  38.835  1.00  0.00     0.274 C 
ENDROOT
BRANCH   1   2
ATOM      2  C   UNL A   1      48.189  30.593  38.206  1.00  0.00     0.275 C 
BRANCH   2   3
ATOM      3  O   UNL A   1      48.643  31.177  36.983  1.00  0.00    -0.458 OA
BRANCH   3   4
ATOM      4  C   UNL A   1      48.555  30.707  35.721  1.00  0.00     0.338 C 
ATOM      5  O   UNL A   1      49.591  30.725  35.051  1.00  0.00    -0.246 OA
BRANCH   4   6
ATOM      6  C   UNL A   1      47.291  30.237  35.038  1.00  0.00     0.060 A 
ATOM      7  C   UNL A   1      46.503  29.113  35.308  1.00  0.00     0.016 A 
ATOM      8  C   UNL A   1      46.789  31.132  34.088  1.00  0.00     0.016 A 
ATOM      9  C   UNL A   1      45.220  28.956  34.735  1.00  0.00     0.010 A 
ATOM     10  C   UNL A   1      45.473  31.039  33.630  1.00  0.00     0.010 A 
ATOM     11  C   UNL A   1      44.665  29.940  33.910  1.00  0.00    -0.014 A 
BRANCH  11  12
ATOM     12  C   UNL A   1      43.317  29.798  33.270  1.00  0.00     0.031 A 
ATOM     13  C   UNL A   1      42.102  30.370  33.956  1.00  0.00     0.074 A 
ATOM     14  C   UNL A   1      43.122  29.099  32.127  1.00  0.00     0.049 A 
ATOM     15  N   UNL A   1      40.872  30.423  33.517  1.00  0.00    -0.248 NA
ATOM     16  C   UNL A   1      42.253  30.864  35.337  1.00  0.00     0.031 C 
ATOM     17  C   UNL A   1      44.114  28.234  31.509  1.00  0.00     0.029 A 
ATOM     18  N   UNL A   1      42.036  28.964  31.292  1.00  0.00    -0.354 N 
ATOM     19  C   UNL A   1      40.129  30.923  34.574  1.00  0.00     0.074 A 
ATOM     20  C   UNL A   1      40.997  30.996  35.719  1.00  0.00     0.031 C 
ATOM     21  C   UNL A   1      43.633  27.712  30.367  1.00  0.00     0.029 A 
ATOM     22  C   UNL A   1      42.288  28.213  30.158  1.00  0.00     0.049 A 
ATOM     23  H   UNL A   1      41.158  29.365  31.485  1.00  0.00     0.167 HD
ATOM     24  C   UNL A   1      38.868  31.406  34.575  1.00  0.00     0.034 A 
ATOM     25  C   UNL A   1      41.534  27.988  29.061  1.00  0.00     0.034 A 
ATOM     26  C   UNL A   1      38.026  31.391  33.423  1.00  0.00     0.049 A 
ATOM     27  C   UNL A   1      40.174  28.636  29.016  1.00  0.00     0.074 A 
ATOM     28  C   UNL A   1      36.768  31.935  33.266  1.00  0.00     0.029 A 
ATOM     29  N   UNL A   1      38.366  30.787  32.223  1.00  0.00    -0.354 N 
ATOM     30  N   UNL A   1      39.577  29.351  29.940  1.00  0.00    -0.248 NA
ATOM     31  C   UNL A   1      39.400  28.492  27.774  1.00  0.00     0.031 C 
ATOM     32  C   UNL A   1      36.337  31.641  31.968  1.00  0.00     0.029 A 
ATOM     33  C   UNL A   1      37.343  30.946  31.313  1.00  0.00     0.049 A 
ATOM     34  H   UNL A   1      39.212  30.315  32.048  1.00  0.00     0.167 HD
ATOM     35  C   UNL A   1      38.371  29.757  29.388  1.00  0.00     0.074 A 
ATOM     36  C   UNL A   1      38.341  29.247  28.032  1.00  0.00     0.031 C 
ATOM     37  C   UNL A   1      37.366  30.465  29.957  1.00  0.00     0.034 A 
BRANCH  24  38
ATOM     38  C   UNL A   1      38.416  32.080  35.839  1.00  0.00     0.023 A 
ATOM     39  C   UNL A   1      38.612  33.474  35.982  1.00  0.00     0.012 A 
ATOM     40  C   UNL A   1      37.855  31.348  36.895  1.00  0.00     0.148 A 
ATOM     41  C   UNL A   1      38.319  34.115  37.181  1.00  0.00     0.002 A 
ATOM     42  C   UNL A   1      37.510  32.006  38.070  1.00  0.00     0.091 A 
ATOM     43  F   UNL A   1      37.700  30.025  36.746  1.00  0.00    -0.205 F 
ATOM     44  C   UNL A   1      37.761  33.382  38.222  1.00  0.00     0.022 A 
BRANCH  42  45
ATOM     45  S   UNL A   1      36.725  31.175  39.451  1.00  0.00     0.127 S 
ATOM     46  O   UNL A   1      36.157  29.992  38.803  1.00  0.00    -0.237 OA
ATOM     47  O   UNL A   1      37.866  30.904  40.324  1.00  0.00    -0.237 OA
ATOM     48  O   UNL A   1      35.746  32.112  39.985  1.00  0.00    -0.744 OA
ENDBRANCH  42  45
ENDBRANCH  24  38
BRANCH  25  49
ATOM     49  C   UNL A   1      42.053  27.251  27.861  1.00  0.00     0.023 A 
ATOM     50  C   UNL A   1      42.469  27.997  26.736  1.00  0.00     0.012 A 
ATOM     51  C   UNL A   1      42.059  25.843  27.775  1.00  0.00     0.148 A 
ATOM     52  C   UNL A   1      42.820  27.367  25.539  1.00  0.00     0.002 A 
ATOM     53  C   UNL A   1      42.431  25.218  26.583  1.00  0.00     0.091 A 
ATOM     54  F   UNL A   1      41.654  25.136  28.840  1.00  0.00    -0.205 F 
ATOM     55  C   UNL A   1      42.801  25.978  25.463  1.00  0.00     0.022 A 
BRANCH  53  56
ATOM     56  S   UNL A   1      42.414  23.427  26.388  1.00  0.00     0.127 S 
ATOM     57  O   UNL A   1      40.992  23.125  26.533  1.00  0.00    -0.237 OA
ATOM     58  O   UNL A   1      42.932  23.245  25.031  1.00  0.00    -0.237 OA
ATOM     59  O   UNL A   1      43.280  22.908  27.440  1.00  0.00    -0.744 OA
ENDBRANCH  53  56
ENDBRANCH  25  49
BRANCH  37  60
ATOM     60  C   UNL A   1      36.165  30.761  29.109  1.00  0.00     0.023 A 
ATOM     61  C   UNL A   1      35.462  29.707  28.495  1.00  0.00     0.012 A 
ATOM     62  C   UNL A   1      35.686  32.079  29.000  1.00  0.00     0.148 A 
ATOM     63  C   UNL A   1      34.312  29.968  27.754  1.00  0.00     0.002 A 
ATOM     64  C   UNL A   1      34.508  32.323  28.311  1.00  0.00     0.091 A 
ATOM     65  F   UNL A   1      36.387  33.065  29.579  1.00  0.00    -0.205 F 
ATOM     66  C   UNL A   1      33.829  31.272  27.674  1.00  0.00     0.022 A 
BRANCH  64  67
ATOM     67  S   UNL A   1      33.755  33.951  28.260  1.00  0.00     0.127 S 
ATOM     68  O   UNL A   1      34.750  34.715  27.509  1.00  0.00    -0.237 OA
ATOM     69  O   UNL A   1      32.509  33.692  27.538  1.00  0.00    -0.237 OA
ATOM     70  O   UNL A   1      33.575  34.354  29.649  1.00  0.00    -0.744 OA
ENDBRANCH  64  67
ENDBRANCH  37  60
ENDBRANCH  11  12
ENDBRANCH   4   6
ENDBRANCH   3   4
ENDBRANCH   2   3
ENDBRANCH   1   2
BRANCH   1  71
ATOM     71  O   UNL A   1      46.545  32.431  38.039  1.00  0.00    -0.457 OA
BRANCH  71  72
ATOM     72  C   UNL A   1      45.309  32.325  37.467  1.00  0.00     0.370 C 
ATOM     73  O   UNL A   1      44.773  31.246  37.219  1.00  0.00    -0.245 OA
BRANCH  72  74
ATOM     74  C   UNL A   1      44.635  33.702  37.147  1.00  0.00     0.328 C 
BRANCH  74  75
ATOM     75  N   UNL A   1      44.966  34.788  38.115  1.00  0.00    -0.310 N 
ATOM     76  C   UNL A   1      44.579  36.156  37.668  1.00  0.00     0.325 C 
ATOM     77  C   UNL A   1      44.342  34.620  39.432  1.00  0.00     0.325 C 
ATOM     78  H   UNL A   1      45.980  34.703  38.171  1.00  0.00     0.349 HD
ATOM     79  C   UNL A   1      43.062  36.536  37.828  1.00  0.00     0.324 C 
ATOM     80  C   UNL A   1      42.843  34.835  39.519  1.00  0.00     0.324 C 
ATOM     81  N   UNL A   1      42.503  36.216  39.165  1.00  0.00    -0.322 N 
ATOM     82  H   UNL A   1      42.949  36.849  39.830  1.00  0.00     0.348 HD
BRANCH  81  83
ATOM     83  C   UNL A   1      41.077  36.532  39.342  1.00  0.00     0.200 C 
ATOM     84  C   UNL A   1      40.334  35.612  40.329  1.00  0.00     0.082 C 
ATOM     85  C   UNL A   1      40.856  37.977  39.834  1.00  0.00     0.201 C 
ATOM     86  C   UNL A   1      38.978  36.237  40.604  1.00  0.00     0.143 C 
ATOM     87  S   UNL A   1      39.222  37.998  40.543  1.00  0.00     0.156 S 
ATOM     88  O   UNL A   1      38.291  38.555  39.593  1.00  0.00    -0.229 OA
ATOM     89  O   UNL A   1      39.312  38.492  41.909  1.00  0.00    -0.229 OA
ENDBRANCH  81  83
ENDBRANCH  74  75
BRANCH  74  90
ATOM     90  C   UNL A   1      44.970  34.110  35.714  1.00  0.00     0.046 A 
ATOM     91  C   UNL A   1      46.202  34.443  35.158  1.00  0.00     0.094 A 
ATOM     92  C   UNL A   1      44.032  34.219  34.636  1.00  0.00     0.009 A 
ATOM     93  N   UNL A   1      46.051  34.668  33.820  1.00  0.00    -0.361 N 
ATOM     94  C   UNL A   1      44.747  34.468  33.465  1.00  0.00     0.050 A 
ATOM     95  C   UNL A   1      42.633  34.139  34.549  1.00  0.00     0.015 A 
ATOM     96  H   UNL A   1      46.772  34.934  33.204  1.00  0.00     0.166 HD
ATOM     97  C   UNL A   1      44.151  34.501  32.204  1.00  0.00     0.073 A 
ATOM     98  C   UNL A   1      42.018  34.266  33.304  1.00  0.00     0.047 A 
ATOM     99  C   UNL A   1      42.774  34.302  32.140  1.00  0.00     0.121 A 
BRANCH  99 100
ATOM    100  O   UNL A   1      42.297  34.089  30.879  1.00  0.00    -0.489 OA
BRANCH 100 101
ATOM    101  C   UNL A   1      43.085  34.540  29.775  1.00  0.00     0.265 C 
BRANCH 101 102
ATOM    102  C   UNL A   1      43.504  33.395  28.856  1.00  0.00    -0.011 A 
ATOM    103  C   UNL A   1      43.311  32.068  29.256  1.00  0.00     0.007 A 
ATOM    104  C   UNL A   1      44.071  33.621  27.591  1.00  0.00     0.007 A 
ATOM    105  C   UNL A   1      43.673  31.009  28.416  1.00  0.00     0.000 A 
ATOM    106  C   UNL A   1      44.405  32.568  26.738  1.00  0.00     0.000 A 
ATOM    107  C   UNL A   1      44.211  31.259  27.155  1.00  0.00     0.000 A 
ENDBRANCH 101 102
ENDBRANCH 100 101
ENDBRANCH  99 100
ENDBRANCH  74  90
ENDBRANCH  72  74
ENDBRANCH  71  72
ENDBRANCH   1  71
TORSDOF 20
ENDMDL
