MODEL 1
REMARK VINA RESULT:     -11.6      0.000      0.000
REMARK SMILES COc1ccc(NC(=O)[C@H](CC(=O)OCCOC(=O)c2ccc(-c3c4nc(c(-c5cccc(S(=O)(=O)[O-])c5F)c5ccc([nH]5)c(-c5cccc(S(=O)(=O)[O-])c5F)c5nc(c(-c6cccc(S(=O)(=O)[O-])c6F)c6ccc3[nH]6)C=C5)C=C4)cc2)Cc2ccccc2)cc1
REMARK SMILES IDX 15 1 14 2 12 3 13 4 11 5 10 6 8 7 7 8 9 10 6 11 3 12 4 13
REMARK SMILES IDX 91 14 5 15 90 16 2 17 1 18 83 19 84 20 85 21 89 22 86 23
REMARK SMILES IDX 88 24 87 25 16 26 17 27 18 28 19 29 20 30 21 31 82 32 22 33
REMARK SMILES IDX 81 34 23 35 24 36 25 37 75 38 26 39 80 40 74 41 76 42 27 43
REMARK SMILES IDX 79 44 73 45 72 46 28 48 60 49 40 50 59 51 41 52 44 53 58 54
REMARK SMILES IDX 77 55 42 56 43 57 57 59 78 60 45 61 29 62 30 63 38 64 31 65
REMARK SMILES IDX 33 66 39 67 32 68 34 69 35 70 36 71 37 72 61 73 62 74 70 75
REMARK SMILES IDX 63 76 65 77 71 78 64 79 66 80 67 81 68 82 69 83 46 84 47 85
REMARK SMILES IDX 55 86 48 87 50 88 56 89 49 90 51 91 52 92 53 93 54 94
REMARK H PARENT 7 9 76 47 44 58
REMARK Flexibility Score: inf
ROOT
ATOM      1  C   UNL A   1      35.666  20.597  24.991  1.00  0.00     0.274 C 
ENDROOT
BRANCH   1   2
ATOM      2  O   UNL A   1      35.743  22.005  25.290  1.00  0.00    -0.462 OA
BRANCH   2   3
ATOM      3  C   UNL A   1      34.778  22.781  24.737  1.00  0.00     0.306 C 
ATOM      4  O   UNL A   1      34.732  23.101  23.557  1.00  0.00    -0.252 OA
BRANCH   3   5
ATOM      5  C   UNL A   1      33.659  23.074  25.711  1.00  0.00     0.136 C 
BRANCH   5   6
ATOM      6  C   UNL A   1      32.667  24.166  25.287  1.00  0.00     0.094 C 
BRANCH   6   7
ATOM      7  C   UNL A   1      31.268  23.552  25.128  1.00  0.00     0.228 C 
ATOM      8  N   UNL A   1      30.302  24.121  24.347  1.00  0.00    -0.326 N 
ATOM      9  H   UNL A   1      29.513  23.546  24.219  1.00  0.00     0.169 HD
ATOM     10  O   UNL A   1      30.986  22.465  25.643  1.00  0.00    -0.274 OA
BRANCH   8  11
ATOM     11  C   UNL A   1      30.207  25.355  23.690  1.00  0.00     0.041 A 
ATOM     12  C   UNL A   1      30.314  27.860  22.455  1.00  0.00     0.119 A 
ATOM     13  C   UNL A   1      29.320  27.586  23.387  1.00  0.00     0.048 A 
ATOM     14  C   UNL A   1      31.220  26.873  22.082  1.00  0.00     0.048 A 
ATOM     15  C   UNL A   1      29.249  26.324  23.980  1.00  0.00     0.030 A 
ATOM     16  C   UNL A   1      31.151  25.613  22.685  1.00  0.00     0.030 A 
BRANCH  12  17
ATOM     17  O   UNL A   1      30.447  29.144  22.010  1.00  0.00    -0.497 OA
ATOM     18  C   UNL A   1      29.619  30.031  22.751  1.00  0.00     0.278 C 
ENDBRANCH  12  17
ENDBRANCH   8  11
ENDBRANCH   6   7
BRANCH   6  19
ATOM     19  C   UNL A   1      32.595  25.280  26.371  1.00  0.00     0.049 C 
BRANCH  19  20
ATOM     20  C   UNL A   1      32.601  26.720  25.899  1.00  0.00    -0.047 A 
ATOM     21  C   UNL A   1      33.581  27.131  24.981  1.00  0.00     0.004 A 
ATOM     22  C   UNL A   1      31.708  27.682  26.385  1.00  0.00     0.004 A 
ATOM     23  C   UNL A   1      33.626  28.450  24.523  1.00  0.00     0.000 A 
ATOM     24  C   UNL A   1      31.733  28.993  25.905  1.00  0.00     0.000 A 
ATOM     25  C   UNL A   1      32.690  29.377  24.971  1.00  0.00     0.000 A 
ENDBRANCH  19  20
ENDBRANCH   6  19
ENDBRANCH   5   6
ENDBRANCH   3   5
ENDBRANCH   2   3
ENDBRANCH   1   2
BRANCH   1  26
ATOM     26  C   UNL A   1      37.072  19.995  24.970  1.00  0.00     0.275 C 
BRANCH  26  27
ATOM     27  O   UNL A   1      38.033  21.050  25.134  1.00  0.00    -0.458 OA
BRANCH  27  28
ATOM     28  C   UNL A   1      39.136  20.748  25.854  1.00  0.00     0.338 C 
ATOM     29  O   UNL A   1      39.614  19.634  26.035  1.00  0.00    -0.246 OA
BRANCH  28  30
ATOM     30  C   UNL A   1      39.716  21.979  26.429  1.00  0.00     0.060 A 
ATOM     31  C   UNL A   1      40.743  21.930  27.377  1.00  0.00     0.016 A 
ATOM     32  C   UNL A   1      39.197  23.211  26.035  1.00  0.00     0.016 A 
ATOM     33  C   UNL A   1      41.215  23.097  27.968  1.00  0.00     0.010 A 
ATOM     34  C   UNL A   1      39.757  24.387  26.533  1.00  0.00     0.010 A 
ATOM     35  C   UNL A   1      40.776  24.340  27.499  1.00  0.00    -0.014 A 
BRANCH  35  36
ATOM     36  C   UNL A   1      41.468  25.587  27.911  1.00  0.00     0.031 A 
ATOM     37  C   UNL A   1      40.739  26.657  28.667  1.00  0.00     0.074 A 
ATOM     38  C   UNL A   1      42.736  25.782  27.495  1.00  0.00     0.049 A 
ATOM     39  N   UNL A   1      41.117  27.880  28.933  1.00  0.00    -0.248 NA
ATOM     40  C   UNL A   1      39.397  26.320  29.168  1.00  0.00     0.031 C 
ATOM     41  C   UNL A   1      43.532  24.817  26.728  1.00  0.00     0.029 A 
ATOM     42  N   UNL A   1      43.572  26.859  27.630  1.00  0.00    -0.354 N 
ATOM     43  C   UNL A   1      40.038  28.481  29.570  1.00  0.00     0.074 A 
ATOM     44  C   UNL A   1      38.993  27.484  29.659  1.00  0.00     0.031 C 
ATOM     45  C   UNL A   1      44.741  25.334  26.480  1.00  0.00     0.029 A 
ATOM     46  C   UNL A   1      44.782  26.695  26.995  1.00  0.00     0.049 A 
ATOM     47  H   UNL A   1      43.331  27.672  28.132  1.00  0.00     0.167 HD
ATOM     48  C   UNL A   1      39.938  29.749  30.039  1.00  0.00     0.034 A 
ATOM     49  C   UNL A   1      45.800  27.554  26.809  1.00  0.00     0.034 A 
ATOM     50  C   UNL A   1      41.008  30.710  29.980  1.00  0.00     0.049 A 
ATOM     51  C   UNL A   1      45.671  28.942  27.357  1.00  0.00     0.074 A 
ATOM     52  C   UNL A   1      41.039  31.999  30.480  1.00  0.00     0.029 A 
ATOM     53  N   UNL A   1      42.242  30.484  29.384  1.00  0.00    -0.354 N 
ATOM     54  N   UNL A   1      44.676  29.471  28.028  1.00  0.00    -0.248 NA
ATOM     55  C   UNL A   1      46.804  29.849  27.137  1.00  0.00     0.031 C 
ATOM     56  C   UNL A   1      42.286  32.558  30.173  1.00  0.00     0.029 A 
ATOM     57  C   UNL A   1      43.039  31.611  29.496  1.00  0.00     0.049 A 
ATOM     58  H   UNL A   1      42.511  29.645  28.945  1.00  0.00     0.167 HD
ATOM     59  C   UNL A   1      45.068  30.767  28.330  1.00  0.00     0.074 A 
ATOM     60  C   UNL A   1      46.404  30.934  27.788  1.00  0.00     0.031 C 
ATOM     61  C   UNL A   1      44.381  31.737  28.981  1.00  0.00     0.034 A 
BRANCH  48  62
ATOM     62  C   UNL A   1      38.633  30.156  30.674  1.00  0.00     0.023 A 
ATOM     63  C   UNL A   1      38.357  29.786  32.007  1.00  0.00     0.012 A 
ATOM     64  C   UNL A   1      37.687  30.926  29.966  1.00  0.00     0.148 A 
ATOM     65  C   UNL A   1      37.149  30.140  32.610  1.00  0.00     0.002 A 
ATOM     66  C   UNL A   1      36.504  31.310  30.588  1.00  0.00     0.091 A 
ATOM     67  F   UNL A   1      37.948  31.250  28.691  1.00  0.00    -0.205 F 
ATOM     68  C   UNL A   1      36.227  30.909  31.904  1.00  0.00     0.022 A 
BRANCH  66  69
ATOM     69  S   UNL A   1      35.293  32.361  29.775  1.00  0.00     0.127 S 
ATOM     70  O   UNL A   1      36.110  33.508  29.383  1.00  0.00    -0.237 OA
ATOM     71  O   UNL A   1      34.847  31.523  28.661  1.00  0.00    -0.237 OA
ATOM     72  O   UNL A   1      34.268  32.624  30.775  1.00  0.00    -0.744 OA
ENDBRANCH  66  69
ENDBRANCH  48  62
BRANCH  49  73
ATOM     73  C   UNL A   1      47.037  27.085  26.122  1.00  0.00     0.023 A 
ATOM     74  C   UNL A   1      47.229  27.418  24.768  1.00  0.00     0.012 A 
ATOM     75  C   UNL A   1      48.064  26.418  26.819  1.00  0.00     0.148 A 
ATOM     76  C   UNL A   1      48.419  27.091  24.118  1.00  0.00     0.002 A 
ATOM     77  C   UNL A   1      49.269  26.145  26.181  1.00  0.00     0.091 A 
ATOM     78  F   UNL A   1      47.857  26.101  28.105  1.00  0.00    -0.205 F 
ATOM     79  C   UNL A   1      49.444  26.470  24.826  1.00  0.00     0.022 A 
BRANCH  77  80
ATOM     80  S   UNL A   1      50.696  25.486  27.053  1.00  0.00     0.127 S 
ATOM     81  O   UNL A   1      50.139  24.290  27.678  1.00  0.00    -0.237 OA
ATOM     82  O   UNL A   1      51.630  25.230  25.955  1.00  0.00    -0.237 OA
ATOM     83  O   UNL A   1      51.120  26.539  27.966  1.00  0.00    -0.744 OA
ENDBRANCH  77  80
ENDBRANCH  49  73
BRANCH  61  84
ATOM     84  C   UNL A   1      45.073  33.061  29.156  1.00  0.00     0.023 A 
ATOM     85  C   UNL A   1      45.817  33.307  30.327  1.00  0.00     0.012 A 
ATOM     86  C   UNL A   1      45.028  34.036  28.142  1.00  0.00     0.148 A 
ATOM     87  C   UNL A   1      46.483  34.519  30.498  1.00  0.00     0.002 A 
ATOM     88  C   UNL A   1      45.731  35.224  28.300  1.00  0.00     0.091 A 
ATOM     89  F   UNL A   1      44.291  33.791  27.049  1.00  0.00    -0.205 F 
ATOM     90  C   UNL A   1      46.450  35.472  29.482  1.00  0.00     0.022 A 
BRANCH  88  91
ATOM     91  S   UNL A   1      45.811  36.468  27.007  1.00  0.00     0.127 S 
ATOM     92  O   UNL A   1      44.431  36.947  26.967  1.00  0.00    -0.237 OA
ATOM     93  O   UNL A   1      46.774  37.424  27.553  1.00  0.00    -0.237 OA
ATOM     94  O   UNL A   1      46.269  35.770  25.813  1.00  0.00    -0.744 OA
ENDBRANCH  88  91
ENDBRANCH  61  84
ENDBRANCH  35  36
ENDBRANCH  28  30
ENDBRANCH  27  28
ENDBRANCH  26  27
ENDBRANCH   1  26
TORSDOF 20
ENDMDL
MODEL 2
REMARK VINA RESULT:     -11.5      4.693      9.968
REMARK SMILES COc1ccc(NC(=O)[C@H](CC(=O)OCCOC(=O)c2ccc(-c3c4nc(c(-c5cccc(S(=O)(=O)[O-])c5F)c5ccc([nH]5)c(-c5cccc(S(=O)(=O)[O-])c5F)c5nc(c(-c6cccc(S(=O)(=O)[O-])c6F)c6ccc3[nH]6)C=C5)C=C4)cc2)Cc2ccccc2)cc1
REMARK SMILES IDX 15 1 14 2 12 3 13 4 11 5 10 6 8 7 7 8 9 10 6 11 3 12 4 13
REMARK SMILES IDX 91 14 5 15 90 16 2 17 1 18 83 19 84 20 85 21 89 22 86 23
REMARK SMILES IDX 88 24 87 25 16 26 17 27 18 28 19 29 20 30 21 31 82 32 22 33
REMARK SMILES IDX 81 34 23 35 24 36 25 37 75 38 26 39 80 40 74 41 76 42 27 43
REMARK SMILES IDX 79 44 73 45 72 46 28 48 60 49 40 50 59 51 41 52 44 53 58 54
REMARK SMILES IDX 77 55 42 56 43 57 57 59 78 60 45 61 29 62 30 63 38 64 31 65
REMARK SMILES IDX 33 66 39 67 32 68 34 69 35 70 36 71 37 72 61 73 62 74 70 75
REMARK SMILES IDX 63 76 65 77 71 78 64 79 66 80 67 81 68 82 69 83 46 84 47 85
REMARK SMILES IDX 55 86 48 87 50 88 56 89 49 90 51 91 52 92 53 93 54 94
REMARK H PARENT 7 9 76 47 44 58
REMARK Flexibility Score: inf
ROOT
ATOM      1  C   UNL A   1      31.706  29.306  24.308  1.00  0.00     0.274 C 
ENDROOT
BRANCH   1   2
ATOM      2  O   UNL A   1      30.372  28.866  23.981  1.00  0.00    -0.462 OA
BRANCH   2   3
ATOM      3  C   UNL A   1      30.283  27.665  23.357  1.00  0.00     0.306 C 
ATOM      4  O   UNL A   1      30.627  27.453  22.202  1.00  0.00    -0.252 OA
BRANCH   3   5
ATOM      5  C   UNL A   1      29.864  26.563  24.304  1.00  0.00     0.136 C 
BRANCH   5   6
ATOM      6  C   UNL A   1      30.974  25.600  24.748  1.00  0.00     0.094 C 
BRANCH   6   7
ATOM      7  C   UNL A   1      31.627  26.131  26.033  1.00  0.00     0.228 C 
ATOM      8  N   UNL A   1      32.899  25.795  26.401  1.00  0.00    -0.326 N 
ATOM      9  H   UNL A   1      33.240  26.321  27.161  1.00  0.00     0.169 HD
ATOM     10  O   UNL A   1      31.049  26.955  26.749  1.00  0.00    -0.274 OA
BRANCH   8  11
ATOM     11  C   UNL A   1      33.818  24.853  25.917  1.00  0.00     0.041 A 
ATOM     12  C   UNL A   1      35.463  22.944  24.708  1.00  0.00     0.119 A 
ATOM     13  C   UNL A   1      35.051  22.774  26.025  1.00  0.00     0.048 A 
ATOM     14  C   UNL A   1      35.117  24.094  24.007  1.00  0.00     0.048 A 
ATOM     15  C   UNL A   1      34.255  23.745  26.637  1.00  0.00     0.030 A 
ATOM     16  C   UNL A   1      34.312  25.058  24.620  1.00  0.00     0.030 A 
BRANCH  12  17
ATOM     17  O   UNL A   1      36.111  21.911  24.095  1.00  0.00    -0.497 OA
ATOM     18  C   UNL A   1      36.148  20.761  24.931  1.00  0.00     0.278 C 
ENDBRANCH  12  17
ENDBRANCH   8  11
ENDBRANCH   6   7
BRANCH   6  19
ATOM     19  C   UNL A   1      30.380  24.192  25.044  1.00  0.00     0.049 C 
BRANCH  19  20
ATOM     20  C   UNL A   1      31.173  22.986  24.584  1.00  0.00    -0.047 A 
ATOM     21  C   UNL A   1      31.632  22.938  23.258  1.00  0.00     0.004 A 
ATOM     22  C   UNL A   1      31.418  21.879  25.406  1.00  0.00     0.004 A 
ATOM     23  C   UNL A   1      32.362  21.843  22.790  1.00  0.00     0.000 A 
ATOM     24  C   UNL A   1      32.174  20.798  24.949  1.00  0.00     0.000 A 
ATOM     25  C   UNL A   1      32.649  20.781  23.642  1.00  0.00     0.000 A 
ENDBRANCH  19  20
ENDBRANCH   6  19
ENDBRANCH   5   6
ENDBRANCH   3   5
ENDBRANCH   2   3
ENDBRANCH   1   2
BRANCH   1  26
ATOM     26  C   UNL A   1      31.667  30.181  25.563  1.00  0.00     0.275 C 
BRANCH  26  27
ATOM     27  O   UNL A   1      32.922  30.064  26.252  1.00  0.00    -0.458 OA
BRANCH  27  28
ATOM     28  C   UNL A   1      33.271  31.105  27.039  1.00  0.00     0.338 C 
ATOM     29  O   UNL A   1      32.614  32.115  27.256  1.00  0.00    -0.246 OA
BRANCH  28  30
ATOM     30  C   UNL A   1      34.606  30.868  27.626  1.00  0.00     0.060 A 
ATOM     31  C   UNL A   1      35.474  31.924  27.921  1.00  0.00     0.016 A 
ATOM     32  C   UNL A   1      35.012  29.554  27.857  1.00  0.00     0.016 A 
ATOM     33  C   UNL A   1      36.758  31.674  28.392  1.00  0.00     0.010 A 
ATOM     34  C   UNL A   1      36.251  29.309  28.449  1.00  0.00     0.010 A 
ATOM     35  C   UNL A   1      37.132  30.368  28.728  1.00  0.00    -0.014 A 
BRANCH  35  36
ATOM     36  C   UNL A   1      38.379  30.115  29.493  1.00  0.00     0.031 A 
ATOM     37  C   UNL A   1      39.445  29.213  28.947  1.00  0.00     0.074 A 
ATOM     38  C   UNL A   1      38.482  30.629  30.736  1.00  0.00     0.049 A 
ATOM     39  N   UNL A   1      40.497  28.724  29.551  1.00  0.00    -0.248 NA
ATOM     40  C   UNL A   1      39.300  28.782  27.548  1.00  0.00     0.031 C 
ATOM     41  C   UNL A   1      37.489  31.498  31.377  1.00  0.00     0.029 A 
ATOM     42  N   UNL A   1      39.450  30.478  31.694  1.00  0.00    -0.354 N 
ATOM     43  C   UNL A   1      41.101  27.873  28.633  1.00  0.00     0.074 A 
ATOM     44  C   UNL A   1      40.302  27.921  27.426  1.00  0.00     0.031 C 
ATOM     45  C   UNL A   1      37.906  31.819  32.607  1.00  0.00     0.029 A 
ATOM     46  C   UNL A   1      39.152  31.116  32.877  1.00  0.00     0.049 A 
ATOM     47  H   UNL A   1      40.278  29.964  31.551  1.00  0.00     0.167 HD
ATOM     48  C   UNL A   1      42.221  27.127  28.787  1.00  0.00     0.034 A 
ATOM     49  C   UNL A   1      39.785  31.107  34.063  1.00  0.00     0.034 A 
ATOM     50  C   UNL A   1      43.026  27.131  29.981  1.00  0.00     0.049 A 
ATOM     51  C   UNL A   1      41.035  30.291  34.199  1.00  0.00     0.074 A 
ATOM     52  C   UNL A   1      44.213  26.465  30.224  1.00  0.00     0.029 A 
ATOM     53  N   UNL A   1      42.724  27.840  31.136  1.00  0.00    -0.354 N 
ATOM     54  N   UNL A   1      41.637  29.556  33.296  1.00  0.00    -0.248 NA
ATOM     55  C   UNL A   1      41.698  30.311  35.508  1.00  0.00     0.031 C 
ATOM     56  C   UNL A   1      44.621  26.759  31.530  1.00  0.00     0.029 A 
ATOM     57  C   UNL A   1      43.696  27.623  32.097  1.00  0.00     0.049 A 
ATOM     58  H   UNL A   1      41.932  28.413  31.254  1.00  0.00     0.167 HD
ATOM     59  C   UNL A   1      42.764  29.039  33.918  1.00  0.00     0.074 A 
ATOM     60  C   UNL A   1      42.771  29.567  35.270  1.00  0.00     0.031 C 
ATOM     61  C   UNL A   1      43.699  28.192  33.423  1.00  0.00     0.034 A 
BRANCH  48  62
ATOM     62  C   UNL A   1      42.650  26.265  27.627  1.00  0.00     0.023 A 
ATOM     63  C   UNL A   1      43.501  26.797  26.636  1.00  0.00     0.012 A 
ATOM     64  C   UNL A   1      42.236  24.921  27.527  1.00  0.00     0.148 A 
ATOM     65  C   UNL A   1      43.899  26.021  25.546  1.00  0.00     0.002 A 
ATOM     66  C   UNL A   1      42.670  24.142  26.459  1.00  0.00     0.091 A 
ATOM     67  F   UNL A   1      41.406  24.434  28.460  1.00  0.00    -0.205 F 
ATOM     68  C   UNL A   1      43.491  24.692  25.463  1.00  0.00     0.022 A 
BRANCH  66  69
ATOM     69  S   UNL A   1      42.250  22.400  26.313  1.00  0.00     0.127 S 
ATOM     70  O   UNL A   1      42.735  21.869  27.585  1.00  0.00    -0.237 OA
ATOM     71  O   UNL A   1      40.792  22.438  26.186  1.00  0.00    -0.237 OA
ATOM     72  O   UNL A   1      42.942  21.928  25.122  1.00  0.00    -0.744 OA
ENDBRANCH  66  69
ENDBRANCH  48  62
BRANCH  49  73
ATOM     73  C   UNL A   1      39.263  31.949  35.177  1.00  0.00     0.023 A 
ATOM     74  C   UNL A   1      38.420  31.358  36.137  1.00  0.00     0.012 A 
ATOM     75  C   UNL A   1      39.681  33.283  35.356  1.00  0.00     0.148 A 
ATOM     76  C   UNL A   1      37.996  32.082  37.251  1.00  0.00     0.002 A 
ATOM     77  C   UNL A   1      39.301  33.979  36.498  1.00  0.00     0.091 A 
ATOM     78  F   UNL A   1      40.476  33.830  34.426  1.00  0.00    -0.205 F 
ATOM     79  C   UNL A   1      38.448  33.384  37.441  1.00  0.00     0.022 A 
BRANCH  77  80
ATOM     80  S   UNL A   1      39.955  35.605  36.901  1.00  0.00     0.127 S 
ATOM     81  O   UNL A   1      39.262  35.905  38.151  1.00  0.00    -0.237 OA
ATOM     82  O   UNL A   1      41.386  35.329  37.040  1.00  0.00    -0.237 OA
ATOM     83  O   UNL A   1      39.617  36.457  35.768  1.00  0.00    -0.744 OA
ENDBRANCH  77  80
ENDBRANCH  49  73
BRANCH  61  84
ATOM     84  C   UNL A   1      44.819  27.798  34.348  1.00  0.00     0.023 A 
ATOM     85  C   UNL A   1      45.978  28.595  34.414  1.00  0.00     0.012 A 
ATOM     86  C   UNL A   1      44.699  26.673  35.184  1.00  0.00     0.148 A 
ATOM     87  C   UNL A   1      47.017  28.259  35.280  1.00  0.00     0.002 A 
ATOM     88  C   UNL A   1      45.719  26.369  36.077  1.00  0.00     0.091 A 
ATOM     89  F   UNL A   1      43.597  25.914  35.084  1.00  0.00    -0.205 F 
ATOM     90  C   UNL A   1      46.883  27.154  36.119  1.00  0.00     0.022 A 
BRANCH  88  91
ATOM     91  S   UNL A   1      45.591  25.016  37.251  1.00  0.00     0.127 S 
ATOM     92  O   UNL A   1      45.854  23.856  36.400  1.00  0.00    -0.237 OA
ATOM     93  O   UNL A   1      46.657  25.328  38.204  1.00  0.00    -0.237 OA
ATOM     94  O   UNL A   1      44.247  25.097  37.806  1.00  0.00    -0.744 OA
ENDBRANCH  88  91
ENDBRANCH  61  84
ENDBRANCH  35  36
ENDBRANCH  28  30
ENDBRANCH  27  28
ENDBRANCH  26  27
ENDBRANCH   1  26
TORSDOF 20
ENDMDL
MODEL 3
REMARK VINA RESULT:     -11.4      5.024     10.041
REMARK SMILES COc1ccc(NC(=O)[C@H](CC(=O)OCCOC(=O)c2ccc(-c3c4nc(c(-c5cccc(S(=O)(=O)[O-])c5F)c5ccc([nH]5)c(-c5cccc(S(=O)(=O)[O-])c5F)c5nc(c(-c6cccc(S(=O)(=O)[O-])c6F)c6ccc3[nH]6)C=C5)C=C4)cc2)Cc2ccccc2)cc1
REMARK SMILES IDX 15 1 14 2 12 3 13 4 11 5 10 6 8 7 7 8 9 10 6 11 3 12 4 13
REMARK SMILES IDX 91 14 5 15 90 16 2 17 1 18 83 19 84 20 85 21 89 22 86 23
REMARK SMILES IDX 88 24 87 25 16 26 17 27 18 28 19 29 20 30 21 31 82 32 22 33
REMARK SMILES IDX 81 34 23 35 24 36 25 37 75 38 26 39 80 40 74 41 76 42 27 43
REMARK SMILES IDX 79 44 73 45 72 46 28 48 60 49 40 50 59 51 41 52 44 53 58 54
REMARK SMILES IDX 77 55 42 56 43 57 57 59 78 60 45 61 29 62 30 63 38 64 31 65
REMARK SMILES IDX 33 66 39 67 32 68 34 69 35 70 36 71 37 72 61 73 62 74 70 75
REMARK SMILES IDX 63 76 65 77 71 78 64 79 66 80 67 81 68 82 69 83 46 84 47 85
REMARK SMILES IDX 55 86 48 87 50 88 56 89 49 90 51 91 52 92 53 93 54 94
REMARK H PARENT 7 9 76 47 44 58
REMARK Flexibility Score: inf
ROOT
ATOM      1  C   UNL A   1      31.649  29.979  25.494  1.00  0.00     0.274 C 
ENDROOT
BRANCH   1   2
ATOM      2  O   UNL A   1      32.821  29.244  25.086  1.00  0.00    -0.462 OA
BRANCH   2   3
ATOM      3  C   UNL A   1      32.712  27.892  25.119  1.00  0.00     0.306 C 
ATOM      4  O   UNL A   1      32.370  27.244  26.098  1.00  0.00    -0.252 OA
BRANCH   3   5
ATOM      5  C   UNL A   1      32.900  27.275  23.751  1.00  0.00     0.136 C 
BRANCH   5   6
ATOM      6  C   UNL A   1      32.868  25.742  23.695  1.00  0.00     0.094 C 
BRANCH   6   7
ATOM      7  C   UNL A   1      31.847  25.291  22.639  1.00  0.00     0.228 C 
ATOM      8  N   UNL A   1      31.321  24.030  22.620  1.00  0.00    -0.326 N 
ATOM      9  H   UNL A   1      30.574  23.926  21.986  1.00  0.00     0.169 HD
ATOM     10  O   UNL A   1      31.397  26.085  21.807  1.00  0.00    -0.274 OA
BRANCH   8  11
ATOM     11  C   UNL A   1      31.629  22.854  23.318  1.00  0.00     0.041 A 
ATOM     12  C   UNL A   1      32.405  20.687  24.904  1.00  0.00     0.119 A 
ATOM     13  C   UNL A   1      32.616  20.654  23.530  1.00  0.00     0.048 A 
ATOM     14  C   UNL A   1      31.748  21.765  25.489  1.00  0.00     0.048 A 
ATOM     15  C   UNL A   1      32.199  21.725  22.736  1.00  0.00     0.030 A 
ATOM     16  C   UNL A   1      31.342  22.839  24.691  1.00  0.00     0.030 A 
BRANCH  12  17
ATOM     17  O   UNL A   1      32.957  19.699  25.667  1.00  0.00    -0.497 OA
ATOM     18  C   UNL A   1      32.592  18.413  25.181  1.00  0.00     0.278 C 
ENDBRANCH  12  17
ENDBRANCH   8  11
ENDBRANCH   6   7
BRANCH   6  19
ATOM     19  C   UNL A   1      34.265  25.186  23.296  1.00  0.00     0.049 C 
BRANCH  19  20
ATOM     20  C   UNL A   1      34.840  24.063  24.135  1.00  0.00    -0.047 A 
ATOM     21  C   UNL A   1      34.719  24.127  25.532  1.00  0.00     0.004 A 
ATOM     22  C   UNL A   1      35.546  22.987  23.583  1.00  0.00     0.004 A 
ATOM     23  C   UNL A   1      35.238  23.116  26.344  1.00  0.00     0.000 A 
ATOM     24  C   UNL A   1      36.038  21.961  24.392  1.00  0.00     0.000 A 
ATOM     25  C   UNL A   1      35.882  22.024  25.773  1.00  0.00     0.000 A 
ENDBRANCH  19  20
ENDBRANCH   6  19
ENDBRANCH   5   6
ENDBRANCH   3   5
ENDBRANCH   2   3
ENDBRANCH   1   2
BRANCH   1  26
ATOM     26  C   UNL A   1      32.009  30.931  26.635  1.00  0.00     0.275 C 
BRANCH  26  27
ATOM     27  O   UNL A   1      33.388  30.740  26.986  1.00  0.00    -0.458 OA
BRANCH  27  28
ATOM     28  C   UNL A   1      33.978  31.750  27.664  1.00  0.00     0.338 C 
ATOM     29  O   UNL A   1      33.517  32.866  27.869  1.00  0.00    -0.246 OA
BRANCH  28  30
ATOM     30  C   UNL A   1      35.311  31.326  28.141  1.00  0.00     0.060 A 
ATOM     31  C   UNL A   1      36.350  32.244  28.318  1.00  0.00     0.016 A 
ATOM     32  C   UNL A   1      35.535  29.972  28.385  1.00  0.00     0.016 A 
ATOM     33  C   UNL A   1      37.620  31.811  28.685  1.00  0.00     0.010 A 
ATOM     34  C   UNL A   1      36.772  29.555  28.875  1.00  0.00     0.010 A 
ATOM     35  C   UNL A   1      37.823  30.472  29.036  1.00  0.00    -0.014 A 
BRANCH  35  36
ATOM     36  C   UNL A   1      39.083  30.051  29.698  1.00  0.00     0.031 A 
ATOM     37  C   UNL A   1      39.972  29.017  29.073  1.00  0.00     0.074 A 
ATOM     38  C   UNL A   1      39.355  30.538  30.926  1.00  0.00     0.049 A 
ATOM     39  N   UNL A   1      40.994  28.389  29.591  1.00  0.00    -0.248 NA
ATOM     40  C   UNL A   1      39.657  28.618  27.692  1.00  0.00     0.031 C 
ATOM     41  C   UNL A   1      38.542  31.528  31.642  1.00  0.00     0.029 A 
ATOM     42  N   UNL A   1      40.368  30.254  31.804  1.00  0.00    -0.354 N 
ATOM     43  C   UNL A   1      41.402  27.470  28.631  1.00  0.00     0.074 A 
ATOM     44  C   UNL A   1      40.522  27.632  27.493  1.00  0.00     0.031 C 
ATOM     45  C   UNL A   1      39.096  31.783  32.833  1.00  0.00     0.029 A 
ATOM     46  C   UNL A   1      40.255  30.918  33.004  1.00  0.00     0.049 A 
ATOM     47  H   UNL A   1      41.105  29.634  31.597  1.00  0.00     0.167 HD
ATOM     48  C   UNL A   1      42.422  26.580  28.697  1.00  0.00     0.034 A 
ATOM     49  C   UNL A   1      40.975  30.818  34.135  1.00  0.00     0.034 A 
ATOM     50  C   UNL A   1      43.314  26.469  29.822  1.00  0.00     0.049 A 
ATOM     51  C   UNL A   1      42.111  29.841  34.172  1.00  0.00     0.074 A 
ATOM     52  C   UNL A   1      44.417  25.649  29.970  1.00  0.00     0.029 A 
ATOM     53  N   UNL A   1      43.204  27.205  30.994  1.00  0.00    -0.354 N 
ATOM     54  N   UNL A   1      42.535  29.038  33.227  1.00  0.00    -0.248 NA
ATOM     55  C   UNL A   1      42.876  29.764  35.423  1.00  0.00     0.031 C 
ATOM     56  C   UNL A   1      44.965  25.878  31.238  1.00  0.00     0.029 A 
ATOM     57  C   UNL A   1      44.213  26.854  31.874  1.00  0.00     0.049 A 
ATOM     58  H   UNL A   1      42.508  27.878  31.174  1.00  0.00     0.167 HD
ATOM     59  C   UNL A   1      43.630  28.371  33.758  1.00  0.00     0.074 A 
ATOM     60  C   UNL A   1      43.817  28.885  35.102  1.00  0.00     0.031 C 
ATOM     61  C   UNL A   1      44.400  27.409  33.193  1.00  0.00     0.034 A 
BRANCH  48  62
ATOM     62  C   UNL A   1      42.636  25.676  27.510  1.00  0.00     0.023 A 
ATOM     63  C   UNL A   1      43.344  26.150  26.387  1.00  0.00     0.012 A 
ATOM     64  C   UNL A   1      42.162  24.348  27.512  1.00  0.00     0.148 A 
ATOM     65  C   UNL A   1      43.541  25.335  25.271  1.00  0.00     0.002 A 
ATOM     66  C   UNL A   1      42.399  23.528  26.413  1.00  0.00     0.091 A 
ATOM     67  F   UNL A   1      41.468  23.915  28.575  1.00  0.00    -0.205 F 
ATOM     68  C   UNL A   1      43.077  24.022  25.289  1.00  0.00     0.022 A 
BRANCH  66  69
ATOM     69  S   UNL A   1      41.898  21.802  26.382  1.00  0.00     0.127 S 
ATOM     70  O   UNL A   1      40.478  21.909  26.053  1.00  0.00    -0.237 OA
ATOM     71  O   UNL A   1      42.731  21.251  25.312  1.00  0.00    -0.237 OA
ATOM     72  O   UNL A   1      42.204  21.281  27.707  1.00  0.00    -0.744 OA
ENDBRANCH  66  69
ENDBRANCH  48  62
BRANCH  49  73
ATOM     73  C   UNL A   1      40.663  31.714  35.283  1.00  0.00     0.023 A 
ATOM     74  C   UNL A   1      41.500  32.818  35.531  1.00  0.00     0.012 A 
ATOM     75  C   UNL A   1      39.493  31.552  36.053  1.00  0.00     0.148 A 
ATOM     76  C   UNL A   1      41.184  33.740  36.529  1.00  0.00     0.002 A 
ATOM     77  C   UNL A   1      39.154  32.505  37.006  1.00  0.00     0.091 A 
ATOM     78  F   UNL A   1      38.713  30.489  35.807  1.00  0.00    -0.205 F 
ATOM     79  C   UNL A   1      40.005  33.594  37.255  1.00  0.00     0.022 A 
BRANCH  77  80
ATOM     80  S   UNL A   1      37.584  32.481  37.882  1.00  0.00     0.127 S 
ATOM     81  O   UNL A   1      37.447  31.065  38.212  1.00  0.00    -0.237 OA
ATOM     82  O   UNL A   1      37.860  33.355  39.023  1.00  0.00    -0.237 OA
ATOM     83  O   UNL A   1      36.603  33.011  36.944  1.00  0.00    -0.744 OA
ENDBRANCH  77  80
ENDBRANCH  49  73
BRANCH  61  84
ATOM     84  C   UNL A   1      45.528  26.864  34.025  1.00  0.00     0.023 A 
ATOM     85  C   UNL A   1      46.761  27.545  34.057  1.00  0.00     0.012 A 
ATOM     86  C   UNL A   1      45.349  25.711  34.813  1.00  0.00     0.148 A 
ATOM     87  C   UNL A   1      47.810  27.067  34.839  1.00  0.00     0.002 A 
ATOM     88  C   UNL A   1      46.385  25.266  35.624  1.00  0.00     0.091 A 
ATOM     89  F   UNL A   1      44.175  25.065  34.746  1.00  0.00    -0.205 F 
ATOM     90  C   UNL A   1      47.620  25.936  35.631  1.00  0.00     0.022 A 
BRANCH  88  91
ATOM     91  S   UNL A   1      46.196  23.869  36.738  1.00  0.00     0.127 S 
ATOM     92  O   UNL A   1      47.209  24.157  37.751  1.00  0.00    -0.237 OA
ATOM     93  O   UNL A   1      44.814  24.020  37.195  1.00  0.00    -0.237 OA
ATOM     94  O   UNL A   1      46.434  22.682  35.928  1.00  0.00    -0.744 OA
ENDBRANCH  88  91
ENDBRANCH  61  84
ENDBRANCH  35  36
ENDBRANCH  28  30
ENDBRANCH  27  28
ENDBRANCH  26  27
ENDBRANCH   1  26
TORSDOF 20
ENDMDL
