MODEL 1
REMARK VINA RESULT:     -11.1      0.000      0.000
REMARK SMILES O=C(N[C@@H](CS)C(=O)N[C@@H](CO)C(=O)OCCOC(=O)c1ccc(-c2c3nc(c(-c4cccc(S(=O)(=O)[O-])c4F)c4ccc([nH]4)c(-c4cccc(S(=O)(=O)[O-])c4F)c4nc(c(-c5cccc(S(=O)(=O)[O-])c5F)c5ccc2[nH]5)C=C4)C=C3)cc1)c1ccc(F)cc1
REMARK SMILES IDX 16 1 15 2 13 3 14 4 10 5 9 6 7 7 8 8 4 10 3 11 1 12 2 13
REMARK SMILES IDX 84 15 85 16 90 17 86 18 89 19 87 20 88 21 5 22 6 23 11 25
REMARK SMILES IDX 12 26 17 28 18 29 19 30 20 31 21 32 22 33 83 34 23 35 82 36
REMARK SMILES IDX 24 37 25 38 26 39 76 40 27 41 81 42 75 43 77 44 28 45 80 46
REMARK SMILES IDX 74 47 73 48 29 50 61 51 41 52 60 53 42 54 45 55 59 56 78 57
REMARK SMILES IDX 43 58 44 59 58 61 79 62 46 63 30 64 31 65 39 66 32 67 34 68
REMARK SMILES IDX 40 69 33 70 35 71 36 72 37 73 38 74 62 75 63 76 71 77 64 78
REMARK SMILES IDX 66 79 72 80 65 81 67 82 68 83 69 84 70 85 47 86 48 87 56 88
REMARK SMILES IDX 49 89 51 90 57 91 50 92 52 93 53 94 54 95 55 96
REMARK H PARENT 9 9 3 14 6 24 12 27 77 49 45 60
REMARK Flexibility Score: inf
ROOT
ATOM      1  C   UNL A   1      31.454  29.242  24.435  1.00  0.00     0.274 C 
ENDROOT
BRANCH   1   2
ATOM      2  O   UNL A   1      30.268  28.425  24.507  1.00  0.00    -0.460 OA
BRANCH   2   3
ATOM      3  C   UNL A   1      29.991  27.657  23.411  1.00  0.00     0.331 C 
ATOM      4  O   UNL A   1      30.162  28.006  22.250  1.00  0.00    -0.250 OA
BRANCH   3   5
ATOM      5  C   UNL A   1      29.303  26.336  23.798  1.00  0.00     0.218 C 
BRANCH   5   6
ATOM      6  N   UNL A   1      29.773  25.809  25.087  1.00  0.00    -0.339 N 
ATOM      7  C   UNL A   1      30.753  24.952  25.454  1.00  0.00     0.244 C 
ATOM      8  O   UNL A   1      30.942  24.851  26.674  1.00  0.00    -0.273 OA
ATOM      9  H   UNL A   1      29.262  26.157  25.853  1.00  0.00     0.164 HD
BRANCH   7  10
ATOM     10  C   UNL A   1      31.684  24.188  24.485  1.00  0.00     0.181 C 
BRANCH  10  11
ATOM     11  N   UNL A   1      31.729  22.731  24.650  1.00  0.00    -0.339 N 
ATOM     12  O   UNL A   1      32.707  20.704  24.563  1.00  0.00    -0.269 OA
ATOM     13  C   UNL A   1      32.840  21.916  24.701  1.00  0.00     0.251 C 
ATOM     14  H   UNL A   1      30.858  22.278  24.736  1.00  0.00     0.164 HD
BRANCH  13  15
ATOM     15  C   UNL A   1      34.193  22.497  24.870  1.00  0.00     0.040 A 
ATOM     16  C   UNL A   1      34.659  22.852  26.142  1.00  0.00     0.017 A 
ATOM     17  C   UNL A   1      35.026  22.640  23.752  1.00  0.00     0.017 A 
ATOM     18  C   UNL A   1      35.929  23.410  26.287  1.00  0.00     0.040 A 
ATOM     19  C   UNL A   1      36.304  23.187  23.905  1.00  0.00     0.040 A 
ATOM     20  C   UNL A   1      36.739  23.575  25.169  1.00  0.00     0.123 A 
ATOM     21  F   UNL A   1      37.961  24.102  25.319  1.00  0.00    -0.207 F 
ENDBRANCH  13  15
ENDBRANCH  10  11
BRANCH  10  22
ATOM     22  C   UNL A   1      31.495  24.657  23.032  1.00  0.00     0.101 C 
BRANCH  22  23
ATOM     23  S   UNL A   1      32.915  25.556  22.345  1.00  0.00    -0.177 SA
ATOM     24  H   UNL A   1      33.236  26.592  23.166  1.00  0.00     0.102 HD
ENDBRANCH  22  23
ENDBRANCH  10  22
ENDBRANCH   7  10
ENDBRANCH   5   6
BRANCH   5  25
ATOM     25  C   UNL A   1      27.794  26.617  23.857  1.00  0.00     0.193 C 
BRANCH  25  26
ATOM     26  O   UNL A   1      27.482  27.905  23.317  1.00  0.00    -0.394 OA
ATOM     27  H   UNL A   1      28.281  28.457  23.315  1.00  0.00     0.210 HD
ENDBRANCH  25  26
ENDBRANCH   5  25
ENDBRANCH   3   5
ENDBRANCH   2   3
ENDBRANCH   1   2
BRANCH   1  28
ATOM     28  C   UNL A   1      31.382  30.385  25.441  1.00  0.00     0.275 C 
BRANCH  28  29
ATOM     29  O   UNL A   1      32.325  30.138  26.496  1.00  0.00    -0.458 OA
BRANCH  29  30
ATOM     30  C   UNL A   1      32.889  31.227  27.061  1.00  0.00     0.338 C 
ATOM     31  O   UNL A   1      32.337  32.299  27.297  1.00  0.00    -0.246 OA
BRANCH  30  32
ATOM     32  C   UNL A   1      34.292  30.951  27.424  1.00  0.00     0.060 A 
ATOM     33  C   UNL A   1      34.729  29.642  27.603  1.00  0.00     0.016 A 
ATOM     34  C   UNL A   1      35.147  32.010  27.740  1.00  0.00     0.016 A 
ATOM     35  C   UNL A   1      35.958  29.408  28.227  1.00  0.00     0.010 A 
ATOM     36  C   UNL A   1      36.420  31.756  28.272  1.00  0.00     0.010 A 
ATOM     37  C   UNL A   1      36.825  30.451  28.600  1.00  0.00    -0.014 A 
BRANCH  37  38
ATOM     38  C   UNL A   1      38.082  30.196  29.391  1.00  0.00     0.031 A 
ATOM     39  C   UNL A   1      39.211  29.358  28.815  1.00  0.00     0.074 A 
ATOM     40  C   UNL A   1      38.268  30.718  30.624  1.00  0.00     0.049 A 
ATOM     41  N   UNL A   1      40.216  28.782  29.430  1.00  0.00    -0.248 NA
ATOM     42  C   UNL A   1      39.202  29.117  27.361  1.00  0.00     0.031 C 
ATOM     43  C   UNL A   1      37.331  31.587  31.333  1.00  0.00     0.029 A 
ATOM     44  N   UNL A   1      39.321  30.592  31.506  1.00  0.00    -0.354 N 
ATOM     45  C   UNL A   1      40.875  28.015  28.472  1.00  0.00     0.074 A 
ATOM     46  C   UNL A   1      40.182  28.232  27.220  1.00  0.00     0.031 C 
ATOM     47  C   UNL A   1      37.871  31.973  32.496  1.00  0.00     0.029 A 
ATOM     48  C   UNL A   1      39.119  31.251  32.698  1.00  0.00     0.049 A 
ATOM     49  H   UNL A   1      40.138  30.080  31.304  1.00  0.00     0.167 HD
ATOM     50  C   UNL A   1      41.954  27.207  28.619  1.00  0.00     0.034 A 
ATOM     51  C   UNL A   1      39.796  31.226  33.865  1.00  0.00     0.034 A 
ATOM     52  C   UNL A   1      42.735  27.101  29.826  1.00  0.00     0.049 A 
ATOM     53  C   UNL A   1      40.996  30.340  34.006  1.00  0.00     0.074 A 
ATOM     54  C   UNL A   1      43.872  26.341  30.051  1.00  0.00     0.029 A 
ATOM     55  N   UNL A   1      42.488  27.798  30.997  1.00  0.00    -0.354 N 
ATOM     56  N   UNL A   1      41.566  29.575  33.108  1.00  0.00    -0.248 NA
ATOM     57  C   UNL A   1      41.640  30.301  35.326  1.00  0.00     0.031 C 
ATOM     58  C   UNL A   1      44.311  26.578  31.358  1.00  0.00     0.029 A 
ATOM     59  C   UNL A   1      43.455  27.495  31.943  1.00  0.00     0.049 A 
ATOM     60  H   UNL A   1      41.737  28.418  31.137  1.00  0.00     0.167 HD
ATOM     61  C   UNL A   1      42.635  28.967  33.753  1.00  0.00     0.074 A 
ATOM     62  C   UNL A   1      42.658  29.480  35.106  1.00  0.00     0.031 C 
ATOM     63  C   UNL A   1      43.503  28.043  33.273  1.00  0.00     0.034 A 
BRANCH  50  64
ATOM     64  C   UNL A   1      42.393  26.370  27.442  1.00  0.00     0.023 A 
ATOM     65  C   UNL A   1      43.322  26.880  26.513  1.00  0.00     0.012 A 
ATOM     66  C   UNL A   1      41.969  25.029  27.324  1.00  0.00     0.148 A 
ATOM     67  C   UNL A   1      43.802  26.078  25.476  1.00  0.00     0.002 A 
ATOM     68  C   UNL A   1      42.484  24.223  26.314  1.00  0.00     0.091 A 
ATOM     69  F   UNL A   1      41.071  24.564  28.206  1.00  0.00    -0.205 F 
ATOM     70  C   UNL A   1      43.394  24.749  25.385  1.00  0.00     0.022 A 
BRANCH  68  71
ATOM     71  S   UNL A   1      42.088  22.474  26.178  1.00  0.00     0.127 S 
ATOM     72  O   UNL A   1      42.774  22.112  24.939  1.00  0.00    -0.237 OA
ATOM     73  O   UNL A   1      42.691  21.922  27.392  1.00  0.00    -0.237 OA
ATOM     74  O   UNL A   1      40.634  22.398  26.138  1.00  0.00    -0.744 OA
ENDBRANCH  68  71
ENDBRANCH  50  64
BRANCH  51  75
ATOM     75  C   UNL A   1      39.302  32.043  35.011  1.00  0.00     0.023 A 
ATOM     76  C   UNL A   1      38.446  31.463  35.964  1.00  0.00     0.012 A 
ATOM     77  C   UNL A   1      39.750  33.365  35.204  1.00  0.00     0.148 A 
ATOM     78  C   UNL A   1      38.049  32.185  37.092  1.00  0.00     0.002 A 
ATOM     79  C   UNL A   1      39.422  34.045  36.370  1.00  0.00     0.091 A 
ATOM     80  F   UNL A   1      40.530  33.918  34.264  1.00  0.00    -0.205 F 
ATOM     81  C   UNL A   1      38.557  33.464  37.308  1.00  0.00     0.022 A 
BRANCH  79  82
ATOM     82  S   UNL A   1      40.210  35.602  36.801  1.00  0.00     0.127 S 
ATOM     83  O   UNL A   1      41.621  35.294  36.590  1.00  0.00    -0.237 OA
ATOM     84  O   UNL A   1      39.625  36.524  35.826  1.00  0.00    -0.237 OA
ATOM     85  O   UNL A   1      39.807  35.864  38.177  1.00  0.00    -0.744 OA
ENDBRANCH  79  82
ENDBRANCH  51  75
BRANCH  63  86
ATOM     86  C   UNL A   1      44.568  27.543  34.210  1.00  0.00     0.023 A 
ATOM     87  C   UNL A   1      45.803  28.218  34.280  1.00  0.00     0.012 A 
ATOM     88  C   UNL A   1      44.336  26.432  35.043  1.00  0.00     0.148 A 
ATOM     89  C   UNL A   1      46.805  27.774  35.144  1.00  0.00     0.002 A 
ATOM     90  C   UNL A   1      45.324  26.019  35.930  1.00  0.00     0.091 A 
ATOM     91  F   UNL A   1      43.162  25.791  34.945  1.00  0.00    -0.205 F 
ATOM     92  C   UNL A   1      46.562  26.682  35.974  1.00  0.00     0.022 A 
BRANCH  90  93
ATOM     93  S   UNL A   1      45.071  24.668  37.086  1.00  0.00     0.127 S 
ATOM     94  O   UNL A   1      44.943  23.524  36.186  1.00  0.00    -0.237 OA
ATOM     95  O   UNL A   1      46.307  24.692  37.870  1.00  0.00    -0.237 OA
ATOM     96  O   UNL A   1      43.874  25.010  37.843  1.00  0.00    -0.744 OA
ENDBRANCH  90  93
ENDBRANCH  63  86
ENDBRANCH  37  38
ENDBRANCH  30  32
ENDBRANCH  29  30
ENDBRANCH  28  29
ENDBRANCH   1  28
TORSDOF 22
ENDMDL
MODEL 2
REMARK VINA RESULT:     -11.0      4.732      9.774
REMARK SMILES O=C(N[C@@H](CS)C(=O)N[C@@H](CO)C(=O)OCCOC(=O)c1ccc(-c2c3nc(c(-c4cccc(S(=O)(=O)[O-])c4F)c4ccc([nH]4)c(-c4cccc(S(=O)(=O)[O-])c4F)c4nc(c(-c5cccc(S(=O)(=O)[O-])c5F)c5ccc2[nH]5)C=C4)C=C3)cc1)c1ccc(F)cc1
REMARK SMILES IDX 16 1 15 2 13 3 14 4 10 5 9 6 7 7 8 8 4 10 3 11 1 12 2 13
REMARK SMILES IDX 84 15 85 16 90 17 86 18 89 19 87 20 88 21 5 22 6 23 11 25
REMARK SMILES IDX 12 26 17 28 18 29 19 30 20 31 21 32 22 33 83 34 23 35 82 36
REMARK SMILES IDX 24 37 25 38 26 39 76 40 27 41 81 42 75 43 77 44 28 45 80 46
REMARK SMILES IDX 74 47 73 48 29 50 61 51 41 52 60 53 42 54 45 55 59 56 78 57
REMARK SMILES IDX 43 58 44 59 58 61 79 62 46 63 30 64 31 65 39 66 32 67 34 68
REMARK SMILES IDX 40 69 33 70 35 71 36 72 37 73 38 74 62 75 63 76 71 77 64 78
REMARK SMILES IDX 66 79 72 80 65 81 67 82 68 83 69 84 70 85 47 86 48 87 56 88
REMARK SMILES IDX 49 89 51 90 57 91 50 92 52 93 53 94 54 95 55 96
REMARK H PARENT 9 9 3 14 6 24 12 27 77 49 45 60
REMARK Flexibility Score: inf
ROOT
ATOM      1  C   UNL A   1      35.161  20.320  25.105  1.00  0.00     0.274 C 
ENDROOT
BRANCH   1   2
ATOM      2  O   UNL A   1      34.388  21.318  24.406  1.00  0.00    -0.460 OA
BRANCH   2   3
ATOM      3  C   UNL A   1      33.152  21.597  24.920  1.00  0.00     0.331 C 
ATOM      4  O   UNL A   1      32.847  21.503  26.102  1.00  0.00    -0.250 OA
BRANCH   3   5
ATOM      5  C   UNL A   1      32.132  21.916  23.812  1.00  0.00     0.218 C 
BRANCH   5   6
ATOM      6  N   UNL A   1      32.452  23.154  23.087  1.00  0.00    -0.339 N 
ATOM      7  C   UNL A   1      31.863  24.367  22.988  1.00  0.00     0.244 C 
ATOM      8  O   UNL A   1      32.513  25.226  22.376  1.00  0.00    -0.273 OA
ATOM      9  H   UNL A   1      33.279  23.084  22.556  1.00  0.00     0.164 HD
BRANCH   7  10
ATOM     10  C   UNL A   1      30.524  24.768  23.647  1.00  0.00     0.181 C 
BRANCH  10  11
ATOM     11  N   UNL A   1      30.299  24.264  25.007  1.00  0.00    -0.339 N 
ATOM     12  O   UNL A   1      30.854  23.908  27.160  1.00  0.00    -0.269 OA
ATOM     13  C   UNL A   1      30.965  24.612  26.162  1.00  0.00     0.251 C 
ATOM     14  H   UNL A   1      29.584  23.594  25.107  1.00  0.00     0.164 HD
BRANCH  13  15
ATOM     15  C   UNL A   1      31.851  25.800  26.193  1.00  0.00     0.040 A 
ATOM     16  C   UNL A   1      33.195  25.694  25.813  1.00  0.00     0.017 A 
ATOM     17  C   UNL A   1      31.320  27.046  26.554  1.00  0.00     0.017 A 
ATOM     18  C   UNL A   1      34.021  26.817  25.859  1.00  0.00     0.040 A 
ATOM     19  C   UNL A   1      32.150  28.172  26.584  1.00  0.00     0.040 A 
ATOM     20  C   UNL A   1      33.493  28.045  26.245  1.00  0.00     0.123 A 
ATOM     21  F   UNL A   1      34.292  29.119  26.277  1.00  0.00    -0.207 F 
ENDBRANCH  13  15
ENDBRANCH  10  11
BRANCH  10  22
ATOM     22  C   UNL A   1      30.233  26.269  23.470  1.00  0.00     0.101 C 
BRANCH  22  23
ATOM     23  S   UNL A   1      28.531  26.754  23.873  1.00  0.00    -0.177 SA
ATOM     24  H   UNL A   1      28.527  27.481  25.023  1.00  0.00     0.102 HD
ENDBRANCH  22  23
ENDBRANCH  10  22
ENDBRANCH   7  10
ENDBRANCH   5   6
BRANCH   5  25
ATOM     25  C   UNL A   1      32.130  20.720  22.847  1.00  0.00     0.193 C 
BRANCH  25  26
ATOM     26  O   UNL A   1      31.675  21.103  21.545  1.00  0.00    -0.394 OA
ATOM     27  H   UNL A   1      31.681  22.071  21.472  1.00  0.00     0.210 HD
ENDBRANCH  25  26
ENDBRANCH   5  25
ENDBRANCH   3   5
ENDBRANCH   2   3
ENDBRANCH   1   2
BRANCH   1  28
ATOM     28  C   UNL A   1      36.606  20.324  24.619  1.00  0.00     0.275 C 
BRANCH  28  29
ATOM     29  O   UNL A   1      37.291  21.443  25.203  1.00  0.00    -0.458 OA
BRANCH  29  30
ATOM     30  C   UNL A   1      38.531  21.203  25.681  1.00  0.00     0.338 C 
ATOM     31  O   UNL A   1      39.203  20.191  25.499  1.00  0.00    -0.246 OA
BRANCH  30  32
ATOM     32  C   UNL A   1      39.026  22.368  26.440  1.00  0.00     0.060 A 
ATOM     33  C   UNL A   1      38.506  23.636  26.201  1.00  0.00     0.016 A 
ATOM     34  C   UNL A   1      40.125  22.224  27.290  1.00  0.00     0.016 A 
ATOM     35  C   UNL A   1      39.177  24.757  26.699  1.00  0.00     0.010 A 
ATOM     36  C   UNL A   1      40.727  23.354  27.864  1.00  0.00     0.010 A 
ATOM     37  C   UNL A   1      40.314  24.652  27.520  1.00  0.00    -0.014 A 
BRANCH  37  38
ATOM     38  C   UNL A   1      41.106  25.864  27.941  1.00  0.00     0.031 A 
ATOM     39  C   UNL A   1      40.487  26.935  28.822  1.00  0.00     0.074 A 
ATOM     40  C   UNL A   1      42.397  26.034  27.577  1.00  0.00     0.049 A 
ATOM     41  N   UNL A   1      40.885  28.166  29.038  1.00  0.00    -0.248 NA
ATOM     42  C   UNL A   1      39.247  26.589  29.539  1.00  0.00     0.031 C 
ATOM     43  C   UNL A   1      43.188  25.101  26.777  1.00  0.00     0.029 A 
ATOM     44  N   UNL A   1      43.278  27.063  27.836  1.00  0.00    -0.354 N 
ATOM     45  C   UNL A   1      39.890  28.772  29.801  1.00  0.00     0.074 A 
ATOM     46  C   UNL A   1      38.885  27.760  30.050  1.00  0.00     0.031 C 
ATOM     47  C   UNL A   1      44.443  25.555  26.672  1.00  0.00     0.029 A 
ATOM     48  C   UNL A   1      44.511  26.890  27.250  1.00  0.00     0.049 A 
ATOM     49  H   UNL A   1      43.047  27.846  28.387  1.00  0.00     0.167 HD
ATOM     50  C   UNL A   1      39.817  30.049  30.253  1.00  0.00     0.034 A 
ATOM     51  C   UNL A   1      45.561  27.723  27.103  1.00  0.00     0.034 A 
ATOM     52  C   UNL A   1      40.879  31.017  30.133  1.00  0.00     0.049 A 
ATOM     53  C   UNL A   1      45.472  29.126  27.622  1.00  0.00     0.074 A 
ATOM     54  C   UNL A   1      40.910  32.321  30.601  1.00  0.00     0.029 A 
ATOM     55  N   UNL A   1      42.107  30.782  29.538  1.00  0.00    -0.354 N 
ATOM     56  N   UNL A   1      44.499  29.699  28.286  1.00  0.00    -0.248 NA
ATOM     57  C   UNL A   1      46.621  30.004  27.360  1.00  0.00     0.031 C 
ATOM     58  C   UNL A   1      42.156  32.874  30.288  1.00  0.00     0.029 A 
ATOM     59  C   UNL A   1      42.906  31.910  29.636  1.00  0.00     0.049 A 
ATOM     60  H   UNL A   1      42.374  29.937  29.109  1.00  0.00     0.167 HD
ATOM     61  C   UNL A   1      44.918  31.001  28.522  1.00  0.00     0.074 A 
ATOM     62  C   UNL A   1      46.249  31.124  27.965  1.00  0.00     0.031 C 
ATOM     63  C   UNL A   1      44.246  32.014  29.122  1.00  0.00     0.034 A 
BRANCH  50  64
ATOM     64  C   UNL A   1      38.555  30.497  30.948  1.00  0.00     0.023 A 
ATOM     65  C   UNL A   1      38.426  30.367  32.345  1.00  0.00     0.012 A 
ATOM     66  C   UNL A   1      37.539  31.157  30.223  1.00  0.00     0.148 A 
ATOM     67  C   UNL A   1      37.301  30.864  33.004  1.00  0.00     0.002 A 
ATOM     68  C   UNL A   1      36.441  31.688  30.892  1.00  0.00     0.091 A 
ATOM     69  F   UNL A   1      37.667  31.258  28.891  1.00  0.00    -0.205 F 
ATOM     70  C   UNL A   1      36.317  31.535  32.281  1.00  0.00     0.022 A 
BRANCH  68  71
ATOM     71  S   UNL A   1      35.172  32.650  30.054  1.00  0.00     0.127 S 
ATOM     72  O   UNL A   1      34.686  31.694  29.061  1.00  0.00    -0.237 OA
ATOM     73  O   UNL A   1      34.231  32.934  31.138  1.00  0.00    -0.237 OA
ATOM     74  O   UNL A   1      35.850  33.823  29.521  1.00  0.00    -0.744 OA
ENDBRANCH  68  71
ENDBRANCH  50  64
BRANCH  51  75
ATOM     75  C   UNL A   1      46.774  27.246  26.377  1.00  0.00     0.023 A 
ATOM     76  C   UNL A   1      46.961  27.593  25.027  1.00  0.00     0.012 A 
ATOM     77  C   UNL A   1      47.782  26.524  27.046  1.00  0.00     0.148 A 
ATOM     78  C   UNL A   1      48.134  27.233  24.359  1.00  0.00     0.002 A 
ATOM     79  C   UNL A   1      48.981  26.246  26.402  1.00  0.00     0.091 A 
ATOM     80  F   UNL A   1      47.569  26.161  28.320  1.00  0.00    -0.205 F 
ATOM     81  C   UNL A   1      49.153  26.584  25.053  1.00  0.00     0.022 A 
BRANCH  79  82
ATOM     82  S   UNL A   1      50.400  25.603  27.298  1.00  0.00     0.127 S 
ATOM     83  O   UNL A   1      50.535  26.571  28.383  1.00  0.00    -0.237 OA
ATOM     84  O   UNL A   1      49.934  24.278  27.706  1.00  0.00    -0.237 OA
ATOM     85  O   UNL A   1      51.484  25.575  26.323  1.00  0.00    -0.744 OA
ENDBRANCH  79  82
ENDBRANCH  51  75
BRANCH  63  86
ATOM     86  C   UNL A   1      44.948  33.340  29.231  1.00  0.00     0.023 A 
ATOM     87  C   UNL A   1      45.790  33.592  30.333  1.00  0.00     0.012 A 
ATOM     88  C   UNL A   1      44.805  34.320  28.230  1.00  0.00     0.148 A 
ATOM     89  C   UNL A   1      46.453  34.813  30.453  1.00  0.00     0.002 A 
ATOM     90  C   UNL A   1      45.500  35.519  28.337  1.00  0.00     0.091 A 
ATOM     91  F   UNL A   1      43.982  34.068  27.201  1.00  0.00    -0.205 F 
ATOM     92  C   UNL A   1      46.316  35.772  29.452  1.00  0.00     0.022 A 
BRANCH  90  93
ATOM     93  S   UNL A   1      45.438  36.780  27.059  1.00  0.00     0.127 S 
ATOM     94  O   UNL A   1      46.187  36.144  25.976  1.00  0.00    -0.237 OA
ATOM     95  O   UNL A   1      44.001  36.907  26.814  1.00  0.00    -0.237 OA
ATOM     96  O   UNL A   1      46.056  37.965  27.639  1.00  0.00    -0.744 OA
ENDBRANCH  90  93
ENDBRANCH  63  86
ENDBRANCH  37  38
ENDBRANCH  30  32
ENDBRANCH  29  30
ENDBRANCH  28  29
ENDBRANCH   1  28
TORSDOF 22
ENDMDL
MODEL 3
REMARK VINA RESULT:     -10.8      4.829     10.023
REMARK SMILES O=C(N[C@@H](CS)C(=O)N[C@@H](CO)C(=O)OCCOC(=O)c1ccc(-c2c3nc(c(-c4cccc(S(=O)(=O)[O-])c4F)c4ccc([nH]4)c(-c4cccc(S(=O)(=O)[O-])c4F)c4nc(c(-c5cccc(S(=O)(=O)[O-])c5F)c5ccc2[nH]5)C=C4)C=C3)cc1)c1ccc(F)cc1
REMARK SMILES IDX 16 1 15 2 13 3 14 4 10 5 9 6 7 7 8 8 4 10 3 11 1 12 2 13
REMARK SMILES IDX 84 15 85 16 90 17 86 18 89 19 87 20 88 21 5 22 6 23 11 25
REMARK SMILES IDX 12 26 17 28 18 29 19 30 20 31 21 32 22 33 83 34 23 35 82 36
REMARK SMILES IDX 24 37 25 38 26 39 76 40 27 41 81 42 75 43 77 44 28 45 80 46
REMARK SMILES IDX 74 47 73 48 29 50 61 51 41 52 60 53 42 54 45 55 59 56 78 57
REMARK SMILES IDX 43 58 44 59 58 61 79 62 46 63 30 64 31 65 39 66 32 67 34 68
REMARK SMILES IDX 40 69 33 70 35 71 36 72 37 73 38 74 62 75 63 76 71 77 64 78
REMARK SMILES IDX 66 79 72 80 65 81 67 82 68 83 69 84 70 85 47 86 48 87 56 88
REMARK SMILES IDX 49 89 51 90 57 91 50 92 52 93 53 94 54 95 55 96
REMARK H PARENT 9 9 3 14 6 24 12 27 77 49 45 60
REMARK Flexibility Score: inf
ROOT
ATOM      1  C   UNL A   1      34.823  21.336  24.534  1.00  0.00     0.274 C 
ENDROOT
BRANCH   1   2
ATOM      2  O   UNL A   1      34.941  22.744  24.827  1.00  0.00    -0.460 OA
BRANCH   2   3
ATOM      3  C   UNL A   1      34.029  23.260  25.705  1.00  0.00     0.331 C 
ATOM      4  O   UNL A   1      34.031  23.063  26.913  1.00  0.00    -0.250 OA
BRANCH   3   5
ATOM      5  C   UNL A   1      32.903  24.017  24.980  1.00  0.00     0.218 C 
BRANCH   5   6
ATOM      6  N   UNL A   1      33.159  24.171  23.541  1.00  0.00    -0.339 N 
ATOM      7  C   UNL A   1      32.952  25.166  22.648  1.00  0.00     0.244 C 
ATOM      8  O   UNL A   1      33.434  24.980  21.522  1.00  0.00    -0.273 OA
ATOM      9  H   UNL A   1      33.574  23.375  23.137  1.00  0.00     0.164 HD
BRANCH   7  10
ATOM     10  C   UNL A   1      32.261  26.515  22.955  1.00  0.00     0.181 C 
BRANCH  10  11
ATOM     11  N   UNL A   1      32.011  26.802  24.372  1.00  0.00    -0.339 N 
ATOM     12  O   UNL A   1      31.270  28.051  26.093  1.00  0.00    -0.269 OA
ATOM     13  C   UNL A   1      31.162  27.745  24.910  1.00  0.00     0.251 C 
ATOM     14  H   UNL A   1      32.511  26.253  25.019  1.00  0.00     0.164 HD
BRANCH  13  15
ATOM     15  C   UNL A   1      30.156  28.424  24.061  1.00  0.00     0.040 A 
ATOM     16  C   UNL A   1      29.045  27.723  23.576  1.00  0.00     0.017 A 
ATOM     17  C   UNL A   1      30.295  29.792  23.788  1.00  0.00     0.017 A 
ATOM     18  C   UNL A   1      28.111  28.370  22.767  1.00  0.00     0.040 A 
ATOM     19  C   UNL A   1      29.349  30.440  22.987  1.00  0.00     0.040 A 
ATOM     20  C   UNL A   1      28.272  29.721  22.477  1.00  0.00     0.123 A 
ATOM     21  F   UNL A   1      27.366  30.337  21.707  1.00  0.00    -0.207 F 
ENDBRANCH  13  15
ENDBRANCH  10  11
BRANCH  10  22
ATOM     22  C   UNL A   1      32.911  27.672  22.177  1.00  0.00     0.101 C 
BRANCH  22  23
ATOM     23  S   UNL A   1      34.199  28.561  23.096  1.00  0.00    -0.177 SA
ATOM     24  H   UNL A   1      33.689  29.723  23.583  1.00  0.00     0.102 HD
ENDBRANCH  22  23
ENDBRANCH  10  22
ENDBRANCH   7  10
ENDBRANCH   5   6
BRANCH   5  25
ATOM     25  C   UNL A   1      31.609  23.219  25.206  1.00  0.00     0.193 C 
BRANCH  25  26
ATOM     26  O   UNL A   1      30.451  24.034  24.995  1.00  0.00    -0.394 OA
ATOM     27  H   UNL A   1      30.533  24.852  25.511  1.00  0.00     0.210 HD
ENDBRANCH  25  26
ENDBRANCH   5  25
ENDBRANCH   3   5
ENDBRANCH   2   3
ENDBRANCH   1   2
BRANCH   1  28
ATOM     28  C   UNL A   1      36.062  20.584  25.005  1.00  0.00     0.275 C 
BRANCH  28  29
ATOM     29  O   UNL A   1      37.222  21.396  24.758  1.00  0.00    -0.458 OA
BRANCH  29  30
ATOM     30  C   UNL A   1      38.353  21.035  25.401  1.00  0.00     0.338 C 
ATOM     31  O   UNL A   1      38.917  19.946  25.335  1.00  0.00    -0.246 OA
BRANCH  30  32
ATOM     32  C   UNL A   1      38.884  22.166  26.186  1.00  0.00     0.060 A 
ATOM     33  C   UNL A   1      38.350  23.442  26.033  1.00  0.00     0.016 A 
ATOM     34  C   UNL A   1      40.025  21.988  26.972  1.00  0.00     0.016 A 
ATOM     35  C   UNL A   1      39.043  24.541  26.548  1.00  0.00     0.010 A 
ATOM     36  C   UNL A   1      40.653  23.093  27.567  1.00  0.00     0.010 A 
ATOM     37  C   UNL A   1      40.220  24.404  27.305  1.00  0.00    -0.014 A 
BRANCH  37  38
ATOM     38  C   UNL A   1      41.030  25.598  27.740  1.00  0.00     0.031 A 
ATOM     39  C   UNL A   1      40.428  26.666  28.638  1.00  0.00     0.074 A 
ATOM     40  C   UNL A   1      42.323  25.755  27.376  1.00  0.00     0.049 A 
ATOM     41  N   UNL A   1      40.843  27.888  28.869  1.00  0.00    -0.248 NA
ATOM     42  C   UNL A   1      39.185  26.327  29.353  1.00  0.00     0.031 C 
ATOM     43  C   UNL A   1      43.099  24.823  26.561  1.00  0.00     0.029 A 
ATOM     44  N   UNL A   1      43.218  26.768  27.647  1.00  0.00    -0.354 N 
ATOM     45  C   UNL A   1      39.859  28.497  29.643  1.00  0.00     0.074 A 
ATOM     46  C   UNL A   1      38.840  27.496  29.880  1.00  0.00     0.031 C 
ATOM     47  C   UNL A   1      44.360  25.260  26.459  1.00  0.00     0.029 A 
ATOM     48  C   UNL A   1      44.448  26.586  27.056  1.00  0.00     0.049 A 
ATOM     49  H   UNL A   1      42.999  27.547  28.210  1.00  0.00     0.167 HD
ATOM     50  C   UNL A   1      39.805  29.768  30.113  1.00  0.00     0.034 A 
ATOM     51  C   UNL A   1      45.509  27.406  26.918  1.00  0.00     0.034 A 
ATOM     52  C   UNL A   1      40.880  30.723  30.004  1.00  0.00     0.049 A 
ATOM     53  C   UNL A   1      45.441  28.803  27.457  1.00  0.00     0.074 A 
ATOM     54  C   UNL A   1      40.931  32.020  30.490  1.00  0.00     0.029 A 
ATOM     55  N   UNL A   1      42.104  30.479  29.403  1.00  0.00    -0.354 N 
ATOM     56  N   UNL A   1      44.477  29.380  28.131  1.00  0.00    -0.248 NA
ATOM     57  C   UNL A   1      46.602  29.669  27.204  1.00  0.00     0.031 C 
ATOM     58  C   UNL A   1      42.184  32.559  30.182  1.00  0.00     0.029 A 
ATOM     59  C   UNL A   1      42.918  31.595  29.515  1.00  0.00     0.049 A 
ATOM     60  H   UNL A   1      42.357  29.637  28.962  1.00  0.00     0.167 HD
ATOM     61  C   UNL A   1      44.915  30.673  28.384  1.00  0.00     0.074 A 
ATOM     62  C   UNL A   1      46.246  30.785  27.826  1.00  0.00     0.031 C 
ATOM     63  C   UNL A   1      44.259  31.687  29.000  1.00  0.00     0.034 A 
BRANCH  50  64
ATOM     64  C   UNL A   1      38.550  30.224  30.817  1.00  0.00     0.023 A 
ATOM     65  C   UNL A   1      38.411  30.049  32.208  1.00  0.00     0.012 A 
ATOM     66  C   UNL A   1      37.556  30.935  30.111  1.00  0.00     0.148 A 
ATOM     67  C   UNL A   1      37.294  30.552  32.878  1.00  0.00     0.002 A 
ATOM     68  C   UNL A   1      36.468  31.471  30.792  1.00  0.00     0.091 A 
ATOM     69  F   UNL A   1      37.694  31.079  28.784  1.00  0.00    -0.205 F 
ATOM     70  C   UNL A   1      36.332  31.273  32.175  1.00  0.00     0.022 A 
BRANCH  68  71
ATOM     71  S   UNL A   1      35.229  32.493  29.982  1.00  0.00     0.127 S 
ATOM     72  O   UNL A   1      36.033  33.629  29.534  1.00  0.00    -0.237 OA
ATOM     73  O   UNL A   1      34.759  31.619  28.908  1.00  0.00    -0.237 OA
ATOM     74  O   UNL A   1      34.231  32.789  31.000  1.00  0.00    -0.744 OA
ENDBRANCH  68  71
ENDBRANCH  50  64
BRANCH  51  75
ATOM     75  C   UNL A   1      46.713  26.922  26.182  1.00  0.00     0.023 A 
ATOM     76  C   UNL A   1      46.841  27.179  24.805  1.00  0.00     0.012 A 
ATOM     77  C   UNL A   1      47.771  26.286  26.863  1.00  0.00     0.148 A 
ATOM     78  C   UNL A   1      48.003  26.815  24.121  1.00  0.00     0.002 A 
ATOM     79  C   UNL A   1      48.957  26.006  26.196  1.00  0.00     0.091 A 
ATOM     80  F   UNL A   1      47.616  26.008  28.166  1.00  0.00    -0.205 F 
ATOM     81  C   UNL A   1      49.069  26.253  24.821  1.00  0.00     0.022 A 
BRANCH  79  82
ATOM     82  S   UNL A   1      50.429  25.481  27.081  1.00  0.00     0.127 S 
ATOM     83  O   UNL A   1      50.663  26.611  27.975  1.00  0.00    -0.237 OA
ATOM     84  O   UNL A   1      49.974  24.256  27.739  1.00  0.00    -0.237 OA
ATOM     85  O   UNL A   1      51.435  25.258  26.049  1.00  0.00    -0.744 OA
ENDBRANCH  79  82
ENDBRANCH  51  75
BRANCH  63  86
ATOM     86  C   UNL A   1      44.980  33.001  29.126  1.00  0.00     0.023 A 
ATOM     87  C   UNL A   1      45.818  33.230  30.235  1.00  0.00     0.012 A 
ATOM     88  C   UNL A   1      44.858  33.992  28.133  1.00  0.00     0.148 A 
ATOM     89  C   UNL A   1      46.498  34.440  30.371  1.00  0.00     0.002 A 
ATOM     90  C   UNL A   1      45.569  35.180  28.255  1.00  0.00     0.091 A 
ATOM     91  F   UNL A   1      44.038  33.762  27.096  1.00  0.00    -0.205 F 
ATOM     92  C   UNL A   1      46.381  35.410  29.377  1.00  0.00     0.022 A 
BRANCH  90  93
ATOM     93  S   UNL A   1      45.535  36.453  26.988  1.00  0.00     0.127 S 
ATOM     94  O   UNL A   1      46.124  35.755  25.847  1.00  0.00    -0.237 OA
ATOM     95  O   UNL A   1      44.103  36.729  26.861  1.00  0.00    -0.237 OA
ATOM     96  O   UNL A   1      46.315  37.563  27.518  1.00  0.00    -0.744 OA
ENDBRANCH  90  93
ENDBRANCH  63  86
ENDBRANCH  37  38
ENDBRANCH  30  32
ENDBRANCH  29  30
ENDBRANCH  28  29
ENDBRANCH   1  28
TORSDOF 22
ENDMDL
