MODEL 1
REMARK VINA RESULT:     -12.4      0.000      0.000
REMARK SMILES Cc1ccc(OCC(=O)NNC(=O)[C@H]2CCCC[C@@H]2C(=O)OCCOC(=O)c2ccc(-c3c4nc(c(-c5cccc(S(=O)(=O)[O-])c5F)c5ccc([nH]5)c(-c5cccc(S(=O)(=O)[O-])c5F)c5nc(c(-c6cccc(S(=O)(=O)[O-])c6F)c6ccc3[nH]6)C=C5)C=C4)cc2)cc1
REMARK SMILES IDX 23 1 22 2 20 3 21 4 19 5 14 6 15 7 16 8 18 9 17 10 12 11
REMARK SMILES IDX 11 12 13 14 10 15 8 16 9 17 7 19 6 20 5 21 1 22 2 23 3 24
REMARK SMILES IDX 92 25 4 26 91 27 24 28 25 29 26 30 27 31 28 32 29 33 90 34
REMARK SMILES IDX 30 35 89 36 31 37 32 38 33 39 83 40 34 41 88 42 82 43 84 44
REMARK SMILES IDX 35 45 87 46 81 47 80 48 36 50 68 51 48 52 67 53 49 54 52 55
REMARK SMILES IDX 66 56 85 57 50 58 51 59 65 61 86 62 53 63 37 64 38 65 46 66
REMARK SMILES IDX 39 67 41 68 47 69 40 70 42 71 43 72 44 73 45 74 69 75 70 76
REMARK SMILES IDX 78 77 71 78 73 79 79 80 72 81 74 82 75 83 76 84 77 85 54 86
REMARK SMILES IDX 55 87 63 88 56 89 58 90 64 91 57 92 59 93 60 94 61 95 62 96
REMARK H PARENT 11 13 10 18 84 49 52 60
REMARK Flexibility Score: inf
ROOT
ATOM      1  C   UNL A   1      32.977  30.228  26.996  1.00  0.00     0.274 C 
ENDROOT
BRANCH   1   2
ATOM      2  O   UNL A   1      32.951  28.802  27.019  1.00  0.00    -0.462 OA
BRANCH   2   3
ATOM      3  C   UNL A   1      32.361  28.274  25.944  1.00  0.00     0.309 C 
ATOM      4  O   UNL A   1      31.849  28.989  25.080  1.00  0.00    -0.252 OA
BRANCH   3   5
ATOM      5  C   UNL A   1      32.365  26.685  25.832  1.00  0.00     0.111 C 
ATOM      6  C   UNL A   1      31.476  24.829  26.738  1.00  0.00     0.094 C 
ATOM      7  C   UNL A   1      32.820  23.408  26.988  1.00  0.00     0.014 C 
ATOM      8  C   UNL A   1      34.304  23.443  25.973  1.00  0.00     0.001 C 
ATOM      9  C   UNL A   1      34.145  26.453  25.120  1.00  0.00     0.016 C 
ATOM     10  C   UNL A   1      34.895  24.858  25.088  1.00  0.00     0.001 C 
BRANCH   6  11
ATOM     11  C   UNL A   1      30.634  23.471  25.867  1.00  0.00     0.242 C 
ATOM     12  N   UNL A   1      30.504  23.316  24.535  1.00  0.00    -0.267 N 
ATOM     13  H   UNL A   1      29.647  22.946  24.221  1.00  0.00     0.191 HD
ATOM     14  O   UNL A   1      30.089  22.517  26.466  1.00  0.00    -0.273 OA
BRANCH  12  15
ATOM     15  N   UNL A   1      31.425  23.609  23.571  1.00  0.00    -0.265 N 
ATOM     16  C   UNL A   1      32.313  22.655  23.118  1.00  0.00     0.276 C 
ATOM     17  O   UNL A   1      33.026  22.871  22.133  1.00  0.00    -0.269 OA
ATOM     18  H   UNL A   1      31.455  24.516  23.190  1.00  0.00     0.191 HD
BRANCH  16  19
ATOM     19  C   UNL A   1      32.336  21.258  23.804  1.00  0.00     0.331 C 
BRANCH  19  20
ATOM     20  O   UNL A   1      32.533  20.066  23.064  1.00  0.00    -0.484 OA
BRANCH  20  21
ATOM     21  C   UNL A   1      32.741  18.908  23.759  1.00  0.00     0.120 A 
ATOM     22  C   UNL A   1      33.072  15.008  25.577  1.00  0.00     0.044 C 
ATOM     23  C   UNL A   1      33.005  16.369  24.952  1.00  0.00    -0.051 A 
ATOM     24  C   UNL A   1      33.233  16.533  23.582  1.00  0.00     0.007 A 
ATOM     25  C   UNL A   1      32.681  17.493  25.720  1.00  0.00     0.007 A 
ATOM     26  C   UNL A   1      33.093  17.794  22.991  1.00  0.00     0.047 A 
ATOM     27  C   UNL A   1      32.553  18.754  25.129  1.00  0.00     0.047 A 
ENDBRANCH  20  21
ENDBRANCH  19  20
ENDBRANCH  16  19
ENDBRANCH  12  15
ENDBRANCH   6  11
ENDBRANCH   3   5
ENDBRANCH   2   3
ENDBRANCH   1   2
BRANCH   1  28
ATOM     28  C   UNL A   1      34.089  30.990  27.820  1.00  0.00     0.275 C 
BRANCH  28  29
ATOM     29  O   UNL A   1      34.194  32.469  27.734  1.00  0.00    -0.458 OA
BRANCH  29  30
ATOM     30  C   UNL A   1      34.109  33.374  28.798  1.00  0.00     0.338 C 
ATOM     31  O   UNL A   1      33.392  34.357  28.790  1.00  0.00    -0.246 OA
BRANCH  30  32
ATOM     32  C   UNL A   1      35.150  33.057  29.872  1.00  0.00     0.060 A 
ATOM     33  C   UNL A   1      34.894  32.006  31.256  1.00  0.00     0.016 A 
ATOM     34  C   UNL A   1      36.584  33.185  29.083  1.00  0.00     0.016 A 
ATOM     35  C   UNL A   1      36.276  30.865  31.717  1.00  0.00     0.010 A 
ATOM     36  C   UNL A   1      37.777  32.199  29.296  1.00  0.00     0.010 A 
ATOM     37  C   UNL A   1      37.859  31.002  30.555  1.00  0.00    -0.014 A 
BRANCH  37  38
ATOM     38  C   UNL A   1      39.356  30.612  30.248  1.00  0.00     0.031 A 
ATOM     39  C   UNL A   1      39.861  29.522  29.423  1.00  0.00     0.074 A 
ATOM     40  C   UNL A   1      40.444  31.234  30.839  1.00  0.00     0.049 A 
ATOM     41  N   UNL A   1      40.644  28.612  29.918  1.00  0.00    -0.248 NA
ATOM     42  C   UNL A   1      39.592  29.413  28.002  1.00  0.00     0.031 C 
ATOM     43  C   UNL A   1      41.796  31.311  30.273  1.00  0.00     0.029 A 
ATOM     44  N   UNL A   1      40.552  32.040  31.988  1.00  0.00    -0.354 N 
ATOM     45  C   UNL A   1      41.051  27.869  28.846  1.00  0.00     0.074 A 
ATOM     46  C   UNL A   1      40.196  28.254  27.736  1.00  0.00     0.031 C 
ATOM     47  C   UNL A   1      42.589  32.042  31.071  1.00  0.00     0.029 A 
ATOM     48  C   UNL A   1      41.860  32.410  32.269  1.00  0.00     0.049 A 
ATOM     49  H   UNL A   1      39.780  32.313  32.536  1.00  0.00     0.167 HD
ATOM     50  C   UNL A   1      42.285  27.309  28.756  1.00  0.00     0.034 A 
ATOM     51  C   UNL A   1      42.396  32.731  33.479  1.00  0.00     0.034 A 
ATOM     52  C   UNL A   1      43.275  28.005  29.583  1.00  0.00     0.049 A 
ATOM     53  C   UNL A   1      43.417  31.684  33.844  1.00  0.00     0.074 A 
ATOM     54  C   UNL A   1      44.208  28.980  29.259  1.00  0.00     0.029 A 
ATOM     55  N   UNL A   1      43.281  27.922  30.967  1.00  0.00    -0.354 N 
ATOM     56  N   UNL A   1      44.003  30.911  32.976  1.00  0.00    -0.248 NA
ATOM     57  C   UNL A   1      43.723  31.302  35.218  1.00  0.00     0.031 C 
ATOM     58  C   UNL A   1      44.858  29.401  30.444  1.00  0.00     0.029 A 
ATOM     59  C   UNL A   1      44.326  28.682  31.499  1.00  0.00     0.049 A 
ATOM     60  H   UNL A   1      42.640  27.400  31.501  1.00  0.00     0.167 HD
ATOM     61  C   UNL A   1      44.404  29.765  33.621  1.00  0.00     0.074 A 
ATOM     62  C   UNL A   1      44.311  30.110  35.031  1.00  0.00     0.031 C 
ATOM     63  C   UNL A   1      44.644  28.607  32.926  1.00  0.00     0.034 A 
BRANCH  50  64
ATOM     64  C   UNL A   1      42.626  26.494  27.531  1.00  0.00     0.023 A 
ATOM     65  C   UNL A   1      42.822  27.144  26.301  1.00  0.00     0.012 A 
ATOM     66  C   UNL A   1      42.733  25.081  27.540  1.00  0.00     0.148 A 
ATOM     67  C   UNL A   1      42.962  26.426  25.112  1.00  0.00     0.002 A 
ATOM     68  C   UNL A   1      42.779  24.365  26.348  1.00  0.00     0.091 A 
ATOM     69  F   UNL A   1      42.764  24.433  28.716  1.00  0.00    -0.205 F 
ATOM     70  C   UNL A   1      42.891  25.039  25.129  1.00  0.00     0.022 A 
BRANCH  68  71
ATOM     71  S   UNL A   1      42.515  22.585  26.291  1.00  0.00     0.127 S 
ATOM     72  O   UNL A   1      41.179  22.452  26.879  1.00  0.00    -0.237 OA
ATOM     73  O   UNL A   1      42.580  22.298  24.861  1.00  0.00    -0.237 OA
ATOM     74  O   UNL A   1      43.572  21.998  27.107  1.00  0.00    -0.744 OA
ENDBRANCH  68  71
ENDBRANCH  50  64
BRANCH  51  75
ATOM     75  C   UNL A   1      41.444  33.370  34.423  1.00  0.00     0.023 A 
ATOM     76  C   UNL A   1      41.246  34.766  34.309  1.00  0.00     0.012 A 
ATOM     77  C   UNL A   1      40.491  32.605  35.095  1.00  0.00     0.148 A 
ATOM     78  C   UNL A   1      40.046  35.354  34.719  1.00  0.00     0.002 A 
ATOM     79  C   UNL A   1      39.280  33.186  35.444  1.00  0.00     0.091 A 
ATOM     80  F   UNL A   1      40.700  31.293  35.261  1.00  0.00    -0.205 F 
ATOM     81  C   UNL A   1      39.038  34.551  35.237  1.00  0.00     0.022 A 
BRANCH  79  82
ATOM     82  S   UNL A   1      37.925  32.103  35.861  1.00  0.00     0.127 S 
ATOM     83  O   UNL A   1      36.807  33.040  35.986  1.00  0.00    -0.237 OA
ATOM     84  O   UNL A   1      37.856  31.241  34.689  1.00  0.00    -0.237 OA
ATOM     85  O   UNL A   1      38.365  31.496  37.109  1.00  0.00    -0.744 OA
ENDBRANCH  79  82
ENDBRANCH  51  75
BRANCH  63  86
ATOM     86  C   UNL A   1      45.146  27.284  33.498  1.00  0.00     0.023 A 
ATOM     87  C   UNL A   1      46.487  26.873  33.426  1.00  0.00     0.012 A 
ATOM     88  C   UNL A   1      44.247  26.342  34.075  1.00  0.00     0.148 A 
ATOM     89  C   UNL A   1      46.939  25.674  33.993  1.00  0.00     0.002 A 
ATOM     90  C   UNL A   1      44.694  25.159  34.653  1.00  0.00     0.091 A 
ATOM     91  F   UNL A   1      42.927  26.536  33.993  1.00  0.00    -0.205 F 
ATOM     92  C   UNL A   1      46.046  24.829  34.632  1.00  0.00     0.022 A 
BRANCH  90  93
ATOM     93  S   UNL A   1      43.566  23.997  35.434  1.00  0.00     0.127 S 
ATOM     94  O   UNL A   1      42.937  23.375  34.270  1.00  0.00    -0.237 OA
ATOM     95  O   UNL A   1      44.487  23.128  36.166  1.00  0.00    -0.237 OA
ATOM     96  O   UNL A   1      42.688  24.794  36.277  1.00  0.00    -0.744 OA
ENDBRANCH  90  93
ENDBRANCH  63  86
ENDBRANCH  37  38
ENDBRANCH  30  32
ENDBRANCH  29  30
ENDBRANCH  28  29
ENDBRANCH   1  28
TORSDOF 19
ENDMDL
MODEL 2
REMARK VINA RESULT:     -12.3      3.544      8.831
REMARK SMILES Cc1ccc(OCC(=O)NNC(=O)[C@H]2CCCC[C@@H]2C(=O)OCCOC(=O)c2ccc(-c3c4nc(c(-c5cccc(S(=O)(=O)[O-])c5F)c5ccc([nH]5)c(-c5cccc(S(=O)(=O)[O-])c5F)c5nc(c(-c6cccc(S(=O)(=O)[O-])c6F)c6ccc3[nH]6)C=C5)C=C4)cc2)cc1
REMARK SMILES IDX 23 1 22 2 20 3 21 4 19 5 14 6 15 7 16 8 18 9 17 10 12 11
REMARK SMILES IDX 11 12 13 14 10 15 8 16 9 17 7 19 6 20 5 21 1 22 2 23 3 24
REMARK SMILES IDX 92 25 4 26 91 27 24 28 25 29 26 30 27 31 28 32 29 33 90 34
REMARK SMILES IDX 30 35 89 36 31 37 32 38 33 39 83 40 34 41 88 42 82 43 84 44
REMARK SMILES IDX 35 45 87 46 81 47 80 48 36 50 68 51 48 52 67 53 49 54 52 55
REMARK SMILES IDX 66 56 85 57 50 58 51 59 65 61 86 62 53 63 37 64 38 65 46 66
REMARK SMILES IDX 39 67 41 68 47 69 40 70 42 71 43 72 44 73 45 74 69 75 70 76
REMARK SMILES IDX 78 77 71 78 73 79 79 80 72 81 74 82 75 83 76 84 77 85 54 86
REMARK SMILES IDX 55 87 63 88 56 89 58 90 64 91 57 92 59 93 60 94 61 95 62 96
REMARK H PARENT 11 13 10 18 84 49 52 60
REMARK Flexibility Score: inf
ROOT
ATOM      1  C   UNL A   1      42.067  22.716  25.430  1.00  0.00     0.274 C 
ENDROOT
BRANCH   1   2
ATOM      2  O   UNL A   1      41.614  21.411  25.787  1.00  0.00    -0.462 OA
BRANCH   2   3
ATOM      3  C   UNL A   1      40.534  21.430  26.570  1.00  0.00     0.309 C 
ATOM      4  O   UNL A   1      40.635  21.401  27.799  1.00  0.00    -0.252 OA
BRANCH   3   5
ATOM      5  C   UNL A   1      39.120  21.503  25.841  1.00  0.00     0.111 C 
ATOM      6  C   UNL A   1      37.197  22.667  25.787  1.00  0.00     0.094 C 
ATOM      7  C   UNL A   1      35.620  21.489  25.660  1.00  0.00     0.014 C 
ATOM      8  C   UNL A   1      35.837  19.835  24.988  1.00  0.00     0.001 C 
ATOM      9  C   UNL A   1      38.938  19.636  25.382  1.00  0.00     0.016 C 
ATOM     10  C   UNL A   1      37.388  18.995  24.840  1.00  0.00     0.001 C 
BRANCH   6  11
ATOM     11  C   UNL A   1      36.395  23.405  24.330  1.00  0.00     0.242 C 
ATOM     12  N   UNL A   1      35.278  24.158  24.311  1.00  0.00    -0.267 N 
ATOM     13  H   UNL A   1      34.672  24.019  23.547  1.00  0.00     0.191 HD
ATOM     14  O   UNL A   1      36.845  23.275  23.170  1.00  0.00    -0.273 OA
BRANCH  12  15
ATOM     15  N   UNL A   1      34.889  25.092  25.227  1.00  0.00    -0.265 N 
ATOM     16  C   UNL A   1      33.592  25.562  25.261  1.00  0.00     0.276 C 
ATOM     17  O   UNL A   1      33.201  26.274  26.191  1.00  0.00    -0.269 OA
ATOM     18  H   UNL A   1      35.544  25.437  25.876  1.00  0.00     0.191 HD
BRANCH  16  19
ATOM     19  C   UNL A   1      32.592  25.100  24.162  1.00  0.00     0.331 C 
BRANCH  19  20
ATOM     20  O   UNL A   1      31.580  24.143  24.427  1.00  0.00    -0.484 OA
BRANCH  20  21
ATOM     21  C   UNL A   1      31.894  22.822  24.271  1.00  0.00     0.120 A 
ATOM     22  C   UNL A   1      32.494  18.642  23.386  1.00  0.00     0.044 C 
ATOM     23  C   UNL A   1      32.334  20.099  23.696  1.00  0.00    -0.051 A 
ATOM     24  C   UNL A   1      32.321  21.046  22.667  1.00  0.00     0.007 A 
ATOM     25  C   UNL A   1      32.161  20.535  25.014  1.00  0.00     0.007 A 
ATOM     26  C   UNL A   1      32.095  22.396  22.955  1.00  0.00     0.047 A 
ATOM     27  C   UNL A   1      31.946  21.887  25.300  1.00  0.00     0.047 A 
ENDBRANCH  20  21
ENDBRANCH  19  20
ENDBRANCH  16  19
ENDBRANCH  12  15
ENDBRANCH   6  11
ENDBRANCH   3   5
ENDBRANCH   2   3
ENDBRANCH   1   2
BRANCH   1  28
ATOM     28  C   UNL A   1      42.997  23.508  26.434  1.00  0.00     0.275 C 
BRANCH  28  29
ATOM     29  O   UNL A   1      42.914  24.988  26.511  1.00  0.00    -0.458 OA
BRANCH  29  30
ATOM     30  C   UNL A   1      42.081  25.818  25.750  1.00  0.00     0.338 C 
ATOM     31  O   UNL A   1      42.428  26.353  24.715  1.00  0.00    -0.246 OA
BRANCH  30  32
ATOM     32  C   UNL A   1      40.764  26.089  26.479  1.00  0.00     0.060 A 
ATOM     33  C   UNL A   1      39.772  24.874  27.269  1.00  0.00     0.016 A 
ATOM     34  C   UNL A   1      40.928  27.627  27.032  1.00  0.00     0.016 A 
ATOM     35  C   UNL A   1      39.024  25.325  28.901  1.00  0.00     0.010 A 
ATOM     36  C   UNL A   1      40.451  28.090  28.446  1.00  0.00     0.010 A 
ATOM     37  C   UNL A   1      39.470  27.138  29.521  1.00  0.00    -0.014 A 
BRANCH  37  38
ATOM     38  C   UNL A   1      39.256  28.312  30.553  1.00  0.00     0.031 A 
ATOM     39  C   UNL A   1      38.382  29.472  30.443  1.00  0.00     0.074 A 
ATOM     40  C   UNL A   1      39.991  28.446  31.720  1.00  0.00     0.049 A 
ATOM     41  N   UNL A   1      38.857  30.679  30.501  1.00  0.00    -0.248 NA
ATOM     42  C   UNL A   1      36.939  29.370  30.335  1.00  0.00     0.031 C 
ATOM     43  C   UNL A   1      39.551  29.147  32.931  1.00  0.00     0.029 A 
ATOM     44  N   UNL A   1      41.214  27.879  32.127  1.00  0.00    -0.354 N 
ATOM     45  C   UNL A   1      37.761  31.494  30.538  1.00  0.00     0.074 A 
ATOM     46  C   UNL A   1      36.621  30.658  30.197  1.00  0.00     0.031 C 
ATOM     47  C   UNL A   1      40.477  29.028  33.895  1.00  0.00     0.029 A 
ATOM     48  C   UNL A   1      41.637  28.338  33.368  1.00  0.00     0.049 A 
ATOM     49  H   UNL A   1      41.717  27.225  31.589  1.00  0.00     0.167 HD
ATOM     50  C   UNL A   1      37.725  32.660  31.233  1.00  0.00     0.034 A 
ATOM     51  C   UNL A   1      42.912  28.415  33.839  1.00  0.00     0.034 A 
ATOM     52  C   UNL A   1      38.693  32.683  32.333  1.00  0.00     0.049 A 
ATOM     53  C   UNL A   1      43.266  29.868  34.027  1.00  0.00     0.074 A 
ATOM     54  C   UNL A   1      38.538  32.416  33.687  1.00  0.00     0.029 A 
ATOM     55  N   UNL A   1      40.059  32.790  32.124  1.00  0.00    -0.354 N 
ATOM     56  N   UNL A   1      42.385  30.815  34.169  1.00  0.00    -0.248 NA
ATOM     57  C   UNL A   1      44.621  30.391  33.892  1.00  0.00     0.031 C 
ATOM     58  C   UNL A   1      39.808  32.477  34.311  1.00  0.00     0.029 A 
ATOM     59  C   UNL A   1      40.744  32.785  33.341  1.00  0.00     0.049 A 
ATOM     60  H   UNL A   1      40.487  32.860  31.240  1.00  0.00     0.167 HD
ATOM     61  C   UNL A   1      42.955  31.998  33.764  1.00  0.00     0.074 A 
ATOM     62  C   UNL A   1      44.377  31.699  33.714  1.00  0.00     0.031 C 
ATOM     63  C   UNL A   1      42.180  33.065  33.384  1.00  0.00     0.034 A 
BRANCH  50  64
ATOM     64  C   UNL A   1      36.464  33.491  31.195  1.00  0.00     0.023 A 
ATOM     65  C   UNL A   1      35.681  33.613  32.355  1.00  0.00     0.012 A 
ATOM     66  C   UNL A   1      35.997  34.145  30.028  1.00  0.00     0.148 A 
ATOM     67  C   UNL A   1      34.424  34.218  32.325  1.00  0.00     0.002 A 
ATOM     68  C   UNL A   1      34.707  34.664  29.973  1.00  0.00     0.091 A 
ATOM     69  F   UNL A   1      36.805  34.236  28.959  1.00  0.00    -0.205 F 
ATOM     70  C   UNL A   1      33.916  34.699  31.125  1.00  0.00     0.022 A 
BRANCH  68  71
ATOM     71  S   UNL A   1      33.932  35.138  28.420  1.00  0.00     0.127 S 
ATOM     72  O   UNL A   1      34.474  34.144  27.489  1.00  0.00    -0.237 OA
ATOM     73  O   UNL A   1      32.510  34.985  28.712  1.00  0.00    -0.237 OA
ATOM     74  O   UNL A   1      34.383  36.498  28.147  1.00  0.00    -0.744 OA
ENDBRANCH  68  71
ENDBRANCH  50  64
BRANCH  51  75
ATOM     75  C   UNL A   1      43.826  27.369  33.314  1.00  0.00     0.023 A 
ATOM     76  C   UNL A   1      43.872  26.133  34.003  1.00  0.00     0.012 A 
ATOM     77  C   UNL A   1      44.292  27.427  32.001  1.00  0.00     0.148 A 
ATOM     78  C   UNL A   1      44.227  24.956  33.339  1.00  0.00     0.002 A 
ATOM     79  C   UNL A   1      44.585  26.246  31.333  1.00  0.00     0.091 A 
ATOM     80  F   UNL A   1      44.309  28.604  31.361  1.00  0.00    -0.205 F 
ATOM     81  C   UNL A   1      44.530  25.007  31.984  1.00  0.00     0.022 A 
BRANCH  79  82
ATOM     82  S   UNL A   1      44.716  26.305  29.554  1.00  0.00     0.127 S 
ATOM     83  O   UNL A   1      44.832  24.887  29.206  1.00  0.00    -0.237 OA
ATOM     84  O   UNL A   1      43.447  26.912  29.178  1.00  0.00    -0.237 OA
ATOM     85  O   UNL A   1      45.921  27.094  29.342  1.00  0.00    -0.744 OA
ENDBRANCH  79  82
ENDBRANCH  51  75
BRANCH  63  86
ATOM     86  C   UNL A   1      42.670  34.450  32.968  1.00  0.00     0.023 A 
ATOM     87  C   UNL A   1      42.754  35.536  33.855  1.00  0.00     0.012 A 
ATOM     88  C   UNL A   1      42.999  34.740  31.613  1.00  0.00     0.148 A 
ATOM     89  C   UNL A   1      43.246  36.789  33.467  1.00  0.00     0.002 A 
ATOM     90  C   UNL A   1      43.502  35.977  31.228  1.00  0.00     0.091 A 
ATOM     91  F   UNL A   1      42.743  33.844  30.654  1.00  0.00    -0.205 F 
ATOM     92  C   UNL A   1      43.647  37.002  32.159  1.00  0.00     0.022 A 
BRANCH  90  93
ATOM     93  S   UNL A   1      43.972  36.325  29.528  1.00  0.00     0.127 S 
ATOM     94  O   UNL A   1      42.672  36.316  28.858  1.00  0.00    -0.237 OA
ATOM     95  O   UNL A   1      44.587  37.647  29.649  1.00  0.00    -0.237 OA
ATOM     96  O   UNL A   1      44.891  35.265  29.140  1.00  0.00    -0.744 OA
ENDBRANCH  90  93
ENDBRANCH  63  86
ENDBRANCH  37  38
ENDBRANCH  30  32
ENDBRANCH  29  30
ENDBRANCH  28  29
ENDBRANCH   1  28
TORSDOF 19
ENDMDL
MODEL 3
REMARK VINA RESULT:     -11.8      3.825      9.057
REMARK SMILES Cc1ccc(OCC(=O)NNC(=O)[C@H]2CCCC[C@@H]2C(=O)OCCOC(=O)c2ccc(-c3c4nc(c(-c5cccc(S(=O)(=O)[O-])c5F)c5ccc([nH]5)c(-c5cccc(S(=O)(=O)[O-])c5F)c5nc(c(-c6cccc(S(=O)(=O)[O-])c6F)c6ccc3[nH]6)C=C5)C=C4)cc2)cc1
REMARK SMILES IDX 23 1 22 2 20 3 21 4 19 5 14 6 15 7 16 8 18 9 17 10 12 11
REMARK SMILES IDX 11 12 13 14 10 15 8 16 9 17 7 19 6 20 5 21 1 22 2 23 3 24
REMARK SMILES IDX 92 25 4 26 91 27 24 28 25 29 26 30 27 31 28 32 29 33 90 34
REMARK SMILES IDX 30 35 89 36 31 37 32 38 33 39 83 40 34 41 88 42 82 43 84 44
REMARK SMILES IDX 35 45 87 46 81 47 80 48 36 50 68 51 48 52 67 53 49 54 52 55
REMARK SMILES IDX 66 56 85 57 50 58 51 59 65 61 86 62 53 63 37 64 38 65 46 66
REMARK SMILES IDX 39 67 41 68 47 69 40 70 42 71 43 72 44 73 45 74 69 75 70 76
REMARK SMILES IDX 78 77 71 78 73 79 79 80 72 81 74 82 75 83 76 84 77 85 54 86
REMARK SMILES IDX 55 87 63 88 56 89 58 90 64 91 57 92 59 93 60 94 61 95 62 96
REMARK H PARENT 11 13 10 18 84 49 52 60
REMARK Flexibility Score: inf
ROOT
ATOM      1  C   UNL A   1      37.300  21.897  25.337  1.00  0.00     0.274 C 
ENDROOT
BRANCH   1   2
ATOM      2  O   UNL A   1      36.437  21.717  24.215  1.00  0.00    -0.462 OA
BRANCH   2   3
ATOM      3  C   UNL A   1      36.173  22.857  23.573  1.00  0.00     0.309 C 
ATOM      4  O   UNL A   1      36.978  23.341  22.773  1.00  0.00    -0.252 OA
BRANCH   3   5
ATOM      5  C   UNL A   1      34.772  23.547  23.881  1.00  0.00     0.111 C 
ATOM      6  C   UNL A   1      32.806  24.096  22.937  1.00  0.00     0.094 C 
ATOM      7  C   UNL A   1      32.215  25.905  23.453  1.00  0.00     0.014 C 
ATOM      8  C   UNL A   1      32.854  26.614  24.978  1.00  0.00     0.001 C 
ATOM      9  C   UNL A   1      35.342  24.737  25.290  1.00  0.00     0.016 C 
ATOM     10  C   UNL A   1      34.294  26.045  25.836  1.00  0.00     0.001 C 
BRANCH   6  11
ATOM     11  C   UNL A   1      31.139  23.698  23.549  1.00  0.00     0.242 C 
ATOM     12  N   UNL A   1      30.817  22.820  24.519  1.00  0.00    -0.267 N 
ATOM     13  H   UNL A   1      29.991  22.301  24.379  1.00  0.00     0.191 HD
ATOM     14  O   UNL A   1      30.105  24.245  23.103  1.00  0.00    -0.273 OA
BRANCH  12  15
ATOM     15  N   UNL A   1      31.500  22.568  25.673  1.00  0.00    -0.265 N 
ATOM     16  C   UNL A   1      32.481  21.599  25.724  1.00  0.00     0.276 C 
ATOM     17  O   UNL A   1      33.211  21.489  26.714  1.00  0.00    -0.269 OA
ATOM     18  H   UNL A   1      31.291  23.086  26.483  1.00  0.00     0.191 HD
BRANCH  16  19
ATOM     19  C   UNL A   1      32.727  20.705  24.474  1.00  0.00     0.331 C 
BRANCH  19  20
ATOM     20  O   UNL A   1      33.876  19.884  24.357  1.00  0.00    -0.484 OA
BRANCH  20  21
ATOM     21  C   UNL A   1      33.719  18.536  24.519  1.00  0.00     0.120 A 
ATOM     22  C   UNL A   1      33.005  14.402  25.528  1.00  0.00     0.044 C 
ATOM     23  C   UNL A   1      33.237  15.829  25.133  1.00  0.00    -0.051 A 
ATOM     24  C   UNL A   1      32.218  16.777  25.271  1.00  0.00     0.007 A 
ATOM     25  C   UNL A   1      34.482  16.245  24.650  1.00  0.00     0.007 A 
ATOM     26  C   UNL A   1      32.463  18.123  24.973  1.00  0.00     0.047 A 
ATOM     27  C   UNL A   1      34.721  17.588  24.342  1.00  0.00     0.047 A 
ENDBRANCH  20  21
ENDBRANCH  19  20
ENDBRANCH  16  19
ENDBRANCH  12  15
ENDBRANCH   6  11
ENDBRANCH   3   5
ENDBRANCH   2   3
ENDBRANCH   1   2
BRANCH   1  28
ATOM     28  C   UNL A   1      38.659  21.091  25.397  1.00  0.00     0.275 C 
BRANCH  28  29
ATOM     29  O   UNL A   1      39.809  21.634  26.163  1.00  0.00    -0.458 OA
BRANCH  29  30
ATOM     30  C   UNL A   1      41.135  21.187  26.104  1.00  0.00     0.338 C 
ATOM     31  O   UNL A   1      41.448  20.013  26.066  1.00  0.00    -0.246 OA
BRANCH  30  32
ATOM     32  C   UNL A   1      42.112  22.351  26.269  1.00  0.00     0.060 A 
ATOM     33  C   UNL A   1      42.613  23.446  24.990  1.00  0.00     0.016 A 
ATOM     34  C   UNL A   1      41.920  22.811  27.834  1.00  0.00     0.016 A 
ATOM     35  C   UNL A   1      42.753  25.240  25.421  1.00  0.00     0.010 A 
ATOM     36  C   UNL A   1      41.890  24.304  28.296  1.00  0.00     0.010 A 
ATOM     37  C   UNL A   1      42.303  25.660  27.290  1.00  0.00    -0.014 A 
BRANCH  37  38
ATOM     38  C   UNL A   1      42.244  26.703  28.471  1.00  0.00     0.031 A 
ATOM     39  C   UNL A   1      41.120  27.522  28.909  1.00  0.00     0.074 A 
ATOM     40  C   UNL A   1      43.349  27.067  29.225  1.00  0.00     0.049 A 
ATOM     41  N   UNL A   1      41.202  28.817  28.933  1.00  0.00    -0.248 NA
ATOM     42  C   UNL A   1      39.879  26.962  29.407  1.00  0.00     0.031 C 
ATOM     43  C   UNL A   1      43.315  27.590  30.595  1.00  0.00     0.029 A 
ATOM     44  N   UNL A   1      44.730  26.923  28.992  1.00  0.00    -0.354 N 
ATOM     45  C   UNL A   1      40.055  29.236  29.545  1.00  0.00     0.074 A 
ATOM     46  C   UNL A   1      39.177  28.079  29.602  1.00  0.00     0.031 C 
ATOM     47  C   UNL A   1      44.563  27.775  31.050  1.00  0.00     0.029 A 
ATOM     48  C   UNL A   1      45.510  27.493  29.989  1.00  0.00     0.049 A 
ATOM     49  H   UNL A   1      45.104  26.465  28.204  1.00  0.00     0.167 HD
ATOM     50  C   UNL A   1      39.999  30.330  30.349  1.00  0.00     0.034 A 
ATOM     51  C   UNL A   1      46.779  27.976  29.883  1.00  0.00     0.034 A 
ATOM     52  C   UNL A   1      41.304  30.663  30.928  1.00  0.00     0.049 A 
ATOM     53  C   UNL A   1      46.745  29.466  30.110  1.00  0.00     0.074 A 
ATOM     54  C   UNL A   1      41.853  30.361  32.167  1.00  0.00     0.029 A 
ATOM     55  N   UNL A   1      42.338  31.203  30.179  1.00  0.00    -0.354 N 
ATOM     56  N   UNL A   1      45.789  30.080  30.745  1.00  0.00    -0.248 NA
ATOM     57  C   UNL A   1      47.683  30.397  29.491  1.00  0.00     0.031 C 
ATOM     58  C   UNL A   1      43.190  30.826  32.198  1.00  0.00     0.029 A 
ATOM     59  C   UNL A   1      43.462  31.418  30.979  1.00  0.00     0.049 A 
ATOM     60  H   UNL A   1      42.286  31.406  29.217  1.00  0.00     0.167 HD
ATOM     61  C   UNL A   1      45.751  31.384  30.311  1.00  0.00     0.074 A 
ATOM     62  C   UNL A   1      47.020  31.557  29.622  1.00  0.00     0.031 C 
ATOM     63  C   UNL A   1      44.618  32.145  30.450  1.00  0.00     0.034 A 
BRANCH  50  64
ATOM     64  C   UNL A   1      38.675  30.712  30.967  1.00  0.00     0.023 A 
ATOM     65  C   UNL A   1      38.246  30.066  32.138  1.00  0.00     0.012 A 
ATOM     66  C   UNL A   1      37.806  31.682  30.408  1.00  0.00     0.148 A 
ATOM     67  C   UNL A   1      36.959  30.255  32.644  1.00  0.00     0.002 A 
ATOM     68  C   UNL A   1      36.493  31.801  30.855  1.00  0.00     0.091 A 
ATOM     69  F   UNL A   1      38.254  32.472  29.418  1.00  0.00    -0.205 F 
ATOM     70  C   UNL A   1      36.067  31.083  31.976  1.00  0.00     0.022 A 
BRANCH  68  71
ATOM     71  S   UNL A   1      35.248  32.717  29.933  1.00  0.00     0.127 S 
ATOM     72  O   UNL A   1      34.102  32.684  30.847  1.00  0.00    -0.237 OA
ATOM     73  O   UNL A   1      35.865  34.031  29.780  1.00  0.00    -0.237 OA
ATOM     74  O   UNL A   1      35.031  31.967  28.701  1.00  0.00    -0.744 OA
ENDBRANCH  68  71
ENDBRANCH  50  64
BRANCH  51  75
ATOM     75  C   UNL A   1      47.620  27.279  28.878  1.00  0.00     0.023 A 
ATOM     76  C   UNL A   1      48.244  26.071  29.270  1.00  0.00     0.012 A 
ATOM     77  C   UNL A   1      47.475  27.553  27.518  1.00  0.00     0.148 A 
ATOM     78  C   UNL A   1      48.569  25.094  28.326  1.00  0.00     0.002 A 
ATOM     79  C   UNL A   1      47.745  26.554  26.593  1.00  0.00     0.091 A 
ATOM     80  F   UNL A   1      46.941  28.720  27.136  1.00  0.00    -0.205 F 
ATOM     81  C   UNL A   1      48.266  25.315  26.988  1.00  0.00     0.022 A 
BRANCH  79  82
ATOM     82  S   UNL A   1      47.114  26.759  24.936  1.00  0.00     0.127 S 
ATOM     83  O   UNL A   1      45.692  27.011  25.176  1.00  0.00    -0.237 OA
ATOM     84  O   UNL A   1      47.859  27.921  24.472  1.00  0.00    -0.237 OA
ATOM     85  O   UNL A   1      47.419  25.480  24.311  1.00  0.00    -0.744 OA
ENDBRANCH  79  82
ENDBRANCH  51  75
BRANCH  63  86
ATOM     86  C   UNL A   1      44.450  33.613  30.069  1.00  0.00     0.023 A 
ATOM     87  C   UNL A   1      44.416  34.655  31.011  1.00  0.00     0.012 A 
ATOM     88  C   UNL A   1      44.234  34.004  28.716  1.00  0.00     0.148 A 
ATOM     89  C   UNL A   1      44.303  36.002  30.642  1.00  0.00     0.002 A 
ATOM     90  C   UNL A   1      44.137  35.340  28.344  1.00  0.00     0.091 A 
ATOM     91  F   UNL A   1      44.027  33.078  27.775  1.00  0.00    -0.205 F 
ATOM     92  C   UNL A   1      44.192  36.347  29.305  1.00  0.00     0.022 A 
BRANCH  90  93
ATOM     93  S   UNL A   1      43.923  35.837  26.630  1.00  0.00     0.127 S 
ATOM     94  O   UNL A   1      44.011  37.293  26.735  1.00  0.00    -0.237 OA
ATOM     95  O   UNL A   1      45.074  35.202  25.986  1.00  0.00    -0.237 OA
ATOM     96  O   UNL A   1      42.632  35.309  26.216  1.00  0.00    -0.744 OA
ENDBRANCH  90  93
ENDBRANCH  63  86
ENDBRANCH  37  38
ENDBRANCH  30  32
ENDBRANCH  29  30
ENDBRANCH  28  29
ENDBRANCH   1  28
TORSDOF 19
ENDMDL
