MODEL 1
REMARK VINA RESULT:     -10.9      0.000      0.000
REMARK SMILES CCCCCCNC(=O)Oc1cccc(-c2ccc([C@@H](C)C(=O)OCCOC(=O)c3ccc(-c4c5nc(c(-c6cccc(S(=O)(=O)[O-])c6F)c6ccc([nH]6)c(-c6cccc(S(=O)(=O)[O-])c6F)c6nc(c(-c7cccc(S(=O)(=O)[O-])c7F)c7ccc4[nH]7)C=C6)C=C5)cc3)cc2Cl)c1
REMARK SMILES IDX 20 1 21 2 19 3 16 4 17 5 94 6 18 7 93 8 95 9 15 10 11 11
REMARK SMILES IDX 12 12 96 13 13 14 14 15 10 16 8 17 7 18 9 20 6 21 5 22 4 23
REMARK SMILES IDX 3 24 2 25 1 26 22 27 23 28 24 29 25 30 26 31 27 32 28 33
REMARK SMILES IDX 29 34 30 35 31 36 92 37 32 38 91 39 33 40 34 41 35 42 85 43
REMARK SMILES IDX 36 44 90 45 84 46 86 47 37 48 89 49 83 50 82 51 38 53 70 54
REMARK SMILES IDX 50 55 69 56 51 57 54 58 68 59 87 60 52 61 53 62 67 64 88 65
REMARK SMILES IDX 55 66 39 67 40 68 48 69 41 70 43 71 49 72 42 73 44 74 45 75
REMARK SMILES IDX 46 76 47 77 71 78 72 79 80 80 73 81 75 82 81 83 74 84 76 85
REMARK SMILES IDX 77 86 78 87 79 88 56 89 57 90 65 91 58 92 60 93 66 94 59 95
REMARK SMILES IDX 61 96 62 97 63 98 64 99
REMARK H PARENT 7 19 86 52 54 63
REMARK Flexibility Score: inf
ROOT
ATOM      1  C   UNL A   1      41.316  22.268  27.027  1.00  0.00     0.126 C 
ATOM      2  C   UNL A   1      41.436  22.282  28.549  1.00  0.00     0.025 C 
ENDROOT
BRANCH   1   3
ATOM      3  C   UNL A   1      39.899  22.565  26.556  1.00  0.00    -0.033 A 
ATOM      4  C   UNL A   1      37.228  23.059  25.677  1.00  0.00     0.000 A 
ATOM      5  C   UNL A   1      38.030  24.084  26.215  1.00  0.00     0.010 A 
ATOM      6  C   UNL A   1      37.797  21.777  25.580  1.00  0.00     0.049 A 
ATOM      7  C   UNL A   1      39.343  23.846  26.638  1.00  0.00     0.005 A 
ATOM      8  C   UNL A   1      39.110  21.538  26.014  1.00  0.00     0.025 A 
ATOM      9  Cl  UNL A   1      36.950  20.440  24.876  1.00  0.00    -0.084 Cl
BRANCH   4  10
ATOM     10  C   UNL A   1      35.862  23.388  25.227  1.00  0.00    -0.013 A 
ATOM     11  C   UNL A   1      33.528  23.874  25.675  1.00  0.00     0.133 A 
ATOM     12  C   UNL A   1      33.268  24.018  24.313  1.00  0.00     0.047 A 
ATOM     13  C   UNL A   1      34.806  23.558  26.138  1.00  0.00     0.056 A 
ATOM     14  C   UNL A   1      34.307  23.865  23.401  1.00  0.00     0.004 A 
ATOM     15  C   UNL A   1      35.590  23.550  23.855  1.00  0.00     0.009 A 
BRANCH  11  16
ATOM     16  O   UNL A   1      32.421  23.934  26.537  1.00  0.00    -0.410 OA
BRANCH  16  17
ATOM     17  C   UNL A   1      31.194  23.493  26.066  1.00  0.00     0.412 C 
ATOM     18  N   UNL A   1      30.351  24.516  25.725  1.00  0.00    -0.321 N 
ATOM     19  H   UNL A   1      29.475  24.259  25.356  1.00  0.00     0.167 HD
ATOM     20  O   UNL A   1      30.836  22.325  25.972  1.00  0.00    -0.224 OA
BRANCH  18  21
ATOM     21  C   UNL A   1      30.608  25.936  25.850  1.00  0.00     0.119 C 
BRANCH  21  22
ATOM     22  C   UNL A   1      30.179  26.720  24.610  1.00  0.00     0.021 C 
BRANCH  22  23
ATOM     23  C   UNL A   1      30.971  26.402  23.335  1.00  0.00     0.002 C 
BRANCH  23  24
ATOM     24  C   UNL A   1      31.613  27.604  22.634  1.00  0.00    -0.000 C 
BRANCH  24  25
ATOM     25  C   UNL A   1      33.087  27.853  22.963  1.00  0.00    -0.003 C 
ATOM     26  C   UNL A   1      33.293  28.716  24.199  1.00  0.00     0.004 C 
ENDBRANCH  24  25
ENDBRANCH  23  24
ENDBRANCH  22  23
ENDBRANCH  21  22
ENDBRANCH  18  21
ENDBRANCH  16  17
ENDBRANCH  11  16
ENDBRANCH   4  10
ENDBRANCH   1   3
BRANCH   1  27
ATOM     27  C   UNL A   1      41.960  21.002  26.469  1.00  0.00     0.313 C 
ATOM     28  O   UNL A   1      41.707  19.891  26.921  1.00  0.00    -0.252 OA
BRANCH  27  29
ATOM     29  O   UNL A   1      42.779  21.225  25.408  1.00  0.00    -0.462 OA
BRANCH  29  30
ATOM     30  C   UNL A   1      43.775  22.255  25.557  1.00  0.00     0.274 C 
BRANCH  30  31
ATOM     31  C   UNL A   1      43.806  23.175  24.334  1.00  0.00     0.275 C 
BRANCH  31  32
ATOM     32  O   UNL A   1      43.498  24.533  24.695  1.00  0.00    -0.458 OA
BRANCH  32  33
ATOM     33  C   UNL A   1      44.537  25.240  25.198  1.00  0.00     0.338 C 
ATOM     34  O   UNL A   1      45.650  25.361  24.718  1.00  0.00    -0.246 OA
BRANCH  33  35
ATOM     35  C   UNL A   1      44.093  25.989  26.382  1.00  0.00     0.060 A 
ATOM     36  C   UNL A   1      43.547  25.267  27.445  1.00  0.00     0.016 A 
ATOM     37  C   UNL A   1      44.139  27.382  26.419  1.00  0.00     0.016 A 
ATOM     38  C   UNL A   1      43.021  25.933  28.546  1.00  0.00     0.010 A 
ATOM     39  C   UNL A   1      43.622  28.053  27.533  1.00  0.00     0.010 A 
ATOM     40  C   UNL A   1      43.045  27.332  28.595  1.00  0.00    -0.014 A 
BRANCH  40  41
ATOM     41  C   UNL A   1      42.438  28.032  29.751  1.00  0.00     0.031 A 
ATOM     42  C   UNL A   1      41.062  28.622  29.638  1.00  0.00     0.074 A 
ATOM     43  C   UNL A   1      43.127  28.132  30.903  1.00  0.00     0.049 A 
ATOM     44  N   UNL A   1      40.376  29.290  30.527  1.00  0.00    -0.248 NA
ATOM     45  C   UNL A   1      40.366  28.438  28.353  1.00  0.00     0.031 C 
ATOM     46  C   UNL A   1      44.473  27.603  31.127  1.00  0.00     0.029 A 
ATOM     47  N   UNL A   1      42.797  28.726  32.095  1.00  0.00    -0.354 N 
ATOM     48  C   UNL A   1      39.185  29.640  29.904  1.00  0.00     0.074 A 
ATOM     49  C   UNL A   1      39.243  29.115  28.556  1.00  0.00     0.031 C 
ATOM     50  C   UNL A   1      44.858  27.905  32.377  1.00  0.00     0.029 A 
ATOM     51  C   UNL A   1      43.802  28.673  33.030  1.00  0.00     0.049 A 
ATOM     52  H   UNL A   1      41.924  29.149  32.263  1.00  0.00     0.167 HD
ATOM     53  C   UNL A   1      38.132  30.323  30.413  1.00  0.00     0.034 A 
ATOM     54  C   UNL A   1      43.870  29.198  34.270  1.00  0.00     0.034 A 
ATOM     55  C   UNL A   1      38.062  30.808  31.767  1.00  0.00     0.049 A 
ATOM     56  C   UNL A   1      42.683  29.944  34.815  1.00  0.00     0.074 A 
ATOM     57  C   UNL A   1      37.017  31.466  32.392  1.00  0.00     0.029 A 
ATOM     58  N   UNL A   1      39.077  30.690  32.704  1.00  0.00    -0.354 N 
ATOM     59  N   UNL A   1      41.521  30.169  34.250  1.00  0.00    -0.248 NA
ATOM     60  C   UNL A   1      42.803  30.481  36.177  1.00  0.00     0.031 C 
ATOM     61  C   UNL A   1      37.407  31.756  33.705  1.00  0.00     0.029 A 
ATOM     62  C   UNL A   1      38.689  31.268  33.900  1.00  0.00     0.049 A 
ATOM     63  H   UNL A   1      39.947  30.259  32.540  1.00  0.00     0.167 HD
ATOM     64  C   UNL A   1      40.763  30.851  35.194  1.00  0.00     0.074 A 
ATOM     65  C   UNL A   1      41.590  30.981  36.377  1.00  0.00     0.031 C 
ATOM     66  C   UNL A   1      39.504  31.343  35.086  1.00  0.00     0.034 A 
BRANCH  53  67
ATOM     67  C   UNL A   1      36.950  30.554  29.510  1.00  0.00     0.023 A 
ATOM     68  C   UNL A   1      36.304  29.450  28.918  1.00  0.00     0.012 A 
ATOM     69  C   UNL A   1      36.450  31.850  29.284  1.00  0.00     0.148 A 
ATOM     70  C   UNL A   1      35.196  29.635  28.092  1.00  0.00     0.002 A 
ATOM     71  C   UNL A   1      35.323  32.024  28.488  1.00  0.00     0.091 A 
ATOM     72  F   UNL A   1      37.093  32.891  29.834  1.00  0.00    -0.205 F 
ATOM     73  C   UNL A   1      34.701  30.920  27.885  1.00  0.00     0.022 A 
BRANCH  71  74
ATOM     74  S   UNL A   1      34.574  33.636  28.222  1.00  0.00     0.127 S 
ATOM     75  O   UNL A   1      35.453  34.205  27.202  1.00  0.00    -0.237 OA
ATOM     76  O   UNL A   1      33.236  33.285  27.745  1.00  0.00    -0.237 OA
ATOM     77  O   UNL A   1      34.595  34.301  29.518  1.00  0.00    -0.744 OA
ENDBRANCH  71  74
ENDBRANCH  53  67
BRANCH  54  78
ATOM     78  C   UNL A   1      45.094  28.987  35.092  1.00  0.00     0.023 A 
ATOM     79  C   UNL A   1      46.149  29.915  35.016  1.00  0.00     0.012 A 
ATOM     80  C   UNL A   1      45.194  27.903  35.988  1.00  0.00     0.148 A 
ATOM     81  C   UNL A   1      47.291  29.758  35.802  1.00  0.00     0.002 A 
ATOM     82  C   UNL A   1      46.311  27.783  36.807  1.00  0.00     0.091 A 
ATOM     83  F   UNL A   1      44.188  27.018  36.032  1.00  0.00    -0.205 F 
ATOM     84  C   UNL A   1      47.367  28.702  36.706  1.00  0.00     0.022 A 
BRANCH  82  85
ATOM     85  S   UNL A   1      46.428  26.532  38.091  1.00  0.00     0.127 S 
ATOM     86  O   UNL A   1      46.453  25.301  37.307  1.00  0.00    -0.237 OA
ATOM     87  O   UNL A   1      47.694  26.876  38.739  1.00  0.00    -0.237 OA
ATOM     88  O   UNL A   1      45.255  26.727  38.933  1.00  0.00    -0.744 OA
ENDBRANCH  82  85
ENDBRANCH  54  78
BRANCH  66  89
ATOM     89  C   UNL A   1      38.928  32.054  36.283  1.00  0.00     0.023 A 
ATOM     90  C   UNL A   1      39.187  33.427  36.464  1.00  0.00     0.012 A 
ATOM     91  C   UNL A   1      38.074  31.386  37.180  1.00  0.00     0.148 A 
ATOM     92  C   UNL A   1      38.625  34.117  37.536  1.00  0.00     0.002 A 
ATOM     93  C   UNL A   1      37.483  32.090  38.223  1.00  0.00     0.091 A 
ATOM     94  F   UNL A   1      37.857  30.074  37.004  1.00  0.00    -0.205 F 
ATOM     95  C   UNL A   1      37.765  33.453  38.409  1.00  0.00     0.022 A 
BRANCH  93  96
ATOM     96  S   UNL A   1      36.295  31.333  39.339  1.00  0.00     0.127 S 
ATOM     97  O   UNL A   1      35.171  32.263  39.255  1.00  0.00    -0.237 OA
ATOM     98  O   UNL A   1      36.059  30.033  38.711  1.00  0.00    -0.237 OA
ATOM     99  O   UNL A   1      36.959  31.261  40.634  1.00  0.00    -0.744 OA
ENDBRANCH  93  96
ENDBRANCH  66  89
ENDBRANCH  40  41
ENDBRANCH  33  35
ENDBRANCH  32  33
ENDBRANCH  31  32
ENDBRANCH  30  31
ENDBRANCH  29  30
ENDBRANCH  27  29
ENDBRANCH   1  27
TORSDOF 23
ENDMDL
MODEL 2
REMARK VINA RESULT:     -10.6      5.340      9.832
REMARK SMILES CCCCCCNC(=O)Oc1cccc(-c2ccc([C@@H](C)C(=O)OCCOC(=O)c3ccc(-c4c5nc(c(-c6cccc(S(=O)(=O)[O-])c6F)c6ccc([nH]6)c(-c6cccc(S(=O)(=O)[O-])c6F)c6nc(c(-c7cccc(S(=O)(=O)[O-])c7F)c7ccc4[nH]7)C=C6)C=C5)cc3)cc2Cl)c1
REMARK SMILES IDX 20 1 21 2 19 3 16 4 17 5 94 6 18 7 93 8 95 9 15 10 11 11
REMARK SMILES IDX 12 12 96 13 13 14 14 15 10 16 8 17 7 18 9 20 6 21 5 22 4 23
REMARK SMILES IDX 3 24 2 25 1 26 22 27 23 28 24 29 25 30 26 31 27 32 28 33
REMARK SMILES IDX 29 34 30 35 31 36 92 37 32 38 91 39 33 40 34 41 35 42 85 43
REMARK SMILES IDX 36 44 90 45 84 46 86 47 37 48 89 49 83 50 82 51 38 53 70 54
REMARK SMILES IDX 50 55 69 56 51 57 54 58 68 59 87 60 52 61 53 62 67 64 88 65
REMARK SMILES IDX 55 66 39 67 40 68 48 69 41 70 43 71 49 72 42 73 44 74 45 75
REMARK SMILES IDX 46 76 47 77 71 78 72 79 80 80 73 81 75 82 81 83 74 84 76 85
REMARK SMILES IDX 77 86 78 87 79 88 56 89 57 90 65 91 58 92 60 93 66 94 59 95
REMARK SMILES IDX 61 96 62 97 63 98 64 99
REMARK H PARENT 7 19 86 52 54 63
REMARK Flexibility Score: inf
ROOT
ATOM      1  C   UNL A   1      41.243  21.404  26.498  1.00  0.00     0.126 C 
ATOM      2  C   UNL A   1      41.964  21.947  27.729  1.00  0.00     0.025 C 
ENDROOT
BRANCH   1   3
ATOM      3  C   UNL A   1      39.841  21.976  26.349  1.00  0.00    -0.033 A 
ATOM      4  C   UNL A   1      37.186  22.989  26.070  1.00  0.00     0.000 A 
ATOM      5  C   UNL A   1      38.233  23.788  26.569  1.00  0.00     0.010 A 
ATOM      6  C   UNL A   1      37.500  21.669  25.702  1.00  0.00     0.049 A 
ATOM      7  C   UNL A   1      39.537  23.296  26.698  1.00  0.00     0.005 A 
ATOM      8  C   UNL A   1      38.806  21.174  25.842  1.00  0.00     0.025 A 
ATOM      9  Cl  UNL A   1      36.327  20.598  25.009  1.00  0.00    -0.084 Cl
BRANCH   4  10
ATOM     10  C   UNL A   1      35.842  23.582  25.935  1.00  0.00    -0.013 A 
ATOM     11  C   UNL A   1      34.239  24.995  24.786  1.00  0.00     0.133 A 
ATOM     12  C   UNL A   1      33.253  24.685  25.722  1.00  0.00     0.047 A 
ATOM     13  C   UNL A   1      35.524  24.458  24.884  1.00  0.00     0.056 A 
ATOM     14  C   UNL A   1      33.551  23.809  26.761  1.00  0.00     0.004 A 
ATOM     15  C   UNL A   1      34.834  23.265  26.866  1.00  0.00     0.009 A 
BRANCH  11  16
ATOM     16  O   UNL A   1      33.912  25.965  23.825  1.00  0.00    -0.410 OA
BRANCH  16  17
ATOM     17  C   UNL A   1      33.047  26.987  24.187  1.00  0.00     0.412 C 
ATOM     18  N   UNL A   1      31.788  26.831  23.673  1.00  0.00    -0.321 N 
ATOM     19  H   UNL A   1      31.123  27.512  23.923  1.00  0.00     0.167 HD
ATOM     20  O   UNL A   1      33.331  27.965  24.868  1.00  0.00    -0.224 OA
BRANCH  18  21
ATOM     21  C   UNL A   1      31.329  25.770  22.798  1.00  0.00     0.119 C 
BRANCH  21  22
ATOM     22  C   UNL A   1      30.388  24.795  23.505  1.00  0.00     0.021 C 
BRANCH  22  23
ATOM     23  C   UNL A   1      30.807  23.321  23.434  1.00  0.00     0.002 C 
BRANCH  23  24
ATOM     24  C   UNL A   1      32.056  23.024  22.598  1.00  0.00    -0.000 C 
BRANCH  24  25
ATOM     25  C   UNL A   1      33.113  22.150  23.276  1.00  0.00    -0.003 C 
ATOM     26  C   UNL A   1      32.539  20.897  23.921  1.00  0.00     0.004 C 
ENDBRANCH  24  25
ENDBRANCH  23  24
ENDBRANCH  22  23
ENDBRANCH  21  22
ENDBRANCH  18  21
ENDBRANCH  16  17
ENDBRANCH  11  16
ENDBRANCH   4  10
ENDBRANCH   1   3
BRANCH   1  27
ATOM     27  C   UNL A   1      41.357  19.883  26.461  1.00  0.00     0.313 C 
ATOM     28  O   UNL A   1      40.706  19.201  25.677  1.00  0.00    -0.252 OA
BRANCH  27  29
ATOM     29  O   UNL A   1      42.276  19.380  27.327  1.00  0.00    -0.462 OA
BRANCH  29  30
ATOM     30  C   UNL A   1      43.015  18.221  26.894  1.00  0.00     0.274 C 
BRANCH  30  31
ATOM     31  C   UNL A   1      43.509  18.387  25.454  1.00  0.00     0.275 C 
BRANCH  31  32
ATOM     32  O   UNL A   1      44.671  19.232  25.396  1.00  0.00    -0.458 OA
BRANCH  32  33
ATOM     33  C   UNL A   1      44.668  20.140  24.392  1.00  0.00     0.338 C 
ATOM     34  O   UNL A   1      44.524  19.926  23.201  1.00  0.00    -0.246 OA
BRANCH  33  35
ATOM     35  C   UNL A   1      44.728  21.496  24.957  1.00  0.00     0.060 A 
ATOM     36  C   UNL A   1      44.223  22.547  24.189  1.00  0.00     0.016 A 
ATOM     37  C   UNL A   1      45.340  21.744  26.185  1.00  0.00     0.016 A 
ATOM     38  C   UNL A   1      44.345  23.859  24.632  1.00  0.00     0.010 A 
ATOM     39  C   UNL A   1      45.451  23.063  26.638  1.00  0.00     0.010 A 
ATOM     40  C   UNL A   1      44.969  24.128  25.857  1.00  0.00    -0.014 A 
BRANCH  40  41
ATOM     41  C   UNL A   1      45.137  25.534  26.295  1.00  0.00     0.031 A 
ATOM     42  C   UNL A   1      46.488  26.186  26.237  1.00  0.00     0.074 A 
ATOM     43  C   UNL A   1      44.070  26.221  26.743  1.00  0.00     0.049 A 
ATOM     44  N   UNL A   1      46.837  27.392  26.599  1.00  0.00    -0.248 NA
ATOM     45  C   UNL A   1      47.594  25.373  25.704  1.00  0.00     0.031 C 
ATOM     46  C   UNL A   1      42.710  25.689  26.849  1.00  0.00     0.029 A 
ATOM     47  N   UNL A   1      43.964  27.509  27.206  1.00  0.00    -0.354 N 
ATOM     48  C   UNL A   1      48.205  27.476  26.375  1.00  0.00     0.074 A 
ATOM     49  C   UNL A   1      48.626  26.193  25.850  1.00  0.00     0.031 C 
ATOM     50  C   UNL A   1      41.908  26.640  27.355  1.00  0.00     0.029 A 
ATOM     51  C   UNL A   1      42.700  27.833  27.637  1.00  0.00     0.049 A 
ATOM     52  H   UNL A   1      44.720  28.138  27.226  1.00  0.00     0.167 HD
ATOM     53  C   UNL A   1      49.033  28.529  26.572  1.00  0.00     0.034 A 
ATOM     54  C   UNL A   1      42.236  28.961  28.209  1.00  0.00     0.034 A 
ATOM     55  C   UNL A   1      48.603  29.815  27.056  1.00  0.00     0.049 A 
ATOM     56  C   UNL A   1      43.174  30.120  28.409  1.00  0.00     0.074 A 
ATOM     57  C   UNL A   1      49.356  30.960  27.242  1.00  0.00     0.029 A 
ATOM     58  N   UNL A   1      47.305  30.125  27.433  1.00  0.00    -0.354 N 
ATOM     59  N   UNL A   1      44.442  30.219  28.088  1.00  0.00    -0.248 NA
ATOM     60  C   UNL A   1      42.614  31.333  29.022  1.00  0.00     0.031 C 
ATOM     61  C   UNL A   1      48.515  31.961  27.743  1.00  0.00     0.029 A 
ATOM     62  C   UNL A   1      47.236  31.441  27.858  1.00  0.00     0.049 A 
ATOM     63  H   UNL A   1      46.545  29.500  27.405  1.00  0.00     0.167 HD
ATOM     64  C   UNL A   1      44.824  31.509  28.434  1.00  0.00     0.074 A 
ATOM     65  C   UNL A   1      43.647  32.164  28.969  1.00  0.00     0.031 C 
ATOM     66  C   UNL A   1      46.044  32.094  28.337  1.00  0.00     0.034 A 
BRANCH  53  67
ATOM     67  C   UNL A   1      50.487  28.346  26.228  1.00  0.00     0.023 A 
ATOM     68  C   UNL A   1      50.924  28.591  24.911  1.00  0.00     0.012 A 
ATOM     69  C   UNL A   1      51.425  27.978  27.211  1.00  0.00     0.148 A 
ATOM     70  C   UNL A   1      52.268  28.446  24.571  1.00  0.00     0.002 A 
ATOM     71  C   UNL A   1      52.770  27.871  26.873  1.00  0.00     0.091 A 
ATOM     72  F   UNL A   1      50.988  27.723  28.453  1.00  0.00    -0.205 F 
ATOM     73  C   UNL A   1      53.192  28.095  25.552  1.00  0.00     0.022 A 
BRANCH  71  74
ATOM     74  S   UNL A   1      54.039  27.492  28.087  1.00  0.00     0.127 S 
ATOM     75  O   UNL A   1      53.812  26.065  28.317  1.00  0.00    -0.237 OA
ATOM     76  O   UNL A   1      55.271  27.802  27.361  1.00  0.00    -0.237 OA
ATOM     77  O   UNL A   1      53.775  28.365  29.223  1.00  0.00    -0.744 OA
ENDBRANCH  71  74
ENDBRANCH  53  67
BRANCH  54  78
ATOM     78  C   UNL A   1      40.798  29.059  28.584  1.00  0.00     0.023 A 
ATOM     79  C   UNL A   1      39.833  29.269  27.580  1.00  0.00     0.012 A 
ATOM     80  C   UNL A   1      40.376  28.892  29.919  1.00  0.00     0.148 A 
ATOM     81  C   UNL A   1      38.477  29.329  27.900  1.00  0.00     0.002 A 
ATOM     82  C   UNL A   1      39.019  28.899  30.223  1.00  0.00     0.091 A 
ATOM     83  F   UNL A   1      41.311  28.714  30.864  1.00  0.00    -0.205 F 
ATOM     84  C   UNL A   1      38.069  29.132  29.217  1.00  0.00     0.022 A 
BRANCH  82  85
ATOM     85  S   UNL A   1      38.404  28.519  31.866  1.00  0.00     0.127 S 
ATOM     86  O   UNL A   1      38.640  27.080  31.948  1.00  0.00    -0.237 OA
ATOM     87  O   UNL A   1      39.273  29.334  32.715  1.00  0.00    -0.237 OA
ATOM     88  O   UNL A   1      37.008  28.935  31.867  1.00  0.00    -0.744 OA
ENDBRANCH  82  85
ENDBRANCH  54  78
BRANCH  66  89
ATOM     89  C   UNL A   1      46.171  33.521  28.802  1.00  0.00     0.023 A 
ATOM     90  C   UNL A   1      46.120  33.809  30.180  1.00  0.00     0.012 A 
ATOM     91  C   UNL A   1      46.418  34.562  27.886  1.00  0.00     0.148 A 
ATOM     92  C   UNL A   1      46.284  35.115  30.637  1.00  0.00     0.002 A 
ATOM     93  C   UNL A   1      46.623  35.855  28.352  1.00  0.00     0.091 A 
ATOM     94  F   UNL A   1      46.441  34.272  26.577  1.00  0.00    -0.205 F 
ATOM     95  C   UNL A   1      46.547  36.136  29.726  1.00  0.00     0.022 A 
BRANCH  93  96
ATOM     96  S   UNL A   1      47.054  37.211  27.254  1.00  0.00     0.127 S 
ATOM     97  O   UNL A   1      47.193  38.324  28.192  1.00  0.00    -0.237 OA
ATOM     98  O   UNL A   1      48.312  36.751  26.665  1.00  0.00    -0.237 OA
ATOM     99  O   UNL A   1      45.953  37.319  26.307  1.00  0.00    -0.744 OA
ENDBRANCH  93  96
ENDBRANCH  66  89
ENDBRANCH  40  41
ENDBRANCH  33  35
ENDBRANCH  32  33
ENDBRANCH  31  32
ENDBRANCH  30  31
ENDBRANCH  29  30
ENDBRANCH  27  29
ENDBRANCH   1  27
TORSDOF 23
ENDMDL
MODEL 3
REMARK VINA RESULT:     -10.1      6.698     10.860
REMARK SMILES CCCCCCNC(=O)Oc1cccc(-c2ccc([C@@H](C)C(=O)OCCOC(=O)c3ccc(-c4c5nc(c(-c6cccc(S(=O)(=O)[O-])c6F)c6ccc([nH]6)c(-c6cccc(S(=O)(=O)[O-])c6F)c6nc(c(-c7cccc(S(=O)(=O)[O-])c7F)c7ccc4[nH]7)C=C6)C=C5)cc3)cc2Cl)c1
REMARK SMILES IDX 20 1 21 2 19 3 16 4 17 5 94 6 18 7 93 8 95 9 15 10 11 11
REMARK SMILES IDX 12 12 96 13 13 14 14 15 10 16 8 17 7 18 9 20 6 21 5 22 4 23
REMARK SMILES IDX 3 24 2 25 1 26 22 27 23 28 24 29 25 30 26 31 27 32 28 33
REMARK SMILES IDX 29 34 30 35 31 36 92 37 32 38 91 39 33 40 34 41 35 42 85 43
REMARK SMILES IDX 36 44 90 45 84 46 86 47 37 48 89 49 83 50 82 51 38 53 70 54
REMARK SMILES IDX 50 55 69 56 51 57 54 58 68 59 87 60 52 61 53 62 67 64 88 65
REMARK SMILES IDX 55 66 39 67 40 68 48 69 41 70 43 71 49 72 42 73 44 74 45 75
REMARK SMILES IDX 46 76 47 77 71 78 72 79 80 80 73 81 75 82 81 83 74 84 76 85
REMARK SMILES IDX 77 86 78 87 79 88 56 89 57 90 65 91 58 92 60 93 66 94 59 95
REMARK SMILES IDX 61 96 62 97 63 98 64 99
REMARK H PARENT 7 19 86 52 54 63
REMARK Flexibility Score: inf
ROOT
ATOM      1  C   UNL A   1      35.581  32.529  29.048  1.00  0.00     0.126 C 
ATOM      2  C   UNL A   1      36.674  33.169  28.195  1.00  0.00     0.025 C 
ENDROOT
BRANCH   1   3
ATOM      3  C   UNL A   1      34.904  31.363  28.342  1.00  0.00    -0.033 A 
ATOM      4  C   UNL A   1      33.602  29.217  26.982  1.00  0.00     0.000 A 
ATOM      5  C   UNL A   1      34.813  29.026  27.674  1.00  0.00     0.010 A 
ATOM      6  C   UNL A   1      33.049  30.510  26.993  1.00  0.00     0.049 A 
ATOM      7  C   UNL A   1      35.448  30.074  28.349  1.00  0.00     0.005 A 
ATOM      8  C   UNL A   1      33.693  31.562  27.662  1.00  0.00     0.025 A 
ATOM      9  Cl  UNL A   1      31.530  30.872  26.242  1.00  0.00    -0.084 Cl
BRANCH   4  10
ATOM     10  C   UNL A   1      32.974  28.060  26.315  1.00  0.00    -0.013 A 
ATOM     11  C   UNL A   1      33.073  26.136  24.840  1.00  0.00     0.133 A 
ATOM     12  C   UNL A   1      31.726  25.859  25.065  1.00  0.00     0.047 A 
ATOM     13  C   UNL A   1      33.700  27.225  25.450  1.00  0.00     0.056 A 
ATOM     14  C   UNL A   1      30.999  26.672  25.929  1.00  0.00     0.004 A 
ATOM     15  C   UNL A   1      31.617  27.762  26.545  1.00  0.00     0.009 A 
BRANCH  11  16
ATOM     16  O   UNL A   1      33.726  25.348  23.879  1.00  0.00    -0.410 OA
BRANCH  16  17
ATOM     17  C   UNL A   1      33.429  25.560  22.541  1.00  0.00     0.412 C 
ATOM     18  N   UNL A   1      32.581  24.618  22.024  1.00  0.00    -0.321 N 
ATOM     19  H   UNL A   1      32.312  24.736  21.085  1.00  0.00     0.167 HD
ATOM     20  O   UNL A   1      33.872  26.460  21.838  1.00  0.00    -0.224 OA
BRANCH  18  21
ATOM     21  C   UNL A   1      32.036  23.464  22.711  1.00  0.00     0.119 C 
BRANCH  21  22
ATOM     22  C   UNL A   1      33.085  22.380  22.957  1.00  0.00     0.021 C 
BRANCH  22  23
ATOM     23  C   UNL A   1      32.617  21.209  23.830  1.00  0.00     0.002 C 
BRANCH  23  24
ATOM     24  C   UNL A   1      33.728  20.370  24.469  1.00  0.00    -0.000 C 
BRANCH  24  25
ATOM     25  C   UNL A   1      33.323  18.961  24.911  1.00  0.00    -0.003 C 
ATOM     26  C   UNL A   1      32.451  18.238  23.896  1.00  0.00     0.004 C 
ENDBRANCH  24  25
ENDBRANCH  23  24
ENDBRANCH  22  23
ENDBRANCH  21  22
ENDBRANCH  18  21
ENDBRANCH  16  17
ENDBRANCH  11  16
ENDBRANCH   4  10
ENDBRANCH   1   3
BRANCH   1  27
ATOM     27  C   UNL A   1      34.657  33.610  29.600  1.00  0.00     0.313 C 
ATOM     28  O   UNL A   1      34.213  34.509  28.894  1.00  0.00    -0.252 OA
BRANCH  27  29
ATOM     29  O   UNL A   1      34.339  33.444  30.911  1.00  0.00    -0.462 OA
BRANCH  29  30
ATOM     30  C   UNL A   1      34.886  32.288  31.573  1.00  0.00     0.274 C 
BRANCH  30  31
ATOM     31  C   UNL A   1      36.149  32.647  32.362  1.00  0.00     0.275 C 
BRANCH  31  32
ATOM     32  O   UNL A   1      36.691  31.496  33.031  1.00  0.00    -0.458 OA
BRANCH  32  33
ATOM     33  C   UNL A   1      37.030  30.468  32.218  1.00  0.00     0.338 C 
ATOM     34  O   UNL A   1      36.345  29.506  31.918  1.00  0.00    -0.246 OA
BRANCH  33  35
ATOM     35  C   UNL A   1      38.339  30.738  31.606  1.00  0.00     0.060 A 
ATOM     36  C   UNL A   1      39.367  31.190  32.436  1.00  0.00     0.016 A 
ATOM     37  C   UNL A   1      38.534  30.625  30.230  1.00  0.00     0.016 A 
ATOM     38  C   UNL A   1      40.595  31.554  31.894  1.00  0.00     0.010 A 
ATOM     39  C   UNL A   1      39.774  30.978  29.686  1.00  0.00     0.010 A 
ATOM     40  C   UNL A   1      40.805  31.460  30.512  1.00  0.00    -0.014 A 
BRANCH  40  41
ATOM     41  C   UNL A   1      42.100  31.897  29.941  1.00  0.00     0.031 A 
ATOM     42  C   UNL A   1      42.352  33.352  29.671  1.00  0.00     0.074 A 
ATOM     43  C   UNL A   1      43.049  30.982  29.669  1.00  0.00     0.049 A 
ATOM     44  N   UNL A   1      43.408  33.924  29.153  1.00  0.00    -0.248 NA
ATOM     45  C   UNL A   1      41.274  34.289  30.028  1.00  0.00     0.031 C 
ATOM     46  C   UNL A   1      42.913  29.540  29.885  1.00  0.00     0.029 A 
ATOM     47  N   UNL A   1      44.306  31.126  29.139  1.00  0.00    -0.354 N 
ATOM     48  C   UNL A   1      43.112  35.279  29.085  1.00  0.00     0.074 A 
ATOM     49  C   UNL A   1      41.773  35.446  29.611  1.00  0.00     0.031 C 
ATOM     50  C   UNL A   1      44.039  28.931  29.482  1.00  0.00     0.029 A 
ATOM     51  C   UNL A   1      44.961  29.932  28.952  1.00  0.00     0.049 A 
ATOM     52  H   UNL A   1      44.700  31.999  28.916  1.00  0.00     0.167 HD
ATOM     53  C   UNL A   1      43.891  36.295  28.641  1.00  0.00     0.034 A 
ATOM     54  C   UNL A   1      46.163  29.673  28.400  1.00  0.00     0.034 A 
ATOM     55  C   UNL A   1      45.236  36.128  28.157  1.00  0.00     0.049 A 
ATOM     56  C   UNL A   1      47.012  30.819  27.924  1.00  0.00     0.074 A 
ATOM     57  C   UNL A   1      46.124  37.102  27.733  1.00  0.00     0.029 A 
ATOM     58  N   UNL A   1      45.887  34.911  28.031  1.00  0.00    -0.354 N 
ATOM     59  N   UNL A   1      46.761  32.106  27.971  1.00  0.00    -0.248 NA
ATOM     60  C   UNL A   1      48.321  30.484  27.347  1.00  0.00     0.031 C 
ATOM     61  C   UNL A   1      47.309  36.470  27.338  1.00  0.00     0.029 A 
ATOM     62  C   UNL A   1      47.163  35.105  27.529  1.00  0.00     0.049 A 
ATOM     63  H   UNL A   1      45.498  34.037  28.262  1.00  0.00     0.167 HD
ATOM     64  C   UNL A   1      47.888  32.735  27.454  1.00  0.00     0.074 A 
ATOM     65  C   UNL A   1      48.833  31.687  27.122  1.00  0.00     0.031 C 
ATOM     66  C   UNL A   1      48.112  34.056  27.254  1.00  0.00     0.034 A 
BRANCH  53  67
ATOM     67  C   UNL A   1      43.317  37.685  28.694  1.00  0.00     0.023 A 
ATOM     68  C   UNL A   1      42.442  38.113  27.675  1.00  0.00     0.012 A 
ATOM     69  C   UNL A   1      43.603  38.549  29.768  1.00  0.00     0.148 A 
ATOM     70  C   UNL A   1      41.882  39.390  27.710  1.00  0.00     0.002 A 
ATOM     71  C   UNL A   1      43.013  39.807  29.815  1.00  0.00     0.091 A 
ATOM     72  F   UNL A   1      44.457  38.135  30.714  1.00  0.00    -0.205 F 
ATOM     73  C   UNL A   1      42.160  40.233  28.783  1.00  0.00     0.022 A 
BRANCH  71  74
ATOM     74  S   UNL A   1      43.258  40.933  31.193  1.00  0.00     0.127 S 
ATOM     75  O   UNL A   1      42.715  40.159  32.308  1.00  0.00    -0.237 OA
ATOM     76  O   UNL A   1      44.713  41.090  31.215  1.00  0.00    -0.237 OA
ATOM     77  O   UNL A   1      42.527  42.146  30.850  1.00  0.00    -0.744 OA
ENDBRANCH  71  74
ENDBRANCH  53  67
BRANCH  54  78
ATOM     78  C   UNL A   1      46.649  28.267  28.322  1.00  0.00     0.023 A 
ATOM     79  C   UNL A   1      47.363  27.719  29.404  1.00  0.00     0.012 A 
ATOM     80  C   UNL A   1      46.362  27.455  27.205  1.00  0.00     0.148 A 
ATOM     81  C   UNL A   1      47.800  26.395  29.369  1.00  0.00     0.002 A 
ATOM     82  C   UNL A   1      46.753  26.121  27.201  1.00  0.00     0.091 A 
ATOM     83  F   UNL A   1      45.699  28.001  26.176  1.00  0.00    -0.205 F 
ATOM     84  C   UNL A   1      47.483  25.593  28.276  1.00  0.00     0.022 A 
BRANCH  82  85
ATOM     85  S   UNL A   1      46.270  24.986  25.896  1.00  0.00     0.127 S 
ATOM     86  O   UNL A   1      46.855  25.619  24.718  1.00  0.00    -0.237 OA
ATOM     87  O   UNL A   1      46.920  23.744  26.315  1.00  0.00    -0.237 OA
ATOM     88  O   UNL A   1      44.814  24.940  25.937  1.00  0.00    -0.744 OA
ENDBRANCH  82  85
ENDBRANCH  54  78
BRANCH  66  89
ATOM     89  C   UNL A   1      49.439  34.456  26.664  1.00  0.00     0.023 A 
ATOM     90  C   UNL A   1      49.550  34.646  25.272  1.00  0.00     0.012 A 
ATOM     91  C   UNL A   1      50.550  34.717  27.489  1.00  0.00     0.148 A 
ATOM     92  C   UNL A   1      50.755  35.063  24.708  1.00  0.00     0.002 A 
ATOM     93  C   UNL A   1      51.735  35.174  26.924  1.00  0.00     0.091 A 
ATOM     94  F   UNL A   1      50.432  34.510  28.808  1.00  0.00    -0.205 F 
ATOM     95  C   UNL A   1      51.843  35.338  25.534  1.00  0.00     0.022 A 
BRANCH  93  96
ATOM     96  S   UNL A   1      53.156  35.636  27.923  1.00  0.00     0.127 S 
ATOM     97  O   UNL A   1      53.499  34.366  28.561  1.00  0.00    -0.237 OA
ATOM     98  O   UNL A   1      54.115  36.090  26.915  1.00  0.00    -0.237 OA
ATOM     99  O   UNL A   1      52.686  36.685  28.819  1.00  0.00    -0.744 OA
ENDBRANCH  93  96
ENDBRANCH  66  89
ENDBRANCH  40  41
ENDBRANCH  33  35
ENDBRANCH  32  33
ENDBRANCH  31  32
ENDBRANCH  30  31
ENDBRANCH  29  30
ENDBRANCH  27  29
ENDBRANCH   1  27
TORSDOF 23
ENDMDL
