MODEL 1
REMARK VINA RESULT:     -13.2      0.000      0.000
REMARK SMILES O=C(NC(=S)Nc1ccccc1C(=O)OCCOC(=O)c1ccc(-c2c3nc(c(-c4cccc(S(=O)(=O)[O-])c4F)c4ccc([nH]4)c(-c4cccc(S(=O)(=O)[O-])c4F)c4nc(c(-c5cccc(S(=O)(=O)[O-])c5F)c5ccc2[nH]5)C=C4)C=C3)cc1)c1ccc2ccccc2c1
REMARK SMILES IDX 16 1 15 2 13 3 14 4 12 5 7 6 8 7 9 8 11 9 10 10 6 11 4 13
REMARK SMILES IDX 5 14 3 15 1 16 2 17 84 19 85 20 93 21 86 22 92 23 87 24
REMARK SMILES IDX 91 25 88 26 90 27 89 28 17 29 18 30 19 31 20 32 21 33 22 34
REMARK SMILES IDX 83 35 23 36 82 37 24 38 25 39 26 40 76 41 27 42 81 43 75 44
REMARK SMILES IDX 77 45 28 46 80 47 74 48 73 49 29 51 61 52 41 53 60 54 42 55
REMARK SMILES IDX 45 56 59 57 78 58 43 59 44 60 58 62 79 63 46 64 30 65 31 66
REMARK SMILES IDX 39 67 32 68 34 69 40 70 33 71 35 72 36 73 37 74 38 75 62 76
REMARK SMILES IDX 63 77 71 78 64 79 66 80 72 81 65 82 67 83 68 84 69 85 70 86
REMARK SMILES IDX 47 87 48 88 56 89 49 90 51 91 57 92 50 93 52 94 53 95 54 96
REMARK SMILES IDX 55 97
REMARK H PARENT 6 12 3 18 77 50 45 61
REMARK Flexibility Score: inf
ROOT
ATOM      1  C   UNL A   1      35.730  21.918  26.034  1.00  0.00     0.275 C 
ENDROOT
BRANCH   1   2
ATOM      2  O   UNL A   1      34.383  22.160  25.544  1.00  0.00    -0.458 OA
BRANCH   2   3
ATOM      3  C   UNL A   1      33.477  21.373  26.161  1.00  0.00     0.340 C 
ATOM      4  O   UNL A   1      33.463  21.170  27.368  1.00  0.00    -0.246 OA
BRANCH   3   5
ATOM      5  C   UNL A   1      32.558  20.555  25.318  1.00  0.00     0.083 A 
ATOM      6  C   UNL A   1      32.267  21.300  23.515  1.00  0.00     0.055 A 
ATOM      7  C   UNL A   1      32.146  20.022  21.966  1.00  0.00     0.027 A 
ATOM      8  C   UNL A   1      32.340  18.129  22.498  1.00  0.00     0.002 A 
ATOM      9  C   UNL A   1      32.800  18.661  25.825  1.00  0.00     0.018 A 
ATOM     10  C   UNL A   1      32.664  17.373  24.286  1.00  0.00     0.001 A 
BRANCH   6  11
ATOM     11  N   UNL A   1      32.781  22.574  23.236  1.00  0.00    -0.332 N 
ATOM     12  H   UNL A   1      33.750  22.708  23.354  1.00  0.00     0.169 HD
BRANCH  11  13
ATOM     13  C   UNL A   1      32.055  23.636  22.816  1.00  0.00     0.177 C 
ATOM     14  S   UNL A   1      30.727  24.095  23.728  1.00  0.00    -0.040 S 
BRANCH  13  15
ATOM     15  N   UNL A   1      32.310  24.317  21.632  1.00  0.00    -0.299 N 
ATOM     16  O   UNL A   1      33.090  25.514  19.862  1.00  0.00    -0.269 OA
ATOM     17  C   UNL A   1      32.808  25.528  21.063  1.00  0.00     0.257 C 
ATOM     18  H   UNL A   1      32.040  23.730  20.889  1.00  0.00     0.172 HD
BRANCH  17  19
ATOM     19  C   UNL A   1      33.068  26.825  21.759  1.00  0.00     0.040 A 
ATOM     20  C   UNL A   1      33.453  26.665  22.978  1.00  0.00     0.014 A 
ATOM     21  C   UNL A   1      32.858  27.490  22.886  1.00  0.00     0.022 A 
ATOM     22  C   UNL A   1      33.473  27.144  24.961  1.00  0.00     0.009 A 
ATOM     23  C   UNL A   1      32.690  28.222  24.822  1.00  0.00    -0.018 A 
ATOM     24  C   UNL A   1      33.172  27.885  25.939  1.00  0.00    -0.018 A 
ATOM     25  C   UNL A   1      31.976  29.470  25.600  1.00  0.00     0.009 A 
ATOM     26  C   UNL A   1      33.875  28.517  27.044  1.00  0.00     0.009 A 
ATOM     27  C   UNL A   1      32.202  30.072  26.882  1.00  0.00     0.001 A 
ATOM     28  C   UNL A   1      33.297  29.632  27.570  1.00  0.00     0.001 A 
ENDBRANCH  17  19
ENDBRANCH  13  15
ENDBRANCH  11  13
ENDBRANCH   6  11
ENDBRANCH   3   5
ENDBRANCH   2   3
ENDBRANCH   1   2
BRANCH   1  29
ATOM     29  C   UNL A   1      36.617  21.084  25.097  1.00  0.00     0.275 C 
BRANCH  29  30
ATOM     30  O   UNL A   1      37.891  21.699  24.823  1.00  0.00    -0.458 OA
BRANCH  30  31
ATOM     31  C   UNL A   1      38.873  21.353  25.685  1.00  0.00     0.338 C 
ATOM     32  O   UNL A   1      39.386  20.250  25.804  1.00  0.00    -0.246 OA
BRANCH  31  33
ATOM     33  C   UNL A   1      39.317  22.496  26.495  1.00  0.00     0.060 A 
ATOM     34  C   UNL A   1      38.923  23.787  26.152  1.00  0.00     0.016 A 
ATOM     35  C   UNL A   1      40.334  22.305  27.425  1.00  0.00     0.016 A 
ATOM     36  C   UNL A   1      39.657  24.882  26.586  1.00  0.00     0.010 A 
ATOM     37  C   UNL A   1      40.964  23.418  27.984  1.00  0.00     0.010 A 
ATOM     38  C   UNL A   1      40.671  24.716  27.528  1.00  0.00    -0.014 A 
BRANCH  38  39
ATOM     39  C   UNL A   1      41.438  25.881  28.035  1.00  0.00     0.031 A 
ATOM     40  C   UNL A   1      40.729  26.943  28.828  1.00  0.00     0.074 A 
ATOM     41  C   UNL A   1      42.744  26.016  27.725  1.00  0.00     0.049 A 
ATOM     42  N   UNL A   1      41.100  28.168  29.084  1.00  0.00    -0.248 NA
ATOM     43  C   UNL A   1      39.409  26.589  29.381  1.00  0.00     0.031 C 
ATOM     44  C   UNL A   1      43.558  25.030  27.009  1.00  0.00     0.029 A 
ATOM     45  N   UNL A   1      43.606  27.062  27.935  1.00  0.00    -0.354 N 
ATOM     46  C   UNL A   1      40.026  28.761  29.736  1.00  0.00     0.074 A 
ATOM     47  C   UNL A   1      38.994  27.755  29.857  1.00  0.00     0.031 C 
ATOM     48  C   UNL A   1      44.792  25.519  26.828  1.00  0.00     0.029 A 
ATOM     49  C   UNL A   1      44.820  26.890  27.308  1.00  0.00     0.049 A 
ATOM     50  H   UNL A   1      43.381  27.854  28.476  1.00  0.00     0.167 HD
ATOM     51  C   UNL A   1      39.914  30.036  30.180  1.00  0.00     0.034 A 
ATOM     52  C   UNL A   1      45.814  27.764  27.064  1.00  0.00     0.034 A 
ATOM     53  C   UNL A   1      40.976  31.000  30.085  1.00  0.00     0.049 A 
ATOM     54  C   UNL A   1      45.654  29.178  27.536  1.00  0.00     0.074 A 
ATOM     55  C   UNL A   1      40.997  32.305  30.542  1.00  0.00     0.029 A 
ATOM     56  N   UNL A   1      42.206  30.766  29.487  1.00  0.00    -0.354 N 
ATOM     57  N   UNL A   1      44.647  29.725  28.172  1.00  0.00    -0.248 NA
ATOM     58  C   UNL A   1      46.771  30.094  27.270  1.00  0.00     0.031 C 
ATOM     59  C   UNL A   1      42.222  32.873  30.180  1.00  0.00     0.029 A 
ATOM     60  C   UNL A   1      42.988  31.904  29.551  1.00  0.00     0.049 A 
ATOM     61  H   UNL A   1      42.480  29.914  29.077  1.00  0.00     0.167 HD
ATOM     62  C   UNL A   1      45.026  31.037  28.424  1.00  0.00     0.074 A 
ATOM     63  C   UNL A   1      46.358  31.198  27.878  1.00  0.00     0.031 C 
ATOM     64  C   UNL A   1      44.333  32.020  29.048  1.00  0.00     0.034 A 
BRANCH  51  65
ATOM     65  C   UNL A   1      38.604  30.466  30.788  1.00  0.00     0.023 A 
ATOM     66  C   UNL A   1      38.289  30.127  32.119  1.00  0.00     0.012 A 
ATOM     67  C   UNL A   1      37.703  31.259  30.047  1.00  0.00     0.148 A 
ATOM     68  C   UNL A   1      37.082  30.536  32.690  1.00  0.00     0.002 A 
ATOM     69  C   UNL A   1      36.529  31.707  30.639  1.00  0.00     0.091 A 
ATOM     70  F   UNL A   1      38.010  31.556  28.777  1.00  0.00    -0.205 F 
ATOM     71  C   UNL A   1      36.209  31.333  31.954  1.00  0.00     0.022 A 
BRANCH  69  72
ATOM     72  S   UNL A   1      35.379  32.808  29.806  1.00  0.00     0.127 S 
ATOM     73  O   UNL A   1      34.293  32.894  30.783  1.00  0.00    -0.237 OA
ATOM     74  O   UNL A   1      36.172  34.029  29.667  1.00  0.00    -0.237 OA
ATOM     75  O   UNL A   1      35.033  32.157  28.550  1.00  0.00    -0.744 OA
ENDBRANCH  69  72
ENDBRANCH  51  65
BRANCH  52  76
ATOM     76  C   UNL A   1      47.028  27.324  26.321  1.00  0.00     0.023 A 
ATOM     77  C   UNL A   1      47.145  27.627  24.951  1.00  0.00     0.012 A 
ATOM     78  C   UNL A   1      48.079  26.640  26.967  1.00  0.00     0.148 A 
ATOM     79  C   UNL A   1      48.271  27.230  24.230  1.00  0.00     0.002 A 
ATOM     80  C   UNL A   1      49.223  26.301  26.256  1.00  0.00     0.091 A 
ATOM     81  F   UNL A   1      47.946  26.357  28.270  1.00  0.00    -0.205 F 
ATOM     82  C   UNL A   1      49.314  26.577  24.883  1.00  0.00     0.022 A 
BRANCH  80  83
ATOM     83  S   UNL A   1      50.668  25.575  27.040  1.00  0.00     0.127 S 
ATOM     84  O   UNL A   1      51.579  25.427  25.907  1.00  0.00    -0.237 OA
ATOM     85  O   UNL A   1      51.042  26.614  28.000  1.00  0.00    -0.237 OA
ATOM     86  O   UNL A   1      50.209  24.333  27.645  1.00  0.00    -0.744 OA
ENDBRANCH  80  83
ENDBRANCH  52  76
BRANCH  64  87
ATOM     87  C   UNL A   1      45.030  33.338  29.249  1.00  0.00     0.023 A 
ATOM     88  C   UNL A   1      45.822  33.561  30.391  1.00  0.00     0.012 A 
ATOM     89  C   UNL A   1      44.959  34.325  28.246  1.00  0.00     0.148 A 
ATOM     90  C   UNL A   1      46.513  34.762  30.544  1.00  0.00     0.002 A 
ATOM     91  C   UNL A   1      45.696  35.492  28.379  1.00  0.00     0.091 A 
ATOM     92  F   UNL A   1      44.182  34.095  27.177  1.00  0.00    -0.205 F 
ATOM     93  C   UNL A   1      46.463  35.719  29.533  1.00  0.00     0.022 A 
BRANCH  91  94
ATOM     94  S   UNL A   1      45.775  36.732  27.082  1.00  0.00     0.127 S 
ATOM     95  O   UNL A   1      46.756  37.669  27.626  1.00  0.00    -0.237 OA
ATOM     96  O   UNL A   1      46.246  35.950  25.939  1.00  0.00    -0.237 OA
ATOM     97  O   UNL A   1      44.425  37.260  26.942  1.00  0.00    -0.744 OA
ENDBRANCH  91  94
ENDBRANCH  64  87
ENDBRANCH  38  39
ENDBRANCH  31  33
ENDBRANCH  30  31
ENDBRANCH  29  30
ENDBRANCH   1  29
TORSDOF 18
ENDMDL
MODEL 2
REMARK VINA RESULT:     -12.7      1.908      2.387
REMARK SMILES O=C(NC(=S)Nc1ccccc1C(=O)OCCOC(=O)c1ccc(-c2c3nc(c(-c4cccc(S(=O)(=O)[O-])c4F)c4ccc([nH]4)c(-c4cccc(S(=O)(=O)[O-])c4F)c4nc(c(-c5cccc(S(=O)(=O)[O-])c5F)c5ccc2[nH]5)C=C4)C=C3)cc1)c1ccc2ccccc2c1
REMARK SMILES IDX 16 1 15 2 13 3 14 4 12 5 7 6 8 7 9 8 11 9 10 10 6 11 4 13
REMARK SMILES IDX 5 14 3 15 1 16 2 17 84 19 85 20 93 21 86 22 92 23 87 24
REMARK SMILES IDX 91 25 88 26 90 27 89 28 17 29 18 30 19 31 20 32 21 33 22 34
REMARK SMILES IDX 83 35 23 36 82 37 24 38 25 39 26 40 76 41 27 42 81 43 75 44
REMARK SMILES IDX 77 45 28 46 80 47 74 48 73 49 29 51 61 52 41 53 60 54 42 55
REMARK SMILES IDX 45 56 59 57 78 58 43 59 44 60 58 62 79 63 46 64 30 65 31 66
REMARK SMILES IDX 39 67 32 68 34 69 40 70 33 71 35 72 36 73 37 74 38 75 62 76
REMARK SMILES IDX 63 77 71 78 64 79 66 80 72 81 65 82 67 83 68 84 69 85 70 86
REMARK SMILES IDX 47 87 48 88 56 89 49 90 51 91 57 92 50 93 52 94 53 95 54 96
REMARK SMILES IDX 55 97
REMARK H PARENT 6 12 3 18 77 50 45 61
REMARK Flexibility Score: inf
ROOT
ATOM      1  C   UNL A   1      36.436  21.984  25.486  1.00  0.00     0.275 C 
ENDROOT
BRANCH   1   2
ATOM      2  O   UNL A   1      35.291  21.622  24.666  1.00  0.00    -0.458 OA
BRANCH   2   3
ATOM      3  C   UNL A   1      34.279  21.126  25.408  1.00  0.00     0.340 C 
ATOM      4  O   UNL A   1      34.269  21.133  26.633  1.00  0.00    -0.246 OA
BRANCH   3   5
ATOM      5  C   UNL A   1      33.201  20.362  24.718  1.00  0.00     0.083 A 
ATOM      6  C   UNL A   1      32.292  21.386  23.299  1.00  0.00     0.055 A 
ATOM      7  C   UNL A   1      31.774  20.420  21.611  1.00  0.00     0.027 A 
ATOM      8  C   UNL A   1      32.268  18.507  21.624  1.00  0.00     0.002 A 
ATOM      9  C   UNL A   1      33.733  18.459  24.692  1.00  0.00     0.018 A 
ATOM     10  C   UNL A   1      33.205  17.480  23.017  1.00  0.00     0.001 A 
BRANCH   6  11
ATOM     11  N   UNL A   1      32.593  22.749  23.171  1.00  0.00    -0.332 N 
ATOM     12  H   UNL A   1      33.069  23.034  22.357  1.00  0.00     0.169 HD
BRANCH  11  13
ATOM     13  C   UNL A   1      32.283  23.707  24.075  1.00  0.00     0.177 C 
ATOM     14  S   UNL A   1      30.967  23.449  25.079  1.00  0.00    -0.040 S 
BRANCH  13  15
ATOM     15  N   UNL A   1      32.953  24.921  24.163  1.00  0.00    -0.299 N 
ATOM     16  O   UNL A   1      33.885  26.931  24.680  1.00  0.00    -0.269 OA
ATOM     17  C   UNL A   1      32.837  26.298  24.525  1.00  0.00     0.257 C 
ATOM     18  H   UNL A   1      33.875  24.773  23.854  1.00  0.00     0.172 HD
BRANCH  17  19
ATOM     19  C   UNL A   1      31.584  27.074  24.775  1.00  0.00     0.040 A 
ATOM     20  C   UNL A   1      30.993  27.424  23.685  1.00  0.00     0.014 A 
ATOM     21  C   UNL A   1      30.904  28.148  24.400  1.00  0.00     0.022 A 
ATOM     22  C   UNL A   1      29.971  28.740  22.508  1.00  0.00     0.009 A 
ATOM     23  C   UNL A   1      29.867  29.679  23.458  1.00  0.00    -0.018 A 
ATOM     24  C   UNL A   1      29.357  29.827  22.312  1.00  0.00    -0.018 A 
ATOM     25  C   UNL A   1      29.281  31.163  23.817  1.00  0.00     0.009 A 
ATOM     26  C   UNL A   1      28.082  30.235  21.743  1.00  0.00     0.009 A 
ATOM     27  C   UNL A   1      28.289  31.991  23.197  1.00  0.00     0.001 A 
ATOM     28  C   UNL A   1      27.578  31.422  22.179  1.00  0.00     0.001 A 
ENDBRANCH  17  19
ENDBRANCH  13  15
ENDBRANCH  11  13
ENDBRANCH   6  11
ENDBRANCH   3   5
ENDBRANCH   2   3
ENDBRANCH   1   2
BRANCH   1  29
ATOM     29  C   UNL A   1      37.618  21.006  25.411  1.00  0.00     0.275 C 
BRANCH  29  30
ATOM     30  O   UNL A   1      38.890  21.663  25.253  1.00  0.00    -0.458 OA
BRANCH  30  31
ATOM     31  C   UNL A   1      39.771  21.420  26.249  1.00  0.00     0.338 C 
ATOM     32  O   UNL A   1      40.298  20.350  26.514  1.00  0.00    -0.246 OA
BRANCH  31  33
ATOM     33  C   UNL A   1      40.079  22.636  27.014  1.00  0.00     0.060 A 
ATOM     34  C   UNL A   1      39.613  23.872  26.574  1.00  0.00     0.016 A 
ATOM     35  C   UNL A   1      41.051  22.575  28.008  1.00  0.00     0.016 A 
ATOM     36  C   UNL A   1      40.236  25.043  26.984  1.00  0.00     0.010 A 
ATOM     37  C   UNL A   1      41.562  23.762  28.535  1.00  0.00     0.010 A 
ATOM     38  C   UNL A   1      41.202  25.007  27.988  1.00  0.00    -0.014 A 
BRANCH  38  39
ATOM     39  C   UNL A   1      41.849  26.254  28.468  1.00  0.00     0.031 A 
ATOM     40  C   UNL A   1      41.022  27.289  29.177  1.00  0.00     0.074 A 
ATOM     41  C   UNL A   1      43.152  26.482  28.204  1.00  0.00     0.049 A 
ATOM     42  N   UNL A   1      41.281  28.551  29.387  1.00  0.00    -0.248 NA
ATOM     43  C   UNL A   1      39.712  26.852  29.693  1.00  0.00     0.031 C 
ATOM     44  C   UNL A   1      44.075  25.535  27.571  1.00  0.00     0.029 A 
ATOM     45  N   UNL A   1      43.917  27.605  28.396  1.00  0.00    -0.354 N 
ATOM     46  C   UNL A   1      40.135  29.083  29.965  1.00  0.00     0.074 A 
ATOM     47  C   UNL A   1      39.183  28.000  30.094  1.00  0.00     0.031 C 
ATOM     48  C   UNL A   1      45.272  26.115  27.416  1.00  0.00     0.029 A 
ATOM     49  C   UNL A   1      45.168  27.505  27.829  1.00  0.00     0.049 A 
ATOM     50  H   UNL A   1      43.605  28.399  28.888  1.00  0.00     0.167 HD
ATOM     51  C   UNL A   1      39.901  30.362  30.340  1.00  0.00     0.034 A 
ATOM     52  C   UNL A   1      46.098  28.446  27.582  1.00  0.00     0.034 A 
ATOM     53  C   UNL A   1      40.885  31.406  30.241  1.00  0.00     0.049 A 
ATOM     54  C   UNL A   1      45.803  29.862  27.977  1.00  0.00     0.074 A 
ATOM     55  C   UNL A   1      40.780  32.728  30.634  1.00  0.00     0.029 A 
ATOM     56  N   UNL A   1      42.155  31.247  29.705  1.00  0.00    -0.354 N 
ATOM     57  N   UNL A   1      44.728  30.353  28.543  1.00  0.00    -0.248 NA
ATOM     58  C   UNL A   1      46.853  30.854  27.711  1.00  0.00     0.031 C 
ATOM     59  C   UNL A   1      41.970  33.378  30.293  1.00  0.00     0.029 A 
ATOM     60  C   UNL A   1      42.839  32.448  29.745  1.00  0.00     0.049 A 
ATOM     61  H   UNL A   1      42.515  30.403  29.349  1.00  0.00     0.167 HD
ATOM     62  C   UNL A   1      44.988  31.701  28.745  1.00  0.00     0.074 A 
ATOM     63  C   UNL A   1      46.326  31.947  28.247  1.00  0.00     0.031 C 
ATOM     64  C   UNL A   1      44.191  32.652  29.291  1.00  0.00     0.034 A 
BRANCH  51  65
ATOM     65  C   UNL A   1      38.535  30.710  30.873  1.00  0.00     0.023 A 
ATOM     66  C   UNL A   1      38.213  30.472  32.224  1.00  0.00     0.012 A 
ATOM     67  C   UNL A   1      37.582  31.328  30.036  1.00  0.00     0.148 A 
ATOM     68  C   UNL A   1      36.953  30.806  32.724  1.00  0.00     0.002 A 
ATOM     69  C   UNL A   1      36.349  31.706  30.554  1.00  0.00     0.091 A 
ATOM     70  F   UNL A   1      37.898  31.531  28.750  1.00  0.00    -0.205 F 
ATOM     71  C   UNL A   1      36.027  31.432  31.893  1.00  0.00     0.022 A 
BRANCH  69  72
ATOM     72  S   UNL A   1      35.121  32.594  29.590  1.00  0.00     0.127 S 
ATOM     73  O   UNL A   1      35.917  33.686  29.029  1.00  0.00    -0.237 OA
ATOM     74  O   UNL A   1      34.705  31.582  28.619  1.00  0.00    -0.237 OA
ATOM     75  O   UNL A   1      34.086  33.001  30.530  1.00  0.00    -0.744 OA
ENDBRANCH  69  72
ENDBRANCH  51  65
BRANCH  52  76
ATOM     76  C   UNL A   1      47.375  28.074  26.911  1.00  0.00     0.023 A 
ATOM     77  C   UNL A   1      48.521  27.836  27.694  1.00  0.00     0.012 A 
ATOM     78  C   UNL A   1      47.453  27.919  25.512  1.00  0.00     0.148 A 
ATOM     79  C   UNL A   1      49.729  27.483  27.094  1.00  0.00     0.002 A 
ATOM     80  C   UNL A   1      48.644  27.509  24.927  1.00  0.00     0.091 A 
ATOM     81  F   UNL A   1      46.352  28.155  24.784  1.00  0.00    -0.205 F 
ATOM     82  C   UNL A   1      49.789  27.309  25.713  1.00  0.00     0.022 A 
BRANCH  80  83
ATOM     83  S   UNL A   1      48.782  27.135  23.175  1.00  0.00     0.127 S 
ATOM     84  O   UNL A   1      48.099  28.277  22.571  1.00  0.00    -0.237 OA
ATOM     85  O   UNL A   1      50.233  27.116  22.986  1.00  0.00    -0.237 OA
ATOM     86  O   UNL A   1      48.133  25.845  22.992  1.00  0.00    -0.744 OA
ENDBRANCH  80  83
ENDBRANCH  52  76
BRANCH  64  87
ATOM     87  C   UNL A   1      44.769  34.030  29.455  1.00  0.00     0.023 A 
ATOM     88  C   UNL A   1      45.485  34.372  30.618  1.00  0.00     0.012 A 
ATOM     89  C   UNL A   1      44.669  34.959  28.401  1.00  0.00     0.148 A 
ATOM     90  C   UNL A   1      46.070  35.632  30.739  1.00  0.00     0.002 A 
ATOM     91  C   UNL A   1      45.302  36.188  28.505  1.00  0.00     0.091 A 
ATOM     92  F   UNL A   1      43.965  34.615  27.311  1.00  0.00    -0.205 F 
ATOM     93  C   UNL A   1      45.991  36.532  29.679  1.00  0.00     0.022 A 
BRANCH  91  94
ATOM     94  S   UNL A   1      45.344  37.367  27.151  1.00  0.00     0.127 S 
ATOM     95  O   UNL A   1      46.106  38.467  27.738  1.00  0.00    -0.237 OA
ATOM     96  O   UNL A   1      46.054  36.617  26.114  1.00  0.00    -0.237 OA
ATOM     97  O   UNL A   1      43.955  37.674  26.836  1.00  0.00    -0.744 OA
ENDBRANCH  91  94
ENDBRANCH  64  87
ENDBRANCH  38  39
ENDBRANCH  31  33
ENDBRANCH  30  31
ENDBRANCH  29  30
ENDBRANCH   1  29
TORSDOF 18
ENDMDL
MODEL 3
REMARK VINA RESULT:     -11.8      5.801     12.448
REMARK SMILES O=C(NC(=S)Nc1ccccc1C(=O)OCCOC(=O)c1ccc(-c2c3nc(c(-c4cccc(S(=O)(=O)[O-])c4F)c4ccc([nH]4)c(-c4cccc(S(=O)(=O)[O-])c4F)c4nc(c(-c5cccc(S(=O)(=O)[O-])c5F)c5ccc2[nH]5)C=C4)C=C3)cc1)c1ccc2ccccc2c1
REMARK SMILES IDX 16 1 15 2 13 3 14 4 12 5 7 6 8 7 9 8 11 9 10 10 6 11 4 13
REMARK SMILES IDX 5 14 3 15 1 16 2 17 84 19 85 20 93 21 86 22 92 23 87 24
REMARK SMILES IDX 91 25 88 26 90 27 89 28 17 29 18 30 19 31 20 32 21 33 22 34
REMARK SMILES IDX 83 35 23 36 82 37 24 38 25 39 26 40 76 41 27 42 81 43 75 44
REMARK SMILES IDX 77 45 28 46 80 47 74 48 73 49 29 51 61 52 41 53 60 54 42 55
REMARK SMILES IDX 45 56 59 57 78 58 43 59 44 60 58 62 79 63 46 64 30 65 31 66
REMARK SMILES IDX 39 67 32 68 34 69 40 70 33 71 35 72 36 73 37 74 38 75 62 76
REMARK SMILES IDX 63 77 71 78 64 79 66 80 72 81 65 82 67 83 68 84 69 85 70 86
REMARK SMILES IDX 47 87 48 88 56 89 49 90 51 91 57 92 50 93 52 94 53 95 54 96
REMARK SMILES IDX 55 97
REMARK H PARENT 6 12 3 18 77 50 45 61
REMARK Flexibility Score: inf
ROOT
ATOM      1  C   UNL A   1      47.040  24.702  25.013  1.00  0.00     0.275 C 
ENDROOT
BRANCH   1   2
ATOM      2  O   UNL A   1      47.778  25.190  23.860  1.00  0.00    -0.458 OA
BRANCH   2   3
ATOM      3  C   UNL A   1      47.790  26.538  23.806  1.00  0.00     0.340 C 
ATOM      4  O   UNL A   1      46.812  27.236  24.040  1.00  0.00    -0.246 OA
BRANCH   3   5
ATOM      5  C   UNL A   1      48.999  27.216  23.254  1.00  0.00     0.083 A 
ATOM      6  C   UNL A   1      50.622  26.943  24.341  1.00  0.00     0.055 A 
ATOM      7  C   UNL A   1      52.373  26.676  23.384  1.00  0.00     0.027 A 
ATOM      8  C   UNL A   1      52.205  26.733  21.417  1.00  0.00     0.002 A 
ATOM      9  C   UNL A   1      48.841  27.219  21.284  1.00  0.00     0.018 A 
ATOM     10  C   UNL A   1      50.588  26.970  20.319  1.00  0.00     0.001 A 
BRANCH   6  11
ATOM     11  N   UNL A   1      50.486  26.311  25.584  1.00  0.00    -0.332 N 
ATOM     12  H   UNL A   1      49.980  25.466  25.611  1.00  0.00     0.169 HD
BRANCH  11  13
ATOM     13  C   UNL A   1      50.995  26.766  26.753  1.00  0.00     0.177 C 
ATOM     14  S   UNL A   1      52.552  26.305  27.168  1.00  0.00    -0.040 S 
BRANCH  13  15
ATOM     15  N   UNL A   1      50.270  27.532  27.656  1.00  0.00    -0.299 N 
ATOM     16  O   UNL A   1      49.269  28.563  29.419  1.00  0.00    -0.269 OA
ATOM     17  C   UNL A   1      49.445  27.498  28.821  1.00  0.00     0.257 C 
ATOM     18  H   UNL A   1      50.359  28.474  27.384  1.00  0.00     0.172 HD
BRANCH  17  19
ATOM     19  C   UNL A   1      48.785  26.308  29.439  1.00  0.00     0.040 A 
ATOM     20  C   UNL A   1      47.947  25.738  28.643  1.00  0.00     0.014 A 
ATOM     21  C   UNL A   1      47.616  25.707  29.608  1.00  0.00     0.022 A 
ATOM     22  C   UNL A   1      46.182  24.810  28.215  1.00  0.00     0.009 A 
ATOM     23  C   UNL A   1      45.761  24.781  29.486  1.00  0.00    -0.018 A 
ATOM     24  C   UNL A   1      45.084  24.278  28.547  1.00  0.00    -0.018 A 
ATOM     25  C   UNL A   1      44.561  24.310  30.491  1.00  0.00     0.009 A 
ATOM     26  C   UNL A   1      44.385  23.034  28.268  1.00  0.00     0.009 A 
ATOM     27  C   UNL A   1      43.481  23.378  30.343  1.00  0.00     0.001 A 
ATOM     28  C   UNL A   1      43.488  22.621  29.206  1.00  0.00     0.001 A 
ENDBRANCH  17  19
ENDBRANCH  13  15
ENDBRANCH  11  13
ENDBRANCH   6  11
ENDBRANCH   3   5
ENDBRANCH   2   3
ENDBRANCH   1   2
BRANCH   1  29
ATOM     29  C   UNL A   1      45.879  23.753  24.682  1.00  0.00     0.275 C 
BRANCH  29  30
ATOM     30  O   UNL A   1      44.704  24.437  24.204  1.00  0.00    -0.458 OA
BRANCH  30  31
ATOM     31  C   UNL A   1      43.549  24.023  24.771  1.00  0.00     0.338 C 
ATOM     32  O   UNL A   1      43.081  22.894  24.735  1.00  0.00    -0.246 OA
BRANCH  31  33
ATOM     33  C   UNL A   1      42.880  25.107  25.503  1.00  0.00     0.060 A 
ATOM     34  C   UNL A   1      43.301  26.423  25.335  1.00  0.00     0.016 A 
ATOM     35  C   UNL A   1      42.021  24.781  26.549  1.00  0.00     0.016 A 
ATOM     36  C   UNL A   1      43.024  27.376  26.305  1.00  0.00     0.010 A 
ATOM     37  C   UNL A   1      41.613  25.781  27.433  1.00  0.00     0.010 A 
ATOM     38  C   UNL A   1      42.156  27.077  27.354  1.00  0.00    -0.014 A 
BRANCH  38  39
ATOM     39  C   UNL A   1      41.815  28.097  28.377  1.00  0.00     0.031 A 
ATOM     40  C   UNL A   1      42.743  28.316  29.539  1.00  0.00     0.074 A 
ATOM     41  C   UNL A   1      40.648  28.768  28.297  1.00  0.00     0.049 A 
ATOM     42  N   UNL A   1      42.507  28.891  30.686  1.00  0.00    -0.248 NA
ATOM     43  C   UNL A   1      44.112  27.786  29.403  1.00  0.00     0.031 C 
ATOM     44  C   UNL A   1      39.688  28.685  27.192  1.00  0.00     0.029 A 
ATOM     45  N   UNL A   1      40.048  29.622  29.188  1.00  0.00    -0.354 N 
ATOM     46  C   UNL A   1      43.657  28.708  31.446  1.00  0.00     0.074 A 
ATOM     47  C   UNL A   1      44.600  27.985  30.621  1.00  0.00     0.031 C 
ATOM     48  C   UNL A   1      38.620  29.442  27.474  1.00  0.00     0.029 A 
ATOM     49  C   UNL A   1      38.767  29.966  28.821  1.00  0.00     0.049 A 
ATOM     50  H   UNL A   1      40.488  29.954  30.004  1.00  0.00     0.167 HD
ATOM     51  C   UNL A   1      43.891  29.101  32.720  1.00  0.00     0.034 A 
ATOM     52  C   UNL A   1      37.782  30.559  29.521  1.00  0.00     0.034 A 
ATOM     53  C   UNL A   1      42.949  29.858  33.498  1.00  0.00     0.049 A 
ATOM     54  C   UNL A   1      38.054  30.955  30.941  1.00  0.00     0.074 A 
ATOM     55  C   UNL A   1      43.094  30.353  34.782  1.00  0.00     0.029 A 
ATOM     56  N   UNL A   1      41.682  30.227  33.067  1.00  0.00    -0.354 N 
ATOM     57  N   UNL A   1      39.149  30.800  31.644  1.00  0.00    -0.248 NA
ATOM     58  C   UNL A   1      36.962  31.620  31.663  1.00  0.00     0.031 C 
ATOM     59  C   UNL A   1      41.898  30.982  35.143  1.00  0.00     0.029 A 
ATOM     60  C   UNL A   1      41.031  30.931  34.062  1.00  0.00     0.049 A 
ATOM     61  H   UNL A   1      41.305  30.017  32.183  1.00  0.00     0.167 HD
ATOM     62  C   UNL A   1      38.896  31.388  32.876  1.00  0.00     0.074 A 
ATOM     63  C   UNL A   1      37.545  31.909  32.819  1.00  0.00     0.031 C 
ATOM     64  C   UNL A   1      39.705  31.486  33.958  1.00  0.00     0.034 A 
BRANCH  51  65
ATOM     65  C   UNL A   1      45.199  28.707  33.357  1.00  0.00     0.023 A 
ATOM     66  C   UNL A   1      46.313  29.567  33.290  1.00  0.00     0.012 A 
ATOM     67  C   UNL A   1      45.305  27.497  34.074  1.00  0.00     0.148 A 
ATOM     68  C   UNL A   1      47.522  29.212  33.892  1.00  0.00     0.002 A 
ATOM     69  C   UNL A   1      46.494  27.175  34.715  1.00  0.00     0.091 A 
ATOM     70  F   UNL A   1      44.241  26.682  34.113  1.00  0.00    -0.205 F 
ATOM     71  C   UNL A   1      47.609  28.023  34.612  1.00  0.00     0.022 A 
BRANCH  69  72
ATOM     72  S   UNL A   1      46.682  25.710  35.738  1.00  0.00     0.127 S 
ATOM     73  O   UNL A   1      48.052  25.866  36.228  1.00  0.00    -0.237 OA
ATOM     74  O   UNL A   1      45.646  25.910  36.751  1.00  0.00    -0.237 OA
ATOM     75  O   UNL A   1      46.464  24.571  34.857  1.00  0.00    -0.744 OA
ENDBRANCH  69  72
ENDBRANCH  51  65
BRANCH  52  76
ATOM     76  C   UNL A   1      36.452  30.788  28.890  1.00  0.00     0.023 A 
ATOM     77  C   UNL A   1      35.713  29.685  28.422  1.00  0.00     0.012 A 
ATOM     78  C   UNL A   1      35.901  32.081  28.782  1.00  0.00     0.148 A 
ATOM     79  C   UNL A   1      34.464  29.868  27.829  1.00  0.00     0.002 A 
ATOM     80  C   UNL A   1      34.632  32.250  28.245  1.00  0.00     0.091 A 
ATOM     81  F   UNL A   1      36.623  33.119  29.229  1.00  0.00    -0.205 F 
ATOM     82  C   UNL A   1      33.918  31.147  27.750  1.00  0.00     0.022 A 
BRANCH  80  83
ATOM     83  S   UNL A   1      33.796  33.840  28.220  1.00  0.00     0.127 S 
ATOM     84  O   UNL A   1      33.763  34.183  29.640  1.00  0.00    -0.237 OA
ATOM     85  O   UNL A   1      34.712  34.647  27.412  1.00  0.00    -0.237 OA
ATOM     86  O   UNL A   1      32.501  33.597  27.601  1.00  0.00    -0.744 OA
ENDBRANCH  80  83
ENDBRANCH  52  76
BRANCH  64  87
ATOM     87  C   UNL A   1      39.187  32.253  35.144  1.00  0.00     0.023 A 
ATOM     88  C   UNL A   1      38.296  31.650  36.051  1.00  0.00     0.012 A 
ATOM     89  C   UNL A   1      39.664  33.554  35.396  1.00  0.00     0.148 A 
ATOM     90  C   UNL A   1      37.865  32.345  37.181  1.00  0.00     0.002 A 
ATOM     91  C   UNL A   1      39.277  34.216  36.552  1.00  0.00     0.091 A 
ATOM     92  F   UNL A   1      40.498  34.112  34.506  1.00  0.00    -0.205 F 
ATOM     93  C   UNL A   1      38.366  33.619  37.438  1.00  0.00     0.022 A 
BRANCH  91  94
ATOM     94  S   UNL A   1      39.952  35.813  37.018  1.00  0.00     0.127 S 
ATOM     95  O   UNL A   1      39.196  36.113  38.232  1.00  0.00    -0.237 OA
ATOM     96  O   UNL A   1      41.363  35.496  37.239  1.00  0.00    -0.237 OA
ATOM     97  O   UNL A   1      39.699  36.705  35.894  1.00  0.00    -0.744 OA
ENDBRANCH  91  94
ENDBRANCH  64  87
ENDBRANCH  38  39
ENDBRANCH  31  33
ENDBRANCH  30  31
ENDBRANCH  29  30
ENDBRANCH   1  29
TORSDOF 18
ENDMDL
