MODEL 1
REMARK VINA RESULT:     -12.0      0.000      0.000
REMARK SMILES COc1ccc([C@H]2CC(c3ccc(S(C)(=O)=O)cc3)=NN2c2ccc(C(=O)OCCOC(=O)c3ccc(-c4c5nc(c(-c6cccc(S(=O)(=O)[O-])c6F)c6ccc([nH]6)c(-c6cccc(S(=O)(=O)[O-])c6F)c6nc(c(-c7cccc(S(=O)(=O)[O-])c7F)c7ccc4[nH]7)C=C6)C=C5)cc3)cc2)cc1
REMARK SMILES IDX 29 1 28 2 26 3 27 4 25 5 22 6 23 7 98 8 24 9 97 10 21 11
REMARK SMILES IDX 7 12 8 13 9 14 20 15 6 16 3 17 4 18 100 19 5 20 99 21 2 22
REMARK SMILES IDX 1 23 10 24 11 25 19 26 12 27 18 28 13 29 14 30 15 31 16 32
REMARK SMILES IDX 17 33 30 34 31 35 32 36 33 37 34 38 35 39 96 40 36 41 95 42
REMARK SMILES IDX 37 43 38 44 39 45 89 46 40 47 94 48 88 49 90 50 41 51 93 52
REMARK SMILES IDX 87 53 86 54 42 56 74 57 54 58 73 59 55 60 58 61 72 62 91 63
REMARK SMILES IDX 56 64 57 65 71 67 92 68 59 69 43 70 44 71 52 72 45 73 47 74
REMARK SMILES IDX 53 75 46 76 48 77 49 78 50 79 51 80 75 81 76 82 84 83 77 84
REMARK SMILES IDX 79 85 85 86 78 87 80 88 81 89 82 90 83 91 60 92 61 93 69 94
REMARK SMILES IDX 62 95 64 96 70 97 63 98 65 99 66 100 67 101 68 102
REMARK H PARENT 90 55 58 66
REMARK Flexibility Score: inf
ROOT
ATOM      1  C   UNL A   1      32.905  31.686  27.635  1.00  0.00     0.275 C 
ENDROOT
BRANCH   1   2
ATOM      2  O   UNL A   1      34.208  31.248  27.198  1.00  0.00    -0.458 OA
BRANCH   2   3
ATOM      3  C   UNL A   1      34.635  30.085  27.751  1.00  0.00     0.338 C 
ATOM      4  O   UNL A   1      35.436  29.963  28.662  1.00  0.00    -0.246 OA
BRANCH   3   5
ATOM      5  C   UNL A   1      33.948  28.928  27.142  1.00  0.00     0.060 A 
ATOM      6  C   UNL A   1      32.667  26.592  26.232  1.00  0.00     0.060 A 
ATOM      7  C   UNL A   1      32.042  27.440  27.147  1.00  0.00     0.029 A 
ATOM      8  C   UNL A   1      33.934  26.957  25.747  1.00  0.00     0.029 A 
ATOM      9  C   UNL A   1      32.691  28.571  27.629  1.00  0.00     0.018 A 
ATOM     10  C   UNL A   1      34.567  28.132  26.179  1.00  0.00     0.018 A 
BRANCH   6  11
ATOM     11  N   UNL A   1      32.047  25.405  25.864  1.00  0.00    -0.257 N 
ATOM     12  C   UNL A   1      30.669  25.329  25.376  1.00  0.00     0.144 C 
ATOM     13  C   UNL A   1      30.578  23.893  24.843  1.00  0.00     0.091 C 
ATOM     14  C   UNL A   1      32.000  23.446  25.031  1.00  0.00     0.071 C 
ATOM     15  N   UNL A   1      32.794  24.299  25.593  1.00  0.00    -0.176 NA
BRANCH  12  16
ATOM     16  C   UNL A   1      30.336  26.365  24.310  1.00  0.00    -0.023 A 
ATOM     17  C   UNL A   1      29.812  28.375  22.399  1.00  0.00     0.118 A 
ATOM     18  C   UNL A   1      31.076  27.793  22.482  1.00  0.00     0.047 A 
ATOM     19  C   UNL A   1      28.787  27.909  23.221  1.00  0.00     0.047 A 
ATOM     20  C   UNL A   1      31.340  26.805  23.433  1.00  0.00     0.010 A 
ATOM     21  C   UNL A   1      29.047  26.906  24.165  1.00  0.00     0.010 A 
BRANCH  17  22
ATOM     22  O   UNL A   1      29.672  29.354  21.455  1.00  0.00    -0.497 OA
ATOM     23  C   UNL A   1      29.199  30.599  21.959  1.00  0.00     0.278 C 
ENDBRANCH  17  22
ENDBRANCH  12  16
BRANCH  14  24
ATOM     24  C   UNL A   1      32.412  22.083  24.678  1.00  0.00    -0.002 A 
ATOM     25  C   UNL A   1      33.096  21.331  25.638  1.00  0.00     0.011 A 
ATOM     26  C   UNL A   1      32.082  21.531  23.438  1.00  0.00     0.011 A 
ATOM     27  C   UNL A   1      33.413  19.998  25.379  1.00  0.00     0.021 A 
ATOM     28  C   UNL A   1      32.420  20.203  23.164  1.00  0.00     0.021 A 
ATOM     29  C   UNL A   1      33.072  19.441  24.141  1.00  0.00     0.067 A 
BRANCH  29  30
ATOM     30  S   UNL A   1      33.398  17.716  23.858  1.00  0.00     0.175 S 
ATOM     31  C   UNL A   1      32.516  16.880  25.149  1.00  0.00     0.163 C 
ATOM     32  O   UNL A   1      32.778  17.384  22.588  1.00  0.00    -0.224 OA
ATOM     33  O   UNL A   1      34.817  17.497  24.062  1.00  0.00    -0.224 OA
ENDBRANCH  29  30
ENDBRANCH  14  24
ENDBRANCH   6  11
ENDBRANCH   3   5
ENDBRANCH   2   3
ENDBRANCH   1   2
BRANCH   1  34
ATOM     34  C   UNL A   1      32.670  33.160  27.306  1.00  0.00     0.275 C 
BRANCH  34  35
ATOM     35  O   UNL A   1      33.697  33.971  27.901  1.00  0.00    -0.458 OA
BRANCH  35  36
ATOM     36  C   UNL A   1      33.465  34.371  29.173  1.00  0.00     0.338 C 
ATOM     37  O   UNL A   1      32.472  34.938  29.597  1.00  0.00    -0.246 OA
BRANCH  36  38
ATOM     38  C   UNL A   1      34.601  34.009  30.041  1.00  0.00     0.060 A 
ATOM     39  C   UNL A   1      35.835  34.623  29.858  1.00  0.00     0.016 A 
ATOM     40  C   UNL A   1      34.484  32.943  30.930  1.00  0.00     0.016 A 
ATOM     41  C   UNL A   1      36.982  34.073  30.430  1.00  0.00     0.010 A 
ATOM     42  C   UNL A   1      35.616  32.484  31.615  1.00  0.00     0.010 A 
ATOM     43  C   UNL A   1      36.894  32.999  31.328  1.00  0.00    -0.014 A 
BRANCH  43  44
ATOM     44  C   UNL A   1      38.119  32.392  31.938  1.00  0.00     0.031 A 
ATOM     45  C   UNL A   1      38.878  31.305  31.209  1.00  0.00     0.074 A 
ATOM     46  C   UNL A   1      38.556  32.789  33.153  1.00  0.00     0.049 A 
ATOM     47  N   UNL A   1      39.826  30.516  31.651  1.00  0.00    -0.248 NA
ATOM     48  C   UNL A   1      38.506  31.053  29.806  1.00  0.00     0.031 C 
ATOM     49  C   UNL A   1      37.941  33.830  33.979  1.00  0.00     0.029 A 
ATOM     50  N   UNL A   1      39.617  32.354  33.912  1.00  0.00    -0.354 N 
ATOM     51  C   UNL A   1      40.093  29.620  30.621  1.00  0.00     0.074 A 
ATOM     52  C   UNL A   1      39.219  29.971  29.523  1.00  0.00     0.031 C 
ATOM     53  C   UNL A   1      38.649  33.976  35.109  1.00  0.00     0.029 A 
ATOM     54  C   UNL A   1      39.712  32.979  35.135  1.00  0.00     0.049 A 
ATOM     55  H   UNL A   1      40.249  31.662  33.610  1.00  0.00     0.167 HD
ATOM     56  C   UNL A   1      40.992  28.606  30.584  1.00  0.00     0.034 A 
ATOM     57  C   UNL A   1      40.530  32.755  36.184  1.00  0.00     0.034 A 
ATOM     58  C   UNL A   1      41.936  28.323  31.632  1.00  0.00     0.049 A 
ATOM     59  C   UNL A   1      41.547  31.654  36.101  1.00  0.00     0.074 A 
ATOM     60  C   UNL A   1      42.919  27.348  31.664  1.00  0.00     0.029 A 
ATOM     61  N   UNL A   1      42.036  29.027  32.822  1.00  0.00    -0.354 N 
ATOM     62  N   UNL A   1      41.804  30.843  35.104  1.00  0.00    -0.248 NA
ATOM     63  C   UNL A   1      42.395  31.442  37.283  1.00  0.00     0.031 C 
ATOM     64  C   UNL A   1      43.613  27.463  32.873  1.00  0.00     0.029 A 
ATOM     65  C   UNL A   1      43.068  28.516  33.590  1.00  0.00     0.049 A 
ATOM     66  H   UNL A   1      41.458  29.780  33.082  1.00  0.00     0.167 HD
ATOM     67  C   UNL A   1      42.853  30.038  35.531  1.00  0.00     0.074 A 
ATOM     68  C   UNL A   1      43.206  30.479  36.865  1.00  0.00     0.031 C 
ATOM     69  C   UNL A   1      43.452  29.006  34.887  1.00  0.00     0.034 A 
BRANCH  56  70
ATOM     70  C   UNL A   1      41.031  27.738  29.352  1.00  0.00     0.023 A 
ATOM     71  C   UNL A   1      40.143  26.651  29.232  1.00  0.00     0.012 A 
ATOM     72  C   UNL A   1      41.896  28.046  28.281  1.00  0.00     0.148 A 
ATOM     73  C   UNL A   1      40.134  25.866  28.079  1.00  0.00     0.002 A 
ATOM     74  C   UNL A   1      41.852  27.284  27.118  1.00  0.00     0.091 A 
ATOM     75  F   UNL A   1      42.748  29.071  28.420  1.00  0.00    -0.205 F 
ATOM     76  C   UNL A   1      40.979  26.189  27.019  1.00  0.00     0.022 A 
BRANCH  74  77
ATOM     77  S   UNL A   1      42.843  27.671  25.670  1.00  0.00     0.127 S 
ATOM     78  O   UNL A   1      42.295  26.744  24.681  1.00  0.00    -0.237 OA
ATOM     79  O   UNL A   1      42.512  29.077  25.434  1.00  0.00    -0.237 OA
ATOM     80  O   UNL A   1      44.226  27.433  26.058  1.00  0.00    -0.744 OA
ENDBRANCH  74  77
ENDBRANCH  56  70
BRANCH  57  81
ATOM     81  C   UNL A   1      40.424  33.611  37.402  1.00  0.00     0.023 A 
ATOM     82  C   UNL A   1      39.387  33.374  38.325  1.00  0.00     0.012 A 
ATOM     83  C   UNL A   1      41.365  34.622  37.675  1.00  0.00     0.148 A 
ATOM     84  C   UNL A   1      39.280  34.138  39.488  1.00  0.00     0.002 A 
ATOM     85  C   UNL A   1      41.292  35.336  38.866  1.00  0.00     0.091 A 
ATOM     86  F   UNL A   1      42.330  34.857  36.773  1.00  0.00    -0.205 F 
ATOM     87  C   UNL A   1      40.241  35.106  39.766  1.00  0.00     0.022 A 
BRANCH  85  88
ATOM     88  S   UNL A   1      42.578  36.487  39.362  1.00  0.00     0.127 S 
ATOM     89  O   UNL A   1      42.352  36.589  40.801  1.00  0.00    -0.237 OA
ATOM     90  O   UNL A   1      43.797  35.774  38.978  1.00  0.00    -0.237 OA
ATOM     91  O   UNL A   1      42.329  37.697  38.588  1.00  0.00    -0.744 OA
ENDBRANCH  85  88
ENDBRANCH  57  81
BRANCH  69  92
ATOM     92  C   UNL A   1      44.575  28.301  35.598  1.00  0.00     0.023 A 
ATOM     93  C   UNL A   1      45.909  28.643  35.303  1.00  0.00     0.012 A 
ATOM     94  C   UNL A   1      44.308  27.350  36.602  1.00  0.00     0.148 A 
ATOM     95  C   UNL A   1      46.963  28.029  35.977  1.00  0.00     0.002 A 
ATOM     96  C   UNL A   1      45.363  26.772  37.299  1.00  0.00     0.091 A 
ATOM     97  F   UNL A   1      43.033  27.021  36.852  1.00  0.00    -0.205 F 
ATOM     98  C   UNL A   1      46.690  27.103  36.982  1.00  0.00     0.022 A 
BRANCH  96  99
ATOM     99  S   UNL A   1      45.097  25.635  38.665  1.00  0.00     0.127 S 
ATOM    100  O   UNL A   1      46.457  25.442  39.163  1.00  0.00    -0.237 OA
ATOM    101  O   UNL A   1      44.226  26.408  39.552  1.00  0.00    -0.237 OA
ATOM    102  O   UNL A   1      44.466  24.458  38.082  1.00  0.00    -0.744 OA
ENDBRANCH  96  99
ENDBRANCH  69  92
ENDBRANCH  43  44
ENDBRANCH  36  38
ENDBRANCH  35  36
ENDBRANCH  34  35
ENDBRANCH   1  34
TORSDOF 19
ENDMDL
MODEL 2
REMARK VINA RESULT:     -11.9      0.762      7.109
REMARK SMILES COc1ccc([C@H]2CC(c3ccc(S(C)(=O)=O)cc3)=NN2c2ccc(C(=O)OCCOC(=O)c3ccc(-c4c5nc(c(-c6cccc(S(=O)(=O)[O-])c6F)c6ccc([nH]6)c(-c6cccc(S(=O)(=O)[O-])c6F)c6nc(c(-c7cccc(S(=O)(=O)[O-])c7F)c7ccc4[nH]7)C=C6)C=C5)cc3)cc2)cc1
REMARK SMILES IDX 29 1 28 2 26 3 27 4 25 5 22 6 23 7 98 8 24 9 97 10 21 11
REMARK SMILES IDX 7 12 8 13 9 14 20 15 6 16 3 17 4 18 100 19 5 20 99 21 2 22
REMARK SMILES IDX 1 23 10 24 11 25 19 26 12 27 18 28 13 29 14 30 15 31 16 32
REMARK SMILES IDX 17 33 30 34 31 35 32 36 33 37 34 38 35 39 96 40 36 41 95 42
REMARK SMILES IDX 37 43 38 44 39 45 89 46 40 47 94 48 88 49 90 50 41 51 93 52
REMARK SMILES IDX 87 53 86 54 42 56 74 57 54 58 73 59 55 60 58 61 72 62 91 63
REMARK SMILES IDX 56 64 57 65 71 67 92 68 59 69 43 70 44 71 52 72 45 73 47 74
REMARK SMILES IDX 53 75 46 76 48 77 49 78 50 79 51 80 75 81 76 82 84 83 77 84
REMARK SMILES IDX 79 85 85 86 78 87 80 88 81 89 82 90 83 91 60 92 61 93 69 94
REMARK SMILES IDX 62 95 64 96 70 97 63 98 65 99 66 100 67 101 68 102
REMARK H PARENT 90 55 58 66
REMARK Flexibility Score: inf
ROOT
ATOM      1  C   UNL A   1      33.162  32.375  28.078  1.00  0.00     0.275 C 
ENDROOT
BRANCH   1   2
ATOM      2  O   UNL A   1      33.948  31.606  27.145  1.00  0.00    -0.458 OA
BRANCH   2   3
ATOM      3  C   UNL A   1      34.436  30.438  27.634  1.00  0.00     0.338 C 
ATOM      4  O   UNL A   1      35.295  30.310  28.490  1.00  0.00    -0.246 OA
BRANCH   3   5
ATOM      5  C   UNL A   1      33.739  29.283  27.035  1.00  0.00     0.060 A 
ATOM      6  C   UNL A   1      32.424  26.956  26.147  1.00  0.00     0.060 A 
ATOM      7  C   UNL A   1      31.786  27.857  27.001  1.00  0.00     0.029 A 
ATOM      8  C   UNL A   1      33.724  27.262  25.711  1.00  0.00     0.029 A 
ATOM      9  C   UNL A   1      32.450  28.984  27.474  1.00  0.00     0.018 A 
ATOM     10  C   UNL A   1      34.375  28.432  26.130  1.00  0.00     0.018 A 
BRANCH   6  11
ATOM     11  N   UNL A   1      31.783  25.778  25.792  1.00  0.00    -0.257 N 
ATOM     12  C   UNL A   1      30.409  25.724  25.288  1.00  0.00     0.144 C 
ATOM     13  C   UNL A   1      30.293  24.281  24.779  1.00  0.00     0.091 C 
ATOM     14  C   UNL A   1      31.701  23.805  24.993  1.00  0.00     0.071 C 
ATOM     15  N   UNL A   1      32.508  24.651  25.550  1.00  0.00    -0.176 NA
BRANCH  12  16
ATOM     16  C   UNL A   1      30.113  26.748  24.200  1.00  0.00    -0.023 A 
ATOM     17  C   UNL A   1      29.656  28.735  22.249  1.00  0.00     0.118 A 
ATOM     18  C   UNL A   1      30.913  28.148  22.376  1.00  0.00     0.047 A 
ATOM     19  C   UNL A   1      28.605  28.285  23.046  1.00  0.00     0.047 A 
ATOM     20  C   UNL A   1      31.145  27.171  23.347  1.00  0.00     0.010 A 
ATOM     21  C   UNL A   1      28.831  27.293  24.010  1.00  0.00     0.010 A 
BRANCH  17  22
ATOM     22  O   UNL A   1      29.548  29.703  21.289  1.00  0.00    -0.497 OA
ATOM     23  C   UNL A   1      28.388  30.521  21.401  1.00  0.00     0.278 C 
ENDBRANCH  17  22
ENDBRANCH  12  16
BRANCH  14  24
ATOM     24  C   UNL A   1      32.087  22.427  24.670  1.00  0.00    -0.002 A 
ATOM     25  C   UNL A   1      32.534  21.606  25.710  1.00  0.00     0.011 A 
ATOM     26  C   UNL A   1      31.960  21.932  23.369  1.00  0.00     0.011 A 
ATOM     27  C   UNL A   1      32.811  20.262  25.461  1.00  0.00     0.021 A 
ATOM     28  C   UNL A   1      32.261  20.592  23.111  1.00  0.00     0.021 A 
ATOM     29  C   UNL A   1      32.672  19.762  24.162  1.00  0.00     0.067 A 
BRANCH  29  30
ATOM     30  S   UNL A   1      32.938  18.027  23.876  1.00  0.00     0.175 S 
ATOM     31  C   UNL A   1      34.652  17.774  24.250  1.00  0.00     0.163 C 
ATOM     32  O   UNL A   1      32.142  17.321  24.864  1.00  0.00    -0.224 OA
ATOM     33  O   UNL A   1      32.742  17.779  22.461  1.00  0.00    -0.224 OA
ENDBRANCH  29  30
ENDBRANCH  14  24
ENDBRANCH   6  11
ENDBRANCH   3   5
ENDBRANCH   2   3
ENDBRANCH   1   2
BRANCH   1  34
ATOM     34  C   UNL A   1      33.018  33.827  27.626  1.00  0.00     0.275 C 
BRANCH  34  35
ATOM     35  O   UNL A   1      33.862  34.680  28.418  1.00  0.00    -0.458 OA
BRANCH  35  36
ATOM     36  C   UNL A   1      33.565  34.737  29.737  1.00  0.00     0.338 C 
ATOM     37  O   UNL A   1      32.548  35.179  30.244  1.00  0.00    -0.246 OA
BRANCH  36  38
ATOM     38  C   UNL A   1      34.661  34.158  30.536  1.00  0.00     0.060 A 
ATOM     39  C   UNL A   1      35.972  34.560  30.307  1.00  0.00     0.016 A 
ATOM     40  C   UNL A   1      34.404  33.097  31.402  1.00  0.00     0.016 A 
ATOM     41  C   UNL A   1      37.034  33.803  30.805  1.00  0.00     0.010 A 
ATOM     42  C   UNL A   1      35.471  32.429  32.016  1.00  0.00     0.010 A 
ATOM     43  C   UNL A   1      36.804  32.729  31.677  1.00  0.00    -0.014 A 
BRANCH  43  44
ATOM     44  C   UNL A   1      37.934  31.902  32.208  1.00  0.00     0.031 A 
ATOM     45  C   UNL A   1      38.489  32.165  33.590  1.00  0.00     0.074 A 
ATOM     46  C   UNL A   1      38.487  30.925  31.458  1.00  0.00     0.049 A 
ATOM     47  N   UNL A   1      39.585  31.707  34.144  1.00  0.00    -0.248 NA
ATOM     48  C   UNL A   1      37.728  33.082  34.456  1.00  0.00     0.031 C 
ATOM     49  C   UNL A   1      38.061  30.543  30.110  1.00  0.00     0.029 A 
ATOM     50  N   UNL A   1      39.539  30.077  31.720  1.00  0.00    -0.354 N 
ATOM     51  C   UNL A   1      39.692  32.349  35.374  1.00  0.00     0.074 A 
ATOM     52  C   UNL A   1      38.542  33.219  35.495  1.00  0.00     0.031 C 
ATOM     53  C   UNL A   1      38.817  29.523  29.678  1.00  0.00     0.029 A 
ATOM     54  C   UNL A   1      39.842  29.236  30.674  1.00  0.00     0.049 A 
ATOM     55  H   UNL A   1      40.028  30.074  32.574  1.00  0.00     0.167 HD
ATOM     56  C   UNL A   1      40.651  32.220  36.323  1.00  0.00     0.034 A 
ATOM     57  C   UNL A   1      40.853  28.359  30.505  1.00  0.00     0.034 A 
ATOM     58  C   UNL A   1      41.737  31.279  36.253  1.00  0.00     0.049 A 
ATOM     59  C   UNL A   1      41.878  28.203  31.592  1.00  0.00     0.074 A 
ATOM     60  C   UNL A   1      42.729  31.041  37.190  1.00  0.00     0.029 A 
ATOM     61  N   UNL A   1      41.962  30.403  35.204  1.00  0.00    -0.354 N 
ATOM     62  N   UNL A   1      41.940  28.795  32.759  1.00  0.00    -0.248 NA
ATOM     63  C   UNL A   1      42.969  27.249  31.343  1.00  0.00     0.031 C 
ATOM     64  C   UNL A   1      43.555  30.019  36.705  1.00  0.00     0.029 A 
ATOM     65  C   UNL A   1      43.069  29.616  35.472  1.00  0.00     0.049 A 
ATOM     66  H   UNL A   1      41.415  30.348  34.387  1.00  0.00     0.167 HD
ATOM     67  C   UNL A   1      43.063  28.275  33.390  1.00  0.00     0.074 A 
ATOM     68  C   UNL A   1      43.635  27.295  32.489  1.00  0.00     0.031 C 
ATOM     69  C   UNL A   1      43.590  28.599  34.596  1.00  0.00     0.034 A 
BRANCH  56  70
ATOM     70  C   UNL A   1      40.557  33.093  37.549  1.00  0.00     0.023 A 
ATOM     71  C   UNL A   1      39.738  32.702  38.626  1.00  0.00     0.012 A 
ATOM     72  C   UNL A   1      41.339  34.262  37.663  1.00  0.00     0.148 A 
ATOM     73  C   UNL A   1      39.676  33.474  39.786  1.00  0.00     0.002 A 
ATOM     74  C   UNL A   1      41.302  35.004  38.839  1.00  0.00     0.091 A 
ATOM     75  F   UNL A   1      42.097  34.630  36.620  1.00  0.00    -0.205 F 
ATOM     76  C   UNL A   1      40.465  34.617  39.897  1.00  0.00     0.022 A 
BRANCH  74  77
ATOM     77  S   UNL A   1      42.343  36.444  39.106  1.00  0.00     0.127 S 
ATOM     78  O   UNL A   1      41.681  37.080  40.244  1.00  0.00    -0.237 OA
ATOM     79  O   UNL A   1      43.639  35.838  39.418  1.00  0.00    -0.237 OA
ATOM     80  O   UNL A   1      42.313  37.196  37.859  1.00  0.00    -0.744 OA
ENDBRANCH  74  77
ENDBRANCH  56  70
BRANCH  57  81
ATOM     81  C   UNL A   1      40.930  27.549  29.255  1.00  0.00     0.023 A 
ATOM     82  C   UNL A   1      40.121  26.404  29.124  1.00  0.00     0.012 A 
ATOM     83  C   UNL A   1      41.759  27.928  28.182  1.00  0.00     0.148 A 
ATOM     84  C   UNL A   1      40.149  25.643  27.954  1.00  0.00     0.002 A 
ATOM     85  C   UNL A   1      41.735  27.203  26.996  1.00  0.00     0.091 A 
ATOM     86  F   UNL A   1      42.546  29.004  28.333  1.00  0.00    -0.205 F 
ATOM     87  C   UNL A   1      40.942  26.052  26.885  1.00  0.00     0.022 A 
BRANCH  85  88
ATOM     88  S   UNL A   1      42.609  27.758  25.528  1.00  0.00     0.127 S 
ATOM     89  O   UNL A   1      43.961  27.960  26.042  1.00  0.00    -0.237 OA
ATOM     90  O   UNL A   1      42.457  26.615  24.626  1.00  0.00    -0.237 OA
ATOM     91  O   UNL A   1      41.903  28.956  25.092  1.00  0.00    -0.744 OA
ENDBRANCH  85  88
ENDBRANCH  57  81
BRANCH  69  92
ATOM     92  C   UNL A   1      44.830  27.868  35.032  1.00  0.00     0.023 A 
ATOM     93  C   UNL A   1      46.096  28.431  34.777  1.00  0.00     0.012 A 
ATOM     94  C   UNL A   1      44.740  26.661  35.750  1.00  0.00     0.148 A 
ATOM     95  C   UNL A   1      47.256  27.789  35.206  1.00  0.00     0.002 A 
ATOM     96  C   UNL A   1      45.899  26.047  36.212  1.00  0.00     0.091 A 
ATOM     97  F   UNL A   1      43.527  26.130  35.963  1.00  0.00    -0.205 F 
ATOM     98  C   UNL A   1      47.157  26.604  35.933  1.00  0.00     0.022 A 
BRANCH  96  99
ATOM     99  S   UNL A   1      45.856  24.565  37.227  1.00  0.00     0.127 S 
ATOM    100  O   UNL A   1      47.277  24.328  37.470  1.00  0.00    -0.237 OA
ATOM    101  O   UNL A   1      45.102  25.010  38.400  1.00  0.00    -0.237 OA
ATOM    102  O   UNL A   1      45.176  23.556  36.426  1.00  0.00    -0.744 OA
ENDBRANCH  96  99
ENDBRANCH  69  92
ENDBRANCH  43  44
ENDBRANCH  36  38
ENDBRANCH  35  36
ENDBRANCH  34  35
ENDBRANCH   1  34
TORSDOF 19
ENDMDL
MODEL 3
REMARK VINA RESULT:     -11.2      7.902      9.273
REMARK SMILES COc1ccc([C@H]2CC(c3ccc(S(C)(=O)=O)cc3)=NN2c2ccc(C(=O)OCCOC(=O)c3ccc(-c4c5nc(c(-c6cccc(S(=O)(=O)[O-])c6F)c6ccc([nH]6)c(-c6cccc(S(=O)(=O)[O-])c6F)c6nc(c(-c7cccc(S(=O)(=O)[O-])c7F)c7ccc4[nH]7)C=C6)C=C5)cc3)cc2)cc1
REMARK SMILES IDX 29 1 28 2 26 3 27 4 25 5 22 6 23 7 98 8 24 9 97 10 21 11
REMARK SMILES IDX 7 12 8 13 9 14 20 15 6 16 3 17 4 18 100 19 5 20 99 21 2 22
REMARK SMILES IDX 1 23 10 24 11 25 19 26 12 27 18 28 13 29 14 30 15 31 16 32
REMARK SMILES IDX 17 33 30 34 31 35 32 36 33 37 34 38 35 39 96 40 36 41 95 42
REMARK SMILES IDX 37 43 38 44 39 45 89 46 40 47 94 48 88 49 90 50 41 51 93 52
REMARK SMILES IDX 87 53 86 54 42 56 74 57 54 58 73 59 55 60 58 61 72 62 91 63
REMARK SMILES IDX 56 64 57 65 71 67 92 68 59 69 43 70 44 71 52 72 45 73 47 74
REMARK SMILES IDX 53 75 46 76 48 77 49 78 50 79 51 80 75 81 76 82 84 83 77 84
REMARK SMILES IDX 79 85 85 86 78 87 80 88 81 89 82 90 83 91 60 92 61 93 69 94
REMARK SMILES IDX 62 95 64 96 70 97 63 98 65 99 66 100 67 101 68 102
REMARK H PARENT 90 55 58 66
REMARK Flexibility Score: inf
ROOT
ATOM      1  C   UNL A   1      35.078  32.150  29.884  1.00  0.00     0.275 C 
ENDROOT
BRANCH   1   2
ATOM      2  O   UNL A   1      35.059  31.091  28.904  1.00  0.00    -0.458 OA
BRANCH   2   3
ATOM      3  C   UNL A   1      34.310  31.345  27.803  1.00  0.00     0.338 C 
ATOM      4  O   UNL A   1      34.139  32.431  27.273  1.00  0.00    -0.246 OA
BRANCH   3   5
ATOM      5  C   UNL A   1      33.743  30.098  27.251  1.00  0.00     0.060 A 
ATOM      6  C   UNL A   1      32.597  27.649  26.465  1.00  0.00     0.060 A 
ATOM      7  C   UNL A   1      31.798  28.701  26.916  1.00  0.00     0.029 A 
ATOM      8  C   UNL A   1      33.982  27.860  26.374  1.00  0.00     0.029 A 
ATOM      9  C   UNL A   1      32.367  29.895  27.345  1.00  0.00     0.018 A 
ATOM     10  C   UNL A   1      34.557  29.086  26.742  1.00  0.00     0.018 A 
BRANCH   6  11
ATOM     11  N   UNL A   1      32.013  26.427  26.163  1.00  0.00    -0.257 N 
ATOM     12  C   UNL A   1      30.674  26.290  25.586  1.00  0.00     0.144 C 
ATOM     13  C   UNL A   1      30.631  24.811  25.180  1.00  0.00     0.091 C 
ATOM     14  C   UNL A   1      32.037  24.400  25.510  1.00  0.00     0.071 C 
ATOM     15  N   UNL A   1      32.784  25.311  26.047  1.00  0.00    -0.176 NA
BRANCH  12  16
ATOM     16  C   UNL A   1      30.413  27.221  24.409  1.00  0.00    -0.023 A 
ATOM     17  C   UNL A   1      29.994  29.052  22.304  1.00  0.00     0.118 A 
ATOM     18  C   UNL A   1      31.286  28.679  22.665  1.00  0.00     0.047 A 
ATOM     19  C   UNL A   1      28.904  28.463  22.943  1.00  0.00     0.047 A 
ATOM     20  C   UNL A   1      31.497  27.780  23.714  1.00  0.00     0.010 A 
ATOM     21  C   UNL A   1      29.114  27.548  23.984  1.00  0.00     0.010 A 
BRANCH  17  22
ATOM     22  O   UNL A   1      29.904  29.962  21.286  1.00  0.00    -0.497 OA
ATOM     23  C   UNL A   1      28.724  30.762  21.310  1.00  0.00     0.278 C 
ENDBRANCH  17  22
ENDBRANCH  12  16
BRANCH  14  24
ATOM     24  C   UNL A   1      32.482  23.016  25.313  1.00  0.00    -0.002 A 
ATOM     25  C   UNL A   1      31.583  21.986  25.607  1.00  0.00     0.011 A 
ATOM     26  C   UNL A   1      33.750  22.735  24.795  1.00  0.00     0.011 A 
ATOM     27  C   UNL A   1      31.932  20.663  25.335  1.00  0.00     0.021 A 
ATOM     28  C   UNL A   1      34.112  21.409  24.546  1.00  0.00     0.021 A 
ATOM     29  C   UNL A   1      33.196  20.382  24.805  1.00  0.00     0.067 A 
BRANCH  29  30
ATOM     30  S   UNL A   1      33.594  18.703  24.377  1.00  0.00     0.175 S 
ATOM     31  C   UNL A   1      32.807  17.728  25.631  1.00  0.00     0.163 C 
ATOM     32  O   UNL A   1      32.940  18.436  23.109  1.00  0.00    -0.224 OA
ATOM     33  O   UNL A   1      35.029  18.542  24.513  1.00  0.00    -0.224 OA
ENDBRANCH  29  30
ENDBRANCH  14  24
ENDBRANCH   6  11
ENDBRANCH   3   5
ENDBRANCH   2   3
ENDBRANCH   1   2
BRANCH   1  34
ATOM     34  C   UNL A   1      36.366  32.129  30.706  1.00  0.00     0.275 C 
BRANCH  34  35
ATOM     35  O   UNL A   1      37.057  33.384  30.580  1.00  0.00    -0.458 OA
BRANCH  35  36
ATOM     36  C   UNL A   1      37.950  33.663  31.557  1.00  0.00     0.338 C 
ATOM     37  O   UNL A   1      37.816  33.471  32.754  1.00  0.00    -0.246 OA
BRANCH  36  38
ATOM     38  C   UNL A   1      39.179  34.240  30.980  1.00  0.00     0.060 A 
ATOM     39  C   UNL A   1      39.180  34.695  29.666  1.00  0.00     0.016 A 
ATOM     40  C   UNL A   1      40.374  34.181  31.693  1.00  0.00     0.016 A 
ATOM     41  C   UNL A   1      40.387  34.931  29.008  1.00  0.00     0.010 A 
ATOM     42  C   UNL A   1      41.571  34.559  31.071  1.00  0.00     0.010 A 
ATOM     43  C   UNL A   1      41.606  34.878  29.700  1.00  0.00    -0.014 A 
BRANCH  43  44
ATOM     44  C   UNL A   1      42.908  35.117  29.003  1.00  0.00     0.031 A 
ATOM     45  C   UNL A   1      43.792  33.953  28.613  1.00  0.00     0.074 A 
ATOM     46  C   UNL A   1      43.325  36.372  28.727  1.00  0.00     0.049 A 
ATOM     47  N   UNL A   1      45.034  33.957  28.197  1.00  0.00    -0.248 NA
ATOM     48  C   UNL A   1      43.213  32.603  28.730  1.00  0.00     0.031 C 
ATOM     49  C   UNL A   1      42.587  37.599  29.031  1.00  0.00     0.029 A 
ATOM     50  N   UNL A   1      44.482  36.825  28.137  1.00  0.00    -0.354 N 
ATOM     51  C   UNL A   1      45.412  32.622  28.095  1.00  0.00     0.074 A 
ATOM     52  C   UNL A   1      44.262  31.831  28.479  1.00  0.00     0.031 C 
ATOM     53  C   UNL A   1      43.288  38.658  28.599  1.00  0.00     0.029 A 
ATOM     54  C   UNL A   1      44.567  38.198  28.072  1.00  0.00     0.049 A 
ATOM     55  H   UNL A   1      45.184  36.225  27.795  1.00  0.00     0.167 HD
ATOM     56  C   UNL A   1      46.600  32.099  27.708  1.00  0.00     0.034 A 
ATOM     57  C   UNL A   1      45.570  39.007  27.677  1.00  0.00     0.034 A 
ATOM     58  C   UNL A   1      47.709  32.878  27.224  1.00  0.00     0.049 A 
ATOM     59  C   UNL A   1      46.862  38.400  27.209  1.00  0.00     0.074 A 
ATOM     60  C   UNL A   1      48.935  32.432  26.761  1.00  0.00     0.029 A 
ATOM     61  N   UNL A   1      47.720  34.259  27.115  1.00  0.00    -0.354 N 
ATOM     62  N   UNL A   1      47.183  37.135  27.090  1.00  0.00    -0.248 NA
ATOM     63  C   UNL A   1      47.928  39.331  26.812  1.00  0.00     0.031 C 
ATOM     64  C   UNL A   1      49.689  33.546  26.372  1.00  0.00     0.029 A 
ATOM     65  C   UNL A   1      48.926  34.683  26.584  1.00  0.00     0.049 A 
ATOM     66  H   UNL A   1      46.979  34.852  27.377  1.00  0.00     0.167 HD
ATOM     67  C   UNL A   1      48.479  37.118  26.587  1.00  0.00     0.074 A 
ATOM     68  C   UNL A   1      48.872  38.499  26.395  1.00  0.00     0.031 C 
ATOM     69  C   UNL A   1      49.281  36.056  26.336  1.00  0.00     0.034 A 
BRANCH  56  70
ATOM     70  C   UNL A   1      46.763  30.600  27.751  1.00  0.00     0.023 A 
ATOM     71  C   UNL A   1      47.228  29.980  28.927  1.00  0.00     0.012 A 
ATOM     72  C   UNL A   1      46.383  29.801  26.652  1.00  0.00     0.148 A 
ATOM     73  C   UNL A   1      47.340  28.591  29.000  1.00  0.00     0.002 A 
ATOM     74  C   UNL A   1      46.459  28.416  26.748  1.00  0.00     0.091 A 
ATOM     75  F   UNL A   1      45.961  30.409  25.534  1.00  0.00    -0.205 F 
ATOM     76  C   UNL A   1      46.945  27.810  27.917  1.00  0.00     0.022 A 
BRANCH  74  77
ATOM     77  S   UNL A   1      45.897  27.325  25.435  1.00  0.00     0.127 S 
ATOM     78  O   UNL A   1      46.854  27.627  24.371  1.00  0.00    -0.237 OA
ATOM     79  O   UNL A   1      46.059  26.002  26.040  1.00  0.00    -0.237 OA
ATOM     80  O   UNL A   1      44.517  27.701  25.165  1.00  0.00    -0.744 OA
ENDBRANCH  74  77
ENDBRANCH  56  70
BRANCH  57  81
ATOM     81  C   UNL A   1      45.380  40.487  27.694  1.00  0.00     0.023 A 
ATOM     82  C   UNL A   1      45.561  41.192  28.899  1.00  0.00     0.012 A 
ATOM     83  C   UNL A   1      45.069  41.202  26.522  1.00  0.00     0.148 A 
ATOM     84  C   UNL A   1      45.420  42.580  28.940  1.00  0.00     0.002 A 
ATOM     85  C   UNL A   1      44.993  42.590  26.555  1.00  0.00     0.091 A 
ATOM     86  F   UNL A   1      44.870  40.514  25.388  1.00  0.00    -0.205 F 
ATOM     87  C   UNL A   1      45.153  43.280  27.766  1.00  0.00     0.022 A 
BRANCH  85  88
ATOM     88  S   UNL A   1      44.807  43.565  25.058  1.00  0.00     0.127 S 
ATOM     89  O   UNL A   1      45.004  44.923  25.558  1.00  0.00    -0.237 OA
ATOM     90  O   UNL A   1      45.890  43.054  24.218  1.00  0.00    -0.237 OA
ATOM     91  O   UNL A   1      43.472  43.254  24.561  1.00  0.00    -0.744 OA
ENDBRANCH  85  88
ENDBRANCH  57  81
BRANCH  69  92
ATOM     92  C   UNL A   1      50.655  36.336  25.791  1.00  0.00     0.023 A 
ATOM     93  C   UNL A   1      50.860  36.359  24.398  1.00  0.00     0.012 A 
ATOM     94  C   UNL A   1      51.725  36.639  26.655  1.00  0.00     0.148 A 
ATOM     95  C   UNL A   1      52.117  36.654  23.872  1.00  0.00     0.002 A 
ATOM     96  C   UNL A   1      52.965  36.972  26.122  1.00  0.00     0.091 A 
ATOM     97  F   UNL A   1      51.516  36.588  27.978  1.00  0.00    -0.205 F 
ATOM     98  C   UNL A   1      53.165  36.972  24.733  1.00  0.00     0.022 A 
BRANCH  96  99
ATOM     99  S   UNL A   1      54.345  37.476  27.158  1.00  0.00     0.127 S 
ATOM    100  O   UNL A   1      55.315  37.927  26.163  1.00  0.00    -0.237 OA
ATOM    101  O   UNL A   1      53.757  38.546  27.965  1.00  0.00    -0.237 OA
ATOM    102  O   UNL A   1      54.724  36.292  27.916  1.00  0.00    -0.744 OA
ENDBRANCH  96  99
ENDBRANCH  69  92
ENDBRANCH  43  44
ENDBRANCH  36  38
ENDBRANCH  35  36
ENDBRANCH  34  35
ENDBRANCH   1  34
TORSDOF 19
ENDMDL
