MODEL 1
REMARK VINA RESULT:     -12.6      0.000      0.000
REMARK SMILES COc1cc2ccccc2cc1C(=O)Nc1cc(C(=O)OCCOC(=O)c2ccc(-c3c4nc(c(-c5cccc(S(=O)(=O)[O-])c5F)c5ccc([nH]5)c(-c5cccc(S(=O)(=O)[O-])c5F)c5nc(c(-c6cccc(S(=O)(=O)[O-])c6F)c6ccc3[nH]6)C=C5)C=C4)cc2)ccc1C
REMARK SMILES IDX 22 1 21 2 19 3 20 4 18 5 16 6 17 7 92 8 91 9 93 10 90 11
REMARK SMILES IDX 15 12 13 13 14 14 12 16 3 17 4 18 5 19 11 20 6 21 10 22 7 23
REMARK SMILES IDX 9 24 8 25 2 26 1 27 23 28 24 29 25 30 26 31 27 32 28 33
REMARK SMILES IDX 89 34 29 35 88 36 30 37 31 38 32 39 82 40 33 41 87 42 81 43
REMARK SMILES IDX 83 44 34 45 86 46 80 47 79 48 35 50 67 51 47 52 66 53 48 54
REMARK SMILES IDX 51 55 65 56 84 57 49 58 50 59 64 61 85 62 52 63 36 64 37 65
REMARK SMILES IDX 45 66 38 67 40 68 46 69 39 70 41 71 42 72 43 73 44 74 68 75
REMARK SMILES IDX 69 76 77 77 70 78 72 79 78 80 71 81 73 82 74 83 75 84 76 85
REMARK SMILES IDX 53 86 54 87 62 88 55 89 57 90 63 91 56 92 58 93 59 94 60 95
REMARK SMILES IDX 61 96
REMARK H PARENT 15 15 83 49 51 60
REMARK Flexibility Score: inf
ROOT
ATOM      1  C   UNL A   1      39.517  21.765  26.154  1.00  0.00     0.275 C 
ENDROOT
BRANCH   1   2
ATOM      2  O   UNL A   1      38.265  21.603  25.485  1.00  0.00    -0.458 OA
BRANCH   2   3
ATOM      3  C   UNL A   1      37.232  22.406  25.785  1.00  0.00     0.338 C 
ATOM      4  O   UNL A   1      37.278  23.583  26.119  1.00  0.00    -0.246 OA
BRANCH   3   5
ATOM      5  C   UNL A   1      35.991  21.628  25.661  1.00  0.00     0.062 A 
ATOM      6  C   UNL A   1      33.657  21.286  26.248  1.00  0.00     0.045 A 
ATOM      7  C   UNL A   1      34.848  22.015  26.373  1.00  0.00     0.042 A 
ATOM      8  C   UNL A   1      33.642  20.110  25.464  1.00  0.00    -0.027 A 
ATOM      9  C   UNL A   1      34.795  19.763  24.730  1.00  0.00     0.006 A 
ATOM     10  C   UNL A   1      32.406  19.289  25.203  1.00  0.00     0.046 C 
ATOM     11  C   UNL A   1      35.966  20.511  24.830  1.00  0.00     0.016 A 
BRANCH   6  12
ATOM     12  N   UNL A   1      32.462  21.740  26.844  1.00  0.00    -0.322 N 
ATOM     13  C   UNL A   1      31.794  22.954  26.764  1.00  0.00     0.259 C 
ATOM     14  O   UNL A   1      30.851  23.132  27.539  1.00  0.00    -0.269 OA
ATOM     15  H   UNL A   1      32.021  21.075  27.421  1.00  0.00     0.170 HD
BRANCH  13  16
ATOM     16  C   UNL A   1      32.124  24.006  25.760  1.00  0.00     0.082 A 
ATOM     17  C   UNL A   1      32.075  23.803  24.388  1.00  0.00     0.132 A 
ATOM     18  C   UNL A   1      32.786  24.671  23.568  1.00  0.00     0.056 A 
ATOM     19  C   UNL A   1      33.252  25.910  24.007  1.00  0.00    -0.015 A 
ATOM     20  C   UNL A   1      32.546  25.271  26.228  1.00  0.00     0.026 A 
ATOM     21  C   UNL A   1      33.790  26.841  23.102  1.00  0.00     0.009 A 
ATOM     22  C   UNL A   1      33.053  26.257  25.347  1.00  0.00    -0.017 A 
ATOM     23  C   UNL A   1      33.977  28.168  23.473  1.00  0.00     0.001 A 
ATOM     24  C   UNL A   1      33.340  27.581  25.727  1.00  0.00     0.009 A 
ATOM     25  C   UNL A   1      33.749  28.539  24.789  1.00  0.00     0.001 A 
BRANCH  17  26
ATOM     26  O   UNL A   1      31.469  22.773  23.721  1.00  0.00    -0.496 OA
ATOM     27  C   UNL A   1      32.285  22.114  22.751  1.00  0.00     0.278 C 
ENDBRANCH  17  26
ENDBRANCH  13  16
ENDBRANCH   6  12
ENDBRANCH   3   5
ENDBRANCH   2   3
ENDBRANCH   1   2
BRANCH   1  28
ATOM     28  C   UNL A   1      40.717  20.874  25.775  1.00  0.00     0.275 C 
BRANCH  28  29
ATOM     29  O   UNL A   1      42.102  21.334  25.755  1.00  0.00    -0.458 OA
BRANCH  29  30
ATOM     30  C   UNL A   1      42.680  22.490  25.355  1.00  0.00     0.338 C 
ATOM     31  O   UNL A   1      43.293  22.581  24.299  1.00  0.00    -0.246 OA
BRANCH  30  32
ATOM     32  C   UNL A   1      42.629  23.613  26.289  1.00  0.00     0.060 A 
ATOM     33  C   UNL A   1      42.192  23.446  27.613  1.00  0.00     0.016 A 
ATOM     34  C   UNL A   1      43.051  24.847  25.819  1.00  0.00     0.016 A 
ATOM     35  C   UNL A   1      42.182  24.538  28.484  1.00  0.00     0.010 A 
ATOM     36  C   UNL A   1      43.202  25.866  26.722  1.00  0.00     0.010 A 
ATOM     37  C   UNL A   1      42.651  25.761  28.019  1.00  0.00    -0.014 A 
BRANCH  37  38
ATOM     38  C   UNL A   1      42.411  27.079  28.625  1.00  0.00     0.031 A 
ATOM     39  C   UNL A   1      41.327  27.988  28.204  1.00  0.00     0.074 A 
ATOM     40  C   UNL A   1      43.007  27.104  29.835  1.00  0.00     0.049 A 
ATOM     41  N   UNL A   1      40.273  28.247  28.910  1.00  0.00    -0.248 NA
ATOM     42  C   UNL A   1      41.338  28.626  26.883  1.00  0.00     0.031 C 
ATOM     43  C   UNL A   1      42.708  27.814  31.055  1.00  0.00     0.029 A 
ATOM     44  N   UNL A   1      44.213  26.453  30.120  1.00  0.00    -0.354 N 
ATOM     45  C   UNL A   1      39.471  29.122  28.167  1.00  0.00     0.074 A 
ATOM     46  C   UNL A   1      40.156  29.258  26.880  1.00  0.00     0.031 C 
ATOM     47  C   UNL A   1      43.833  27.844  31.803  1.00  0.00     0.029 A 
ATOM     48  C   UNL A   1      44.913  27.287  30.982  1.00  0.00     0.049 A 
ATOM     49  H   UNL A   1      44.508  25.578  29.776  1.00  0.00     0.167 HD
ATOM     50  C   UNL A   1      38.973  30.245  28.759  1.00  0.00     0.034 A 
ATOM     51  C   UNL A   1      45.926  28.000  30.393  1.00  0.00     0.034 A 
ATOM     52  C   UNL A   1      39.868  30.682  29.812  1.00  0.00     0.049 A 
ATOM     53  C   UNL A   1      45.554  29.466  30.319  1.00  0.00     0.074 A 
ATOM     54  C   UNL A   1      40.010  30.361  31.148  1.00  0.00     0.029 A 
ATOM     55  N   UNL A   1      41.014  31.349  29.428  1.00  0.00    -0.354 N 
ATOM     56  N   UNL A   1      44.335  29.924  30.212  1.00  0.00    -0.248 NA
ATOM     57  C   UNL A   1      46.540  30.524  30.479  1.00  0.00     0.031 C 
ATOM     58  C   UNL A   1      41.314  30.772  31.543  1.00  0.00     0.029 A 
ATOM     59  C   UNL A   1      41.938  31.358  30.452  1.00  0.00     0.049 A 
ATOM     60  H   UNL A   1      41.152  31.761  28.544  1.00  0.00     0.167 HD
ATOM     61  C   UNL A   1      44.342  31.286  30.329  1.00  0.00     0.074 A 
ATOM     62  C   UNL A   1      45.749  31.610  30.508  1.00  0.00     0.031 C 
ATOM     63  C   UNL A   1      43.206  32.045  30.267  1.00  0.00     0.034 A 
BRANCH  50  64
ATOM     64  C   UNL A   1      37.476  30.500  28.729  1.00  0.00     0.023 A 
ATOM     65  C   UNL A   1      36.655  29.455  28.247  1.00  0.00     0.012 A 
ATOM     66  C   UNL A   1      36.826  31.708  29.093  1.00  0.00     0.148 A 
ATOM     67  C   UNL A   1      35.284  29.616  28.033  1.00  0.00     0.002 A 
ATOM     68  C   UNL A   1      35.449  31.873  28.863  1.00  0.00     0.091 A 
ATOM     69  F   UNL A   1      37.546  32.688  29.658  1.00  0.00    -0.205 F 
ATOM     70  C   UNL A   1      34.685  30.832  28.320  1.00  0.00     0.022 A 
BRANCH  68  71
ATOM     71  S   UNL A   1      34.539  33.405  29.153  1.00  0.00     0.127 S 
ATOM     72  O   UNL A   1      34.209  33.294  30.577  1.00  0.00    -0.237 OA
ATOM     73  O   UNL A   1      35.534  34.434  28.849  1.00  0.00    -0.237 OA
ATOM     74  O   UNL A   1      33.391  33.388  28.257  1.00  0.00    -0.744 OA
ENDBRANCH  68  71
ENDBRANCH  50  64
BRANCH  51  75
ATOM     75  C   UNL A   1      46.636  27.221  29.296  1.00  0.00     0.023 A 
ATOM     76  C   UNL A   1      47.027  25.884  29.595  1.00  0.00     0.012 A 
ATOM     77  C   UNL A   1      46.613  27.606  27.942  1.00  0.00     0.148 A 
ATOM     78  C   UNL A   1      47.224  24.934  28.587  1.00  0.00     0.002 A 
ATOM     79  C   UNL A   1      46.844  26.655  26.937  1.00  0.00     0.091 A 
ATOM     80  F   UNL A   1      46.329  28.878  27.636  1.00  0.00    -0.205 F 
ATOM     81  C   UNL A   1      47.108  25.314  27.257  1.00  0.00     0.022 A 
BRANCH  79  82
ATOM     82  S   UNL A   1      46.683  27.088  25.193  1.00  0.00     0.127 S 
ATOM     83  O   UNL A   1      47.970  27.719  24.921  1.00  0.00    -0.237 OA
ATOM     84  O   UNL A   1      46.490  25.792  24.539  1.00  0.00    -0.237 OA
ATOM     85  O   UNL A   1      45.511  27.954  25.134  1.00  0.00    -0.744 OA
ENDBRANCH  79  82
ENDBRANCH  51  75
BRANCH  63  86
ATOM     86  C   UNL A   1      43.183  33.536  29.991  1.00  0.00     0.023 A 
ATOM     87  C   UNL A   1      43.123  34.476  31.037  1.00  0.00     0.012 A 
ATOM     88  C   UNL A   1      43.434  34.049  28.692  1.00  0.00     0.148 A 
ATOM     89  C   UNL A   1      43.227  35.848  30.809  1.00  0.00     0.002 A 
ATOM     90  C   UNL A   1      43.689  35.401  28.495  1.00  0.00     0.091 A 
ATOM     91  F   UNL A   1      43.427  33.234  27.627  1.00  0.00    -0.205 F 
ATOM     92  C   UNL A   1      43.542  36.311  29.541  1.00  0.00     0.022 A 
BRANCH  90  93
ATOM     93  S   UNL A   1      44.428  35.984  26.962  1.00  0.00     0.127 S 
ATOM     94  O   UNL A   1      45.695  35.259  26.940  1.00  0.00    -0.237 OA
ATOM     95  O   UNL A   1      43.454  35.545  25.960  1.00  0.00    -0.237 OA
ATOM     96  O   UNL A   1      44.511  37.430  27.113  1.00  0.00    -0.744 OA
ENDBRANCH  90  93
ENDBRANCH  63  86
ENDBRANCH  37  38
ENDBRANCH  30  32
ENDBRANCH  29  30
ENDBRANCH  28  29
ENDBRANCH   1  28
TORSDOF 17
ENDMDL
MODEL 2
REMARK VINA RESULT:     -12.5      3.186      8.975
REMARK SMILES COc1cc2ccccc2cc1C(=O)Nc1cc(C(=O)OCCOC(=O)c2ccc(-c3c4nc(c(-c5cccc(S(=O)(=O)[O-])c5F)c5ccc([nH]5)c(-c5cccc(S(=O)(=O)[O-])c5F)c5nc(c(-c6cccc(S(=O)(=O)[O-])c6F)c6ccc3[nH]6)C=C5)C=C4)cc2)ccc1C
REMARK SMILES IDX 22 1 21 2 19 3 20 4 18 5 16 6 17 7 92 8 91 9 93 10 90 11
REMARK SMILES IDX 15 12 13 13 14 14 12 16 3 17 4 18 5 19 11 20 6 21 10 22 7 23
REMARK SMILES IDX 9 24 8 25 2 26 1 27 23 28 24 29 25 30 26 31 27 32 28 33
REMARK SMILES IDX 89 34 29 35 88 36 30 37 31 38 32 39 82 40 33 41 87 42 81 43
REMARK SMILES IDX 83 44 34 45 86 46 80 47 79 48 35 50 67 51 47 52 66 53 48 54
REMARK SMILES IDX 51 55 65 56 84 57 49 58 50 59 64 61 85 62 52 63 36 64 37 65
REMARK SMILES IDX 45 66 38 67 40 68 46 69 39 70 41 71 42 72 43 73 44 74 68 75
REMARK SMILES IDX 69 76 77 77 70 78 72 79 78 80 71 81 73 82 74 83 75 84 76 85
REMARK SMILES IDX 53 86 54 87 62 88 55 89 57 90 63 91 56 92 58 93 59 94 60 95
REMARK SMILES IDX 61 96
REMARK H PARENT 15 15 83 49 51 60
REMARK Flexibility Score: inf
ROOT
ATOM      1  C   UNL A   1      35.734  30.334  27.687  1.00  0.00     0.275 C 
ENDROOT
BRANCH   1   2
ATOM      2  O   UNL A   1      34.599  29.505  27.427  1.00  0.00    -0.458 OA
BRANCH   2   3
ATOM      3  C   UNL A   1      33.401  30.060  27.187  1.00  0.00     0.338 C 
ATOM      4  O   UNL A   1      33.009  31.164  27.537  1.00  0.00    -0.246 OA
BRANCH   3   5
ATOM      5  C   UNL A   1      32.594  29.099  26.419  1.00  0.00     0.062 A 
ATOM      6  C   UNL A   1      31.497  26.937  26.252  1.00  0.00     0.045 A 
ATOM      7  C   UNL A   1      32.277  27.851  26.972  1.00  0.00     0.042 A 
ATOM      8  C   UNL A   1      31.102  27.250  24.931  1.00  0.00    -0.027 A 
ATOM      9  C   UNL A   1      31.403  28.526  24.412  1.00  0.00     0.006 A 
ATOM     10  C   UNL A   1      30.207  26.377  24.092  1.00  0.00     0.046 C 
ATOM     11  C   UNL A   1      32.150  29.446  25.146  1.00  0.00     0.016 A 
BRANCH   6  12
ATOM     12  N   UNL A   1      31.051  25.738  26.845  1.00  0.00    -0.322 N 
ATOM     13  C   UNL A   1      31.410  24.414  26.630  1.00  0.00     0.259 C 
ATOM     14  O   UNL A   1      30.722  23.547  27.174  1.00  0.00    -0.269 OA
ATOM     15  H   UNL A   1      30.359  25.860  27.534  1.00  0.00     0.170 HD
BRANCH  13  16
ATOM     16  C   UNL A   1      32.604  24.008  25.836  1.00  0.00     0.082 A 
ATOM     17  C   UNL A   1      32.531  23.364  24.608  1.00  0.00     0.132 A 
ATOM     18  C   UNL A   1      33.647  22.668  24.162  1.00  0.00     0.056 A 
ATOM     19  C   UNL A   1      34.920  22.861  24.698  1.00  0.00    -0.015 A 
ATOM     20  C   UNL A   1      33.886  24.261  26.375  1.00  0.00     0.026 A 
ATOM     21  C   UNL A   1      36.052  22.289  24.094  1.00  0.00     0.009 A 
ATOM     22  C   UNL A   1      35.059  23.743  25.774  1.00  0.00    -0.017 A 
ATOM     23  C   UNL A   1      37.332  22.712  24.436  1.00  0.00     0.001 A 
ATOM     24  C   UNL A   1      36.365  24.085  26.172  1.00  0.00     0.009 A 
ATOM     25  C   UNL A   1      37.488  23.615  25.477  1.00  0.00     0.001 A 
BRANCH  17  26
ATOM     26  O   UNL A   1      31.437  23.249  23.794  1.00  0.00    -0.496 OA
ATOM     27  C   UNL A   1      31.532  22.239  22.788  1.00  0.00     0.278 C 
ENDBRANCH  17  26
ENDBRANCH  13  16
ENDBRANCH   6  12
ENDBRANCH   3   5
ENDBRANCH   2   3
ENDBRANCH   1   2
BRANCH   1  28
ATOM     28  C   UNL A   1      36.302  30.440  29.117  1.00  0.00     0.275 C 
BRANCH  28  29
ATOM     29  O   UNL A   1      36.383  29.319  30.048  1.00  0.00    -0.458 OA
BRANCH  29  30
ATOM     30  C   UNL A   1      37.273  28.988  31.011  1.00  0.00     0.338 C 
ATOM     31  O   UNL A   1      37.033  29.145  32.202  1.00  0.00    -0.246 OA
BRANCH  30  32
ATOM     32  C   UNL A   1      38.585  28.523  30.568  1.00  0.00     0.060 A 
ATOM     33  C   UNL A   1      39.742  28.759  31.328  1.00  0.00     0.016 A 
ATOM     34  C   UNL A   1      38.639  27.821  29.375  1.00  0.00     0.016 A 
ATOM     35  C   UNL A   1      40.976  28.278  30.885  1.00  0.00     0.010 A 
ATOM     36  C   UNL A   1      39.815  27.206  29.037  1.00  0.00     0.010 A 
ATOM     37  C   UNL A   1      41.014  27.534  29.711  1.00  0.00    -0.014 A 
BRANCH  37  38
ATOM     38  C   UNL A   1      42.203  27.241  28.898  1.00  0.00     0.031 A 
ATOM     39  C   UNL A   1      42.736  25.881  28.687  1.00  0.00     0.074 A 
ATOM     40  C   UNL A   1      42.419  28.287  28.074  1.00  0.00     0.049 A 
ATOM     41  N   UNL A   1      42.671  25.235  27.567  1.00  0.00    -0.248 NA
ATOM     42  C   UNL A   1      43.334  25.119  29.788  1.00  0.00     0.031 C 
ATOM     43  C   UNL A   1      43.018  28.389  26.764  1.00  0.00     0.029 A 
ATOM     44  N   UNL A   1      42.167  29.619  28.426  1.00  0.00    -0.354 N 
ATOM     45  C   UNL A   1      43.253  23.978  27.770  1.00  0.00     0.074 A 
ATOM     46  C   UNL A   1      43.578  23.941  29.197  1.00  0.00     0.031 C 
ATOM     47  C   UNL A   1      43.394  29.675  26.581  1.00  0.00     0.029 A 
ATOM     48  C   UNL A   1      43.183  30.373  27.853  1.00  0.00     0.049 A 
ATOM     49  H   UNL A   1      41.419  29.954  28.972  1.00  0.00     0.167 HD
ATOM     50  C   UNL A   1      44.179  23.515  26.881  1.00  0.00     0.034 A 
ATOM     51  C   UNL A   1      44.164  30.771  28.726  1.00  0.00     0.034 A 
ATOM     52  C   UNL A   1      44.877  24.630  26.274  1.00  0.00     0.049 A 
ATOM     53  C   UNL A   1      45.447  30.018  28.442  1.00  0.00     0.074 A 
ATOM     54  C   UNL A   1      44.628  25.443  25.186  1.00  0.00     0.029 A 
ATOM     55  N   UNL A   1      45.857  25.245  27.028  1.00  0.00    -0.354 N 
ATOM     56  N   UNL A   1      45.512  28.810  27.950  1.00  0.00    -0.248 NA
ATOM     57  C   UNL A   1      46.755  30.637  28.590  1.00  0.00     0.031 C 
ATOM     58  C   UNL A   1      45.418  26.615  25.345  1.00  0.00     0.029 A 
ATOM     59  C   UNL A   1      46.156  26.491  26.514  1.00  0.00     0.049 A 
ATOM     60  H   UNL A   1      46.282  24.850  27.823  1.00  0.00     0.167 HD
ATOM     61  C   UNL A   1      46.813  28.495  27.674  1.00  0.00     0.074 A 
ATOM     62  C   UNL A   1      47.551  29.681  28.083  1.00  0.00     0.031 C 
ATOM     63  C   UNL A   1      47.192  27.294  27.140  1.00  0.00     0.034 A 
BRANCH  50  64
ATOM     64  C   UNL A   1      43.968  22.161  26.227  1.00  0.00     0.023 A 
ATOM     65  C   UNL A   1      42.686  21.578  26.352  1.00  0.00     0.012 A 
ATOM     66  C   UNL A   1      44.952  21.400  25.542  1.00  0.00     0.148 A 
ATOM     67  C   UNL A   1      42.408  20.277  25.923  1.00  0.00     0.002 A 
ATOM     68  C   UNL A   1      44.674  20.087  25.124  1.00  0.00     0.091 A 
ATOM     69  F   UNL A   1      46.149  21.954  25.301  1.00  0.00    -0.205 F 
ATOM     70  C   UNL A   1      43.407  19.524  25.330  1.00  0.00     0.022 A 
BRANCH  68  71
ATOM     71  S   UNL A   1      45.881  18.975  24.371  1.00  0.00     0.127 S 
ATOM     72  O   UNL A   1      45.883  17.852  25.313  1.00  0.00    -0.237 OA
ATOM     73  O   UNL A   1      45.272  18.668  23.076  1.00  0.00    -0.237 OA
ATOM     74  O   UNL A   1      47.135  19.709  24.292  1.00  0.00    -0.744 OA
ENDBRANCH  68  71
ENDBRANCH  50  64
BRANCH  51  75
ATOM     75  C   UNL A   1      43.625  31.092  30.112  1.00  0.00     0.023 A 
ATOM     76  C   UNL A   1      44.049  30.256  31.185  1.00  0.00     0.012 A 
ATOM     77  C   UNL A   1      43.040  32.329  30.442  1.00  0.00     0.148 A 
ATOM     78  C   UNL A   1      44.040  30.703  32.512  1.00  0.00     0.002 A 
ATOM     79  C   UNL A   1      43.004  32.756  31.777  1.00  0.00     0.091 A 
ATOM     80  F   UNL A   1      42.559  33.099  29.458  1.00  0.00    -0.205 F 
ATOM     81  C   UNL A   1      43.540  31.964  32.805  1.00  0.00     0.022 A 
BRANCH  79  82
ATOM     82  S   UNL A   1      42.389  34.395  32.212  1.00  0.00     0.127 S 
ATOM     83  O   UNL A   1      43.327  35.263  31.508  1.00  0.00    -0.237 OA
ATOM     84  O   UNL A   1      41.028  34.401  31.668  1.00  0.00    -0.237 OA
ATOM     85  O   UNL A   1      42.437  34.434  33.669  1.00  0.00    -0.744 OA
ENDBRANCH  79  82
ENDBRANCH  51  75
BRANCH  63  86
ATOM     86  C   UNL A   1      48.604  26.740  27.184  1.00  0.00     0.023 A 
ATOM     87  C   UNL A   1      49.385  26.626  26.020  1.00  0.00     0.012 A 
ATOM     88  C   UNL A   1      49.268  26.516  28.418  1.00  0.00     0.148 A 
ATOM     89  C   UNL A   1      50.724  26.238  26.059  1.00  0.00     0.002 A 
ATOM     90  C   UNL A   1      50.638  26.280  28.459  1.00  0.00     0.091 A 
ATOM     91  F   UNL A   1      48.582  26.524  29.570  1.00  0.00    -0.205 F 
ATOM     92  C   UNL A   1      51.361  26.095  27.282  1.00  0.00     0.022 A 
BRANCH  90  93
ATOM     93  S   UNL A   1      51.551  26.430  30.001  1.00  0.00     0.127 S 
ATOM     94  O   UNL A   1      52.936  26.380  29.540  1.00  0.00    -0.237 OA
ATOM     95  O   UNL A   1      51.118  27.739  30.494  1.00  0.00    -0.237 OA
ATOM     96  O   UNL A   1      51.097  25.310  30.814  1.00  0.00    -0.744 OA
ENDBRANCH  90  93
ENDBRANCH  63  86
ENDBRANCH  37  38
ENDBRANCH  30  32
ENDBRANCH  29  30
ENDBRANCH  28  29
ENDBRANCH   1  28
TORSDOF 17
ENDMDL
MODEL 3
REMARK VINA RESULT:     -12.4      3.691      9.100
REMARK SMILES COc1cc2ccccc2cc1C(=O)Nc1cc(C(=O)OCCOC(=O)c2ccc(-c3c4nc(c(-c5cccc(S(=O)(=O)[O-])c5F)c5ccc([nH]5)c(-c5cccc(S(=O)(=O)[O-])c5F)c5nc(c(-c6cccc(S(=O)(=O)[O-])c6F)c6ccc3[nH]6)C=C5)C=C4)cc2)ccc1C
REMARK SMILES IDX 22 1 21 2 19 3 20 4 18 5 16 6 17 7 92 8 91 9 93 10 90 11
REMARK SMILES IDX 15 12 13 13 14 14 12 16 3 17 4 18 5 19 11 20 6 21 10 22 7 23
REMARK SMILES IDX 9 24 8 25 2 26 1 27 23 28 24 29 25 30 26 31 27 32 28 33
REMARK SMILES IDX 89 34 29 35 88 36 30 37 31 38 32 39 82 40 33 41 87 42 81 43
REMARK SMILES IDX 83 44 34 45 86 46 80 47 79 48 35 50 67 51 47 52 66 53 48 54
REMARK SMILES IDX 51 55 65 56 84 57 49 58 50 59 64 61 85 62 52 63 36 64 37 65
REMARK SMILES IDX 45 66 38 67 40 68 46 69 39 70 41 71 42 72 43 73 44 74 68 75
REMARK SMILES IDX 69 76 77 77 70 78 72 79 78 80 71 81 73 82 74 83 75 84 76 85
REMARK SMILES IDX 53 86 54 87 62 88 55 89 57 90 63 91 56 92 58 93 59 94 60 95
REMARK SMILES IDX 61 96
REMARK H PARENT 15 15 83 49 51 60
REMARK Flexibility Score: inf
ROOT
ATOM      1  C   UNL A   1      34.306  31.133  28.074  1.00  0.00     0.275 C 
ENDROOT
BRANCH   1   2
ATOM      2  O   UNL A   1      34.035  30.717  26.733  1.00  0.00    -0.458 OA
BRANCH   2   3
ATOM      3  C   UNL A   1      33.873  29.414  26.453  1.00  0.00     0.338 C 
ATOM      4  O   UNL A   1      34.431  28.464  26.984  1.00  0.00    -0.246 OA
BRANCH   3   5
ATOM      5  C   UNL A   1      32.894  29.296  25.362  1.00  0.00     0.062 A 
ATOM      6  C   UNL A   1      32.297  28.476  23.153  1.00  0.00     0.045 A 
ATOM      7  C   UNL A   1      33.231  28.604  24.191  1.00  0.00     0.042 A 
ATOM      8  C   UNL A   1      31.044  29.121  23.263  1.00  0.00    -0.027 A 
ATOM      9  C   UNL A   1      30.716  29.779  24.466  1.00  0.00     0.006 A 
ATOM     10  C   UNL A   1      29.941  28.994  22.244  1.00  0.00     0.046 C 
ATOM     11  C   UNL A   1      31.636  29.874  25.509  1.00  0.00     0.016 A 
BRANCH   6  12
ATOM     12  N   UNL A   1      32.567  27.667  22.030  1.00  0.00    -0.322 N 
ATOM     13  C   UNL A   1      32.991  26.350  21.922  1.00  0.00     0.259 C 
ATOM     14  O   UNL A   1      33.316  25.951  20.801  1.00  0.00    -0.269 OA
ATOM     15  H   UNL A   1      32.431  28.118  21.165  1.00  0.00     0.170 HD
BRANCH  13  16
ATOM     16  C   UNL A   1      33.009  25.399  23.070  1.00  0.00     0.082 A 
ATOM     17  C   UNL A   1      31.911  25.152  23.883  1.00  0.00     0.132 A 
ATOM     18  C   UNL A   1      32.133  24.600  25.139  1.00  0.00     0.056 A 
ATOM     19  C   UNL A   1      33.330  23.975  25.486  1.00  0.00    -0.015 A 
ATOM     20  C   UNL A   1      34.220  24.736  23.372  1.00  0.00     0.026 A 
ATOM     21  C   UNL A   1      33.446  23.258  26.690  1.00  0.00     0.009 A 
ATOM     22  C   UNL A   1      34.369  23.965  24.551  1.00  0.00    -0.017 A 
ATOM     23  C   UNL A   1      34.516  22.395  26.903  1.00  0.00     0.001 A 
ATOM     24  C   UNL A   1      35.489  23.159  24.829  1.00  0.00     0.009 A 
ATOM     25  C   UNL A   1      35.539  22.344  25.968  1.00  0.00     0.001 A 
BRANCH  17  26
ATOM     26  O   UNL A   1      30.605  25.474  23.636  1.00  0.00    -0.496 OA
ATOM     27  C   UNL A   1      29.878  25.973  24.760  1.00  0.00     0.278 C 
ENDBRANCH  17  26
ENDBRANCH  13  16
ENDBRANCH   6  12
ENDBRANCH   3   5
ENDBRANCH   2   3
ENDBRANCH   1   2
BRANCH   1  28
ATOM     28  C   UNL A   1      35.681  30.845  28.709  1.00  0.00     0.275 C 
BRANCH  28  29
ATOM     29  O   UNL A   1      36.016  29.602  29.398  1.00  0.00    -0.458 OA
BRANCH  29  30
ATOM     30  C   UNL A   1      36.870  29.313  30.407  1.00  0.00     0.338 C 
ATOM     31  O   UNL A   1      36.630  29.614  31.570  1.00  0.00    -0.246 OA
BRANCH  30  32
ATOM     32  C   UNL A   1      38.148  28.709  30.040  1.00  0.00     0.060 A 
ATOM     33  C   UNL A   1      39.106  28.372  31.009  1.00  0.00     0.016 A 
ATOM     34  C   UNL A   1      38.370  28.465  28.693  1.00  0.00     0.016 A 
ATOM     35  C   UNL A   1      40.307  27.773  30.622  1.00  0.00     0.010 A 
ATOM     36  C   UNL A   1      39.467  27.725  28.342  1.00  0.00     0.010 A 
ATOM     37  C   UNL A   1      40.501  27.488  29.275  1.00  0.00    -0.014 A 
BRANCH  37  38
ATOM     38  C   UNL A   1      41.783  27.198  28.617  1.00  0.00     0.031 A 
ATOM     39  C   UNL A   1      42.342  25.839  28.476  1.00  0.00     0.074 A 
ATOM     40  C   UNL A   1      42.099  28.243  27.825  1.00  0.00     0.049 A 
ATOM     41  N   UNL A   1      42.419  25.191  27.358  1.00  0.00    -0.248 NA
ATOM     42  C   UNL A   1      42.799  25.079  29.644  1.00  0.00     0.031 C 
ATOM     43  C   UNL A   1      42.856  28.346  26.601  1.00  0.00     0.029 A 
ATOM     44  N   UNL A   1      41.801  29.575  28.142  1.00  0.00    -0.354 N 
ATOM     45  C   UNL A   1      42.975  23.936  27.634  1.00  0.00     0.074 A 
ATOM     46  C   UNL A   1      43.118  23.901  29.090  1.00  0.00     0.031 C 
ATOM     47  C   UNL A   1      43.250  29.632  26.465  1.00  0.00     0.029 A 
ATOM     48  C   UNL A   1      42.879  30.331  27.700  1.00  0.00     0.049 A 
ATOM     49  H   UNL A   1      40.990  29.909  28.590  1.00  0.00     0.167 HD
ATOM     50  C   UNL A   1      44.005  23.474  26.869  1.00  0.00     0.034 A 
ATOM     51  C   UNL A   1      43.742  30.732  28.688  1.00  0.00     0.034 A 
ATOM     52  C   UNL A   1      44.772  24.591  26.352  1.00  0.00     0.049 A 
ATOM     53  C   UNL A   1      45.052  29.983  28.568  1.00  0.00     0.074 A 
ATOM     54  C   UNL A   1      44.658  25.402  25.240  1.00  0.00     0.029 A 
ATOM     55  N   UNL A   1      45.647  25.209  27.222  1.00  0.00    -0.354 N 
ATOM     56  N   UNL A   1      45.182  28.774  28.090  1.00  0.00    -0.248 NA
ATOM     57  C   UNL A   1      46.330  30.605  28.878  1.00  0.00     0.031 C 
ATOM     58  C   UNL A   1      45.420  26.576  25.496  1.00  0.00     0.029 A 
ATOM     59  C   UNL A   1      46.005  26.455  26.748  1.00  0.00     0.049 A 
ATOM     60  H   UNL A   1      45.971  24.816  28.065  1.00  0.00     0.167 HD
ATOM     61  C   UNL A   1      46.508  28.462  27.979  1.00  0.00     0.074 A 
ATOM     62  C   UNL A   1      47.186  29.650  28.476  1.00  0.00     0.031 C 
ATOM     63  C   UNL A   1      46.953  27.262  27.498  1.00  0.00     0.034 A 
BRANCH  50  64
ATOM     64  C   UNL A   1      43.881  22.119  26.195  1.00  0.00     0.023 A 
ATOM     65  C   UNL A   1      42.621  21.480  26.261  1.00  0.00     0.012 A 
ATOM     66  C   UNL A   1      44.925  21.408  25.546  1.00  0.00     0.148 A 
ATOM     67  C   UNL A   1      42.418  20.174  25.810  1.00  0.00     0.002 A 
ATOM     68  C   UNL A   1      44.722  20.089  25.106  1.00  0.00     0.091 A 
ATOM     69  F   UNL A   1      46.105  22.016  25.360  1.00  0.00    -0.205 F 
ATOM     70  C   UNL A   1      43.473  19.470  25.253  1.00  0.00     0.022 A 
BRANCH  68  71
ATOM     71  S   UNL A   1      46.007  19.038  24.396  1.00  0.00     0.127 S 
ATOM     72  O   UNL A   1      47.188  19.900  24.493  1.00  0.00    -0.237 OA
ATOM     73  O   UNL A   1      46.026  17.892  25.306  1.00  0.00    -0.237 OA
ATOM     74  O   UNL A   1      45.589  18.725  23.036  1.00  0.00    -0.744 OA
ENDBRANCH  68  71
ENDBRANCH  50  64
BRANCH  51  75
ATOM     75  C   UNL A   1      43.033  31.053  29.996  1.00  0.00     0.023 A 
ATOM     76  C   UNL A   1      41.908  31.924  29.930  1.00  0.00     0.012 A 
ATOM     77  C   UNL A   1      43.199  30.289  31.167  1.00  0.00     0.148 A 
ATOM     78  C   UNL A   1      40.912  31.912  30.913  1.00  0.00     0.002 A 
ATOM     79  C   UNL A   1      42.212  30.307  32.163  1.00  0.00     0.091 A 
ATOM     80  F   UNL A   1      44.290  29.523  31.290  1.00  0.00    -0.205 F 
ATOM     81  C   UNL A   1      41.051  31.084  32.017  1.00  0.00     0.022 A 
BRANCH  79  82
ATOM     82  S   UNL A   1      42.330  29.233  33.607  1.00  0.00     0.127 S 
ATOM     83  O   UNL A   1      43.357  29.906  34.397  1.00  0.00    -0.237 OA
ATOM     84  O   UNL A   1      40.984  29.291  34.183  1.00  0.00    -0.237 OA
ATOM     85  O   UNL A   1      42.681  27.925  33.068  1.00  0.00    -0.744 OA
ENDBRANCH  79  82
ENDBRANCH  51  75
BRANCH  63  86
ATOM     86  C   UNL A   1      48.349  26.711  27.719  1.00  0.00     0.023 A 
ATOM     87  C   UNL A   1      48.585  25.635  28.594  1.00  0.00     0.012 A 
ATOM     88  C   UNL A   1      49.437  27.111  26.899  1.00  0.00     0.148 A 
ATOM     89  C   UNL A   1      49.839  25.036  28.713  1.00  0.00     0.002 A 
ATOM     90  C   UNL A   1      50.638  26.411  26.913  1.00  0.00     0.091 A 
ATOM     91  F   UNL A   1      49.324  28.179  26.095  1.00  0.00    -0.205 F 
ATOM     92  C   UNL A   1      50.859  25.403  27.849  1.00  0.00     0.022 A 
BRANCH  90  93
ATOM     93  S   UNL A   1      51.843  26.625  25.595  1.00  0.00     0.127 S 
ATOM     94  O   UNL A   1      51.018  26.464  24.401  1.00  0.00    -0.237 OA
ATOM     95  O   UNL A   1      52.321  27.989  25.828  1.00  0.00    -0.237 OA
ATOM     96  O   UNL A   1      52.845  25.596  25.835  1.00  0.00    -0.744 OA
ENDBRANCH  90  93
ENDBRANCH  63  86
ENDBRANCH  37  38
ENDBRANCH  30  32
ENDBRANCH  29  30
ENDBRANCH  28  29
ENDBRANCH   1  28
TORSDOF 17
ENDMDL
