MODEL 1
REMARK VINA RESULT:     -10.6      0.000      0.000
REMARK SMILES [NH3+][C@H](C(=O)OCCOC(=O)c1ccc(-c2c3nc(c(-c4cccc(S(=O)(=O)[O-])c4F)c4ccc([nH]4)c(-c4cccc(S(=O)(=O)[O-])c4F)c4nc(c(-c5cccc(S(=O)(=O)[O-])c5F)c5ccc2[nH]5)C=C4)C=C3)cc1)c1cccc(OCc2ccc(F)cc2)c1
REMARK SMILES IDX 6 1 5 2 3 3 4 4 2 5 1 6 74 10 75 11 88 12 76 13 78 14 77 15
REMARK SMILES IDX 79 16 80 17 81 18 82 19 87 20 83 21 86 22 84 23 85 24 7 25
REMARK SMILES IDX 8 26 9 27 10 28 11 29 12 30 73 31 13 32 72 33 14 34 15 35
REMARK SMILES IDX 16 36 66 37 17 38 71 39 65 40 67 41 18 42 70 43 64 44 63 45
REMARK SMILES IDX 19 47 51 48 31 49 50 50 32 51 35 52 49 53 68 54 33 55 34 56
REMARK SMILES IDX 48 58 69 59 36 60 20 61 21 62 29 63 22 64 24 65 30 66 23 67
REMARK SMILES IDX 25 68 26 69 27 70 28 71 52 72 53 73 61 74 54 75 56 76 62 77
REMARK SMILES IDX 55 78 57 79 58 80 59 81 60 82 37 83 38 84 46 85 39 86 41 87
REMARK SMILES IDX 47 88 40 89 42 90 43 91 44 92 45 93
REMARK H PARENT 1 7 1 8 1 9 67 46 35 57
REMARK Flexibility Score: inf
ROOT
ATOM      1  C   UNL A   1      33.180  35.110  28.959  1.00  0.00     0.274 C 
ENDROOT
BRANCH   1   2
ATOM      2  O   UNL A   1      32.385  35.272  30.149  1.00  0.00    -0.457 OA
BRANCH   2   3
ATOM      3  C   UNL A   1      32.699  36.340  30.942  1.00  0.00     0.369 C 
ATOM      4  O   UNL A   1      32.954  37.462  30.515  1.00  0.00    -0.245 OA
BRANCH   3   5
ATOM      5  C   UNL A   1      32.716  35.965  32.449  1.00  0.00     0.323 C 
BRANCH   5   6
ATOM      6  N   UNL A   1      31.433  35.368  32.892  1.00  0.00    -0.342 N 
ATOM      7  H   UNL A   1      30.666  35.998  32.658  1.00  0.00     0.345 HD
ATOM      8  H   UNL A   1      31.455  35.220  33.901  1.00  0.00     0.345 HD
ATOM      9  H   UNL A   1      31.294  34.474  32.420  1.00  0.00     0.345 HD
ENDBRANCH   5   6
BRANCH   5  10
ATOM     10  C   UNL A   1      33.876  35.059  32.800  1.00  0.00     0.024 A 
ATOM     11  C   UNL A   1      33.693  33.681  32.975  1.00  0.00     0.011 A 
ATOM     12  C   UNL A   1      35.175  35.578  32.846  1.00  0.00     0.057 A 
ATOM     13  C   UNL A   1      34.792  32.846  33.169  1.00  0.00     0.004 A 
ATOM     14  C   UNL A   1      36.280  34.738  32.918  1.00  0.00     0.120 A 
ATOM     15  C   UNL A   1      36.085  33.372  33.119  1.00  0.00     0.046 A 
BRANCH  14  16
ATOM     16  O   UNL A   1      37.569  35.129  32.665  1.00  0.00    -0.489 OA
BRANCH  16  17
ATOM     17  C   UNL A   1      38.157  34.774  31.404  1.00  0.00     0.265 C 
BRANCH  17  18
ATOM     18  C   UNL A   1      39.607  34.292  31.396  1.00  0.00    -0.011 A 
ATOM     19  C   UNL A   1      40.084  33.633  30.248  1.00  0.00     0.010 A 
ATOM     20  C   UNL A   1      40.465  34.407  32.504  1.00  0.00     0.010 A 
ATOM     21  C   UNL A   1      41.361  33.067  30.230  1.00  0.00     0.039 A 
ATOM     22  C   UNL A   1      41.727  33.809  32.496  1.00  0.00     0.039 A 
ATOM     23  C   UNL A   1      42.164  33.145  31.359  1.00  0.00     0.123 A 
ATOM     24  F   UNL A   1      43.372  32.568  31.353  1.00  0.00    -0.207 F 
ENDBRANCH  17  18
ENDBRANCH  16  17
ENDBRANCH  14  16
ENDBRANCH   5  10
ENDBRANCH   3   5
ENDBRANCH   2   3
ENDBRANCH   1   2
BRANCH   1  25
ATOM     25  C   UNL A   1      34.051  33.851  29.037  1.00  0.00     0.275 C 
BRANCH  25  26
ATOM     26  O   UNL A   1      34.236  33.236  27.749  1.00  0.00    -0.458 OA
BRANCH  26  27
ATOM     27  C   UNL A   1      34.142  31.884  27.749  1.00  0.00     0.338 C 
ATOM     28  O   UNL A   1      33.202  31.212  27.361  1.00  0.00    -0.246 OA
BRANCH  27  29
ATOM     29  C   UNL A   1      35.431  31.290  28.131  1.00  0.00     0.060 A 
ATOM     30  C   UNL A   1      35.416  29.987  28.627  1.00  0.00     0.016 A 
ATOM     31  C   UNL A   1      36.608  32.034  28.138  1.00  0.00     0.016 A 
ATOM     32  C   UNL A   1      36.548  29.436  29.200  1.00  0.00     0.010 A 
ATOM     33  C   UNL A   1      37.768  31.458  28.667  1.00  0.00     0.010 A 
ATOM     34  C   UNL A   1      37.736  30.167  29.228  1.00  0.00    -0.014 A 
BRANCH  34  35
ATOM     35  C   UNL A   1      38.921  29.578  29.889  1.00  0.00     0.031 A 
ATOM     36  C   UNL A   1      39.299  30.024  31.270  1.00  0.00     0.074 A 
ATOM     37  C   UNL A   1      39.628  28.621  29.257  1.00  0.00     0.049 A 
ATOM     38  N   UNL A   1      40.359  29.724  31.970  1.00  0.00    -0.248 NA
ATOM     39  C   UNL A   1      38.363  30.935  31.953  1.00  0.00     0.031 C 
ATOM     40  C   UNL A   1      39.320  28.079  27.932  1.00  0.00     0.029 A 
ATOM     41  N   UNL A   1      40.753  27.940  29.643  1.00  0.00    -0.354 N 
ATOM     42  C   UNL A   1      40.254  30.455  33.146  1.00  0.00     0.074 A 
ATOM     43  C   UNL A   1      39.019  31.204  33.073  1.00  0.00     0.031 C 
ATOM     44  C   UNL A   1      40.234  27.151  27.614  1.00  0.00     0.029 A 
ATOM     45  C   UNL A   1      41.226  27.078  28.682  1.00  0.00     0.049 A 
ATOM     46  H   UNL A   1      41.182  28.057  30.522  1.00  0.00     0.167 HD
ATOM     47  C   UNL A   1      41.111  30.490  34.193  1.00  0.00     0.034 A 
ATOM     48  C   UNL A   1      42.351  26.338  28.650  1.00  0.00     0.034 A 
ATOM     49  C   UNL A   1      42.303  29.692  34.279  1.00  0.00     0.049 A 
ATOM     50  C   UNL A   1      43.281  26.393  29.828  1.00  0.00     0.074 A 
ATOM     51  C   UNL A   1      43.231  29.636  35.304  1.00  0.00     0.029 A 
ATOM     52  N   UNL A   1      42.727  28.800  33.305  1.00  0.00    -0.354 N 
ATOM     53  N   UNL A   1      43.151  27.060  30.951  1.00  0.00    -0.248 NA
ATOM     54  C   UNL A   1      44.505  25.586  29.746  1.00  0.00     0.031 C 
ATOM     55  C   UNL A   1      44.216  28.709  34.948  1.00  0.00     0.029 A 
ATOM     56  C   UNL A   1      43.899  28.184  33.705  1.00  0.00     0.049 A 
ATOM     57  H   UNL A   1      42.260  28.628  32.455  1.00  0.00     0.167 HD
ATOM     58  C   UNL A   1      44.266  26.743  31.714  1.00  0.00     0.074 A 
ATOM     59  C   UNL A   1      45.048  25.800  30.938  1.00  0.00     0.031 C 
ATOM     60  C   UNL A   1      44.628  27.209  32.935  1.00  0.00     0.034 A 
BRANCH  47  61
ATOM     61  C   UNL A   1      40.774  31.407  35.336  1.00  0.00     0.023 A 
ATOM     62  C   UNL A   1      41.619  32.495  35.629  1.00  0.00     0.012 A 
ATOM     63  C   UNL A   1      39.604  31.214  36.096  1.00  0.00     0.148 A 
ATOM     64  C   UNL A   1      41.317  33.365  36.677  1.00  0.00     0.002 A 
ATOM     65  C   UNL A   1      39.291  32.105  37.116  1.00  0.00     0.091 A 
ATOM     66  F   UNL A   1      38.830  30.154  35.822  1.00  0.00    -0.205 F 
ATOM     67  C   UNL A   1      40.149  33.177  37.413  1.00  0.00     0.022 A 
BRANCH  65  68
ATOM     68  S   UNL A   1      37.777  31.974  38.074  1.00  0.00     0.127 S 
ATOM     69  O   UNL A   1      38.234  32.364  39.407  1.00  0.00    -0.237 OA
ATOM     70  O   UNL A   1      36.907  32.952  37.420  1.00  0.00    -0.237 OA
ATOM     71  O   UNL A   1      37.339  30.592  37.936  1.00  0.00    -0.744 OA
ENDBRANCH  65  68
ENDBRANCH  47  61
BRANCH  48  72
ATOM     72  C   UNL A   1      42.636  25.478  27.468  1.00  0.00     0.023 A 
ATOM     73  C   UNL A   1      43.458  25.968  26.437  1.00  0.00     0.012 A 
ATOM     74  C   UNL A   1      42.147  24.158  27.387  1.00  0.00     0.148 A 
ATOM     75  C   UNL A   1      43.777  25.165  25.340  1.00  0.00     0.002 A 
ATOM     76  C   UNL A   1      42.517  23.345  26.322  1.00  0.00     0.091 A 
ATOM     77  F   UNL A   1      41.343  23.715  28.364  1.00  0.00    -0.205 F 
ATOM     78  C   UNL A   1      43.321  23.850  25.290  1.00  0.00     0.022 A 
BRANCH  76  79
ATOM     79  S   UNL A   1      42.086  21.601  26.268  1.00  0.00     0.127 S 
ATOM     80  O   UNL A   1      42.961  21.107  25.210  1.00  0.00    -0.237 OA
ATOM     81  O   UNL A   1      42.436  21.153  27.617  1.00  0.00    -0.237 OA
ATOM     82  O   UNL A   1      40.656  21.570  25.986  1.00  0.00    -0.744 OA
ENDBRANCH  76  79
ENDBRANCH  48  72
BRANCH  60  83
ATOM     83  C   UNL A   1      45.917  26.696  33.513  1.00  0.00     0.023 A 
ATOM     84  C   UNL A   1      47.099  27.443  33.335  1.00  0.00     0.012 A 
ATOM     85  C   UNL A   1      45.946  25.524  34.292  1.00  0.00     0.148 A 
ATOM     86  C   UNL A   1      48.296  27.018  33.906  1.00  0.00     0.002 A 
ATOM     87  C   UNL A   1      47.136  25.127  34.891  1.00  0.00     0.091 A 
ATOM     88  F   UNL A   1      44.816  24.815  34.427  1.00  0.00    -0.205 F 
ATOM     89  C   UNL A   1      48.313  25.868  34.694  1.00  0.00     0.022 A 
BRANCH  87  90
ATOM     90  S   UNL A   1      47.221  23.708  35.988  1.00  0.00     0.127 S 
ATOM     91  O   UNL A   1      45.941  23.793  36.688  1.00  0.00    -0.237 OA
ATOM     92  O   UNL A   1      47.329  22.589  35.049  1.00  0.00    -0.237 OA
ATOM     93  O   UNL A   1      48.407  23.915  36.809  1.00  0.00    -0.744 OA
ENDBRANCH  87  90
ENDBRANCH  60  83
ENDBRANCH  34  35
ENDBRANCH  27  29
ENDBRANCH  26  27
ENDBRANCH  25  26
ENDBRANCH   1  25
TORSDOF 19
ENDMDL
MODEL 2
REMARK VINA RESULT:     -10.4      2.019      2.916
REMARK SMILES [NH3+][C@H](C(=O)OCCOC(=O)c1ccc(-c2c3nc(c(-c4cccc(S(=O)(=O)[O-])c4F)c4ccc([nH]4)c(-c4cccc(S(=O)(=O)[O-])c4F)c4nc(c(-c5cccc(S(=O)(=O)[O-])c5F)c5ccc2[nH]5)C=C4)C=C3)cc1)c1cccc(OCc2ccc(F)cc2)c1
REMARK SMILES IDX 6 1 5 2 3 3 4 4 2 5 1 6 74 10 75 11 88 12 76 13 78 14 77 15
REMARK SMILES IDX 79 16 80 17 81 18 82 19 87 20 83 21 86 22 84 23 85 24 7 25
REMARK SMILES IDX 8 26 9 27 10 28 11 29 12 30 73 31 13 32 72 33 14 34 15 35
REMARK SMILES IDX 16 36 66 37 17 38 71 39 65 40 67 41 18 42 70 43 64 44 63 45
REMARK SMILES IDX 19 47 51 48 31 49 50 50 32 51 35 52 49 53 68 54 33 55 34 56
REMARK SMILES IDX 48 58 69 59 36 60 20 61 21 62 29 63 22 64 24 65 30 66 23 67
REMARK SMILES IDX 25 68 26 69 27 70 28 71 52 72 53 73 61 74 54 75 56 76 62 77
REMARK SMILES IDX 55 78 57 79 58 80 59 81 60 82 37 83 38 84 46 85 39 86 41 87
REMARK SMILES IDX 47 88 40 89 42 90 43 91 44 92 45 93
REMARK H PARENT 1 7 1 8 1 9 67 46 35 57
REMARK Flexibility Score: inf
ROOT
ATOM      1  C   UNL A   1      33.375  35.075  28.776  1.00  0.00     0.274 C 
ENDROOT
BRANCH   1   2
ATOM      2  O   UNL A   1      32.586  35.097  29.979  1.00  0.00    -0.457 OA
BRANCH   2   3
ATOM      3  C   UNL A   1      32.847  36.117  30.853  1.00  0.00     0.369 C 
ATOM      4  O   UNL A   1      32.961  37.292  30.523  1.00  0.00    -0.245 OA
BRANCH   3   5
ATOM      5  C   UNL A   1      33.005  35.610  32.313  1.00  0.00     0.323 C 
BRANCH   5   6
ATOM      6  N   UNL A   1      31.782  34.928  32.804  1.00  0.00    -0.342 N 
ATOM      7  H   UNL A   1      31.584  35.231  33.758  1.00  0.00     0.345 HD
ATOM      8  H   UNL A   1      31.927  33.919  32.792  1.00  0.00     0.345 HD
ATOM      9  H   UNL A   1      30.995  35.166  32.200  1.00  0.00     0.345 HD
ENDBRANCH   5   6
BRANCH   5  10
ATOM     10  C   UNL A   1      34.216  34.720  32.481  1.00  0.00     0.024 A 
ATOM     11  C   UNL A   1      34.218  33.400  32.010  1.00  0.00     0.011 A 
ATOM     12  C   UNL A   1      35.397  35.246  33.018  1.00  0.00     0.057 A 
ATOM     13  C   UNL A   1      35.386  32.640  32.058  1.00  0.00     0.004 A 
ATOM     14  C   UNL A   1      36.591  34.536  32.957  1.00  0.00     0.120 A 
ATOM     15  C   UNL A   1      36.575  33.215  32.512  1.00  0.00     0.046 A 
BRANCH  14  16
ATOM     16  O   UNL A   1      37.829  35.082  33.174  1.00  0.00    -0.489 OA
BRANCH  16  17
ATOM     17  C   UNL A   1      38.816  34.289  33.851  1.00  0.00     0.265 C 
BRANCH  17  18
ATOM     18  C   UNL A   1      39.072  34.567  35.332  1.00  0.00    -0.011 A 
ATOM     19  C   UNL A   1      38.525  33.684  36.281  1.00  0.00     0.010 A 
ATOM     20  C   UNL A   1      39.763  35.700  35.796  1.00  0.00     0.010 A 
ATOM     21  C   UNL A   1      38.626  33.954  37.648  1.00  0.00     0.039 A 
ATOM     22  C   UNL A   1      39.832  35.987  37.161  1.00  0.00     0.039 A 
ATOM     23  C   UNL A   1      39.263  35.111  38.075  1.00  0.00     0.123 A 
ATOM     24  F   UNL A   1      39.325  35.388  39.384  1.00  0.00    -0.207 F 
ENDBRANCH  17  18
ENDBRANCH  16  17
ENDBRANCH  14  16
ENDBRANCH   5  10
ENDBRANCH   3   5
ENDBRANCH   2   3
ENDBRANCH   1   2
BRANCH   1  25
ATOM     25  C   UNL A   1      33.436  33.667  28.174  1.00  0.00     0.275 C 
BRANCH  25  26
ATOM     26  O   UNL A   1      34.763  33.112  28.219  1.00  0.00    -0.458 OA
BRANCH  26  27
ATOM     27  C   UNL A   1      34.826  31.776  28.004  1.00  0.00     0.338 C 
ATOM     28  O   UNL A   1      34.159  31.124  27.219  1.00  0.00    -0.246 OA
BRANCH  27  29
ATOM     29  C   UNL A   1      35.960  31.200  28.741  1.00  0.00     0.060 A 
ATOM     30  C   UNL A   1      37.184  31.861  28.657  1.00  0.00     0.016 A 
ATOM     31  C   UNL A   1      35.866  29.969  29.385  1.00  0.00     0.016 A 
ATOM     32  C   UNL A   1      38.339  31.277  29.144  1.00  0.00     0.010 A 
ATOM     33  C   UNL A   1      37.024  29.401  29.928  1.00  0.00     0.010 A 
ATOM     34  C   UNL A   1      38.271  30.039  29.783  1.00  0.00    -0.014 A 
BRANCH  34  35
ATOM     35  C   UNL A   1      39.524  29.408  30.254  1.00  0.00     0.031 A 
ATOM     36  C   UNL A   1      40.172  29.896  31.515  1.00  0.00     0.074 A 
ATOM     37  C   UNL A   1      40.050  28.379  29.564  1.00  0.00     0.049 A 
ATOM     38  N   UNL A   1      41.326  29.563  32.029  1.00  0.00    -0.248 NA
ATOM     39  C   UNL A   1      39.429  30.897  32.300  1.00  0.00     0.031 C 
ATOM     40  C   UNL A   1      39.476  27.794  28.350  1.00  0.00     0.029 A 
ATOM     41  N   UNL A   1      41.189  27.647  29.780  1.00  0.00    -0.354 N 
ATOM     42  C   UNL A   1      41.478  30.356  33.159  1.00  0.00     0.074 A 
ATOM     43  C   UNL A   1      40.292  31.178  33.266  1.00  0.00     0.031 C 
ATOM     44  C   UNL A   1      40.264  26.795  27.928  1.00  0.00     0.029 A 
ATOM     45  C   UNL A   1      41.429  26.710  28.802  1.00  0.00     0.049 A 
ATOM     46  H   UNL A   1      41.778  27.779  30.558  1.00  0.00     0.167 HD
ATOM     47  C   UNL A   1      42.513  30.387  34.031  1.00  0.00     0.034 A 
ATOM     48  C   UNL A   1      42.488  25.900  28.612  1.00  0.00     0.034 A 
ATOM     49  C   UNL A   1      43.656  29.520  33.947  1.00  0.00     0.049 A 
ATOM     50  C   UNL A   1      43.620  25.952  29.598  1.00  0.00     0.074 A 
ATOM     51  C   UNL A   1      44.752  29.456  34.789  1.00  0.00     0.029 A 
ATOM     52  N   UNL A   1      43.845  28.556  32.967  1.00  0.00    -0.354 N 
ATOM     53  N   UNL A   1      43.735  26.681  30.683  1.00  0.00    -0.248 NA
ATOM     54  C   UNL A   1      44.764  25.066  29.344  1.00  0.00     0.031 C 
ATOM     55  C   UNL A   1      45.604  28.451  34.317  1.00  0.00     0.029 A 
ATOM     56  C   UNL A   1      45.036  27.887  33.185  1.00  0.00     0.049 A 
ATOM     57  H   UNL A   1      43.221  28.373  32.228  1.00  0.00     0.167 HD
ATOM     58  C   UNL A   1      44.952  26.330  31.250  1.00  0.00     0.074 A 
ATOM     59  C   UNL A   1      45.526  25.302  30.404  1.00  0.00     0.031 C 
ATOM     60  C   UNL A   1      45.557  26.831  32.356  1.00  0.00     0.034 A 
BRANCH  47  61
ATOM     61  C   UNL A   1      42.442  31.378  35.159  1.00  0.00     0.023 A 
ATOM     62  C   UNL A   1      41.802  31.021  36.362  1.00  0.00     0.012 A 
ATOM     63  C   UNL A   1      43.040  32.648  35.043  1.00  0.00     0.148 A 
ATOM     64  C   UNL A   1      41.737  31.922  37.425  1.00  0.00     0.002 A 
ATOM     65  C   UNL A   1      43.002  33.528  36.119  1.00  0.00     0.091 A 
ATOM     66  F   UNL A   1      43.617  32.981  33.879  1.00  0.00    -0.205 F 
ATOM     67  C   UNL A   1      42.346  33.170  37.307  1.00  0.00     0.022 A 
BRANCH  65  68
ATOM     68  S   UNL A   1      43.813  35.131  36.076  1.00  0.00     0.127 S 
ATOM     69  O   UNL A   1      43.106  35.791  34.980  1.00  0.00    -0.237 OA
ATOM     70  O   UNL A   1      43.513  35.668  37.404  1.00  0.00    -0.237 OA
ATOM     71  O   UNL A   1      45.224  34.856  35.843  1.00  0.00    -0.744 OA
ENDBRANCH  65  68
ENDBRANCH  47  61
BRANCH  48  72
ATOM     72  C   UNL A   1      42.504  24.966  27.451  1.00  0.00     0.023 A 
ATOM     73  C   UNL A   1      43.121  25.364  26.251  1.00  0.00     0.012 A 
ATOM     74  C   UNL A   1      41.967  23.667  27.548  1.00  0.00     0.148 A 
ATOM     75  C   UNL A   1      43.190  24.491  25.164  1.00  0.00     0.002 A 
ATOM     76  C   UNL A   1      42.091  22.783  26.483  1.00  0.00     0.091 A 
ATOM     77  F   UNL A   1      41.359  23.312  28.689  1.00  0.00    -0.205 F 
ATOM     78  C   UNL A   1      42.690  23.197  25.284  1.00  0.00     0.022 A 
BRANCH  76  79
ATOM     79  S   UNL A   1      41.601  21.059  26.620  1.00  0.00     0.127 S 
ATOM     80  O   UNL A   1      40.146  21.154  26.569  1.00  0.00    -0.237 OA
ATOM     81  O   UNL A   1      42.222  20.465  25.435  1.00  0.00    -0.237 OA
ATOM     82  O   UNL A   1      42.170  20.600  27.881  1.00  0.00    -0.744 OA
ENDBRANCH  76  79
ENDBRANCH  48  72
BRANCH  60  83
ATOM     83  C   UNL A   1      46.901  26.266  32.721  1.00  0.00     0.023 A 
ATOM     84  C   UNL A   1      48.066  26.870  32.209  1.00  0.00     0.012 A 
ATOM     85  C   UNL A   1      47.014  25.193  33.626  1.00  0.00     0.148 A 
ATOM     86  C   UNL A   1      49.325  26.400  32.575  1.00  0.00     0.002 A 
ATOM     87  C   UNL A   1      48.274  24.754  34.016  1.00  0.00     0.091 A 
ATOM     88  F   UNL A   1      45.892  24.617  34.081  1.00  0.00    -0.205 F 
ATOM     89  C   UNL A   1      49.430  25.351  33.487  1.00  0.00     0.022 A 
BRANCH  87  90
ATOM     90  S   UNL A   1      48.492  23.468  35.250  1.00  0.00     0.127 S 
ATOM     91  O   UNL A   1      47.800  24.039  36.404  1.00  0.00    -0.237 OA
ATOM     92  O   UNL A   1      47.814  22.324  34.638  1.00  0.00    -0.237 OA
ATOM     93  O   UNL A   1      49.933  23.301  35.395  1.00  0.00    -0.744 OA
ENDBRANCH  87  90
ENDBRANCH  60  83
ENDBRANCH  34  35
ENDBRANCH  27  29
ENDBRANCH  26  27
ENDBRANCH  25  26
ENDBRANCH   1  25
TORSDOF 19
ENDMDL
MODEL 3
REMARK VINA RESULT:     -10.4      5.554      9.642
REMARK SMILES [NH3+][C@H](C(=O)OCCOC(=O)c1ccc(-c2c3nc(c(-c4cccc(S(=O)(=O)[O-])c4F)c4ccc([nH]4)c(-c4cccc(S(=O)(=O)[O-])c4F)c4nc(c(-c5cccc(S(=O)(=O)[O-])c5F)c5ccc2[nH]5)C=C4)C=C3)cc1)c1cccc(OCc2ccc(F)cc2)c1
REMARK SMILES IDX 6 1 5 2 3 3 4 4 2 5 1 6 74 10 75 11 88 12 76 13 78 14 77 15
REMARK SMILES IDX 79 16 80 17 81 18 82 19 87 20 83 21 86 22 84 23 85 24 7 25
REMARK SMILES IDX 8 26 9 27 10 28 11 29 12 30 73 31 13 32 72 33 14 34 15 35
REMARK SMILES IDX 16 36 66 37 17 38 71 39 65 40 67 41 18 42 70 43 64 44 63 45
REMARK SMILES IDX 19 47 51 48 31 49 50 50 32 51 35 52 49 53 68 54 33 55 34 56
REMARK SMILES IDX 48 58 69 59 36 60 20 61 21 62 29 63 22 64 24 65 30 66 23 67
REMARK SMILES IDX 25 68 26 69 27 70 28 71 52 72 53 73 61 74 54 75 56 76 62 77
REMARK SMILES IDX 55 78 57 79 58 80 59 81 60 82 37 83 38 84 46 85 39 86 41 87
REMARK SMILES IDX 47 88 40 89 42 90 43 91 44 92 45 93
REMARK H PARENT 1 7 1 8 1 9 67 46 35 57
REMARK Flexibility Score: inf
ROOT
ATOM      1  C   UNL A   1      34.796  21.591  25.482  1.00  0.00     0.274 C 
ENDROOT
BRANCH   1   2
ATOM      2  O   UNL A   1      34.044  21.797  24.272  1.00  0.00    -0.457 OA
BRANCH   2   3
ATOM      3  C   UNL A   1      33.900  23.095  23.865  1.00  0.00     0.369 C 
ATOM      4  O   UNL A   1      34.727  23.976  24.075  1.00  0.00    -0.245 OA
BRANCH   3   5
ATOM      5  C   UNL A   1      32.556  23.330  23.124  1.00  0.00     0.323 C 
BRANCH   5   6
ATOM      6  N   UNL A   1      31.993  22.073  22.573  1.00  0.00    -0.342 N 
ATOM      7  H   UNL A   1      31.180  22.289  21.996  1.00  0.00     0.345 HD
ATOM      8  H   UNL A   1      31.713  21.461  23.338  1.00  0.00     0.345 HD
ATOM      9  H   UNL A   1      32.700  21.606  22.003  1.00  0.00     0.345 HD
ENDBRANCH   5   6
BRANCH   5  10
ATOM     10  C   UNL A   1      31.537  24.033  23.994  1.00  0.00     0.024 A 
ATOM     11  C   UNL A   1      31.297  23.616  25.310  1.00  0.00     0.011 A 
ATOM     12  C   UNL A   1      30.899  25.186  23.525  1.00  0.00     0.057 A 
ATOM     13  C   UNL A   1      30.452  24.356  26.137  1.00  0.00     0.004 A 
ATOM     14  C   UNL A   1      30.154  25.992  24.379  1.00  0.00     0.120 A 
ATOM     15  C   UNL A   1      29.899  25.553  25.678  1.00  0.00     0.046 A 
BRANCH  14  16
ATOM     16  O   UNL A   1      29.756  27.271  24.089  1.00  0.00    -0.489 OA
BRANCH  16  17
ATOM     17  C   UNL A   1      30.761  28.290  23.974  1.00  0.00     0.265 C 
BRANCH  17  18
ATOM     18  C   UNL A   1      31.870  28.329  25.024  1.00  0.00    -0.011 A 
ATOM     19  C   UNL A   1      31.601  28.952  26.257  1.00  0.00     0.010 A 
ATOM     20  C   UNL A   1      33.169  27.840  24.794  1.00  0.00     0.010 A 
ATOM     21  C   UNL A   1      32.612  29.121  27.206  1.00  0.00     0.039 A 
ATOM     22  C   UNL A   1      34.186  28.043  25.729  1.00  0.00     0.039 A 
ATOM     23  C   UNL A   1      33.898  28.681  26.926  1.00  0.00     0.123 A 
ATOM     24  F   UNL A   1      34.874  28.880  27.822  1.00  0.00    -0.207 F 
ENDBRANCH  17  18
ENDBRANCH  16  17
ENDBRANCH  14  16
ENDBRANCH   5  10
ENDBRANCH   3   5
ENDBRANCH   2   3
ENDBRANCH   1   2
BRANCH   1  25
ATOM     25  C   UNL A   1      36.098  20.831  25.208  1.00  0.00     0.275 C 
BRANCH  25  26
ATOM     26  O   UNL A   1      37.227  21.713  25.076  1.00  0.00    -0.458 OA
BRANCH  26  27
ATOM     27  C   UNL A   1      38.343  21.306  25.727  1.00  0.00     0.338 C 
ATOM     28  O   UNL A   1      38.853  20.199  25.692  1.00  0.00    -0.246 OA
BRANCH  27  29
ATOM     29  C   UNL A   1      38.992  22.452  26.378  1.00  0.00     0.060 A 
ATOM     30  C   UNL A   1      38.523  23.725  26.057  1.00  0.00     0.016 A 
ATOM     31  C   UNL A   1      40.122  22.299  27.177  1.00  0.00     0.016 A 
ATOM     32  C   UNL A   1      39.210  24.856  26.461  1.00  0.00     0.010 A 
ATOM     33  C   UNL A   1      40.788  23.442  27.634  1.00  0.00     0.010 A 
ATOM     34  C   UNL A   1      40.351  24.725  27.253  1.00  0.00    -0.014 A 
BRANCH  34  35
ATOM     35  C   UNL A   1      41.099  25.944  27.634  1.00  0.00     0.031 A 
ATOM     36  C   UNL A   1      40.430  26.994  28.470  1.00  0.00     0.074 A 
ATOM     37  C   UNL A   1      42.384  26.080  27.256  1.00  0.00     0.049 A 
ATOM     38  N   UNL A   1      40.866  28.178  28.807  1.00  0.00    -0.248 NA
ATOM     39  C   UNL A   1      39.090  26.674  28.991  1.00  0.00     0.031 C 
ATOM     40  C   UNL A   1      43.146  25.098  26.483  1.00  0.00     0.029 A 
ATOM     41  N   UNL A   1      43.274  27.102  27.466  1.00  0.00    -0.354 N 
ATOM     42  C   UNL A   1      39.834  28.770  29.522  1.00  0.00     0.074 A 
ATOM     43  C   UNL A   1      38.753  27.811  29.585  1.00  0.00     0.031 C 
ATOM     44  C   UNL A   1      44.387  25.564  26.281  1.00  0.00     0.029 A 
ATOM     45  C   UNL A   1      44.489  26.901  26.855  1.00  0.00     0.049 A 
ATOM     46  H   UNL A   1      43.063  27.901  28.001  1.00  0.00     0.167 HD
ATOM     47  C   UNL A   1      39.798  30.002  30.082  1.00  0.00     0.034 A 
ATOM     48  C   UNL A   1      45.554  27.719  26.741  1.00  0.00     0.034 A 
ATOM     49  C   UNL A   1      40.903  30.921  30.066  1.00  0.00     0.049 A 
ATOM     50  C   UNL A   1      45.487  29.079  27.376  1.00  0.00     0.074 A 
ATOM     51  C   UNL A   1      40.979  32.187  30.619  1.00  0.00     0.029 A 
ATOM     52  N   UNL A   1      42.132  30.667  29.474  1.00  0.00    -0.354 N 
ATOM     53  N   UNL A   1      44.519  29.612  28.082  1.00  0.00    -0.248 NA
ATOM     54  C   UNL A   1      46.661  29.946  27.212  1.00  0.00     0.031 C 
ATOM     55  C   UNL A   1      42.256  32.698  30.361  1.00  0.00     0.029 A 
ATOM     56  C   UNL A   1      42.976  31.748  29.652  1.00  0.00     0.049 A 
ATOM     57  H   UNL A   1      42.369  29.837  29.000  1.00  0.00     0.167 HD
ATOM     58  C   UNL A   1      44.970  30.870  28.459  1.00  0.00     0.074 A 
ATOM     59  C   UNL A   1      46.313  31.007  27.928  1.00  0.00     0.031 C 
ATOM     60  C   UNL A   1      44.326  31.836  29.158  1.00  0.00     0.034 A 
BRANCH  47  61
ATOM     61  C   UNL A   1      38.529  30.415  30.774  1.00  0.00     0.023 A 
ATOM     62  C   UNL A   1      38.308  30.034  32.112  1.00  0.00     0.012 A 
ATOM     63  C   UNL A   1      37.572  31.209  30.113  1.00  0.00     0.148 A 
ATOM     64  C   UNL A   1      37.143  30.418  32.776  1.00  0.00     0.002 A 
ATOM     65  C   UNL A   1      36.429  31.617  30.791  1.00  0.00     0.091 A 
ATOM     66  F   UNL A   1      37.785  31.533  28.829  1.00  0.00    -0.205 F 
ATOM     67  C   UNL A   1      36.209  31.218  32.120  1.00  0.00     0.022 A 
BRANCH  65  68
ATOM     68  S   UNL A   1      35.203  32.698  30.043  1.00  0.00     0.127 S 
ATOM     69  O   UNL A   1      36.021  33.843  29.648  1.00  0.00    -0.237 OA
ATOM     70  O   UNL A   1      34.710  31.888  28.929  1.00  0.00    -0.237 OA
ATOM     71  O   UNL A   1      34.216  32.956  31.082  1.00  0.00    -0.744 OA
ENDBRANCH  65  68
ENDBRANCH  47  61
BRANCH  48  72
ATOM     72  C   UNL A   1      46.766  27.254  26.011  1.00  0.00     0.023 A 
ATOM     73  C   UNL A   1      46.896  27.531  24.638  1.00  0.00     0.012 A 
ATOM     74  C   UNL A   1      47.817  26.595  26.680  1.00  0.00     0.148 A 
ATOM     75  C   UNL A   1      48.043  27.147  23.940  1.00  0.00     0.002 A 
ATOM     76  C   UNL A   1      48.980  26.268  25.993  1.00  0.00     0.091 A 
ATOM     77  F   UNL A   1      47.667  26.315  27.982  1.00  0.00    -0.205 F 
ATOM     78  C   UNL A   1      49.090  26.530  24.620  1.00  0.00     0.022 A 
BRANCH  76  79
ATOM     79  S   UNL A   1      50.423  25.606  26.836  1.00  0.00     0.127 S 
ATOM     80  O   UNL A   1      51.375  25.464  25.739  1.00  0.00    -0.237 OA
ATOM     81  O   UNL A   1      50.739  26.669  27.792  1.00  0.00    -0.237 OA
ATOM     82  O   UNL A   1      49.969  24.367  27.456  1.00  0.00    -0.744 OA
ENDBRANCH  76  79
ENDBRANCH  48  72
BRANCH  60  83
ATOM     83  C   UNL A   1      45.067  33.121  29.401  1.00  0.00     0.023 A 
ATOM     84  C   UNL A   1      45.885  33.242  30.542  1.00  0.00     0.012 A 
ATOM     85  C   UNL A   1      45.016  34.174  28.467  1.00  0.00     0.148 A 
ATOM     86  C   UNL A   1      46.625  34.401  30.761  1.00  0.00     0.002 A 
ATOM     87  C   UNL A   1      45.786  35.312  28.674  1.00  0.00     0.091 A 
ATOM     88  F   UNL A   1      44.211  34.048  27.402  1.00  0.00    -0.205 F 
ATOM     89  C   UNL A   1      46.586  35.431  29.822  1.00  0.00     0.022 A 
BRANCH  87  90
ATOM     90  S   UNL A   1      45.856  36.643  27.470  1.00  0.00     0.127 S 
ATOM     91  O   UNL A   1      44.490  37.159  27.514  1.00  0.00    -0.237 OA
ATOM     92  O   UNL A   1      46.864  37.536  28.045  1.00  0.00    -0.237 OA
ATOM     93  O   UNL A   1      46.257  36.019  26.216  1.00  0.00    -0.744 OA
ENDBRANCH  87  90
ENDBRANCH  60  83
ENDBRANCH  34  35
ENDBRANCH  27  29
ENDBRANCH  26  27
ENDBRANCH  25  26
ENDBRANCH   1  25
TORSDOF 19
ENDMDL
