MODEL 1
REMARK VINA RESULT:     -11.9      0.000      0.000
REMARK SMILES Cc1ccc(NS(=O)(=O)c2cc(C(=O)OCCOC(=O)c3ccc(-c4c5nc(c(-c6cccc(S(=O)(=O)[O-])c6F)c6ccc([nH]6)c(-c6cccc(S(=O)(=O)[O-])c6F)c6nc(c(-c7cccc(S(=O)(=O)[O-])c7F)c7ccc4[nH]7)C=C6)C=C5)cc3)ccc2Cl)nc1
REMARK SMILES IDX 16 1 15 2 13 3 14 4 12 5 10 6 11 7 86 8 85 9 87 10 84 11
REMARK SMILES IDX 7 12 8 13 9 14 6 15 5 17 1 18 2 19 3 20 89 21 4 22 88 23
REMARK SMILES IDX 17 24 18 25 19 26 20 27 21 28 22 29 83 30 23 31 82 32 24 33
REMARK SMILES IDX 25 34 26 35 76 36 27 37 81 38 75 39 77 40 28 41 80 42 74 43
REMARK SMILES IDX 73 44 29 46 61 47 41 48 60 49 42 50 45 51 59 52 78 53 43 54
REMARK SMILES IDX 44 55 58 57 79 58 46 59 30 60 31 61 39 62 32 63 34 64 40 65
REMARK SMILES IDX 33 66 35 67 36 68 37 69 38 70 62 71 63 72 71 73 64 74 66 75
REMARK SMILES IDX 72 76 65 77 67 78 68 79 69 80 70 81 47 82 48 83 56 84 49 85
REMARK SMILES IDX 51 86 57 87 50 88 52 89 53 90 54 91 55 92
REMARK H PARENT 6 16 77 45 45 56
REMARK Flexibility Score: inf
ROOT
ATOM      1  C   UNL A   1      31.211  29.355  24.507  1.00  0.00     0.275 C 
ENDROOT
BRANCH   1   2
ATOM      2  O   UNL A   1      31.015  27.980  24.906  1.00  0.00    -0.458 OA
BRANCH   2   3
ATOM      3  C   UNL A   1      30.243  27.269  24.055  1.00  0.00     0.338 C 
ATOM      4  O   UNL A   1      29.147  27.598  23.628  1.00  0.00    -0.246 OA
BRANCH   3   5
ATOM      5  C   UNL A   1      30.804  25.947  23.715  1.00  0.00     0.061 A 
ATOM      6  C   UNL A   1      31.932  23.990  24.648  1.00  0.00     0.107 A 
ATOM      7  C   UNL A   1      30.957  24.997  24.730  1.00  0.00     0.039 A 
ATOM      8  C   UNL A   1      32.760  23.957  23.533  1.00  0.00     0.061 A 
ATOM      9  C   UNL A   1      32.466  24.787  22.433  1.00  0.00     0.023 A 
ATOM     10  Cl  UNL A   1      34.244  23.079  23.435  1.00  0.00    -0.083 Cl
ATOM     11  C   UNL A   1      31.490  25.786  22.519  1.00  0.00     0.017 A 
BRANCH   6  12
ATOM     12  S   UNL A   1      31.964  22.874  26.032  1.00  0.00     0.264 S 
ATOM     13  O   UNL A   1      31.007  23.367  27.001  1.00  0.00    -0.201 OA
ATOM     14  O   UNL A   1      33.362  22.754  26.394  1.00  0.00    -0.201 OA
BRANCH  12  15
ATOM     15  N   UNL A   1      31.497  21.352  25.592  1.00  0.00    -0.263 N 
ATOM     16  H   UNL A   1      30.541  21.125  25.658  1.00  0.00     0.182 HD
BRANCH  15  17
ATOM     17  C   UNL A   1      32.377  20.363  25.129  1.00  0.00     0.139 A 
ATOM     18  C   UNL A   1      33.117  16.457  23.781  1.00  0.00     0.046 C 
ATOM     19  C   UNL A   1      33.060  17.891  24.200  1.00  0.00    -0.033 A 
ATOM     20  C   UNL A   1      32.773  18.906  23.287  1.00  0.00     0.009 A 
ATOM     21  C   UNL A   1      33.120  18.235  25.544  1.00  0.00     0.117 A 
ATOM     22  C   UNL A   1      32.441  20.173  23.757  1.00  0.00     0.048 A 
ATOM     23  N   UNL A   1      32.788  19.453  26.023  1.00  0.00    -0.238 NA
ENDBRANCH  15  17
ENDBRANCH  12  15
ENDBRANCH   6  12
ENDBRANCH   3   5
ENDBRANCH   2   3
ENDBRANCH   1   2
BRANCH   1  24
ATOM     24  C   UNL A   1      31.508  30.277  25.692  1.00  0.00     0.275 C 
BRANCH  24  25
ATOM     25  O   UNL A   1      32.847  30.101  26.189  1.00  0.00    -0.458 OA
BRANCH  25  26
ATOM     26  C   UNL A   1      33.261  31.070  27.035  1.00  0.00     0.338 C 
ATOM     27  O   UNL A   1      32.586  31.975  27.498  1.00  0.00    -0.246 OA
BRANCH  26  28
ATOM     28  C   UNL A   1      34.660  30.861  27.435  1.00  0.00     0.060 A 
ATOM     29  C   UNL A   1      35.069  29.562  27.709  1.00  0.00     0.016 A 
ATOM     30  C   UNL A   1      35.476  31.936  27.775  1.00  0.00     0.016 A 
ATOM     31  C   UNL A   1      36.194  29.333  28.487  1.00  0.00     0.010 A 
ATOM     32  C   UNL A   1      36.700  31.688  28.412  1.00  0.00     0.010 A 
ATOM     33  C   UNL A   1      37.048  30.388  28.825  1.00  0.00    -0.014 A 
BRANCH  33  34
ATOM     34  C   UNL A   1      38.293  30.116  29.599  1.00  0.00     0.031 A 
ATOM     35  C   UNL A   1      39.373  29.232  29.032  1.00  0.00     0.074 A 
ATOM     36  C   UNL A   1      38.451  30.657  30.826  1.00  0.00     0.049 A 
ATOM     37  N   UNL A   1      40.429  28.734  29.623  1.00  0.00    -0.248 NA
ATOM     38  C   UNL A   1      39.234  28.830  27.623  1.00  0.00     0.031 C 
ATOM     39  C   UNL A   1      37.496  31.546  31.491  1.00  0.00     0.029 A 
ATOM     40  N   UNL A   1      39.467  30.527  31.742  1.00  0.00    -0.354 N 
ATOM     41  C   UNL A   1      41.032  27.899  28.689  1.00  0.00     0.074 A 
ATOM     42  C   UNL A   1      40.225  27.959  27.490  1.00  0.00     0.031 C 
ATOM     43  C   UNL A   1      37.978  31.904  32.688  1.00  0.00     0.029 A 
ATOM     44  C   UNL A   1      39.222  31.186  32.925  1.00  0.00     0.049 A 
ATOM     45  H   UNL A   1      40.289  30.014  31.569  1.00  0.00     0.167 HD
ATOM     46  C   UNL A   1      42.159  27.156  28.819  1.00  0.00     0.034 A 
ATOM     47  C   UNL A   1      39.883  31.175  34.096  1.00  0.00     0.034 A 
ATOM     48  C   UNL A   1      42.992  27.160  29.995  1.00  0.00     0.049 A 
ATOM     49  C   UNL A   1      41.125  30.343  34.217  1.00  0.00     0.074 A 
ATOM     50  C   UNL A   1      44.184  26.489  30.207  1.00  0.00     0.029 A 
ATOM     51  N   UNL A   1      42.724  27.871  31.155  1.00  0.00    -0.354 N 
ATOM     52  N   UNL A   1      41.706  29.593  33.312  1.00  0.00    -0.248 NA
ATOM     53  C   UNL A   1      41.814  30.368  35.513  1.00  0.00     0.031 C 
ATOM     54  C   UNL A   1      44.616  26.764  31.509  1.00  0.00     0.029 A 
ATOM     55  C   UNL A   1      43.718  27.643  32.093  1.00  0.00     0.049 A 
ATOM     56  H   UNL A   1      41.942  28.452  31.293  1.00  0.00     0.167 HD
ATOM     57  C   UNL A   1      42.843  29.078  33.919  1.00  0.00     0.074 A 
ATOM     58  C   UNL A   1      42.880  29.620  35.263  1.00  0.00     0.031 C 
ATOM     59  C   UNL A   1      43.764  28.222  33.412  1.00  0.00     0.034 A 
BRANCH  46  60
ATOM     60  C   UNL A   1      42.557  26.271  27.664  1.00  0.00     0.023 A 
ATOM     61  C   UNL A   1      43.435  26.748  26.669  1.00  0.00     0.012 A 
ATOM     62  C   UNL A   1      42.087  24.943  27.583  1.00  0.00     0.148 A 
ATOM     63  C   UNL A   1      43.799  25.939  25.592  1.00  0.00     0.002 A 
ATOM     64  C   UNL A   1      42.494  24.126  26.535  1.00  0.00     0.091 A 
ATOM     65  F   UNL A   1      41.239  24.507  28.526  1.00  0.00    -0.205 F 
ATOM     66  C   UNL A   1      43.337  24.627  25.530  1.00  0.00     0.022 A 
BRANCH  64  67
ATOM     67  S   UNL A   1      42.022  22.396  26.414  1.00  0.00     0.127 S 
ATOM     68  O   UNL A   1      42.704  21.987  25.187  1.00  0.00    -0.237 OA
ATOM     69  O   UNL A   1      42.588  21.836  27.641  1.00  0.00    -0.237 OA
ATOM     70  O   UNL A   1      40.567  22.379  26.356  1.00  0.00    -0.744 OA
ENDBRANCH  64  67
ENDBRANCH  46  60
BRANCH  47  71
ATOM     71  C   UNL A   1      39.367  31.977  35.241  1.00  0.00     0.023 A 
ATOM     72  C   UNL A   1      38.520  31.371  36.188  1.00  0.00     0.012 A 
ATOM     73  C   UNL A   1      39.763  33.317  35.430  1.00  0.00     0.148 A 
ATOM     74  C   UNL A   1      38.061  32.092  37.291  1.00  0.00     0.002 A 
ATOM     75  C   UNL A   1      39.354  34.008  36.563  1.00  0.00     0.091 A 
ATOM     76  F   UNL A   1      40.562  33.878  34.511  1.00  0.00    -0.205 F 
ATOM     77  C   UNL A   1      38.488  33.403  37.486  1.00  0.00     0.022 A 
BRANCH  75  78
ATOM     78  S   UNL A   1      39.964  35.649  36.969  1.00  0.00     0.127 S 
ATOM     79  O   UNL A   1      41.402  35.417  37.066  1.00  0.00    -0.237 OA
ATOM     80  O   UNL A   1      39.542  36.423  35.800  1.00  0.00    -0.237 OA
ATOM     81  O   UNL A   1      39.300  36.023  38.210  1.00  0.00    -0.744 OA
ENDBRANCH  75  78
ENDBRANCH  47  71
BRANCH  59  82
ATOM     82  C   UNL A   1      44.924  27.851  34.300  1.00  0.00     0.023 A 
ATOM     83  C   UNL A   1      46.092  28.638  34.301  1.00  0.00     0.012 A 
ATOM     84  C   UNL A   1      44.825  26.755  35.179  1.00  0.00     0.148 A 
ATOM     85  C   UNL A   1      47.161  28.315  35.137  1.00  0.00     0.002 A 
ATOM     86  C   UNL A   1      45.872  26.472  36.047  1.00  0.00     0.091 A 
ATOM     87  F   UNL A   1      43.712  26.007  35.148  1.00  0.00    -0.205 F 
ATOM     88  C   UNL A   1      47.047  27.242  36.017  1.00  0.00     0.022 A 
BRANCH  86  89
ATOM     89  S   UNL A   1      45.775  25.172  37.281  1.00  0.00     0.127 S 
ATOM     90  O   UNL A   1      47.068  25.302  37.953  1.00  0.00    -0.237 OA
ATOM     91  O   UNL A   1      44.627  25.592  38.083  1.00  0.00    -0.237 OA
ATOM     92  O   UNL A   1      45.579  23.929  36.547  1.00  0.00    -0.744 OA
ENDBRANCH  86  89
ENDBRANCH  59  82
ENDBRANCH  33  34
ENDBRANCH  26  28
ENDBRANCH  25  26
ENDBRANCH  24  25
ENDBRANCH   1  24
TORSDOF 17
ENDMDL
MODEL 2
REMARK VINA RESULT:     -11.9      1.477      1.980
REMARK SMILES Cc1ccc(NS(=O)(=O)c2cc(C(=O)OCCOC(=O)c3ccc(-c4c5nc(c(-c6cccc(S(=O)(=O)[O-])c6F)c6ccc([nH]6)c(-c6cccc(S(=O)(=O)[O-])c6F)c6nc(c(-c7cccc(S(=O)(=O)[O-])c7F)c7ccc4[nH]7)C=C6)C=C5)cc3)ccc2Cl)nc1
REMARK SMILES IDX 16 1 15 2 13 3 14 4 12 5 10 6 11 7 86 8 85 9 87 10 84 11
REMARK SMILES IDX 7 12 8 13 9 14 6 15 5 17 1 18 2 19 3 20 89 21 4 22 88 23
REMARK SMILES IDX 17 24 18 25 19 26 20 27 21 28 22 29 83 30 23 31 82 32 24 33
REMARK SMILES IDX 25 34 26 35 76 36 27 37 81 38 75 39 77 40 28 41 80 42 74 43
REMARK SMILES IDX 73 44 29 46 61 47 41 48 60 49 42 50 45 51 59 52 78 53 43 54
REMARK SMILES IDX 44 55 58 57 79 58 46 59 30 60 31 61 39 62 32 63 34 64 40 65
REMARK SMILES IDX 33 66 35 67 36 68 37 69 38 70 62 71 63 72 71 73 64 74 66 75
REMARK SMILES IDX 72 76 65 77 67 78 68 79 69 80 70 81 47 82 48 83 56 84 49 85
REMARK SMILES IDX 51 86 57 87 50 88 52 89 53 90 54 91 55 92
REMARK H PARENT 6 16 77 45 45 56
REMARK Flexibility Score: inf
ROOT
ATOM      1  C   UNL A   1      31.022  30.257  24.939  1.00  0.00     0.275 C 
ENDROOT
BRANCH   1   2
ATOM      2  O   UNL A   1      31.316  28.849  25.079  1.00  0.00    -0.458 OA
BRANCH   2   3
ATOM      3  C   UNL A   1      32.030  28.335  24.054  1.00  0.00     0.338 C 
ATOM      4  O   UNL A   1      32.131  28.812  22.933  1.00  0.00    -0.246 OA
BRANCH   3   5
ATOM      5  C   UNL A   1      32.656  27.035  24.365  1.00  0.00     0.061 A 
ATOM      6  C   UNL A   1      32.193  24.658  24.693  1.00  0.00     0.107 A 
ATOM      7  C   UNL A   1      31.992  25.861  23.997  1.00  0.00     0.039 A 
ATOM      8  C   UNL A   1      33.066  24.655  25.773  1.00  0.00     0.061 A 
ATOM      9  C   UNL A   1      33.877  25.784  26.007  1.00  0.00     0.023 A 
ATOM     10  Cl  UNL A   1      33.138  23.418  26.977  1.00  0.00    -0.083 Cl
ATOM     11  C   UNL A   1      33.674  26.978  25.307  1.00  0.00     0.017 A 
BRANCH   6  12
ATOM     12  S   UNL A   1      31.266  23.275  24.068  1.00  0.00     0.264 S 
ATOM     13  O   UNL A   1      30.256  23.806  23.176  1.00  0.00    -0.201 OA
ATOM     14  O   UNL A   1      30.869  22.520  25.241  1.00  0.00    -0.201 OA
BRANCH  12  15
ATOM     15  N   UNL A   1      32.222  22.251  23.195  1.00  0.00    -0.263 N 
ATOM     16  H   UNL A   1      31.786  21.647  22.552  1.00  0.00     0.182 HD
BRANCH  15  17
ATOM     17  C   UNL A   1      33.618  22.189  23.310  1.00  0.00     0.139 A 
ATOM     18  C   UNL A   1      37.201  23.410  25.125  1.00  0.00     0.046 C 
ATOM     19  C   UNL A   1      36.047  22.823  24.379  1.00  0.00    -0.033 A 
ATOM     20  C   UNL A   1      35.362  21.706  24.858  1.00  0.00     0.009 A 
ATOM     21  C   UNL A   1      35.515  23.477  23.275  1.00  0.00     0.117 A 
ATOM     22  C   UNL A   1      34.132  21.369  24.304  1.00  0.00     0.048 A 
ATOM     23  N   UNL A   1      34.317  23.177  22.731  1.00  0.00    -0.238 NA
ENDBRANCH  15  17
ENDBRANCH  12  15
ENDBRANCH   6  12
ENDBRANCH   3   5
ENDBRANCH   2   3
ENDBRANCH   1   2
BRANCH   1  24
ATOM     24  C   UNL A   1      31.428  31.070  26.171  1.00  0.00     0.275 C 
BRANCH  24  25
ATOM     25  O   UNL A   1      32.769  30.768  26.597  1.00  0.00    -0.458 OA
BRANCH  25  26
ATOM     26  C   UNL A   1      33.383  31.771  27.263  1.00  0.00     0.338 C 
ATOM     27  O   UNL A   1      32.893  32.841  27.589  1.00  0.00    -0.246 OA
BRANCH  26  28
ATOM     28  C   UNL A   1      34.746  31.389  27.656  1.00  0.00     0.060 A 
ATOM     29  C   UNL A   1      34.968  30.068  28.024  1.00  0.00     0.016 A 
ATOM     30  C   UNL A   1      35.719  32.355  27.900  1.00  0.00     0.016 A 
ATOM     31  C   UNL A   1      36.069  29.735  28.800  1.00  0.00     0.010 A 
ATOM     32  C   UNL A   1      36.910  31.977  28.535  1.00  0.00     0.010 A 
ATOM     33  C   UNL A   1      37.076  30.674  29.042  1.00  0.00    -0.014 A 
BRANCH  33  34
ATOM     34  C   UNL A   1      38.288  30.280  29.816  1.00  0.00     0.031 A 
ATOM     35  C   UNL A   1      39.354  29.420  29.189  1.00  0.00     0.074 A 
ATOM     36  C   UNL A   1      38.428  30.687  31.096  1.00  0.00     0.049 A 
ATOM     37  N   UNL A   1      40.375  28.826  29.752  1.00  0.00    -0.248 NA
ATOM     38  C   UNL A   1      39.243  29.168  27.742  1.00  0.00     0.031 C 
ATOM     39  C   UNL A   1      37.484  31.538  31.824  1.00  0.00     0.029 A 
ATOM     40  N   UNL A   1      39.412  30.428  32.019  1.00  0.00    -0.354 N 
ATOM     41  C   UNL A   1      40.976  28.068  28.753  1.00  0.00     0.074 A 
ATOM     42  C   UNL A   1      40.207  28.279  27.546  1.00  0.00     0.031 C 
ATOM     43  C   UNL A   1      37.943  31.755  33.063  1.00  0.00     0.029 A 
ATOM     44  C   UNL A   1      39.155  30.972  33.256  1.00  0.00     0.049 A 
ATOM     45  H   UNL A   1      40.221  29.905  31.815  1.00  0.00     0.167 HD
ATOM     46  C   UNL A   1      42.073  27.276  28.835  1.00  0.00     0.034 A 
ATOM     47  C   UNL A   1      39.781  30.818  34.437  1.00  0.00     0.034 A 
ATOM     48  C   UNL A   1      42.872  27.130  30.025  1.00  0.00     0.049 A 
ATOM     49  C   UNL A   1      40.991  29.934  34.503  1.00  0.00     0.074 A 
ATOM     50  C   UNL A   1      44.034  26.398  30.198  1.00  0.00     0.029 A 
ATOM     51  N   UNL A   1      42.594  27.729  31.245  1.00  0.00    -0.354 N 
ATOM     52  N   UNL A   1      41.572  29.259  33.541  1.00  0.00    -0.248 NA
ATOM     53  C   UNL A   1      41.642  29.801  35.812  1.00  0.00     0.031 C 
ATOM     54  C   UNL A   1      44.437  26.524  31.532  1.00  0.00     0.029 A 
ATOM     55  C   UNL A   1      43.552  27.371  32.180  1.00  0.00     0.049 A 
ATOM     56  H   UNL A   1      41.828  28.321  31.423  1.00  0.00     0.167 HD
ATOM     57  C   UNL A   1      42.673  28.643  34.121  1.00  0.00     0.074 A 
ATOM     58  C   UNL A   1      42.689  29.045  35.514  1.00  0.00     0.031 C 
ATOM     59  C   UNL A   1      43.579  27.810  33.552  1.00  0.00     0.034 A 
BRANCH  46  60
ATOM     60  C   UNL A   1      42.475  26.499  27.605  1.00  0.00     0.023 A 
ATOM     61  C   UNL A   1      43.243  27.112  26.594  1.00  0.00     0.012 A 
ATOM     62  C   UNL A   1      42.121  25.140  27.469  1.00  0.00     0.148 A 
ATOM     63  C   UNL A   1      43.609  26.402  25.449  1.00  0.00     0.002 A 
ATOM     64  C   UNL A   1      42.532  24.426  26.350  1.00  0.00     0.091 A 
ATOM     65  F   UNL A   1      41.376  24.574  28.430  1.00  0.00    -0.205 F 
ATOM     66  C   UNL A   1      43.262  25.059  25.332  1.00  0.00     0.022 A 
BRANCH  64  67
ATOM     67  S   UNL A   1      42.209  22.669  26.148  1.00  0.00     0.127 S 
ATOM     68  O   UNL A   1      42.790  22.409  24.832  1.00  0.00    -0.237 OA
ATOM     69  O   UNL A   1      42.952  22.089  27.266  1.00  0.00    -0.237 OA
ATOM     70  O   UNL A   1      40.764  22.513  26.235  1.00  0.00    -0.744 OA
ENDBRANCH  64  67
ENDBRANCH  46  60
BRANCH  47  71
ATOM     71  C   UNL A   1      39.260  31.518  35.644  1.00  0.00     0.023 A 
ATOM     72  C   UNL A   1      38.277  30.896  36.437  1.00  0.00     0.012 A 
ATOM     73  C   UNL A   1      39.779  32.765  36.045  1.00  0.00     0.148 A 
ATOM     74  C   UNL A   1      37.806  31.514  37.596  1.00  0.00     0.002 A 
ATOM     75  C   UNL A   1      39.352  33.345  37.233  1.00  0.00     0.091 A 
ATOM     76  F   UNL A   1      40.706  33.345  35.271  1.00  0.00    -0.205 F 
ATOM     77  C   UNL A   1      38.352  32.730  38.001  1.00  0.00     0.022 A 
BRANCH  75  78
ATOM     78  S   UNL A   1      40.096  34.836  37.905  1.00  0.00     0.127 S 
ATOM     79  O   UNL A   1      39.875  35.793  36.825  1.00  0.00    -0.237 OA
ATOM     80  O   UNL A   1      39.287  35.062  39.104  1.00  0.00    -0.237 OA
ATOM     81  O   UNL A   1      41.487  34.499  38.172  1.00  0.00    -0.744 OA
ENDBRANCH  75  78
ENDBRANCH  47  71
BRANCH  59  82
ATOM     82  C   UNL A   1      44.700  27.310  34.427  1.00  0.00     0.023 A 
ATOM     83  C   UNL A   1      45.928  27.998  34.465  1.00  0.00     0.012 A 
ATOM     84  C   UNL A   1      44.508  26.188  35.257  1.00  0.00     0.148 A 
ATOM     85  C   UNL A   1      46.962  27.555  35.290  1.00  0.00     0.002 A 
ATOM     86  C   UNL A   1      45.523  25.784  36.115  1.00  0.00     0.091 A 
ATOM     87  F   UNL A   1      43.338  25.535  35.191  1.00  0.00    -0.205 F 
ATOM     88  C   UNL A   1      46.755  26.458  36.122  1.00  0.00     0.022 A 
BRANCH  86  89
ATOM     89  S   UNL A   1      45.313  24.445  37.293  1.00  0.00     0.127 S 
ATOM     90  O   UNL A   1      46.629  24.401  37.931  1.00  0.00    -0.237 OA
ATOM     91  O   UNL A   1      44.238  24.949  38.146  1.00  0.00    -0.237 OA
ATOM     92  O   UNL A   1      44.963  23.268  36.509  1.00  0.00    -0.744 OA
ENDBRANCH  86  89
ENDBRANCH  59  82
ENDBRANCH  33  34
ENDBRANCH  26  28
ENDBRANCH  25  26
ENDBRANCH  24  25
ENDBRANCH   1  24
TORSDOF 17
ENDMDL
MODEL 3
REMARK VINA RESULT:     -11.5      1.156      7.876
REMARK SMILES Cc1ccc(NS(=O)(=O)c2cc(C(=O)OCCOC(=O)c3ccc(-c4c5nc(c(-c6cccc(S(=O)(=O)[O-])c6F)c6ccc([nH]6)c(-c6cccc(S(=O)(=O)[O-])c6F)c6nc(c(-c7cccc(S(=O)(=O)[O-])c7F)c7ccc4[nH]7)C=C6)C=C5)cc3)ccc2Cl)nc1
REMARK SMILES IDX 16 1 15 2 13 3 14 4 12 5 10 6 11 7 86 8 85 9 87 10 84 11
REMARK SMILES IDX 7 12 8 13 9 14 6 15 5 17 1 18 2 19 3 20 89 21 4 22 88 23
REMARK SMILES IDX 17 24 18 25 19 26 20 27 21 28 22 29 83 30 23 31 82 32 24 33
REMARK SMILES IDX 25 34 26 35 76 36 27 37 81 38 75 39 77 40 28 41 80 42 74 43
REMARK SMILES IDX 73 44 29 46 61 47 41 48 60 49 42 50 45 51 59 52 78 53 43 54
REMARK SMILES IDX 44 55 58 57 79 58 46 59 30 60 31 61 39 62 32 63 34 64 40 65
REMARK SMILES IDX 33 66 35 67 36 68 37 69 38 70 62 71 63 72 71 73 64 74 66 75
REMARK SMILES IDX 72 76 65 77 67 78 68 79 69 80 70 81 47 82 48 83 56 84 49 85
REMARK SMILES IDX 51 86 57 87 50 88 52 89 53 90 54 91 55 92
REMARK H PARENT 6 16 77 45 45 56
REMARK Flexibility Score: inf
ROOT
ATOM      1  C   UNL A   1      31.049  30.178  25.041  1.00  0.00     0.275 C 
ENDROOT
BRANCH   1   2
ATOM      2  O   UNL A   1      31.028  28.766  24.733  1.00  0.00    -0.458 OA
BRANCH   2   3
ATOM      3  C   UNL A   1      31.916  28.400  23.783  1.00  0.00     0.338 C 
ATOM      4  O   UNL A   1      32.109  28.967  22.718  1.00  0.00    -0.246 OA
BRANCH   3   5
ATOM      5  C   UNL A   1      32.629  27.146  24.095  1.00  0.00     0.061 A 
ATOM      6  C   UNL A   1      32.312  24.771  24.573  1.00  0.00     0.107 A 
ATOM      7  C   UNL A   1      31.992  25.927  23.845  1.00  0.00     0.039 A 
ATOM      8  C   UNL A   1      33.279  24.860  25.568  1.00  0.00     0.061 A 
ATOM      9  C   UNL A   1      34.052  26.034  25.673  1.00  0.00     0.023 A 
ATOM     10  Cl  UNL A   1      33.519  23.690  26.815  1.00  0.00    -0.083 Cl
ATOM     11  C   UNL A   1      33.730  27.181  24.940  1.00  0.00     0.017 A 
BRANCH   6  12
ATOM     12  S   UNL A   1      31.400  23.319  24.102  1.00  0.00     0.264 S 
ATOM     13  O   UNL A   1      30.451  23.723  23.085  1.00  0.00    -0.201 OA
ATOM     14  O   UNL A   1      30.927  22.745  25.346  1.00  0.00    -0.201 OA
BRANCH  12  15
ATOM     15  N   UNL A   1      32.388  22.172  23.441  1.00  0.00    -0.263 N 
ATOM     16  H   UNL A   1      32.746  22.335  22.539  1.00  0.00     0.182 HD
BRANCH  15  17
ATOM     17  C   UNL A   1      32.750  20.981  24.087  1.00  0.00     0.139 A 
ATOM     18  C   UNL A   1      34.840  17.341  24.157  1.00  0.00     0.046 C 
ATOM     19  C   UNL A   1      34.054  18.599  24.344  1.00  0.00    -0.033 A 
ATOM     20  C   UNL A   1      34.640  19.755  24.858  1.00  0.00     0.009 A 
ATOM     21  C   UNL A   1      32.760  18.701  23.849  1.00  0.00     0.117 A 
ATOM     22  C   UNL A   1      33.971  20.969  24.745  1.00  0.00     0.048 A 
ATOM     23  N   UNL A   1      32.098  19.869  23.715  1.00  0.00    -0.238 NA
ENDBRANCH  15  17
ENDBRANCH  12  15
ENDBRANCH   6  12
ENDBRANCH   3   5
ENDBRANCH   2   3
ENDBRANCH   1   2
BRANCH   1  24
ATOM     24  C   UNL A   1      31.754  30.483  26.365  1.00  0.00     0.275 C 
BRANCH  24  25
ATOM     25  O   UNL A   1      33.098  30.958  26.162  1.00  0.00    -0.458 OA
BRANCH  25  26
ATOM     26  C   UNL A   1      33.580  31.719  27.169  1.00  0.00     0.338 C 
ATOM     27  O   UNL A   1      33.011  32.646  27.723  1.00  0.00    -0.246 OA
BRANCH  26  28
ATOM     28  C   UNL A   1      34.894  31.236  27.616  1.00  0.00     0.060 A 
ATOM     29  C   UNL A   1      35.024  29.882  27.899  1.00  0.00     0.016 A 
ATOM     30  C   UNL A   1      35.896  32.126  27.988  1.00  0.00     0.016 A 
ATOM     31  C   UNL A   1      36.053  29.435  28.715  1.00  0.00     0.010 A 
ATOM     32  C   UNL A   1      37.023  31.640  28.665  1.00  0.00     0.010 A 
ATOM     33  C   UNL A   1      37.089  30.298  29.086  1.00  0.00    -0.014 A 
BRANCH  33  34
ATOM     34  C   UNL A   1      38.227  29.785  29.901  1.00  0.00     0.031 A 
ATOM     35  C   UNL A   1      38.432  30.257  31.317  1.00  0.00     0.074 A 
ATOM     36  C   UNL A   1      39.090  28.896  29.364  1.00  0.00     0.049 A 
ATOM     37  N   UNL A   1      39.456  30.072  32.110  1.00  0.00    -0.248 NA
ATOM     38  C   UNL A   1      37.359  31.072  31.911  1.00  0.00     0.031 C 
ATOM     39  C   UNL A   1      39.001  28.338  28.013  1.00  0.00     0.029 A 
ATOM     40  N   UNL A   1      40.221  28.315  29.883  1.00  0.00    -0.354 N 
ATOM     41  C   UNL A   1      39.190  30.809  33.258  1.00  0.00     0.074 A 
ATOM     42  C   UNL A   1      37.906  31.445  33.060  1.00  0.00     0.031 C 
ATOM     43  C   UNL A   1      40.010  27.480  27.818  1.00  0.00     0.029 A 
ATOM     44  C   UNL A   1      40.880  27.507  28.985  1.00  0.00     0.049 A 
ATOM     45  H   UNL A   1      40.531  28.463  30.806  1.00  0.00     0.167 HD
ATOM     46  C   UNL A   1      39.945  30.938  34.377  1.00  0.00     0.034 A 
ATOM     47  C   UNL A   1      42.077  26.898  29.056  1.00  0.00     0.034 A 
ATOM     48  C   UNL A   1      41.189  30.243  34.591  1.00  0.00     0.049 A 
ATOM     49  C   UNL A   1      42.896  27.058  30.303  1.00  0.00     0.074 A 
ATOM     50  C   UNL A   1      42.002  30.259  35.711  1.00  0.00     0.029 A 
ATOM     51  N   UNL A   1      41.799  29.406  33.668  1.00  0.00    -0.354 N 
ATOM     52  N   UNL A   1      42.611  27.723  31.396  1.00  0.00    -0.248 NA
ATOM     53  C   UNL A   1      44.193  26.370  30.335  1.00  0.00     0.031 C 
ATOM     54  C   UNL A   1      43.122  29.463  35.450  1.00  0.00     0.029 A 
ATOM     55  C   UNL A   1      42.986  28.912  34.186  1.00  0.00     0.049 A 
ATOM     56  H   UNL A   1      41.442  29.194  32.776  1.00  0.00     0.167 HD
ATOM     57  C   UNL A   1      43.680  27.514  32.257  1.00  0.00     0.074 A 
ATOM     58  C   UNL A   1      44.607  26.640  31.565  1.00  0.00     0.031 C 
ATOM     59  C   UNL A   1      43.879  28.011  33.502  1.00  0.00     0.034 A 
BRANCH  46  60
ATOM     60  C   UNL A   1      39.451  31.869  35.457  1.00  0.00     0.023 A 
ATOM     61  C   UNL A   1      38.552  31.408  36.441  1.00  0.00     0.012 A 
ATOM     62  C   UNL A   1      39.912  33.201  35.521  1.00  0.00     0.148 A 
ATOM     63  C   UNL A   1      38.083  32.266  37.436  1.00  0.00     0.002 A 
ATOM     64  C   UNL A   1      39.480  34.035  36.545  1.00  0.00     0.091 A 
ATOM     65  F   UNL A   1      40.754  33.632  34.570  1.00  0.00    -0.205 F 
ATOM     66  C   UNL A   1      38.554  33.575  37.494  1.00  0.00     0.022 A 
BRANCH  64  67
ATOM     67  S   UNL A   1      40.095  35.711  36.755  1.00  0.00     0.127 S 
ATOM     68  O   UNL A   1      39.533  36.383  35.584  1.00  0.00    -0.237 OA
ATOM     69  O   UNL A   1      39.492  36.103  38.029  1.00  0.00    -0.237 OA
ATOM     70  O   UNL A   1      41.547  35.607  36.779  1.00  0.00    -0.744 OA
ENDBRANCH  64  67
ENDBRANCH  46  60
BRANCH  47  71
ATOM     71  C   UNL A   1      42.563  26.091  27.902  1.00  0.00     0.023 A 
ATOM     72  C   UNL A   1      43.532  26.631  27.036  1.00  0.00     0.012 A 
ATOM     73  C   UNL A   1      42.118  24.769  27.697  1.00  0.00     0.148 A 
ATOM     74  C   UNL A   1      44.033  25.877  25.975  1.00  0.00     0.002 A 
ATOM     75  C   UNL A   1      42.667  24.002  26.678  1.00  0.00     0.091 A 
ATOM     76  F   UNL A   1      41.187  24.277  28.527  1.00  0.00    -0.205 F 
ATOM     77  C   UNL A   1      43.612  24.560  25.804  1.00  0.00     0.022 A 
BRANCH  75  78
ATOM     78  S   UNL A   1      42.290  22.258  26.469  1.00  0.00     0.127 S 
ATOM     79  O   UNL A   1      42.710  21.706  27.754  1.00  0.00    -0.237 OA
ATOM     80  O   UNL A   1      40.843  22.287  26.254  1.00  0.00    -0.237 OA
ATOM     81  O   UNL A   1      43.061  21.821  25.313  1.00  0.00    -0.744 OA
ENDBRANCH  75  78
ENDBRANCH  47  71
BRANCH  59  82
ATOM     82  C   UNL A   1      45.132  27.585  34.223  1.00  0.00     0.023 A 
ATOM     83  C   UNL A   1      46.296  28.374  34.142  1.00  0.00     0.012 A 
ATOM     84  C   UNL A   1      45.131  26.431  35.029  1.00  0.00     0.148 A 
ATOM     85  C   UNL A   1      47.453  27.999  34.825  1.00  0.00     0.002 A 
ATOM     86  C   UNL A   1      46.271  26.093  35.749  1.00  0.00     0.091 A 
ATOM     87  F   UNL A   1      44.019  25.683  35.077  1.00  0.00    -0.205 F 
ATOM     88  C   UNL A   1      47.437  26.868  35.636  1.00  0.00     0.022 A 
BRANCH  86  89
ATOM     89  S   UNL A   1      46.312  24.711  36.895  1.00  0.00     0.127 S 
ATOM     90  O   UNL A   1      45.987  23.587  36.017  1.00  0.00    -0.237 OA
ATOM     91  O   UNL A   1      47.697  24.738  37.362  1.00  0.00    -0.237 OA
ATOM     92  O   UNL A   1      45.321  25.006  37.920  1.00  0.00    -0.744 OA
ENDBRANCH  86  89
ENDBRANCH  59  82
ENDBRANCH  33  34
ENDBRANCH  26  28
ENDBRANCH  25  26
ENDBRANCH  24  25
ENDBRANCH   1  24
TORSDOF 17
ENDMDL
