MODEL 1
REMARK VINA RESULT:     -12.8      0.000      0.000
REMARK SMILES Cc1cccc2c1N=CN1C2=[NH+]NC(=O)[C@@H]1CC(=O)OCCOC(=O)c1ccc(-c2c3nc(c(-c4cccc(S(=O)(=O)[O-])c4F)c4ccc([nH]4)c(-c4cccc(S(=O)(=O)[O-])c4F)c4nc(c(-c5cccc(S(=O)(=O)[O-])c5F)c5ccc2[nH]5)C=C4)C=C3)cc1
REMARK SMILES IDX 22 1 21 2 20 3 18 4 19 5 17 6 16 7 1 8 2 9 3 10 7 11 4 12
REMARK SMILES IDX 6 13 8 14 5 15 11 16 9 17 10 18 12 19 13 20 14 22 15 24
REMARK SMILES IDX 23 25 24 26 25 27 26 28 27 29 88 30 28 31 87 32 29 33 30 34
REMARK SMILES IDX 31 35 81 36 32 37 86 38 80 39 82 40 33 41 85 42 79 43 78 44
REMARK SMILES IDX 34 46 66 47 46 48 65 49 47 50 50 51 64 52 83 53 48 54 49 55
REMARK SMILES IDX 63 57 84 58 51 59 35 60 36 61 44 62 37 63 39 64 45 65 38 66
REMARK SMILES IDX 40 67 41 68 42 69 43 70 67 71 68 72 76 73 69 74 71 75 77 76
REMARK SMILES IDX 70 77 72 78 73 79 74 80 75 81 52 82 53 83 61 84 54 85 56 86
REMARK SMILES IDX 62 87 55 88 57 89 58 90 59 91 60 92
REMARK H PARENT 12 21 13 23 82 45 50 56
REMARK Flexibility Score: inf
ROOT
ATOM      1  C   UNL A   1      36.222  21.351  24.630  1.00  0.00     0.275 C 
ENDROOT
BRANCH   1   2
ATOM      2  C   UNL A   1      34.826  21.955  24.731  1.00  0.00     0.274 C 
BRANCH   2   3
ATOM      3  O   UNL A   1      33.861  20.936  24.384  1.00  0.00    -0.462 OA
BRANCH   3   4
ATOM      4  C   UNL A   1      32.650  21.082  24.972  1.00  0.00     0.310 C 
ATOM      5  O   UNL A   1      31.779  20.219  25.000  1.00  0.00    -0.252 OA
BRANCH   4   6
ATOM      6  C   UNL A   1      32.451  22.398  25.674  1.00  0.00     0.183 C 
BRANCH   6   7
ATOM      7  C   UNL A   1      31.241  23.258  25.328  1.00  0.00     0.286 C 
ATOM      8  C   UNL A   1      34.024  27.955  22.001  1.00  0.00     0.047 C 
ATOM      9  C   UNL A   1      32.726  27.948  22.759  1.00  0.00    -0.024 A 
ATOM     10  C   UNL A   1      32.140  29.164  23.154  1.00  0.00     0.006 A 
ATOM     11  C   UNL A   1      32.157  26.734  23.174  1.00  0.00     0.085 A 
ATOM     12  C   UNL A   1      30.966  29.183  23.909  1.00  0.00     0.001 A 
ATOM     13  C   UNL A   1      31.003  26.779  23.980  1.00  0.00     0.092 A 
ATOM     14  N   UNL A   1      32.804  25.520  22.844  1.00  0.00    -0.215 NA
ATOM     15  C   UNL A   1      30.385  27.989  24.314  1.00  0.00     0.019 A 
ATOM     16  C   UNL A   1      30.633  25.531  24.702  1.00  0.00     0.309 C 
ATOM     17  C   UNL A   1      32.452  24.483  23.534  1.00  0.00     0.317 C 
ATOM     18  N   UNL A   1      31.496  24.456  24.520  1.00  0.00    -0.202 N 
ATOM     19  N   UNL A   1      29.609  25.577  25.504  1.00  0.00    -0.169 N 
ATOM     20  N   UNL A   1      29.473  24.560  26.395  1.00  0.00    -0.193 N 
ATOM     21  H   UNL A   1      28.959  26.316  25.467  1.00  0.00     0.340 HD
ATOM     22  C   UNL A   1      30.422  23.582  26.574  1.00  0.00     0.300 C 
ATOM     23  H   UNL A   1      28.654  24.522  26.940  1.00  0.00     0.216 HD
ATOM     24  O   UNL A   1      30.507  22.955  27.626  1.00  0.00    -0.267 OA
ENDBRANCH   6   7
ENDBRANCH   4   6
ENDBRANCH   3   4
ENDBRANCH   2   3
ENDBRANCH   1   2
BRANCH   1  25
ATOM     25  O   UNL A   1      36.949  21.647  25.834  1.00  0.00    -0.458 OA
BRANCH  25  26
ATOM     26  C   UNL A   1      38.265  21.329  25.781  1.00  0.00     0.338 C 
ATOM     27  O   UNL A   1      38.728  20.274  25.376  1.00  0.00    -0.246 OA
BRANCH  26  28
ATOM     28  C   UNL A   1      39.095  22.408  26.371  1.00  0.00     0.060 A 
ATOM     29  C   UNL A   1      40.174  22.183  27.238  1.00  0.00     0.016 A 
ATOM     30  C   UNL A   1      38.750  23.715  26.017  1.00  0.00     0.016 A 
ATOM     31  C   UNL A   1      40.891  23.268  27.760  1.00  0.00     0.010 A 
ATOM     32  C   UNL A   1      39.490  24.789  26.498  1.00  0.00     0.010 A 
ATOM     33  C   UNL A   1      40.559  24.576  27.381  1.00  0.00    -0.014 A 
BRANCH  33  34
ATOM     34  C   UNL A   1      41.321  25.765  27.831  1.00  0.00     0.031 A 
ATOM     35  C   UNL A   1      40.616  26.874  28.559  1.00  0.00     0.074 A 
ATOM     36  C   UNL A   1      42.597  25.908  27.425  1.00  0.00     0.049 A 
ATOM     37  N   UNL A   1      41.045  28.074  28.844  1.00  0.00    -0.248 NA
ATOM     38  C   UNL A   1      39.240  26.603  29.009  1.00  0.00     0.031 C 
ATOM     39  C   UNL A   1      43.358  24.911  26.670  1.00  0.00     0.029 A 
ATOM     40  N   UNL A   1      43.460  26.968  27.544  1.00  0.00    -0.354 N 
ATOM     41  C   UNL A   1      39.983  28.716  29.471  1.00  0.00     0.074 A 
ATOM     42  C   UNL A   1      38.888  27.772  29.527  1.00  0.00     0.031 C 
ATOM     43  C   UNL A   1      44.566  25.415  26.370  1.00  0.00     0.029 A 
ATOM     44  C   UNL A   1      44.651  26.779  26.882  1.00  0.00     0.049 A 
ATOM     45  H   UNL A   1      43.249  27.783  28.053  1.00  0.00     0.167 HD
ATOM     46  C   UNL A   1      39.936  29.975  29.966  1.00  0.00     0.034 A 
ATOM     47  C   UNL A   1      45.686  27.617  26.688  1.00  0.00     0.034 A 
ATOM     48  C   UNL A   1      41.042  30.893  29.925  1.00  0.00     0.049 A 
ATOM     49  C   UNL A   1      45.617  29.003  27.263  1.00  0.00     0.074 A 
ATOM     50  C   UNL A   1      41.116  32.172  30.449  1.00  0.00     0.029 A 
ATOM     51  N   UNL A   1      42.263  30.631  29.325  1.00  0.00    -0.354 N 
ATOM     52  N   UNL A   1      44.643  29.560  27.941  1.00  0.00    -0.248 NA
ATOM     53  C   UNL A   1      46.791  29.866  27.071  1.00  0.00     0.031 C 
ATOM     54  C   UNL A   1      42.386  32.684  30.164  1.00  0.00     0.029 A 
ATOM     55  C   UNL A   1      43.102  31.721  29.469  1.00  0.00     0.049 A 
ATOM     56  H   UNL A   1      42.499  29.794  28.866  1.00  0.00     0.167 HD
ATOM     57  C   UNL A   1      45.092  30.830  28.280  1.00  0.00     0.074 A 
ATOM     58  C   UNL A   1      46.431  30.957  27.739  1.00  0.00     0.031 C 
ATOM     59  C   UNL A   1      44.448  31.804  28.965  1.00  0.00     0.034 A 
BRANCH  46  60
ATOM     60  C   UNL A   1      38.674  30.421  30.653  1.00  0.00     0.023 A 
ATOM     61  C   UNL A   1      38.558  30.242  32.046  1.00  0.00     0.012 A 
ATOM     62  C   UNL A   1      37.657  31.095  29.952  1.00  0.00     0.148 A 
ATOM     63  C   UNL A   1      37.442  30.720  32.731  1.00  0.00     0.002 A 
ATOM     64  C   UNL A   1      36.558  31.592  30.645  1.00  0.00     0.091 A 
ATOM     65  F   UNL A   1      37.785  31.242  28.625  1.00  0.00    -0.205 F 
ATOM     66  C   UNL A   1      36.448  31.402  32.034  1.00  0.00     0.022 A 
BRANCH  64  67
ATOM     67  S   UNL A   1      35.243  32.528  29.857  1.00  0.00     0.127 S 
ATOM     68  O   UNL A   1      34.771  31.580  28.848  1.00  0.00    -0.237 OA
ATOM     69  O   UNL A   1      34.316  32.750  30.966  1.00  0.00    -0.237 OA
ATOM     70  O   UNL A   1      35.866  33.734  29.327  1.00  0.00    -0.744 OA
ENDBRANCH  64  67
ENDBRANCH  46  60
BRANCH  47  71
ATOM     71  C   UNL A   1      46.895  27.124  25.977  1.00  0.00     0.023 A 
ATOM     72  C   UNL A   1      47.005  27.348  24.592  1.00  0.00     0.012 A 
ATOM     73  C   UNL A   1      47.973  26.538  26.670  1.00  0.00     0.148 A 
ATOM     74  C   UNL A   1      48.167  26.996  23.906  1.00  0.00     0.002 A 
ATOM     75  C   UNL A   1      49.142  26.224  25.988  1.00  0.00     0.091 A 
ATOM     76  F   UNL A   1      47.842  26.334  27.989  1.00  0.00    -0.205 F 
ATOM     77  C   UNL A   1      49.239  26.446  24.605  1.00  0.00     0.022 A 
BRANCH  75  78
ATOM     78  S   UNL A   1      50.618  25.613  26.812  1.00  0.00     0.127 S 
ATOM     79  O   UNL A   1      50.981  26.751  27.655  1.00  0.00    -0.237 OA
ATOM     80  O   UNL A   1      50.099  24.453  27.536  1.00  0.00    -0.237 OA
ATOM     81  O   UNL A   1      51.562  25.294  25.750  1.00  0.00    -0.744 OA
ENDBRANCH  75  78
ENDBRANCH  47  71
BRANCH  59  82
ATOM     82  C   UNL A   1      45.179  33.095  29.197  1.00  0.00     0.023 A 
ATOM     83  C   UNL A   1      46.029  33.217  30.313  1.00  0.00     0.012 A 
ATOM     84  C   UNL A   1      45.122  34.131  28.244  1.00  0.00     0.148 A 
ATOM     85  C   UNL A   1      46.809  34.358  30.481  1.00  0.00     0.002 A 
ATOM     86  C   UNL A   1      45.928  35.251  28.402  1.00  0.00     0.091 A 
ATOM     87  F   UNL A   1      44.295  33.991  27.198  1.00  0.00    -0.205 F 
ATOM     88  C   UNL A   1      46.769  35.368  29.522  1.00  0.00     0.022 A 
BRANCH  86  89
ATOM     89  S   UNL A   1      46.003  36.566  27.181  1.00  0.00     0.127 S 
ATOM     90  O   UNL A   1      44.621  37.043  27.174  1.00  0.00    -0.237 OA
ATOM     91  O   UNL A   1      46.965  37.491  27.780  1.00  0.00    -0.237 OA
ATOM     92  O   UNL A   1      46.451  35.943  25.943  1.00  0.00    -0.744 OA
ENDBRANCH  86  89
ENDBRANCH  59  82
ENDBRANCH  33  34
ENDBRANCH  26  28
ENDBRANCH  25  26
ENDBRANCH   1  25
TORSDOF 15
ENDMDL
MODEL 2
REMARK VINA RESULT:     -12.8      1.310      1.615
REMARK SMILES Cc1cccc2c1N=CN1C2=[NH+]NC(=O)[C@@H]1CC(=O)OCCOC(=O)c1ccc(-c2c3nc(c(-c4cccc(S(=O)(=O)[O-])c4F)c4ccc([nH]4)c(-c4cccc(S(=O)(=O)[O-])c4F)c4nc(c(-c5cccc(S(=O)(=O)[O-])c5F)c5ccc2[nH]5)C=C4)C=C3)cc1
REMARK SMILES IDX 22 1 21 2 20 3 18 4 19 5 17 6 16 7 1 8 2 9 3 10 7 11 4 12
REMARK SMILES IDX 6 13 8 14 5 15 11 16 9 17 10 18 12 19 13 20 14 22 15 24
REMARK SMILES IDX 23 25 24 26 25 27 26 28 27 29 88 30 28 31 87 32 29 33 30 34
REMARK SMILES IDX 31 35 81 36 32 37 86 38 80 39 82 40 33 41 85 42 79 43 78 44
REMARK SMILES IDX 34 46 66 47 46 48 65 49 47 50 50 51 64 52 83 53 48 54 49 55
REMARK SMILES IDX 63 57 84 58 51 59 35 60 36 61 44 62 37 63 39 64 45 65 38 66
REMARK SMILES IDX 40 67 41 68 42 69 43 70 67 71 68 72 76 73 69 74 71 75 77 76
REMARK SMILES IDX 70 77 72 78 73 79 74 80 75 81 52 82 53 83 61 84 54 85 56 86
REMARK SMILES IDX 62 87 55 88 57 89 58 90 59 91 60 92
REMARK H PARENT 12 21 13 23 82 45 50 56
REMARK Flexibility Score: inf
ROOT
ATOM      1  C   UNL A   1      36.182  21.074  24.895  1.00  0.00     0.275 C 
ENDROOT
BRANCH   1   2
ATOM      2  C   UNL A   1      34.931  21.891  24.589  1.00  0.00     0.274 C 
BRANCH   2   3
ATOM      3  O   UNL A   1      33.860  20.978  24.255  1.00  0.00    -0.462 OA
BRANCH   3   4
ATOM      4  C   UNL A   1      32.776  21.062  25.062  1.00  0.00     0.310 C 
ATOM      5  O   UNL A   1      32.023  20.128  25.318  1.00  0.00    -0.252 OA
BRANCH   4   6
ATOM      6  C   UNL A   1      32.577  22.408  25.703  1.00  0.00     0.183 C 
BRANCH   6   7
ATOM      7  C   UNL A   1      31.344  23.232  25.349  1.00  0.00     0.286 C 
ATOM      8  C   UNL A   1      34.002  27.977  21.989  1.00  0.00     0.047 C 
ATOM      9  C   UNL A   1      32.705  27.941  22.746  1.00  0.00    -0.024 A 
ATOM     10  C   UNL A   1      32.086  29.144  23.131  1.00  0.00     0.006 A 
ATOM     11  C   UNL A   1      32.168  26.716  23.170  1.00  0.00     0.085 A 
ATOM     12  C   UNL A   1      30.912  29.137  23.885  1.00  0.00     0.001 A 
ATOM     13  C   UNL A   1      31.013  26.735  23.975  1.00  0.00     0.092 A 
ATOM     14  N   UNL A   1      32.847  25.517  22.849  1.00  0.00    -0.215 NA
ATOM     15  C   UNL A   1      30.362  27.932  24.299  1.00  0.00     0.019 A 
ATOM     16  C   UNL A   1      30.676  25.484  24.706  1.00  0.00     0.309 C 
ATOM     17  C   UNL A   1      32.523  24.476  23.547  1.00  0.00     0.317 C 
ATOM     18  N   UNL A   1      31.567  24.431  24.533  1.00  0.00    -0.202 N 
ATOM     19  N   UNL A   1      29.650  25.508  25.507  1.00  0.00    -0.169 N 
ATOM     20  N   UNL A   1      29.541  24.495  26.405  1.00  0.00    -0.193 N 
ATOM     21  H   UNL A   1      28.981  26.229  25.464  1.00  0.00     0.340 HD
ATOM     22  C   UNL A   1      30.516  23.544  26.593  1.00  0.00     0.300 C 
ATOM     23  H   UNL A   1      28.723  24.439  26.950  1.00  0.00     0.216 HD
ATOM     24  O   UNL A   1      30.617  22.928  27.650  1.00  0.00    -0.267 OA
ENDBRANCH   6   7
ENDBRANCH   4   6
ENDBRANCH   3   4
ENDBRANCH   2   3
ENDBRANCH   1   2
BRANCH   1  25
ATOM     25  O   UNL A   1      36.986  21.789  25.848  1.00  0.00    -0.458 OA
BRANCH  25  26
ATOM     26  C   UNL A   1      38.303  21.473  25.811  1.00  0.00     0.338 C 
ATOM     27  O   UNL A   1      38.773  20.422  25.407  1.00  0.00    -0.246 OA
BRANCH  26  28
ATOM     28  C   UNL A   1      39.123  22.550  26.418  1.00  0.00     0.060 A 
ATOM     29  C   UNL A   1      40.213  22.321  27.271  1.00  0.00     0.016 A 
ATOM     30  C   UNL A   1      38.756  23.860  26.097  1.00  0.00     0.016 A 
ATOM     31  C   UNL A   1      40.919  23.404  27.811  1.00  0.00     0.010 A 
ATOM     32  C   UNL A   1      39.486  24.933  26.596  1.00  0.00     0.010 A 
ATOM     33  C   UNL A   1      40.565  24.716  27.465  1.00  0.00    -0.014 A 
BRANCH  33  34
ATOM     34  C   UNL A   1      41.314  25.905  27.935  1.00  0.00     0.031 A 
ATOM     35  C   UNL A   1      40.599  26.990  28.687  1.00  0.00     0.074 A 
ATOM     36  C   UNL A   1      42.587  26.073  27.527  1.00  0.00     0.049 A 
ATOM     37  N   UNL A   1      41.014  28.191  28.995  1.00  0.00    -0.248 NA
ATOM     38  C   UNL A   1      39.228  26.694  29.138  1.00  0.00     0.031 C 
ATOM     39  C   UNL A   1      43.356  25.100  26.749  1.00  0.00     0.029 A 
ATOM     40  N   UNL A   1      43.437  27.140  27.663  1.00  0.00    -0.354 N 
ATOM     41  C   UNL A   1      39.947  28.806  29.639  1.00  0.00     0.074 A 
ATOM     42  C   UNL A   1      38.864  27.848  29.680  1.00  0.00     0.031 C 
ATOM     43  C   UNL A   1      44.556  25.625  26.454  1.00  0.00     0.029 A 
ATOM     44  C   UNL A   1      44.627  26.979  26.992  1.00  0.00     0.049 A 
ATOM     45  H   UNL A   1      43.217  27.943  28.189  1.00  0.00     0.167 HD
ATOM     46  C   UNL A   1      39.887  30.055  30.159  1.00  0.00     0.034 A 
ATOM     47  C   UNL A   1      45.651  27.834  26.811  1.00  0.00     0.034 A 
ATOM     48  C   UNL A   1      40.980  30.987  30.132  1.00  0.00     0.049 A 
ATOM     49  C   UNL A   1      45.567  29.208  27.414  1.00  0.00     0.074 A 
ATOM     50  C   UNL A   1      41.041  32.256  30.680  1.00  0.00     0.029 A 
ATOM     51  N   UNL A   1      42.202  30.752  29.522  1.00  0.00    -0.354 N 
ATOM     52  N   UNL A   1      44.589  29.739  28.106  1.00  0.00    -0.248 NA
ATOM     53  C   UNL A   1      46.729  30.089  27.234  1.00  0.00     0.031 C 
ATOM     54  C   UNL A   1      42.303  32.789  30.400  1.00  0.00     0.029 A 
ATOM     55  C   UNL A   1      43.028  31.850  29.684  1.00  0.00     0.049 A 
ATOM     56  H   UNL A   1      42.446  29.927  29.045  1.00  0.00     0.167 HD
ATOM     57  C   UNL A   1      45.023  31.007  28.468  1.00  0.00     0.074 A 
ATOM     58  C   UNL A   1      46.359  31.162  27.925  1.00  0.00     0.031 C 
ATOM     59  C   UNL A   1      44.371  31.960  29.175  1.00  0.00     0.034 A 
BRANCH  46  60
ATOM     60  C   UNL A   1      38.622  30.471  30.860  1.00  0.00     0.023 A 
ATOM     61  C   UNL A   1      38.493  30.216  32.240  1.00  0.00     0.012 A 
ATOM     62  C   UNL A   1      37.616  31.190  30.189  1.00  0.00     0.148 A 
ATOM     63  C   UNL A   1      37.375  30.663  32.941  1.00  0.00     0.002 A 
ATOM     64  C   UNL A   1      36.514  31.656  30.901  1.00  0.00     0.091 A 
ATOM     65  F   UNL A   1      37.756  31.411  28.874  1.00  0.00    -0.205 F 
ATOM     66  C   UNL A   1      36.392  31.390  32.276  1.00  0.00     0.022 A 
BRANCH  64  67
ATOM     67  S   UNL A   1      35.213  32.644  30.156  1.00  0.00     0.127 S 
ATOM     68  O   UNL A   1      35.958  33.816  29.698  1.00  0.00    -0.237 OA
ATOM     69  O   UNL A   1      34.737  31.768  29.085  1.00  0.00    -0.237 OA
ATOM     70  O   UNL A   1      34.244  32.902  31.213  1.00  0.00    -0.744 OA
ENDBRANCH  64  67
ENDBRANCH  46  60
BRANCH  47  71
ATOM     71  C   UNL A   1      46.863  27.370  26.085  1.00  0.00     0.023 A 
ATOM     72  C   UNL A   1      47.694  26.414  26.697  1.00  0.00     0.012 A 
ATOM     73  C   UNL A   1      47.138  27.782  24.766  1.00  0.00     0.148 A 
ATOM     74  C   UNL A   1      48.781  25.874  26.011  1.00  0.00     0.002 A 
ATOM     75  C   UNL A   1      48.200  27.212  24.074  1.00  0.00     0.091 A 
ATOM     76  F   UNL A   1      46.331  28.694  24.206  1.00  0.00    -0.205 F 
ATOM     77  C   UNL A   1      49.026  26.263  24.696  1.00  0.00     0.022 A 
BRANCH  75  78
ATOM     78  S   UNL A   1      48.535  27.563  22.343  1.00  0.00     0.127 S 
ATOM     79  O   UNL A   1      48.647  26.219  21.782  1.00  0.00    -0.237 OA
ATOM     80  O   UNL A   1      47.333  28.297  21.948  1.00  0.00    -0.237 OA
ATOM     81  O   UNL A   1      49.760  28.352  22.329  1.00  0.00    -0.744 OA
ENDBRANCH  75  78
ENDBRANCH  47  71
BRANCH  59  82
ATOM     82  C   UNL A   1      45.087  33.255  29.430  1.00  0.00     0.023 A 
ATOM     83  C   UNL A   1      45.949  33.361  30.537  1.00  0.00     0.012 A 
ATOM     84  C   UNL A   1      45.002  34.313  28.504  1.00  0.00     0.148 A 
ATOM     85  C   UNL A   1      46.716  34.509  30.724  1.00  0.00     0.002 A 
ATOM     86  C   UNL A   1      45.795  35.440  28.679  1.00  0.00     0.091 A 
ATOM     87  F   UNL A   1      44.164  34.187  27.466  1.00  0.00    -0.205 F 
ATOM     88  C   UNL A   1      46.649  35.542  29.791  1.00  0.00     0.022 A 
BRANCH  86  89
ATOM     89  S   UNL A   1      45.835  36.785  27.491  1.00  0.00     0.127 S 
ATOM     90  O   UNL A   1      46.493  37.842  28.260  1.00  0.00    -0.237 OA
ATOM     91  O   UNL A   1      46.647  36.222  26.411  1.00  0.00    -0.237 OA
ATOM     92  O   UNL A   1      44.449  37.050  27.132  1.00  0.00    -0.744 OA
ENDBRANCH  86  89
ENDBRANCH  59  82
ENDBRANCH  33  34
ENDBRANCH  26  28
ENDBRANCH  25  26
ENDBRANCH   1  25
TORSDOF 15
ENDMDL
MODEL 3
REMARK VINA RESULT:     -12.6      4.962     10.026
REMARK SMILES Cc1cccc2c1N=CN1C2=[NH+]NC(=O)[C@@H]1CC(=O)OCCOC(=O)c1ccc(-c2c3nc(c(-c4cccc(S(=O)(=O)[O-])c4F)c4ccc([nH]4)c(-c4cccc(S(=O)(=O)[O-])c4F)c4nc(c(-c5cccc(S(=O)(=O)[O-])c5F)c5ccc2[nH]5)C=C4)C=C3)cc1
REMARK SMILES IDX 22 1 21 2 20 3 18 4 19 5 17 6 16 7 1 8 2 9 3 10 7 11 4 12
REMARK SMILES IDX 6 13 8 14 5 15 11 16 9 17 10 18 12 19 13 20 14 22 15 24
REMARK SMILES IDX 23 25 24 26 25 27 26 28 27 29 88 30 28 31 87 32 29 33 30 34
REMARK SMILES IDX 31 35 81 36 32 37 86 38 80 39 82 40 33 41 85 42 79 43 78 44
REMARK SMILES IDX 34 46 66 47 46 48 65 49 47 50 50 51 64 52 83 53 48 54 49 55
REMARK SMILES IDX 63 57 84 58 51 59 35 60 36 61 44 62 37 63 39 64 45 65 38 66
REMARK SMILES IDX 40 67 41 68 42 69 43 70 67 71 68 72 76 73 69 74 71 75 77 76
REMARK SMILES IDX 70 77 72 78 73 79 74 80 75 81 52 82 53 83 61 84 54 85 56 86
REMARK SMILES IDX 62 87 55 88 57 89 58 90 59 91 60 92
REMARK H PARENT 12 21 13 23 82 45 50 56
REMARK Flexibility Score: inf
ROOT
ATOM      1  C   UNL A   1      31.563  30.400  25.471  1.00  0.00     0.275 C 
ENDROOT
BRANCH   1   2
ATOM      2  C   UNL A   1      31.319  29.029  24.848  1.00  0.00     0.274 C 
BRANCH   2   3
ATOM      3  O   UNL A   1      31.457  29.150  23.414  1.00  0.00    -0.462 OA
BRANCH   3   4
ATOM      4  C   UNL A   1      31.238  28.003  22.728  1.00  0.00     0.310 C 
ATOM      5  O   UNL A   1      30.271  27.798  22.001  1.00  0.00    -0.252 OA
BRANCH   4   6
ATOM      6  C   UNL A   1      32.327  26.975  22.865  1.00  0.00     0.183 C 
BRANCH   6   7
ATOM      7  C   UNL A   1      32.047  25.528  22.479  1.00  0.00     0.286 C 
ATOM      8  C   UNL A   1      33.273  22.556  28.005  1.00  0.00     0.047 C 
ATOM      9  C   UNL A   1      33.300  22.026  26.599  1.00  0.00    -0.024 A 
ATOM     10  C   UNL A   1      34.010  20.848  26.308  1.00  0.00     0.006 A 
ATOM     11  C   UNL A   1      32.717  22.762  25.556  1.00  0.00     0.085 A 
ATOM     12  C   UNL A   1      34.099  20.368  25.001  1.00  0.00     0.001 A 
ATOM     13  C   UNL A   1      32.865  22.286  24.239  1.00  0.00     0.092 A 
ATOM     14  N   UNL A   1      32.079  23.990  25.850  1.00  0.00    -0.215 NA
ATOM     15  C   UNL A   1      33.515  21.078  23.962  1.00  0.00     0.019 A 
ATOM     16  C   UNL A   1      32.570  23.242  23.137  1.00  0.00     0.309 C 
ATOM     17  C   UNL A   1      31.882  24.783  24.847  1.00  0.00     0.317 C 
ATOM     18  N   UNL A   1      32.205  24.523  23.537  1.00  0.00    -0.202 N 
ATOM     19  N   UNL A   1      32.768  22.838  21.916  1.00  0.00    -0.169 N 
ATOM     20  N   UNL A   1      32.818  23.790  20.948  1.00  0.00    -0.193 N 
ATOM     21  H   UNL A   1      32.878  21.883  21.701  1.00  0.00     0.340 HD
ATOM     22  C   UNL A   1      32.806  25.138  21.214  1.00  0.00     0.300 C 
ATOM     23  H   UNL A   1      32.866  23.499  20.008  1.00  0.00     0.216 HD
ATOM     24  O   UNL A   1      33.276  25.953  20.425  1.00  0.00    -0.267 OA
ENDBRANCH   6   7
ENDBRANCH   4   6
ENDBRANCH   3   4
ENDBRANCH   2   3
ENDBRANCH   1   2
BRANCH   1  25
ATOM     25  O   UNL A   1      32.889  30.432  26.027  1.00  0.00    -0.458 OA
BRANCH  25  26
ATOM     26  C   UNL A   1      33.068  31.376  26.982  1.00  0.00     0.338 C 
ATOM     27  O   UNL A   1      32.290  32.278  27.248  1.00  0.00    -0.246 OA
BRANCH  26  28
ATOM     28  C   UNL A   1      34.397  31.233  27.624  1.00  0.00     0.060 A 
ATOM     29  C   UNL A   1      35.299  32.292  27.807  1.00  0.00     0.016 A 
ATOM     30  C   UNL A   1      34.737  29.950  28.061  1.00  0.00     0.016 A 
ATOM     31  C   UNL A   1      36.542  32.058  28.410  1.00  0.00     0.010 A 
ATOM     32  C   UNL A   1      35.951  29.727  28.702  1.00  0.00     0.010 A 
ATOM     33  C   UNL A   1      36.867  30.775  28.872  1.00  0.00    -0.014 A 
BRANCH  33  34
ATOM     34  C   UNL A   1      38.128  30.471  29.589  1.00  0.00     0.031 A 
ATOM     35  C   UNL A   1      39.094  29.476  29.012  1.00  0.00     0.074 A 
ATOM     36  C   UNL A   1      38.303  30.962  30.830  1.00  0.00     0.049 A 
ATOM     37  N   UNL A   1      40.134  28.917  29.573  1.00  0.00    -0.248 NA
ATOM     38  C   UNL A   1      38.849  29.037  27.627  1.00  0.00     0.031 C 
ATOM     39  C   UNL A   1      37.397  31.896  31.502  1.00  0.00     0.029 A 
ATOM     40  N   UNL A   1      39.271  30.703  31.767  1.00  0.00    -0.354 N 
ATOM     41  C   UNL A   1      40.644  28.035  28.629  1.00  0.00     0.074 A 
ATOM     42  C   UNL A   1      39.802  28.131  27.456  1.00  0.00     0.031 C 
ATOM     43  C   UNL A   1      37.838  32.113  32.751  1.00  0.00     0.029 A 
ATOM     44  C   UNL A   1      39.034  31.310  32.979  1.00  0.00     0.049 A 
ATOM     45  H   UNL A   1      40.058  30.139  31.590  1.00  0.00     0.167 HD
ATOM     46  C   UNL A   1      41.727  27.228  28.731  1.00  0.00     0.034 A 
ATOM     47  C   UNL A   1      39.693  31.212  34.149  1.00  0.00     0.034 A 
ATOM     48  C   UNL A   1      42.569  27.161  29.894  1.00  0.00     0.049 A 
ATOM     49  C   UNL A   1      40.902  30.324  34.231  1.00  0.00     0.074 A 
ATOM     50  C   UNL A   1      43.722  26.419  30.078  1.00  0.00     0.029 A 
ATOM     51  N   UNL A   1      42.347  27.861  31.070  1.00  0.00    -0.354 N 
ATOM     52  N   UNL A   1      41.429  29.572  33.297  1.00  0.00    -0.248 NA
ATOM     53  C   UNL A   1      41.619  30.288  35.513  1.00  0.00     0.031 C 
ATOM     54  C   UNL A   1      44.197  26.671  31.369  1.00  0.00     0.029 A 
ATOM     55  C   UNL A   1      43.344  27.574  31.984  1.00  0.00     0.049 A 
ATOM     56  H   UNL A   1      41.592  28.471  31.230  1.00  0.00     0.167 HD
ATOM     57  C   UNL A   1      42.555  28.990  33.865  1.00  0.00     0.074 A 
ATOM     58  C   UNL A   1      42.638  29.485  35.225  1.00  0.00     0.031 C 
ATOM     59  C   UNL A   1      43.431  28.117  33.314  1.00  0.00     0.034 A 
BRANCH  46  60
ATOM     60  C   UNL A   1      42.107  26.396  27.536  1.00  0.00     0.023 A 
ATOM     61  C   UNL A   1      42.881  26.985  26.516  1.00  0.00     0.012 A 
ATOM     62  C   UNL A   1      41.790  25.027  27.465  1.00  0.00     0.148 A 
ATOM     63  C   UNL A   1      43.326  26.225  25.436  1.00  0.00     0.002 A 
ATOM     64  C   UNL A   1      42.259  24.268  26.398  1.00  0.00     0.091 A 
ATOM     65  F   UNL A   1      41.043  24.493  28.443  1.00  0.00    -0.205 F 
ATOM     66  C   UNL A   1      43.024  24.866  25.382  1.00  0.00     0.022 A 
BRANCH  64  67
ATOM     67  S   UNL A   1      41.972  22.501  26.252  1.00  0.00     0.127 S 
ATOM     68  O   UNL A   1      42.663  22.192  25.000  1.00  0.00    -0.237 OA
ATOM     69  O   UNL A   1      42.627  21.983  27.453  1.00  0.00    -0.237 OA
ATOM     70  O   UNL A   1      40.526  22.327  26.218  1.00  0.00    -0.744 OA
ENDBRANCH  64  67
ENDBRANCH  46  60
BRANCH  47  71
ATOM     71  C   UNL A   1      39.250  32.041  35.301  1.00  0.00     0.023 A 
ATOM     72  C   UNL A   1      38.412  31.460  36.272  1.00  0.00     0.012 A 
ATOM     73  C   UNL A   1      39.732  33.350  35.499  1.00  0.00     0.148 A 
ATOM     74  C   UNL A   1      38.060  32.167  37.420  1.00  0.00     0.002 A 
ATOM     75  C   UNL A   1      39.407  34.035  36.663  1.00  0.00     0.091 A 
ATOM     76  F   UNL A   1      40.527  33.881  34.559  1.00  0.00    -0.205 F 
ATOM     77  C   UNL A   1      38.566  33.448  37.622  1.00  0.00     0.022 A 
BRANCH  75  78
ATOM     78  S   UNL A   1      40.094  35.646  37.070  1.00  0.00     0.127 S 
ATOM     79  O   UNL A   1      39.652  36.454  35.935  1.00  0.00    -0.237 OA
ATOM     80  O   UNL A   1      39.425  35.947  38.336  1.00  0.00    -0.237 OA
ATOM     81  O   UNL A   1      41.533  35.448  37.176  1.00  0.00    -0.744 OA
ENDBRANCH  75  78
ENDBRANCH  47  71
BRANCH  59  82
ATOM     82  C   UNL A   1      44.576  27.647  34.164  1.00  0.00     0.023 A 
ATOM     83  C   UNL A   1      45.763  28.403  34.204  1.00  0.00     0.012 A 
ATOM     84  C   UNL A   1      44.426  26.534  35.014  1.00  0.00     0.148 A 
ATOM     85  C   UNL A   1      46.790  28.053  35.076  1.00  0.00     0.002 A 
ATOM     86  C   UNL A   1      45.442  26.211  35.905  1.00  0.00     0.091 A 
ATOM     87  F   UNL A   1      43.289  25.826  34.946  1.00  0.00    -0.205 F 
ATOM     88  C   UNL A   1      46.626  26.967  35.934  1.00  0.00     0.022 A 
BRANCH  86  89
ATOM     89  S   UNL A   1      45.290  24.881  37.101  1.00  0.00     0.127 S 
ATOM     90  O   UNL A   1      45.332  23.700  36.238  1.00  0.00    -0.237 OA
ATOM     91  O   UNL A   1      46.480  25.072  37.931  1.00  0.00    -0.237 OA
ATOM     92  O   UNL A   1      44.027  25.100  37.792  1.00  0.00    -0.744 OA
ENDBRANCH  86  89
ENDBRANCH  59  82
ENDBRANCH  33  34
ENDBRANCH  26  28
ENDBRANCH  25  26
ENDBRANCH   1  25
TORSDOF 15
ENDMDL
