MODEL 1
REMARK VINA RESULT:     -12.0      0.000      0.000
REMARK SMILES Cc1cc(=O)cc(C)n1C[C@H]1CCCC[C@@H]1C(=O)OCCOC(=O)c1ccc(-c2c3nc(c(-c4cccc(S(=O)(=O)[O-])c4F)c4ccc([nH]4)c(-c4cccc(S(=O)(=O)[O-])c4F)c4nc(c(-c5cccc(S(=O)(=O)[O-])c5F)c5ccc2[nH]5)C=C4)C=C3)cc1
REMARK SMILES IDX 21 1 20 2 19 3 17 4 18 5 16 6 11 7 12 8 13 9 15 10 14 11
REMARK SMILES IDX 10 12 9 13 1 14 2 15 3 16 4 17 7 18 5 19 6 20 8 21 22 22
REMARK SMILES IDX 23 23 24 24 25 25 26 26 87 27 27 28 86 29 28 30 29 31 30 32
REMARK SMILES IDX 80 33 31 34 85 35 79 36 81 37 32 38 84 39 78 40 77 41 33 43
REMARK SMILES IDX 65 44 45 45 64 46 46 47 49 48 63 49 82 50 47 51 48 52 62 54
REMARK SMILES IDX 83 55 50 56 34 57 35 58 43 59 36 60 38 61 44 62 37 63 39 64
REMARK SMILES IDX 40 65 41 66 42 67 66 68 67 69 75 70 68 71 70 72 76 73 69 74
REMARK SMILES IDX 71 75 72 76 73 77 74 78 51 79 52 80 60 81 53 82 55 83 61 84
REMARK SMILES IDX 54 85 56 86 57 87 58 88 59 89
REMARK H PARENT 81 42 49 53
REMARK Flexibility Score: inf
ROOT
ATOM      1  C   UNL A   1      36.171  20.154  24.942  1.00  0.00     0.275 C 
ENDROOT
BRANCH   1   2
ATOM      2  C   UNL A   1      34.734  20.615  25.197  1.00  0.00     0.274 C 
BRANCH   2   3
ATOM      3  O   UNL A   1      34.722  21.799  26.031  1.00  0.00    -0.462 OA
BRANCH   3   4
ATOM      4  C   UNL A   1      33.527  22.429  26.161  1.00  0.00     0.309 C 
ATOM      5  O   UNL A   1      32.465  21.852  26.373  1.00  0.00    -0.252 OA
BRANCH   4   6
ATOM      6  C   UNL A   1      33.601  23.954  26.013  1.00  0.00     0.104 C 
ATOM      7  C   UNL A   1      32.511  24.663  25.162  1.00  0.00     0.023 C 
ATOM      8  C   UNL A   1      32.705  24.332  23.671  1.00  0.00     0.006 C 
ATOM      9  C   UNL A   1      34.090  24.719  23.159  1.00  0.00     0.000 C 
ATOM     10  C   UNL A   1      35.004  24.353  25.528  1.00  0.00     0.016 C 
ATOM     11  C   UNL A   1      35.185  24.131  24.027  1.00  0.00     0.001 C 
BRANCH   7  12
ATOM     12  C   UNL A   1      32.588  26.200  25.429  1.00  0.00     0.126 C 
BRANCH  12  13
ATOM     13  N   UNL A   1      31.838  27.022  24.441  1.00  0.00    -0.349 N 
ATOM     14  C   UNL A   1      29.672  26.023  25.321  1.00  0.00     0.064 C 
ATOM     15  C   UNL A   1      30.425  26.908  24.353  1.00  0.00     0.018 A 
ATOM     16  C   UNL A   1      29.698  27.600  23.457  1.00  0.00     0.073 A 
ATOM     17  C   UNL A   1      30.370  28.524  22.531  1.00  0.00     0.182 A 
ATOM     18  C   UNL A   1      32.482  27.996  23.630  1.00  0.00     0.018 A 
ATOM     19  O   UNL A   1      29.743  29.138  21.676  1.00  0.00    -0.290 OA
ATOM     20  C   UNL A   1      31.818  28.712  22.704  1.00  0.00     0.073 A 
ATOM     21  C   UNL A   1      33.943  28.339  23.804  1.00  0.00     0.064 C 
ENDBRANCH  12  13
ENDBRANCH   7  12
ENDBRANCH   4   6
ENDBRANCH   3   4
ENDBRANCH   2   3
ENDBRANCH   1   2
BRANCH   1  22
ATOM     22  O   UNL A   1      37.058  21.267  25.131  1.00  0.00    -0.458 OA
BRANCH  22  23
ATOM     23  C   UNL A   1      38.309  20.966  25.554  1.00  0.00     0.338 C 
ATOM     24  O   UNL A   1      38.911  19.928  25.312  1.00  0.00    -0.246 OA
BRANCH  23  25
ATOM     25  C   UNL A   1      38.909  22.132  26.259  1.00  0.00     0.060 A 
ATOM     26  C   UNL A   1      38.440  23.433  26.046  1.00  0.00     0.016 A 
ATOM     27  C   UNL A   1      40.059  21.946  27.032  1.00  0.00     0.016 A 
ATOM     28  C   UNL A   1      39.196  24.530  26.466  1.00  0.00     0.010 A 
ATOM     29  C   UNL A   1      40.745  23.050  27.557  1.00  0.00     0.010 A 
ATOM     30  C   UNL A   1      40.351  24.363  27.246  1.00  0.00    -0.014 A 
BRANCH  30  31
ATOM     31  C   UNL A   1      41.143  25.534  27.736  1.00  0.00     0.031 A 
ATOM     32  C   UNL A   1      40.496  26.607  28.583  1.00  0.00     0.074 A 
ATOM     33  C   UNL A   1      42.444  25.675  27.404  1.00  0.00     0.049 A 
ATOM     34  N   UNL A   1      40.919  27.817  28.851  1.00  0.00    -0.248 NA
ATOM     35  C   UNL A   1      39.199  26.282  29.201  1.00  0.00     0.031 C 
ATOM     36  C   UNL A   1      43.233  24.714  26.632  1.00  0.00     0.029 A 
ATOM     37  N   UNL A   1      43.333  26.695  27.661  1.00  0.00    -0.354 N 
ATOM     38  C   UNL A   1      39.907  28.426  29.586  1.00  0.00     0.074 A 
ATOM     39  C   UNL A   1      38.858  27.442  29.749  1.00  0.00     0.031 C 
ATOM     40  C   UNL A   1      44.486  25.168  26.505  1.00  0.00     0.029 A 
ATOM     41  C   UNL A   1      44.564  26.507  27.076  1.00  0.00     0.049 A 
ATOM     42  H   UNL A   1      43.108  27.482  28.209  1.00  0.00     0.167 HD
ATOM     43  C   UNL A   1      39.859  29.686  30.084  1.00  0.00     0.034 A 
ATOM     44  C   UNL A   1      45.623  27.331  26.941  1.00  0.00     0.034 A 
ATOM     45  C   UNL A   1      40.941  30.634  30.003  1.00  0.00     0.049 A 
ATOM     46  C   UNL A   1      45.541  28.728  27.482  1.00  0.00     0.074 A 
ATOM     47  C   UNL A   1      40.991  31.925  30.502  1.00  0.00     0.029 A 
ATOM     48  N   UNL A   1      42.170  30.390  29.410  1.00  0.00    -0.354 N 
ATOM     49  N   UNL A   1      44.568  29.296  28.152  1.00  0.00    -0.248 NA
ATOM     50  C   UNL A   1      46.699  29.600  27.242  1.00  0.00     0.031 C 
ATOM     51  C   UNL A   1      42.250  32.461  30.210  1.00  0.00     0.029 A 
ATOM     52  C   UNL A   1      42.986  31.501  29.536  1.00  0.00     0.049 A 
ATOM     53  H   UNL A   1      42.425  29.549  28.966  1.00  0.00     0.167 HD
ATOM     54  C   UNL A   1      44.996  30.592  28.412  1.00  0.00     0.074 A 
ATOM     55  C   UNL A   1      46.331  30.711  27.865  1.00  0.00     0.031 C 
ATOM     56  C   UNL A   1      44.327  31.601  29.022  1.00  0.00     0.034 A 
BRANCH  43  57
ATOM     57  C   UNL A   1      38.609  30.127  30.803  1.00  0.00     0.023 A 
ATOM     58  C   UNL A   1      38.482  29.895  32.185  1.00  0.00     0.012 A 
ATOM     59  C   UNL A   1      37.619  30.875  30.133  1.00  0.00     0.148 A 
ATOM     60  C   UNL A   1      37.382  30.390  32.889  1.00  0.00     0.002 A 
ATOM     61  C   UNL A   1      36.546  31.397  30.848  1.00  0.00     0.091 A 
ATOM     62  F   UNL A   1      37.747  31.068  28.812  1.00  0.00    -0.205 F 
ATOM     63  C   UNL A   1      36.424  31.150  32.225  1.00  0.00     0.022 A 
BRANCH  61  64
ATOM     64  S   UNL A   1      35.306  32.461  30.097  1.00  0.00     0.127 S 
ATOM     65  O   UNL A   1      34.831  31.626  28.993  1.00  0.00    -0.237 OA
ATOM     66  O   UNL A   1      34.344  32.633  31.187  1.00  0.00    -0.237 OA
ATOM     67  O   UNL A   1      36.004  33.677  29.706  1.00  0.00    -0.744 OA
ENDBRANCH  61  64
ENDBRANCH  43  57
BRANCH  44  68
ATOM     68  C   UNL A   1      46.846  26.838  26.246  1.00  0.00     0.023 A 
ATOM     69  C   UNL A   1      47.018  27.117  24.878  1.00  0.00     0.012 A 
ATOM     70  C   UNL A   1      47.877  26.182  26.949  1.00  0.00     0.148 A 
ATOM     71  C   UNL A   1      48.196  26.757  24.223  1.00  0.00     0.002 A 
ATOM     72  C   UNL A   1      49.076  25.893  26.309  1.00  0.00     0.091 A 
ATOM     73  F   UNL A   1      47.680  25.891  28.243  1.00  0.00    -0.205 F 
ATOM     74  C   UNL A   1      49.232  26.165  24.943  1.00  0.00     0.022 A 
BRANCH  72  75
ATOM     75  S   UNL A   1      50.515  25.310  27.213  1.00  0.00     0.127 S 
ATOM     76  O   UNL A   1      50.823  26.457  28.061  1.00  0.00    -0.237 OA
ATOM     77  O   UNL A   1      49.981  24.145  27.920  1.00  0.00    -0.237 OA
ATOM     78  O   UNL A   1      51.505  24.982  26.194  1.00  0.00    -0.744 OA
ENDBRANCH  72  75
ENDBRANCH  44  68
BRANCH  56  79
ATOM     79  C   UNL A   1      45.023  32.931  29.125  1.00  0.00     0.023 A 
ATOM     80  C   UNL A   1      45.820  33.205  30.255  1.00  0.00     0.012 A 
ATOM     81  C   UNL A   1      44.942  33.881  28.089  1.00  0.00     0.148 A 
ATOM     82  C   UNL A   1      46.507  34.412  30.363  1.00  0.00     0.002 A 
ATOM     83  C   UNL A   1      45.662  35.067  28.186  1.00  0.00     0.091 A 
ATOM     84  F   UNL A   1      44.160  33.614  27.033  1.00  0.00    -0.205 F 
ATOM     85  C   UNL A   1      46.437  35.338  29.324  1.00  0.00     0.022 A 
BRANCH  83  86
ATOM     86  S   UNL A   1      45.691  36.275  26.856  1.00  0.00     0.127 S 
ATOM     87  O   UNL A   1      44.280  36.648  26.760  1.00  0.00    -0.237 OA
ATOM     88  O   UNL A   1      46.562  37.321  27.396  1.00  0.00    -0.237 OA
ATOM     89  O   UNL A   1      46.240  35.577  25.702  1.00  0.00    -0.744 OA
ENDBRANCH  83  86
ENDBRANCH  56  79
ENDBRANCH  30  31
ENDBRANCH  23  25
ENDBRANCH  22  23
ENDBRANCH   1  22
TORSDOF 16
ENDMDL
MODEL 2
REMARK VINA RESULT:     -12.0      4.750     10.019
REMARK SMILES Cc1cc(=O)cc(C)n1C[C@H]1CCCC[C@@H]1C(=O)OCCOC(=O)c1ccc(-c2c3nc(c(-c4cccc(S(=O)(=O)[O-])c4F)c4ccc([nH]4)c(-c4cccc(S(=O)(=O)[O-])c4F)c4nc(c(-c5cccc(S(=O)(=O)[O-])c5F)c5ccc2[nH]5)C=C4)C=C3)cc1
REMARK SMILES IDX 21 1 20 2 19 3 17 4 18 5 16 6 11 7 12 8 13 9 15 10 14 11
REMARK SMILES IDX 10 12 9 13 1 14 2 15 3 16 4 17 7 18 5 19 6 20 8 21 22 22
REMARK SMILES IDX 23 23 24 24 25 25 26 26 87 27 27 28 86 29 28 30 29 31 30 32
REMARK SMILES IDX 80 33 31 34 85 35 79 36 81 37 32 38 84 39 78 40 77 41 33 43
REMARK SMILES IDX 65 44 45 45 64 46 46 47 49 48 63 49 82 50 47 51 48 52 62 54
REMARK SMILES IDX 83 55 50 56 34 57 35 58 43 59 36 60 38 61 44 62 37 63 39 64
REMARK SMILES IDX 40 65 41 66 42 67 66 68 67 69 75 70 68 71 70 72 76 73 69 74
REMARK SMILES IDX 71 75 72 76 73 77 74 78 51 79 52 80 60 81 53 82 55 83 61 84
REMARK SMILES IDX 54 85 56 86 57 87 58 88 59 89
REMARK H PARENT 81 42 49 53
REMARK Flexibility Score: inf
ROOT
ATOM      1  C   UNL A   1      31.608  29.825  25.275  1.00  0.00     0.275 C 
ENDROOT
BRANCH   1   2
ATOM      2  C   UNL A   1      32.661  29.345  24.275  1.00  0.00     0.274 C 
BRANCH   2   3
ATOM      3  O   UNL A   1      33.532  28.363  24.887  1.00  0.00    -0.462 OA
BRANCH   3   4
ATOM      4  C   UNL A   1      33.504  27.118  24.349  1.00  0.00     0.309 C 
ATOM      5  O   UNL A   1      33.553  26.888  23.144  1.00  0.00    -0.252 OA
BRANCH   4   6
ATOM      6  C   UNL A   1      33.398  25.989  25.382  1.00  0.00     0.104 C 
ATOM      7  C   UNL A   1      33.120  24.548  24.869  1.00  0.00     0.023 C 
ATOM      8  C   UNL A   1      31.677  24.443  24.345  1.00  0.00     0.006 C 
ATOM      9  C   UNL A   1      30.639  24.823  25.398  1.00  0.00     0.000 C 
ATOM     10  C   UNL A   1      32.379  26.380  26.463  1.00  0.00     0.016 C 
ATOM     11  C   UNL A   1      30.936  26.183  26.000  1.00  0.00     0.001 C 
BRANCH   7  12
ATOM     12  C   UNL A   1      33.388  23.541  26.033  1.00  0.00     0.126 C 
BRANCH  12  13
ATOM     13  N   UNL A   1      34.323  22.441  25.676  1.00  0.00    -0.349 N 
ATOM     14  C   UNL A   1      32.322  21.006  25.045  1.00  0.00     0.064 C 
ATOM     15  C   UNL A   1      33.811  21.191  25.237  1.00  0.00     0.018 A 
ATOM     16  C   UNL A   1      34.607  20.150  24.933  1.00  0.00     0.073 A 
ATOM     17  C   UNL A   1      36.066  20.292  25.041  1.00  0.00     0.182 A 
ATOM     18  C   UNL A   1      35.733  22.623  25.672  1.00  0.00     0.018 A 
ATOM     19  O   UNL A   1      36.817  19.351  24.812  1.00  0.00    -0.290 OA
ATOM     20  C   UNL A   1      36.587  21.621  25.393  1.00  0.00     0.073 A 
ATOM     21  C   UNL A   1      36.362  23.975  25.916  1.00  0.00     0.064 C 
ENDBRANCH  12  13
ENDBRANCH   7  12
ENDBRANCH   4   6
ENDBRANCH   3   4
ENDBRANCH   2   3
ENDBRANCH   1   2
BRANCH   1  22
ATOM     22  O   UNL A   1      32.191  29.859  26.586  1.00  0.00    -0.458 OA
BRANCH  22  23
ATOM     23  C   UNL A   1      32.759  31.032  26.956  1.00  0.00     0.338 C 
ATOM     24  O   UNL A   1      32.190  32.115  27.002  1.00  0.00    -0.246 OA
BRANCH  23  25
ATOM     25  C   UNL A   1      34.155  30.804  27.421  1.00  0.00     0.060 A 
ATOM     26  C   UNL A   1      34.635  29.517  27.684  1.00  0.00     0.016 A 
ATOM     27  C   UNL A   1      34.954  31.903  27.747  1.00  0.00     0.016 A 
ATOM     28  C   UNL A   1      35.821  29.343  28.402  1.00  0.00     0.010 A 
ATOM     29  C   UNL A   1      36.204  31.715  28.355  1.00  0.00     0.010 A 
ATOM     30  C   UNL A   1      36.638  30.433  28.734  1.00  0.00    -0.014 A 
BRANCH  30  31
ATOM     31  C   UNL A   1      37.932  30.251  29.465  1.00  0.00     0.031 A 
ATOM     32  C   UNL A   1      39.044  29.414  28.875  1.00  0.00     0.074 A 
ATOM     33  C   UNL A   1      38.119  30.803  30.684  1.00  0.00     0.049 A 
ATOM     34  N   UNL A   1      40.095  28.901  29.464  1.00  0.00    -0.248 NA
ATOM     35  C   UNL A   1      38.957  29.102  27.439  1.00  0.00     0.031 C 
ATOM     36  C   UNL A   1      37.169  31.672  31.378  1.00  0.00     0.029 A 
ATOM     37  N   UNL A   1      39.172  30.700  31.565  1.00  0.00    -0.354 N 
ATOM     38  C   UNL A   1      40.744  28.137  28.500  1.00  0.00     0.074 A 
ATOM     39  C   UNL A   1      39.982  28.273  27.276  1.00  0.00     0.031 C 
ATOM     40  C   UNL A   1      37.688  32.049  32.554  1.00  0.00     0.029 A 
ATOM     41  C   UNL A   1      38.952  31.351  32.757  1.00  0.00     0.049 A 
ATOM     42  H   UNL A   1      40.000  30.207  31.362  1.00  0.00     0.167 HD
ATOM     43  C   UNL A   1      41.871  27.393  28.621  1.00  0.00     0.034 A 
ATOM     44  C   UNL A   1      39.639  31.344  33.917  1.00  0.00     0.034 A 
ATOM     45  C   UNL A   1      42.679  27.332  29.811  1.00  0.00     0.049 A 
ATOM     46  C   UNL A   1      40.873  30.499  34.036  1.00  0.00     0.074 A 
ATOM     47  C   UNL A   1      43.853  26.625  30.018  1.00  0.00     0.029 A 
ATOM     48  N   UNL A   1      42.419  28.019  30.987  1.00  0.00    -0.354 N 
ATOM     49  N   UNL A   1      41.457  29.763  33.124  1.00  0.00    -0.248 NA
ATOM     50  C   UNL A   1      41.537  30.478  35.347  1.00  0.00     0.031 C 
ATOM     51  C   UNL A   1      44.301  26.885  31.317  1.00  0.00     0.029 A 
ATOM     52  C   UNL A   1      43.410  27.759  31.918  1.00  0.00     0.049 A 
ATOM     53  H   UNL A   1      41.643  28.606  31.137  1.00  0.00     0.167 HD
ATOM     54  C   UNL A   1      42.557  29.189  33.750  1.00  0.00     0.074 A 
ATOM     55  C   UNL A   1      42.581  29.697  35.106  1.00  0.00     0.031 C 
ATOM     56  C   UNL A   1      43.448  28.296  33.253  1.00  0.00     0.034 A 
BRANCH  43  57
ATOM     57  C   UNL A   1      42.340  26.600  27.427  1.00  0.00     0.023 A 
ATOM     58  C   UNL A   1      43.202  27.197  26.489  1.00  0.00     0.012 A 
ATOM     59  C   UNL A   1      42.023  25.231  27.303  1.00  0.00     0.148 A 
ATOM     60  C   UNL A   1      43.733  26.449  25.437  1.00  0.00     0.002 A 
ATOM     61  C   UNL A   1      42.586  24.483  26.275  1.00  0.00     0.091 A 
ATOM     62  F   UNL A   1      41.185  24.685  28.196  1.00  0.00    -0.205 F 
ATOM     63  C   UNL A   1      43.437  25.092  25.338  1.00  0.00     0.022 A 
BRANCH  61  64
ATOM     64  S   UNL A   1      42.333  22.710  26.113  1.00  0.00     0.127 S 
ATOM     65  O   UNL A   1      42.965  22.439  24.822  1.00  0.00    -0.237 OA
ATOM     66  O   UNL A   1      43.061  22.186  27.269  1.00  0.00    -0.237 OA
ATOM     67  O   UNL A   1      40.892  22.506  26.160  1.00  0.00    -0.744 OA
ENDBRANCH  61  64
ENDBRANCH  43  57
BRANCH  44  68
ATOM     68  C   UNL A   1      39.148  32.167  35.059  1.00  0.00     0.023 A 
ATOM     69  C   UNL A   1      38.283  31.585  36.003  1.00  0.00     0.012 A 
ATOM     70  C   UNL A   1      39.606  33.484  35.266  1.00  0.00     0.148 A 
ATOM     71  C   UNL A   1      37.886  32.298  37.136  1.00  0.00     0.002 A 
ATOM     72  C   UNL A   1      39.267  34.160  36.432  1.00  0.00     0.091 A 
ATOM     73  F   UNL A   1      40.401  34.036  34.338  1.00  0.00    -0.205 F 
ATOM     74  C   UNL A   1      38.395  33.575  37.361  1.00  0.00     0.022 A 
BRANCH  72  75
ATOM     75  S   UNL A   1      40.035  35.722  36.879  1.00  0.00     0.127 S 
ATOM     76  O   UNL A   1      41.447  35.360  36.932  1.00  0.00    -0.237 OA
ATOM     77  O   UNL A   1      39.660  36.580  35.753  1.00  0.00    -0.237 OA
ATOM     78  O   UNL A   1      39.423  36.105  38.145  1.00  0.00    -0.744 OA
ENDBRANCH  72  75
ENDBRANCH  44  68
BRANCH  56  79
ATOM     79  C   UNL A   1      44.524  27.800  34.181  1.00  0.00     0.023 A 
ATOM     80  C   UNL A   1      45.728  28.524  34.287  1.00  0.00     0.012 A 
ATOM     81  C   UNL A   1      44.326  26.664  34.988  1.00  0.00     0.148 A 
ATOM     82  C   UNL A   1      46.729  28.112  35.164  1.00  0.00     0.002 A 
ATOM     83  C   UNL A   1      45.313  26.281  35.890  1.00  0.00     0.091 A 
ATOM     84  F   UNL A   1      43.184  25.974  34.857  1.00  0.00    -0.205 F 
ATOM     85  C   UNL A   1      46.518  26.998  35.974  1.00  0.00     0.022 A 
BRANCH  83  86
ATOM     86  S   UNL A   1      45.086  24.908  37.026  1.00  0.00     0.127 S 
ATOM     87  O   UNL A   1      44.664  23.839  36.122  1.00  0.00    -0.237 OA
ATOM     88  O   UNL A   1      46.426  24.736  37.589  1.00  0.00    -0.237 OA
ATOM     89  O   UNL A   1      44.086  25.353  37.987  1.00  0.00    -0.744 OA
ENDBRANCH  83  86
ENDBRANCH  56  79
ENDBRANCH  30  31
ENDBRANCH  23  25
ENDBRANCH  22  23
ENDBRANCH   1  22
TORSDOF 16
ENDMDL
MODEL 3
REMARK VINA RESULT:     -11.9      0.999      1.380
REMARK SMILES Cc1cc(=O)cc(C)n1C[C@H]1CCCC[C@@H]1C(=O)OCCOC(=O)c1ccc(-c2c3nc(c(-c4cccc(S(=O)(=O)[O-])c4F)c4ccc([nH]4)c(-c4cccc(S(=O)(=O)[O-])c4F)c4nc(c(-c5cccc(S(=O)(=O)[O-])c5F)c5ccc2[nH]5)C=C4)C=C3)cc1
REMARK SMILES IDX 21 1 20 2 19 3 17 4 18 5 16 6 11 7 12 8 13 9 15 10 14 11
REMARK SMILES IDX 10 12 9 13 1 14 2 15 3 16 4 17 7 18 5 19 6 20 8 21 22 22
REMARK SMILES IDX 23 23 24 24 25 25 26 26 87 27 27 28 86 29 28 30 29 31 30 32
REMARK SMILES IDX 80 33 31 34 85 35 79 36 81 37 32 38 84 39 78 40 77 41 33 43
REMARK SMILES IDX 65 44 45 45 64 46 46 47 49 48 63 49 82 50 47 51 48 52 62 54
REMARK SMILES IDX 83 55 50 56 34 57 35 58 43 59 36 60 38 61 44 62 37 63 39 64
REMARK SMILES IDX 40 65 41 66 42 67 66 68 67 69 75 70 68 71 70 72 76 73 69 74
REMARK SMILES IDX 71 75 72 76 73 77 74 78 51 79 52 80 60 81 53 82 55 83 61 84
REMARK SMILES IDX 54 85 56 86 57 87 58 88 59 89
REMARK H PARENT 81 42 49 53
REMARK Flexibility Score: inf
ROOT
ATOM      1  C   UNL A   1      35.941  20.574  25.014  1.00  0.00     0.275 C 
ENDROOT
BRANCH   1   2
ATOM      2  C   UNL A   1      34.748  21.255  25.690  1.00  0.00     0.274 C 
BRANCH   2   3
ATOM      3  O   UNL A   1      35.127  22.559  26.193  1.00  0.00    -0.462 OA
BRANCH   3   4
ATOM      4  C   UNL A   1      34.138  23.485  26.266  1.00  0.00     0.309 C 
ATOM      5  O   UNL A   1      33.127  23.358  26.949  1.00  0.00    -0.252 OA
BRANCH   4   6
ATOM      6  C   UNL A   1      34.377  24.731  25.404  1.00  0.00     0.104 C 
ATOM      7  C   UNL A   1      33.205  25.735  25.222  1.00  0.00     0.023 C 
ATOM      8  C   UNL A   1      32.111  25.115  24.334  1.00  0.00     0.006 C 
ATOM      9  C   UNL A   1      32.637  24.685  22.967  1.00  0.00     0.000 C 
ATOM     10  C   UNL A   1      34.938  24.307  24.037  1.00  0.00     0.016 C 
ATOM     11  C   UNL A   1      33.851  23.785  23.099  1.00  0.00     0.001 C 
BRANCH   7  12
ATOM     12  C   UNL A   1      33.768  27.057  24.609  1.00  0.00     0.126 C 
BRANCH  12  13
ATOM     13  N   UNL A   1      33.051  28.282  25.056  1.00  0.00    -0.349 N 
ATOM     14  C   UNL A   1      34.761  28.550  26.917  1.00  0.00     0.064 C 
ATOM     15  C   UNL A   1      33.502  28.987  26.203  1.00  0.00     0.018 A 
ATOM     16  C   UNL A   1      32.874  30.080  26.672  1.00  0.00     0.073 A 
ATOM     17  C   UNL A   1      31.680  30.588  25.982  1.00  0.00     0.182 A 
ATOM     18  C   UNL A   1      31.968  28.831  24.316  1.00  0.00     0.018 A 
ATOM     19  O   UNL A   1      31.060  31.556  26.407  1.00  0.00    -0.290 OA
ATOM     20  C   UNL A   1      31.287  29.913  24.737  1.00  0.00     0.073 A 
ATOM     21  C   UNL A   1      31.556  28.274  22.973  1.00  0.00     0.064 C 
ENDBRANCH  12  13
ENDBRANCH   7  12
ENDBRANCH   4   6
ENDBRANCH   3   4
ENDBRANCH   2   3
ENDBRANCH   1   2
BRANCH   1  22
ATOM     22  O   UNL A   1      37.023  21.512  24.924  1.00  0.00    -0.458 OA
BRANCH  22  23
ATOM     23  C   UNL A   1      38.189  21.133  25.501  1.00  0.00     0.338 C 
ATOM     24  O   UNL A   1      38.721  20.037  25.377  1.00  0.00    -0.246 OA
BRANCH  23  25
ATOM     25  C   UNL A   1      38.807  22.283  26.218  1.00  0.00     0.060 A 
ATOM     26  C   UNL A   1      38.328  23.587  26.052  1.00  0.00     0.016 A 
ATOM     27  C   UNL A   1      39.980  22.081  26.950  1.00  0.00     0.016 A 
ATOM     28  C   UNL A   1      39.095  24.675  26.477  1.00  0.00     0.010 A 
ATOM     29  C   UNL A   1      40.679  23.173  27.483  1.00  0.00     0.010 A 
ATOM     30  C   UNL A   1      40.272  24.492  27.217  1.00  0.00    -0.014 A 
BRANCH  30  31
ATOM     31  C   UNL A   1      41.076  25.653  27.714  1.00  0.00     0.031 A 
ATOM     32  C   UNL A   1      40.444  26.719  28.579  1.00  0.00     0.074 A 
ATOM     33  C   UNL A   1      42.375  25.790  27.370  1.00  0.00     0.049 A 
ATOM     34  N   UNL A   1      40.876  27.924  28.856  1.00  0.00    -0.248 NA
ATOM     35  C   UNL A   1      39.151  26.395  29.206  1.00  0.00     0.031 C 
ATOM     36  C   UNL A   1      43.150  24.834  26.579  1.00  0.00     0.029 A 
ATOM     37  N   UNL A   1      43.272  26.802  27.630  1.00  0.00    -0.354 N 
ATOM     38  C   UNL A   1      39.875  28.530  29.609  1.00  0.00     0.074 A 
ATOM     39  C   UNL A   1      38.822  27.550  29.770  1.00  0.00     0.031 C 
ATOM     40  C   UNL A   1      44.405  25.282  26.446  1.00  0.00     0.029 A 
ATOM     41  C   UNL A   1      44.496  26.614  27.031  1.00  0.00     0.049 A 
ATOM     42  H   UNL A   1      43.057  27.583  28.189  1.00  0.00     0.167 HD
ATOM     43  C   UNL A   1      39.840  29.784  30.122  1.00  0.00     0.034 A 
ATOM     44  C   UNL A   1      45.558  27.433  26.896  1.00  0.00     0.034 A 
ATOM     45  C   UNL A   1      40.926  30.727  30.041  1.00  0.00     0.049 A 
ATOM     46  C   UNL A   1      45.490  28.824  27.453  1.00  0.00     0.074 A 
ATOM     47  C   UNL A   1      40.989  32.012  30.555  1.00  0.00     0.029 A 
ATOM     48  N   UNL A   1      42.148  30.483  29.433  1.00  0.00    -0.354 N 
ATOM     49  N   UNL A   1      44.527  29.390  28.139  1.00  0.00    -0.248 NA
ATOM     50  C   UNL A   1      46.651  29.692  27.212  1.00  0.00     0.031 C 
ATOM     51  C   UNL A   1      42.247  32.545  30.256  1.00  0.00     0.029 A 
ATOM     52  C   UNL A   1      42.972  31.588  29.564  1.00  0.00     0.049 A 
ATOM     53  H   UNL A   1      42.393  29.645  28.977  1.00  0.00     0.167 HD
ATOM     54  C   UNL A   1      44.965  30.680  28.410  1.00  0.00     0.074 A 
ATOM     55  C   UNL A   1      46.296  30.799  27.852  1.00  0.00     0.031 C 
ATOM     56  C   UNL A   1      44.308  31.686  29.038  1.00  0.00     0.034 A 
BRANCH  43  57
ATOM     57  C   UNL A   1      38.599  30.224  30.858  1.00  0.00     0.023 A 
ATOM     58  C   UNL A   1      38.495  30.001  32.244  1.00  0.00     0.012 A 
ATOM     59  C   UNL A   1      37.594  30.963  30.199  1.00  0.00     0.148 A 
ATOM     60  C   UNL A   1      37.405  30.495  32.962  1.00  0.00     0.002 A 
ATOM     61  C   UNL A   1      36.531  31.485  30.928  1.00  0.00     0.091 A 
ATOM     62  F   UNL A   1      37.701  31.148  28.875  1.00  0.00    -0.205 F 
ATOM     63  C   UNL A   1      36.433  31.247  32.308  1.00  0.00     0.022 A 
BRANCH  61  64
ATOM     64  S   UNL A   1      35.273  32.538  30.190  1.00  0.00     0.127 S 
ATOM     65  O   UNL A   1      34.764  31.681  29.119  1.00  0.00    -0.237 OA
ATOM     66  O   UNL A   1      34.345  32.738  31.303  1.00  0.00    -0.237 OA
ATOM     67  O   UNL A   1      35.965  33.742  29.753  1.00  0.00    -0.744 OA
ENDBRANCH  61  64
ENDBRANCH  43  57
BRANCH  44  68
ATOM     68  C   UNL A   1      46.772  26.941  26.183  1.00  0.00     0.023 A 
ATOM     69  C   UNL A   1      46.913  27.202  24.808  1.00  0.00     0.012 A 
ATOM     70  C   UNL A   1      47.823  26.305  26.874  1.00  0.00     0.148 A 
ATOM     71  C   UNL A   1      48.082  26.843  24.134  1.00  0.00     0.002 A 
ATOM     72  C   UNL A   1      49.011  26.017  26.214  1.00  0.00     0.091 A 
ATOM     73  F   UNL A   1      47.655  26.031  28.176  1.00  0.00    -0.205 F 
ATOM     74  C   UNL A   1      49.137  26.272  24.841  1.00  0.00     0.022 A 
BRANCH  72  75
ATOM     75  S   UNL A   1      50.474  25.461  27.097  1.00  0.00     0.127 S 
ATOM     76  O   UNL A   1      50.728  26.582  27.995  1.00  0.00    -0.237 OA
ATOM     77  O   UNL A   1      49.992  24.243  27.751  1.00  0.00    -0.237 OA
ATOM     78  O   UNL A   1      51.479  25.223  26.068  1.00  0.00    -0.744 OA
ENDBRANCH  72  75
ENDBRANCH  44  68
BRANCH  56  79
ATOM     79  C   UNL A   1      45.012  33.011  29.150  1.00  0.00     0.023 A 
ATOM     80  C   UNL A   1      45.832  33.262  30.269  1.00  0.00     0.012 A 
ATOM     81  C   UNL A   1      44.918  33.978  28.131  1.00  0.00     0.148 A 
ATOM     82  C   UNL A   1      46.527  34.465  30.384  1.00  0.00     0.002 A 
ATOM     83  C   UNL A   1      45.645  35.159  28.233  1.00  0.00     0.091 A 
ATOM     84  F   UNL A   1      44.115  33.732  27.085  1.00  0.00    -0.205 F 
ATOM     85  C   UNL A   1      46.443  35.407  29.362  1.00  0.00     0.022 A 
BRANCH  83  86
ATOM     86  S   UNL A   1      45.656  36.388  26.923  1.00  0.00     0.127 S 
ATOM     87  O   UNL A   1      44.250  36.788  26.876  1.00  0.00    -0.237 OA
ATOM     88  O   UNL A   1      46.562  37.409  27.453  1.00  0.00    -0.237 OA
ATOM     89  O   UNL A   1      46.157  35.699  25.741  1.00  0.00    -0.744 OA
ENDBRANCH  83  86
ENDBRANCH  56  79
ENDBRANCH  30  31
ENDBRANCH  23  25
ENDBRANCH  22  23
ENDBRANCH   1  22
TORSDOF 16
ENDMDL
