MODEL 1
REMARK VINA RESULT:     -12.3      0.000      0.000
REMARK SMILES O=C(OCCOC(=O)c1ccc(-c2c3nc(c(-c4cccc(S(=O)(=O)[O-])c4F)c4ccc([nH]4)c(-c4cccc(S(=O)(=O)[O-])c4F)c4nc(c(-c5cccc(S(=O)(=O)[O-])c5F)c5ccc2[nH]5)C=C4)C=C3)cc1)C1=Cc2cc(S(F)(F)(F)(F)F)cc(Br)c2O[C@@H]1C(F)(F)F
REMARK SMILES IDX 5 1 4 2 3 3 2 4 1 5 72 6 73 7 88 8 74 9 87 10 75 11 86 12
REMARK SMILES IDX 76 13 84 14 83 15 85 16 89 17 90 18 91 19 92 20 77 21 78 22
REMARK SMILES IDX 79 23 80 24 81 25 82 26 6 27 7 28 8 29 9 30 10 31 71 32
REMARK SMILES IDX 11 33 70 34 12 35 13 36 14 37 64 38 15 39 69 40 63 41 65 42
REMARK SMILES IDX 16 43 68 44 62 45 61 46 17 48 49 49 29 50 48 51 30 52 33 53
REMARK SMILES IDX 47 54 66 55 31 56 32 57 46 59 67 60 34 61 18 62 19 63 27 64
REMARK SMILES IDX 20 65 22 66 28 67 21 68 23 69 24 70 25 71 26 72 50 73 51 74
REMARK SMILES IDX 59 75 52 76 54 77 60 78 53 79 55 80 56 81 57 82 58 83 35 84
REMARK SMILES IDX 36 85 44 86 37 87 39 88 45 89 38 90 40 91 41 92 42 93 43 94
REMARK H PARENT 65 47 33 58
REMARK Flexibility Score: inf
ROOT
ATOM      1  C   UNL A   1      33.123  30.279  27.243  1.00  0.00     0.275 C 
ENDROOT
BRANCH   1   2
ATOM      2  C   UNL A   1      33.808  29.028  26.718  1.00  0.00     0.275 C 
BRANCH   2   3
ATOM      3  O   UNL A   1      33.067  27.882  27.111  1.00  0.00    -0.459 OA
BRANCH   3   4
ATOM      4  C   UNL A   1      31.832  27.583  26.476  1.00  0.00     0.338 C 
ATOM      5  O   UNL A   1      30.820  27.266  27.173  1.00  0.00    -0.246 OA
BRANCH   4   6
ATOM      6  C   UNL A   1      31.723  27.642  24.961  1.00  0.00     0.087 C 
ATOM      7  C   UNL A   1      32.358  26.712  24.196  1.00  0.00     0.027 C 
ATOM      8  C   UNL A   1      30.906  28.739  24.300  1.00  0.00     0.316 C 
ATOM      9  C   UNL A   1      33.177  25.615  24.858  1.00  0.00     0.020 A 
ATOM     10  O   UNL A   1      31.585  25.409  26.611  1.00  0.00    -0.474 OA
ATOM     11  C   UNL A   1      34.371  25.276  24.244  1.00  0.00     0.036 A 
ATOM     12  C   UNL A   1      32.725  24.939  25.909  1.00  0.00     0.142 A 
ATOM     13  C   UNL A   1      34.881  24.016  24.638  1.00  0.00     0.109 A 
ATOM     14  C   UNL A   1      33.354  23.789  26.322  1.00  0.00     0.062 A 
ATOM     15  C   UNL A   1      34.507  23.362  25.722  1.00  0.00     0.044 A 
ATOM     16  Br  UNL A   1      32.587  22.744  27.792  1.00  0.00    -0.047 Br
BRANCH   8  17
ATOM     17  C   UNL A   1      29.791  28.115  23.478  1.00  0.00     0.430 C 
ATOM     18  F   UNL A   1      28.768  28.962  23.403  1.00  0.00    -0.167 F 
ATOM     19  F   UNL A   1      30.236  27.851  22.253  1.00  0.00    -0.167 F 
ATOM     20  F   UNL A   1      29.391  26.986  24.056  1.00  0.00    -0.167 F 
ENDBRANCH   8  17
BRANCH  13  21
ATOM     21  S   UNL A   1      36.133  23.247  23.582  1.00  0.00     0.310 S 
ATOM     22  F   UNL A   1      36.060  21.885  24.391  1.00  0.00    -0.094 F 
ATOM     23  F   UNL A   1      37.236  23.717  24.605  1.00  0.00    -0.094 F 
ATOM     24  F   UNL A   1      37.213  22.583  22.680  1.00  0.00    -0.094 F 
ATOM     25  F   UNL A   1      35.003  22.666  22.643  1.00  0.00    -0.094 F 
ATOM     26  F   UNL A   1      35.019  23.818  24.546  1.00  0.00    -0.094 F 
ENDBRANCH  13  21
ENDBRANCH   4   6
ENDBRANCH   3   4
ENDBRANCH   2   3
ENDBRANCH   1   2
BRANCH   1  27
ATOM     27  O   UNL A   1      34.042  31.362  27.235  1.00  0.00    -0.458 OA
BRANCH  27  28
ATOM     28  C   UNL A   1      34.761  31.691  28.415  1.00  0.00     0.338 C 
ATOM     29  O   UNL A   1      34.357  32.639  29.160  1.00  0.00    -0.246 OA
BRANCH  28  30
ATOM     30  C   UNL A   1      36.012  30.912  28.786  1.00  0.00     0.060 A 
ATOM     31  C   UNL A   1      37.191  31.476  28.326  1.00  0.00     0.016 A 
ATOM     32  C   UNL A   1      36.021  29.842  29.573  1.00  0.00     0.016 A 
ATOM     33  C   UNL A   1      38.330  30.659  28.520  1.00  0.00     0.010 A 
ATOM     34  C   UNL A   1      37.192  29.172  29.829  1.00  0.00     0.010 A 
ATOM     35  C   UNL A   1      38.387  29.640  29.357  1.00  0.00    -0.014 A 
BRANCH  35  36
ATOM     36  C   UNL A   1      39.711  29.018  29.774  1.00  0.00     0.031 A 
ATOM     37  C   UNL A   1      40.259  27.937  29.082  1.00  0.00     0.074 A 
ATOM     38  C   UNL A   1      40.239  29.538  30.944  1.00  0.00     0.049 A 
ATOM     39  N   UNL A   1      41.364  27.254  29.385  1.00  0.00    -0.248 NA
ATOM     40  C   UNL A   1      39.680  27.362  27.859  1.00  0.00     0.031 C 
ATOM     41  C   UNL A   1      39.696  30.634  31.642  1.00  0.00     0.029 A 
ATOM     42  N   UNL A   1      41.352  29.108  31.631  1.00  0.00    -0.354 N 
ATOM     43  C   UNL A   1      41.580  26.300  28.477  1.00  0.00     0.074 A 
ATOM     44  C   UNL A   1      40.496  26.353  27.485  1.00  0.00     0.031 C 
ATOM     45  C   UNL A   1      40.464  30.854  32.742  1.00  0.00     0.029 A 
ATOM     46  C   UNL A   1      41.499  29.900  32.749  1.00  0.00     0.049 A 
ATOM     47  H   UNL A   1      41.940  28.364  31.371  1.00  0.00     0.167 HD
ATOM     48  C   UNL A   1      42.638  25.391  28.434  1.00  0.00     0.034 A 
ATOM     49  C   UNL A   1      42.474  29.811  33.730  1.00  0.00     0.034 A 
ATOM     50  C   UNL A   1      43.637  25.331  29.392  1.00  0.00     0.049 A 
ATOM     51  C   UNL A   1      43.500  28.864  33.719  1.00  0.00     0.074 A 
ATOM     52  C   UNL A   1      44.716  24.425  29.362  1.00  0.00     0.029 A 
ATOM     53  N   UNL A   1      43.771  26.106  30.523  1.00  0.00    -0.354 N 
ATOM     54  N   UNL A   1      43.738  27.937  32.791  1.00  0.00    -0.248 NA
ATOM     55  C   UNL A   1      44.519  28.739  34.770  1.00  0.00     0.031 C 
ATOM     56  C   UNL A   1      45.483  24.646  30.462  1.00  0.00     0.029 A 
ATOM     57  C   UNL A   1      44.897  25.693  31.199  1.00  0.00     0.049 A 
ATOM     58  H   UNL A   1      43.165  26.832  30.799  1.00  0.00     0.167 HD
ATOM     59  C   UNL A   1      44.820  27.227  33.115  1.00  0.00     0.074 A 
ATOM     60  C   UNL A   1      45.334  27.728  34.397  1.00  0.00     0.031 C 
ATOM     61  C   UNL A   1      45.401  26.184  32.393  1.00  0.00     0.034 A 
BRANCH  48  62
ATOM     62  C   UNL A   1      42.698  24.413  27.272  1.00  0.00     0.023 A 
ATOM     63  C   UNL A   1      43.551  24.607  26.198  1.00  0.00     0.012 A 
ATOM     64  C   UNL A   1      41.988  23.297  27.396  1.00  0.00     0.148 A 
ATOM     65  C   UNL A   1      43.368  23.680  25.146  1.00  0.00     0.002 A 
ATOM     66  C   UNL A   1      41.963  22.370  26.383  1.00  0.00     0.091 A 
ATOM     67  F   UNL A   1      41.295  23.076  28.509  1.00  0.00    -0.205 F 
ATOM     68  C   UNL A   1      42.735  22.526  25.266  1.00  0.00     0.022 A 
BRANCH  66  69
ATOM     69  S   UNL A   1      40.891  20.919  26.529  1.00  0.00     0.127 S 
ATOM     70  O   UNL A   1      40.886  20.433  27.980  1.00  0.00    -0.237 OA
ATOM     71  O   UNL A   1      39.467  21.291  26.111  1.00  0.00    -0.237 OA
ATOM     72  O   UNL A   1      41.476  19.673  25.513  1.00  0.00    -0.744 OA
ENDBRANCH  66  69
ENDBRANCH  48  62
BRANCH  49  73
ATOM     73  C   UNL A   1      42.423  30.801  34.883  1.00  0.00     0.023 A 
ATOM     74  C   UNL A   1      41.656  30.534  36.006  1.00  0.00     0.012 A 
ATOM     75  C   UNL A   1      43.019  31.976  34.719  1.00  0.00     0.148 A 
ATOM     76  C   UNL A   1      41.340  31.681  36.770  1.00  0.00     0.002 A 
ATOM     77  C   UNL A   1      42.767  33.014  35.584  1.00  0.00     0.091 A 
ATOM     78  F   UNL A   1      43.867  32.150  33.710  1.00  0.00    -0.205 F 
ATOM     79  C   UNL A   1      41.973  32.838  36.682  1.00  0.00     0.022 A 
BRANCH  77  80
ATOM     80  S   UNL A   1      43.500  34.638  35.265  1.00  0.00     0.127 S 
ATOM     81  O   UNL A   1      43.015  35.633  36.322  1.00  0.00    -0.237 OA
ATOM     82  O   UNL A   1      45.025  34.531  35.328  1.00  0.00    -0.237 OA
ATOM     83  O   UNL A   1      43.030  35.181  33.714  1.00  0.00    -0.744 OA
ENDBRANCH  77  80
ENDBRANCH  49  73
BRANCH  61  84
ATOM     84  C   UNL A   1      46.665  25.547  32.949  1.00  0.00     0.023 A 
ATOM     85  C   UNL A   1      47.848  26.112  32.507  1.00  0.00     0.012 A 
ATOM     86  C   UNL A   1      46.661  24.570  33.849  1.00  0.00     0.148 A 
ATOM     87  C   UNL A   1      49.004  25.378  32.863  1.00  0.00     0.002 A 
ATOM     88  C   UNL A   1      47.839  23.988  34.253  1.00  0.00     0.091 A 
ATOM     89  F   UNL A   1      45.510  24.151  34.364  1.00  0.00    -0.205 F 
ATOM     90  C   UNL A   1      49.044  24.459  33.810  1.00  0.00     0.022 A 
BRANCH  88  91
ATOM     91  S   UNL A   1      47.794  22.579  35.388  1.00  0.00     0.127 S 
ATOM     92  O   UNL A   1      47.135  21.385  34.692  1.00  0.00    -0.237 OA
ATOM     93  O   UNL A   1      49.221  22.206  35.796  1.00  0.00    -0.237 OA
ATOM     94  O   UNL A   1      46.893  22.996  36.780  1.00  0.00    -0.744 OA
ENDBRANCH  88  91
ENDBRANCH  61  84
ENDBRANCH  35  36
ENDBRANCH  28  30
ENDBRANCH  27  28
ENDBRANCH   1  27
TORSDOF 16
ENDMDL
MODEL 2
REMARK VINA RESULT:     -12.3      4.573      9.623
REMARK SMILES O=C(OCCOC(=O)c1ccc(-c2c3nc(c(-c4cccc(S(=O)(=O)[O-])c4F)c4ccc([nH]4)c(-c4cccc(S(=O)(=O)[O-])c4F)c4nc(c(-c5cccc(S(=O)(=O)[O-])c5F)c5ccc2[nH]5)C=C4)C=C3)cc1)C1=Cc2cc(S(F)(F)(F)(F)F)cc(Br)c2O[C@@H]1C(F)(F)F
REMARK SMILES IDX 5 1 4 2 3 3 2 4 1 5 72 6 73 7 88 8 74 9 87 10 75 11 86 12
REMARK SMILES IDX 76 13 84 14 83 15 85 16 89 17 90 18 91 19 92 20 77 21 78 22
REMARK SMILES IDX 79 23 80 24 81 25 82 26 6 27 7 28 8 29 9 30 10 31 71 32
REMARK SMILES IDX 11 33 70 34 12 35 13 36 14 37 64 38 15 39 69 40 63 41 65 42
REMARK SMILES IDX 16 43 68 44 62 45 61 46 17 48 49 49 29 50 48 51 30 52 33 53
REMARK SMILES IDX 47 54 66 55 31 56 32 57 46 59 67 60 34 61 18 62 19 63 27 64
REMARK SMILES IDX 20 65 22 66 28 67 21 68 23 69 24 70 25 71 26 72 50 73 51 74
REMARK SMILES IDX 59 75 52 76 54 77 60 78 53 79 55 80 56 81 57 82 58 83 35 84
REMARK SMILES IDX 36 85 44 86 37 87 39 88 45 89 38 90 40 91 41 92 42 93 43 94
REMARK H PARENT 65 47 33 58
REMARK Flexibility Score: inf
ROOT
ATOM      1  C   UNL A   1      37.985  22.022  25.295  1.00  0.00     0.275 C 
ENDROOT
BRANCH   1   2
ATOM      2  C   UNL A   1      36.938  23.044  25.707  1.00  0.00     0.275 C 
BRANCH   2   3
ATOM      3  O   UNL A   1      36.424  23.688  24.551  1.00  0.00    -0.459 OA
BRANCH   3   4
ATOM      4  C   UNL A   1      35.387  23.075  23.798  1.00  0.00     0.338 C 
ATOM      5  O   UNL A   1      35.458  23.041  22.531  1.00  0.00    -0.246 OA
BRANCH   4   6
ATOM      6  C   UNL A   1      34.192  22.462  24.510  1.00  0.00     0.087 C 
ATOM      7  C   UNL A   1      33.258  23.265  25.088  1.00  0.00     0.027 C 
ATOM      8  C   UNL A   1      34.041  20.951  24.577  1.00  0.00     0.316 C 
ATOM      9  C   UNL A   1      33.410  24.776  25.022  1.00  0.00     0.020 A 
ATOM     10  O   UNL A   1      34.237  24.651  22.797  1.00  0.00    -0.474 OA
ATOM     11  C   UNL A   1      33.075  25.484  26.164  1.00  0.00     0.036 A 
ATOM     12  C   UNL A   1      33.745  25.400  23.898  1.00  0.00     0.142 A 
ATOM     13  C   UNL A   1      32.840  26.861  25.938  1.00  0.00     0.109 A 
ATOM     14  C   UNL A   1      33.619  26.764  23.792  1.00  0.00     0.062 A 
ATOM     15  C   UNL A   1      33.235  27.521  24.865  1.00  0.00     0.044 A 
ATOM     16  Br  UNL A   1      33.995  27.639  22.079  1.00  0.00    -0.047 Br
BRANCH   8  17
ATOM     17  C   UNL A   1      32.739  20.542  23.907  1.00  0.00     0.430 C 
ATOM     18  F   UNL A   1      31.744  20.628  24.786  1.00  0.00    -0.167 F 
ATOM     19  F   UNL A   1      32.494  21.352  22.881  1.00  0.00    -0.167 F 
ATOM     20  F   UNL A   1      32.838  19.291  23.470  1.00  0.00    -0.167 F 
ENDBRANCH   8  17
BRANCH  13  21
ATOM     21  S   UNL A   1      31.936  27.781  27.207  1.00  0.00     0.310 S 
ATOM     22  F   UNL A   1      31.724  29.019  26.238  1.00  0.00    -0.094 F 
ATOM     23  F   UNL A   1      33.296  28.445  27.646  1.00  0.00    -0.094 F 
ATOM     24  F   UNL A   1      31.163  28.579  28.296  1.00  0.00    -0.094 F 
ATOM     25  F   UNL A   1      30.567  27.213  26.663  1.00  0.00    -0.094 F 
ATOM     26  F   UNL A   1      32.692  27.053  26.025  1.00  0.00    -0.094 F 
ENDBRANCH  13  21
ENDBRANCH   4   6
ENDBRANCH   3   4
ENDBRANCH   2   3
ENDBRANCH   1   2
BRANCH   1  27
ATOM     27  O   UNL A   1      38.847  21.759  26.393  1.00  0.00    -0.458 OA
BRANCH  27  28
ATOM     28  C   UNL A   1      40.140  22.343  26.436  1.00  0.00     0.338 C 
ATOM     29  O   UNL A   1      41.156  21.665  26.083  1.00  0.00    -0.246 OA
BRANCH  28  30
ATOM     30  C   UNL A   1      40.311  23.779  26.904  1.00  0.00     0.060 A 
ATOM     31  C   UNL A   1      40.865  23.905  28.167  1.00  0.00     0.016 A 
ATOM     32  C   UNL A   1      40.062  24.846  26.152  1.00  0.00     0.016 A 
ATOM     33  C   UNL A   1      40.857  25.228  28.668  1.00  0.00     0.010 A 
ATOM     34  C   UNL A   1      40.206  26.112  26.665  1.00  0.00     0.010 A 
ATOM     35  C   UNL A   1      40.693  26.308  27.927  1.00  0.00    -0.014 A 
BRANCH  35  36
ATOM     36  C   UNL A   1      41.028  27.697  28.449  1.00  0.00     0.031 A 
ATOM     37  C   UNL A   1      40.032  28.569  28.891  1.00  0.00     0.074 A 
ATOM     38  C   UNL A   1      42.364  28.040  28.332  1.00  0.00     0.049 A 
ATOM     39  N   UNL A   1      40.179  29.831  29.297  1.00  0.00    -0.248 NA
ATOM     40  C   UNL A   1      38.607  28.216  28.983  1.00  0.00     0.031 C 
ATOM     41  C   UNL A   1      43.375  27.163  27.896  1.00  0.00     0.029 A 
ATOM     42  N   UNL A   1      42.949  29.257  28.606  1.00  0.00    -0.354 N 
ATOM     43  C   UNL A   1      38.999  30.338  29.663  1.00  0.00     0.074 A 
ATOM     44  C   UNL A   1      37.971  29.308  29.460  1.00  0.00     0.031 C 
ATOM     45  C   UNL A   1      44.552  27.844  27.895  1.00  0.00     0.029 A 
ATOM     46  C   UNL A   1      44.296  29.157  28.332  1.00  0.00     0.049 A 
ATOM     47  H   UNL A   1      42.487  30.058  28.940  1.00  0.00     0.167 HD
ATOM     48  C   UNL A   1      38.741  31.616  30.159  1.00  0.00     0.034 A 
ATOM     49  C   UNL A   1      45.261  30.144  28.448  1.00  0.00     0.034 A 
ATOM     50  C   UNL A   1      39.714  32.590  30.317  1.00  0.00     0.049 A 
ATOM     51  C   UNL A   1      44.993  31.442  28.889  1.00  0.00     0.074 A 
ATOM     52  C   UNL A   1      39.472  33.882  30.823  1.00  0.00     0.029 A 
ATOM     53  N   UNL A   1      41.056  32.498  30.019  1.00  0.00    -0.354 N 
ATOM     54  N   UNL A   1      43.821  31.936  29.292  1.00  0.00    -0.248 NA
ATOM     55  C   UNL A   1      46.002  32.506  28.986  1.00  0.00     0.031 C 
ATOM     56  C   UNL A   1      40.650  34.562  30.822  1.00  0.00     0.029 A 
ATOM     57  C   UNL A   1      41.647  33.707  30.315  1.00  0.00     0.049 A 
ATOM     58  H   UNL A   1      41.513  31.705  29.657  1.00  0.00     0.167 HD
ATOM     59  C   UNL A   1      43.961  33.211  29.660  1.00  0.00     0.074 A 
ATOM     60  C   UNL A   1      45.364  33.598  29.461  1.00  0.00     0.031 C 
ATOM     61  C   UNL A   1      42.976  34.066  30.156  1.00  0.00     0.034 A 
BRANCH  48  62
ATOM     62  C   UNL A   1      37.313  31.959  30.550  1.00  0.00     0.023 A 
ATOM     63  C   UNL A   1      36.880  31.895  31.864  1.00  0.00     0.012 A 
ATOM     64  C   UNL A   1      36.534  32.448  29.591  1.00  0.00     0.148 A 
ATOM     65  C   UNL A   1      35.490  32.105  32.021  1.00  0.00     0.002 A 
ATOM     66  C   UNL A   1      35.221  32.761  29.848  1.00  0.00     0.091 A 
ATOM     67  F   UNL A   1      37.029  32.636  28.371  1.00  0.00    -0.205 F 
ATOM     68  C   UNL A   1      34.710  32.664  31.113  1.00  0.00     0.022 A 
BRANCH  66  69
ATOM     69  S   UNL A   1      34.153  33.309  28.494  1.00  0.00     0.127 S 
ATOM     70  O   UNL A   1      33.643  32.090  27.722  1.00  0.00    -0.237 OA
ATOM     71  O   UNL A   1      32.964  34.086  29.064  1.00  0.00    -0.237 OA
ATOM     72  O   UNL A   1      35.042  34.320  27.440  1.00  0.00    -0.744 OA
ENDBRANCH  66  69
ENDBRANCH  48  62
BRANCH  49  73
ATOM     73  C   UNL A   1      46.692  29.796  28.073  1.00  0.00     0.023 A 
ATOM     74  C   UNL A   1      47.104  29.840  26.751  1.00  0.00     0.012 A 
ATOM     75  C   UNL A   1      47.485  29.319  29.026  1.00  0.00     0.148 A 
ATOM     76  C   UNL A   1      48.271  29.086  26.489  1.00  0.00     0.002 A 
ATOM     77  C   UNL A   1      48.677  28.714  28.706  1.00  0.00     0.091 A 
ATOM     78  F   UNL A   1      47.122  29.428  30.300  1.00  0.00    -0.205 F 
ATOM     79  C   UNL A   1      49.119  28.670  27.413  1.00  0.00     0.022 A 
BRANCH  77  80
ATOM     80  S   UNL A   1      49.677  27.967  30.017  1.00  0.00     0.127 S 
ATOM     81  O   UNL A   1      48.870  26.867  30.709  1.00  0.00    -0.237 OA
ATOM     82  O   UNL A   1      50.945  27.363  29.409  1.00  0.00    -0.237 OA
ATOM     83  O   UNL A   1      50.106  29.164  31.159  1.00  0.00    -0.744 OA
ENDBRANCH  77  80
ENDBRANCH  49  73
BRANCH  61  84
ATOM     84  C   UNL A   1      43.385  35.477  30.547  1.00  0.00     0.023 A 
ATOM     85  C   UNL A   1      43.838  35.615  31.848  1.00  0.00     0.012 A 
ATOM     86  C   UNL A   1      43.388  36.502  29.704  1.00  0.00     0.148 A 
ATOM     87  C   UNL A   1      44.010  36.958  32.257  1.00  0.00     0.002 A 
ATOM     88  C   UNL A   1      43.698  37.767  30.143  1.00  0.00     0.091 A 
ATOM     89  F   UNL A   1      43.090  36.305  28.423  1.00  0.00    -0.205 F 
ATOM     90  C   UNL A   1      44.097  37.986  31.432  1.00  0.00     0.022 A 
BRANCH  88  91
ATOM     91  S   UNL A   1      43.576  39.164  28.998  1.00  0.00     0.127 S 
ATOM     92  O   UNL A   1      44.083  40.433  29.686  1.00  0.00    -0.237 OA
ATOM     93  O   UNL A   1      44.426  38.883  27.757  1.00  0.00    -0.237 OA
ATOM     94  O   UNL A   1      41.944  39.380  28.534  1.00  0.00    -0.744 OA
ENDBRANCH  88  91
ENDBRANCH  61  84
ENDBRANCH  35  36
ENDBRANCH  28  30
ENDBRANCH  27  28
ENDBRANCH   1  27
TORSDOF 16
ENDMDL
MODEL 3
REMARK VINA RESULT:     -12.1      4.726      9.699
REMARK SMILES O=C(OCCOC(=O)c1ccc(-c2c3nc(c(-c4cccc(S(=O)(=O)[O-])c4F)c4ccc([nH]4)c(-c4cccc(S(=O)(=O)[O-])c4F)c4nc(c(-c5cccc(S(=O)(=O)[O-])c5F)c5ccc2[nH]5)C=C4)C=C3)cc1)C1=Cc2cc(S(F)(F)(F)(F)F)cc(Br)c2O[C@@H]1C(F)(F)F
REMARK SMILES IDX 5 1 4 2 3 3 2 4 1 5 72 6 73 7 88 8 74 9 87 10 75 11 86 12
REMARK SMILES IDX 76 13 84 14 83 15 85 16 89 17 90 18 91 19 92 20 77 21 78 22
REMARK SMILES IDX 79 23 80 24 81 25 82 26 6 27 7 28 8 29 9 30 10 31 71 32
REMARK SMILES IDX 11 33 70 34 12 35 13 36 14 37 64 38 15 39 69 40 63 41 65 42
REMARK SMILES IDX 16 43 68 44 62 45 61 46 17 48 49 49 29 50 48 51 30 52 33 53
REMARK SMILES IDX 47 54 66 55 31 56 32 57 46 59 67 60 34 61 18 62 19 63 27 64
REMARK SMILES IDX 20 65 22 66 28 67 21 68 23 69 24 70 25 71 26 72 50 73 51 74
REMARK SMILES IDX 59 75 52 76 54 77 60 78 53 79 55 80 56 81 57 82 58 83 35 84
REMARK SMILES IDX 36 85 44 86 37 87 39 88 45 89 38 90 40 91 41 92 42 93 43 94
REMARK H PARENT 65 47 33 58
REMARK Flexibility Score: inf
ROOT
ATOM      1  C   UNL A   1      37.295  21.233  24.562  1.00  0.00     0.275 C 
ENDROOT
BRANCH   1   2
ATOM      2  C   UNL A   1      35.779  21.121  24.527  1.00  0.00     0.275 C 
BRANCH   2   3
ATOM      3  O   UNL A   1      35.224  22.345  24.069  1.00  0.00    -0.459 OA
BRANCH   3   4
ATOM      4  C   UNL A   1      35.309  23.509  24.877  1.00  0.00     0.338 C 
ATOM      5  O   UNL A   1      36.093  24.453  24.550  1.00  0.00    -0.246 OA
BRANCH   4   6
ATOM      6  C   UNL A   1      34.462  23.626  26.133  1.00  0.00     0.087 C 
ATOM      7  C   UNL A   1      33.552  24.632  26.250  1.00  0.00     0.027 C 
ATOM      8  C   UNL A   1      34.631  22.620  27.260  1.00  0.00     0.316 C 
ATOM      9  C   UNL A   1      33.384  25.638  25.123  1.00  0.00     0.020 A 
ATOM     10  O   UNL A   1      33.668  23.937  23.487  1.00  0.00    -0.474 OA
ATOM     11  C   UNL A   1      33.196  26.959  25.494  1.00  0.00     0.036 A 
ATOM     12  C   UNL A   1      33.313  25.263  23.850  1.00  0.00     0.142 A 
ATOM     13  C   UNL A   1      32.648  27.770  24.472  1.00  0.00     0.109 A 
ATOM     14  C   UNL A   1      32.899  26.147  22.883  1.00  0.00     0.062 A 
ATOM     15  C   UNL A   1      32.639  27.454  23.190  1.00  0.00     0.044 A 
ATOM     16  Br  UNL A   1      32.680  25.526  21.037  1.00  0.00    -0.047 Br
BRANCH   8  17
ATOM     17  C   UNL A   1      33.313  21.900  27.497  1.00  0.00     0.430 C 
ATOM     18  F   UNL A   1      32.556  21.991  26.407  1.00  0.00    -0.167 F 
ATOM     19  F   UNL A   1      33.551  20.619  27.765  1.00  0.00    -0.167 F 
ATOM     20  F   UNL A   1      32.681  22.458  28.525  1.00  0.00    -0.167 F 
ENDBRANCH   8  17
BRANCH  13  21
ATOM     21  S   UNL A   1      31.908  29.349  24.955  1.00  0.00     0.310 S 
ATOM     22  F   UNL A   1      31.662  28.844  26.438  1.00  0.00    -0.094 F 
ATOM     23  F   UNL A   1      30.492  28.758  24.592  1.00  0.00    -0.094 F 
ATOM     24  F   UNL A   1      31.266  30.702  25.374  1.00  0.00    -0.094 F 
ATOM     25  F   UNL A   1      33.315  29.874  25.443  1.00  0.00    -0.094 F 
ATOM     26  F   UNL A   1      32.557  27.943  24.640  1.00  0.00    -0.094 F 
ENDBRANCH  13  21
ENDBRANCH   4   6
ENDBRANCH   3   4
ENDBRANCH   2   3
ENDBRANCH   1   2
BRANCH   1  27
ATOM     27  O   UNL A   1      37.742  21.197  25.909  1.00  0.00    -0.458 OA
BRANCH  27  28
ATOM     28  C   UNL A   1      39.110  21.434  26.209  1.00  0.00     0.338 C 
ATOM     29  O   UNL A   1      39.958  20.495  26.088  1.00  0.00    -0.246 OA
BRANCH  28  30
ATOM     30  C   UNL A   1      39.559  22.809  26.676  1.00  0.00     0.060 A 
ATOM     31  C   UNL A   1      40.682  22.797  27.487  1.00  0.00     0.016 A 
ATOM     32  C   UNL A   1      39.012  23.950  26.272  1.00  0.00     0.016 A 
ATOM     33  C   UNL A   1      40.988  24.053  28.060  1.00  0.00     0.010 A 
ATOM     34  C   UNL A   1      39.454  25.152  26.773  1.00  0.00     0.010 A 
ATOM     35  C   UNL A   1      40.521  25.209  27.625  1.00  0.00    -0.014 A 
BRANCH  35  36
ATOM     36  C   UNL A   1      41.137  26.533  28.049  1.00  0.00     0.031 A 
ATOM     37  C   UNL A   1      40.417  27.465  28.799  1.00  0.00     0.074 A 
ATOM     38  C   UNL A   1      42.399  26.765  27.529  1.00  0.00     0.049 A 
ATOM     39  N   UNL A   1      40.807  28.686  29.169  1.00  0.00    -0.248 NA
ATOM     40  C   UNL A   1      39.063  27.233  29.322  1.00  0.00     0.031 C 
ATOM     41  C   UNL A   1      43.134  25.827  26.779  1.00  0.00     0.029 A 
ATOM     42  N   UNL A   1      43.159  27.909  27.635  1.00  0.00    -0.354 N 
ATOM     43  C   UNL A   1      39.855  29.273  29.896  1.00  0.00     0.074 A 
ATOM     44  C   UNL A   1      38.717  28.349  30.000  1.00  0.00     0.031 C 
ATOM     45  C   UNL A   1      44.315  26.401  26.427  1.00  0.00     0.029 A 
ATOM     46  C   UNL A   1      44.338  27.707  26.952  1.00  0.00     0.049 A 
ATOM     47  H   UNL A   1      42.903  28.729  28.114  1.00  0.00     0.167 HD
ATOM     48  C   UNL A   1      39.891  30.541  30.478  1.00  0.00     0.034 A 
ATOM     49  C   UNL A   1      45.385  28.598  26.784  1.00  0.00     0.034 A 
ATOM     50  C   UNL A   1      40.957  31.416  30.347  1.00  0.00     0.049 A 
ATOM     51  C   UNL A   1      45.397  29.889  27.317  1.00  0.00     0.074 A 
ATOM     52  C   UNL A   1      41.013  32.696  30.933  1.00  0.00     0.029 A 
ATOM     53  N   UNL A   1      42.125  31.224  29.643  1.00  0.00    -0.354 N 
ATOM     54  N   UNL A   1      44.462  30.461  28.077  1.00  0.00    -0.248 NA
ATOM     55  C   UNL A   1      46.487  30.854  27.119  1.00  0.00     0.031 C 
ATOM     56  C   UNL A   1      42.194  33.270  30.580  1.00  0.00     0.029 A 
ATOM     57  C   UNL A   1      42.896  32.359  29.768  1.00  0.00     0.049 A 
ATOM     58  H   UNL A   1      42.368  30.414  29.138  1.00  0.00     0.167 HD
ATOM     59  C   UNL A   1      44.834  31.698  28.412  1.00  0.00     0.074 A 
ATOM     60  C   UNL A   1      46.139  31.971  27.794  1.00  0.00     0.031 C 
ATOM     61  C   UNL A   1      44.140  32.608  29.211  1.00  0.00     0.034 A 
BRANCH  48  62
ATOM     62  C   UNL A   1      38.694  30.986  31.302  1.00  0.00     0.023 A 
ATOM     63  C   UNL A   1      38.671  30.864  32.682  1.00  0.00     0.012 A 
ATOM     64  C   UNL A   1      37.723  31.617  30.651  1.00  0.00     0.148 A 
ATOM     65  C   UNL A   1      37.426  31.192  33.267  1.00  0.00     0.002 A 
ATOM     66  C   UNL A   1      36.592  32.031  31.312  1.00  0.00     0.091 A 
ATOM     67  F   UNL A   1      37.846  31.849  29.347  1.00  0.00    -0.205 F 
ATOM     68  C   UNL A   1      36.477  31.888  32.667  1.00  0.00     0.022 A 
BRANCH  66  69
ATOM     69  S   UNL A   1      35.235  32.778  30.376  1.00  0.00     0.127 S 
ATOM     70  O   UNL A   1      34.718  31.776  29.340  1.00  0.00    -0.237 OA
ATOM     71  O   UNL A   1      34.101  33.153  31.333  1.00  0.00    -0.237 OA
ATOM     72  O   UNL A   1      35.797  34.183  29.579  1.00  0.00    -0.744 OA
ENDBRANCH  66  69
ENDBRANCH  48  62
BRANCH  49  73
ATOM     73  C   UNL A   1      46.589  28.146  25.973  1.00  0.00     0.023 A 
ATOM     74  C   UNL A   1      46.588  28.255  24.592  1.00  0.00     0.012 A 
ATOM     75  C   UNL A   1      47.571  27.524  26.615  1.00  0.00     0.148 A 
ATOM     76  C   UNL A   1      47.529  27.416  23.951  1.00  0.00     0.002 A 
ATOM     77  C   UNL A   1      48.535  26.836  25.918  1.00  0.00     0.091 A 
ATOM     78  F   UNL A   1      47.622  27.566  27.943  1.00  0.00    -0.205 F 
ATOM     79  C   UNL A   1      48.562  26.851  24.551  1.00  0.00     0.022 A 
BRANCH  77  80
ATOM     80  S   UNL A   1      49.790  25.897  26.824  1.00  0.00     0.127 S 
ATOM     81  O   UNL A   1      50.899  25.466  25.860  1.00  0.00    -0.237 OA
ATOM     82  O   UNL A   1      50.386  26.774  27.927  1.00  0.00    -0.237 OA
ATOM     83  O   UNL A   1      49.073  24.511  27.521  1.00  0.00    -0.744 OA
ENDBRANCH  77  80
ENDBRANCH  49  73
BRANCH  61  84
ATOM     84  C   UNL A   1      44.789  33.955  29.488  1.00  0.00     0.023 A 
ATOM     85  C   UNL A   1      45.588  33.998  30.617  1.00  0.00     0.012 A 
ATOM     86  C   UNL A   1      44.673  35.006  28.684  1.00  0.00     0.148 A 
ATOM     87  C   UNL A   1      46.007  35.301  30.975  1.00  0.00     0.002 A 
ATOM     88  C   UNL A   1      45.223  36.216  29.033  1.00  0.00     0.091 A 
ATOM     89  F   UNL A   1      44.020  34.887  27.532  1.00  0.00    -0.205 F 
ATOM     90  C   UNL A   1      45.977  36.345  30.166  1.00  0.00     0.022 A 
BRANCH  88  91
ATOM     91  S   UNL A   1      44.946  37.660  27.976  1.00  0.00     0.127 S 
ATOM     92  O   UNL A   1      45.510  38.908  28.660  1.00  0.00    -0.237 OA
ATOM     93  O   UNL A   1      45.650  37.452  26.634  1.00  0.00    -0.237 OA
ATOM     94  O   UNL A   1      43.268  37.862  27.716  1.00  0.00    -0.744 OA
ENDBRANCH  88  91
ENDBRANCH  61  84
ENDBRANCH  35  36
ENDBRANCH  28  30
ENDBRANCH  27  28
ENDBRANCH   1  27
TORSDOF 16
ENDMDL
