MODEL 1
REMARK VINA RESULT:     -12.9      0.000      0.000
REMARK SMILES C[C@H](C(=O)OCCOC(=O)c1ccc(-c2c3nc(c(-c4cccc(S(=O)(=O)[O-])c4F)c4ccc([nH]4)c(-c4cccc(S(=O)(=O)[O-])c4F)c4nc(c(-c5cccc(S(=O)(=O)[O-])c5F)c5ccc2[nH]5)C=C4)C=C3)cc1)c1ccc2c3cc(Cl)ccc3n(C(=O)c3cocn3)c2c1
REMARK SMILES IDX 6 1 5 2 3 3 4 4 2 5 1 6 74 7 75 8 94 9 76 10 93 11 77 12
REMARK SMILES IDX 85 13 78 14 84 15 79 16 83 17 80 18 82 19 81 20 86 21 87 22
REMARK SMILES IDX 88 23 89 24 92 25 90 26 91 27 7 28 8 29 9 30 10 31 11 32
REMARK SMILES IDX 12 33 73 34 13 35 72 36 14 37 15 38 16 39 66 40 17 41 71 42
REMARK SMILES IDX 65 43 67 44 18 45 70 46 64 47 63 48 19 50 51 51 31 52 50 53
REMARK SMILES IDX 32 54 35 55 49 56 68 57 33 58 34 59 48 61 69 62 36 63 20 64
REMARK SMILES IDX 21 65 29 66 22 67 24 68 30 69 23 70 25 71 26 72 27 73 28 74
REMARK SMILES IDX 52 75 53 76 61 77 54 78 56 79 62 80 55 81 57 82 58 83 59 84
REMARK SMILES IDX 60 85 37 86 38 87 46 88 39 89 41 90 47 91 40 92 42 93 43 94
REMARK SMILES IDX 44 95 45 96
REMARK H PARENT 67 49 35 60
REMARK Flexibility Score: inf
ROOT
ATOM      1  C   UNL A   1      34.768  20.733  25.551  1.00  0.00     0.274 C 
ENDROOT
BRANCH   1   2
ATOM      2  O   UNL A   1      33.831  20.674  24.459  1.00  0.00    -0.462 OA
BRANCH   2   3
ATOM      3  C   UNL A   1      32.733  21.475  24.564  1.00  0.00     0.313 C 
ATOM      4  O   UNL A   1      31.828  21.320  25.375  1.00  0.00    -0.252 OA
BRANCH   3   5
ATOM      5  C   UNL A   1      32.740  22.582  23.524  1.00  0.00     0.126 C 
ATOM      6  C   UNL A   1      31.365  22.672  22.837  1.00  0.00     0.025 C 
BRANCH   5   7
ATOM      7  C   UNL A   1      33.164  23.949  24.042  1.00  0.00    -0.032 A 
ATOM      8  C   UNL A   1      34.360  24.185  24.722  1.00  0.00     0.005 A 
ATOM      9  C   UNL A   1      32.258  25.007  23.874  1.00  0.00     0.032 A 
ATOM     10  C   UNL A   1      34.623  25.432  25.307  1.00  0.00     0.011 A 
ATOM     11  C   UNL A   1      32.474  26.213  24.553  1.00  0.00     0.058 A 
ATOM     12  C   UNL A   1      33.650  26.453  25.247  1.00  0.00     0.008 A 
ATOM     13  N   UNL A   1      31.638  27.322  24.684  1.00  0.00    -0.274 N 
ATOM     14  C   UNL A   1      33.556  27.764  25.792  1.00  0.00     0.009 A 
ATOM     15  C   UNL A   1      32.301  28.288  25.450  1.00  0.00     0.057 A 
ATOM     16  C   UNL A   1      34.429  28.523  26.602  1.00  0.00     0.031 A 
ATOM     17  C   UNL A   1      31.876  29.531  25.956  1.00  0.00     0.029 A 
ATOM     18  C   UNL A   1      34.016  29.767  27.073  1.00  0.00     0.041 A 
ATOM     19  C   UNL A   1      32.756  30.263  26.762  1.00  0.00     0.023 A 
ATOM     20  Cl  UNL A   1      35.067  30.680  28.085  1.00  0.00    -0.084 Cl
BRANCH  13  21
ATOM     21  C   UNL A   1      30.306  27.362  24.198  1.00  0.00     0.284 C 
ATOM     22  O   UNL A   1      29.559  26.475  24.609  1.00  0.00    -0.266 OA
BRANCH  21  23
ATOM     23  C   UNL A   1      29.817  28.341  23.237  1.00  0.00     0.167 A 
ATOM     24  C   UNL A   1      30.526  29.029  22.277  1.00  0.00     0.231 A 
ATOM     25  N   UNL A   1      28.470  28.627  23.079  1.00  0.00    -0.211 NA
ATOM     26  O   UNL A   1      29.645  29.747  21.522  1.00  0.00    -0.451 OA
ATOM     27  C   UNL A   1      28.430  29.436  22.049  1.00  0.00     0.308 A 
ENDBRANCH  21  23
ENDBRANCH  13  21
ENDBRANCH   5   7
ENDBRANCH   3   5
ENDBRANCH   2   3
ENDBRANCH   1   2
BRANCH   1  28
ATOM     28  C   UNL A   1      36.185  20.735  24.990  1.00  0.00     0.275 C 
BRANCH  28  29
ATOM     29  O   UNL A   1      36.950  21.737  25.684  1.00  0.00    -0.458 OA
BRANCH  29  30
ATOM     30  C   UNL A   1      38.271  21.490  25.804  1.00  0.00     0.338 C 
ATOM     31  O   UNL A   1      38.857  20.473  25.465  1.00  0.00    -0.246 OA
BRANCH  30  32
ATOM     32  C   UNL A   1      38.956  22.660  26.394  1.00  0.00     0.060 A 
ATOM     33  C   UNL A   1      38.539  23.966  26.108  1.00  0.00     0.016 A 
ATOM     34  C   UNL A   1      40.103  22.454  27.161  1.00  0.00     0.016 A 
ATOM     35  C   UNL A   1      39.321  25.052  26.497  1.00  0.00     0.010 A 
ATOM     36  C   UNL A   1      40.818  23.548  27.651  1.00  0.00     0.010 A 
ATOM     37  C   UNL A   1      40.457  24.860  27.298  1.00  0.00    -0.014 A 
BRANCH  37  38
ATOM     38  C   UNL A   1      41.272  26.013  27.776  1.00  0.00     0.031 A 
ATOM     39  C   UNL A   1      40.657  27.052  28.678  1.00  0.00     0.074 A 
ATOM     40  C   UNL A   1      42.544  26.167  27.357  1.00  0.00     0.049 A 
ATOM     41  N   UNL A   1      41.097  28.245  28.983  1.00  0.00    -0.248 NA
ATOM     42  C   UNL A   1      39.363  26.717  29.296  1.00  0.00     0.031 C 
ATOM     43  C   UNL A   1      43.272  25.238  26.491  1.00  0.00     0.029 A 
ATOM     44  N   UNL A   1      43.448  27.177  27.587  1.00  0.00    -0.354 N 
ATOM     45  C   UNL A   1      40.095  28.838  29.744  1.00  0.00     0.074 A 
ATOM     46  C   UNL A   1      39.035  27.862  29.880  1.00  0.00     0.031 C 
ATOM     47  C   UNL A   1      44.513  25.702  26.285  1.00  0.00     0.029 A 
ATOM     48  C   UNL A   1      44.642  27.005  26.925  1.00  0.00     0.049 A 
ATOM     49  H   UNL A   1      43.259  27.948  28.170  1.00  0.00     0.167 HD
ATOM     50  C   UNL A   1      40.065  30.080  30.282  1.00  0.00     0.034 A 
ATOM     51  C   UNL A   1      45.709  27.820  26.804  1.00  0.00     0.034 A 
ATOM     52  C   UNL A   1      41.165  31.007  30.235  1.00  0.00     0.049 A 
ATOM     53  C   UNL A   1      45.671  29.172  27.455  1.00  0.00     0.074 A 
ATOM     54  C   UNL A   1      41.251  32.269  30.795  1.00  0.00     0.029 A 
ATOM     55  N   UNL A   1      42.379  30.761  29.614  1.00  0.00    -0.354 N 
ATOM     56  N   UNL A   1      44.724  29.706  28.188  1.00  0.00    -0.248 NA
ATOM     57  C   UNL A   1      46.846  30.034  27.265  1.00  0.00     0.031 C 
ATOM     58  C   UNL A   1      42.523  32.783  30.520  1.00  0.00     0.029 A 
ATOM     59  C   UNL A   1      43.226  31.841  29.786  1.00  0.00     0.049 A 
ATOM     60  H   UNL A   1      42.606  29.937  29.123  1.00  0.00     0.167 HD
ATOM     61  C   UNL A   1      45.191  30.963  28.553  1.00  0.00     0.074 A 
ATOM     62  C   UNL A   1      46.519  31.097  27.988  1.00  0.00     0.031 C 
ATOM     63  C   UNL A   1      44.564  31.932  29.264  1.00  0.00     0.034 A 
BRANCH  50  64
ATOM     64  C   UNL A   1      38.813  30.505  31.003  1.00  0.00     0.023 A 
ATOM     65  C   UNL A   1      38.521  29.965  32.271  1.00  0.00     0.012 A 
ATOM     66  C   UNL A   1      37.965  31.488  30.457  1.00  0.00     0.148 A 
ATOM     67  C   UNL A   1      37.391  30.381  32.975  1.00  0.00     0.002 A 
ATOM     68  C   UNL A   1      36.859  31.924  31.180  1.00  0.00     0.091 A 
ATOM     69  F   UNL A   1      38.243  31.970  29.238  1.00  0.00    -0.205 F 
ATOM     70  C   UNL A   1      36.567  31.367  32.436  1.00  0.00     0.022 A 
BRANCH  68  71
ATOM     71  S   UNL A   1      35.789  33.241  30.589  1.00  0.00     0.127 S 
ATOM     72  O   UNL A   1      34.473  32.610  30.661  1.00  0.00    -0.237 OA
ATOM     73  O   UNL A   1      36.011  34.297  31.578  1.00  0.00    -0.237 OA
ATOM     74  O   UNL A   1      36.265  33.563  29.252  1.00  0.00    -0.744 OA
ENDBRANCH  68  71
ENDBRANCH  50  64
BRANCH  51  75
ATOM     75  C   UNL A   1      46.907  27.354  26.049  1.00  0.00     0.023 A 
ATOM     76  C   UNL A   1      47.760  26.404  26.640  1.00  0.00     0.012 A 
ATOM     77  C   UNL A   1      47.162  27.782  24.732  1.00  0.00     0.148 A 
ATOM     78  C   UNL A   1      48.849  25.890  25.933  1.00  0.00     0.002 A 
ATOM     79  C   UNL A   1      48.212  27.220  24.013  1.00  0.00     0.091 A 
ATOM     80  F   UNL A   1      46.360  28.711  24.193  1.00  0.00    -0.205 F 
ATOM     81  C   UNL A   1      49.064  26.284  24.615  1.00  0.00     0.022 A 
BRANCH  79  82
ATOM     82  S   UNL A   1      48.434  27.562  22.261  1.00  0.00     0.127 S 
ATOM     83  O   UNL A   1      48.649  26.226  21.716  1.00  0.00    -0.237 OA
ATOM     84  O   UNL A   1      47.156  28.177  21.897  1.00  0.00    -0.237 OA
ATOM     85  O   UNL A   1      49.566  28.476  22.200  1.00  0.00    -0.744 OA
ENDBRANCH  79  82
ENDBRANCH  51  75
BRANCH  63  86
ATOM     86  C   UNL A   1      45.309  33.220  29.479  1.00  0.00     0.023 A 
ATOM     87  C   UNL A   1      46.143  33.350  30.606  1.00  0.00     0.012 A 
ATOM     88  C   UNL A   1      45.237  34.267  28.542  1.00  0.00     0.148 A 
ATOM     89  C   UNL A   1      46.881  34.515  30.808  1.00  0.00     0.002 A 
ATOM     90  C   UNL A   1      46.003  35.412  28.732  1.00  0.00     0.091 A 
ATOM     91  F   UNL A   1      44.417  34.134  27.489  1.00  0.00    -0.205 F 
ATOM     92  C   UNL A   1      46.821  35.540  29.867  1.00  0.00     0.022 A 
BRANCH  90  93
ATOM     93  S   UNL A   1      46.032  36.741  27.523  1.00  0.00     0.127 S 
ATOM     94  O   UNL A   1      46.481  36.042  26.321  1.00  0.00    -0.237 OA
ATOM     95  O   UNL A   1      44.634  37.173  27.490  1.00  0.00    -0.237 OA
ATOM     96  O   UNL A   1      46.951  37.735  28.061  1.00  0.00    -0.744 OA
ENDBRANCH  90  93
ENDBRANCH  63  86
ENDBRANCH  37  38
ENDBRANCH  30  32
ENDBRANCH  29  30
ENDBRANCH  28  29
ENDBRANCH   1  28
TORSDOF 17
ENDMDL
MODEL 2
REMARK VINA RESULT:     -12.7      5.086     10.316
REMARK SMILES C[C@H](C(=O)OCCOC(=O)c1ccc(-c2c3nc(c(-c4cccc(S(=O)(=O)[O-])c4F)c4ccc([nH]4)c(-c4cccc(S(=O)(=O)[O-])c4F)c4nc(c(-c5cccc(S(=O)(=O)[O-])c5F)c5ccc2[nH]5)C=C4)C=C3)cc1)c1ccc2c3cc(Cl)ccc3n(C(=O)c3cocn3)c2c1
REMARK SMILES IDX 6 1 5 2 3 3 4 4 2 5 1 6 74 7 75 8 94 9 76 10 93 11 77 12
REMARK SMILES IDX 85 13 78 14 84 15 79 16 83 17 80 18 82 19 81 20 86 21 87 22
REMARK SMILES IDX 88 23 89 24 92 25 90 26 91 27 7 28 8 29 9 30 10 31 11 32
REMARK SMILES IDX 12 33 73 34 13 35 72 36 14 37 15 38 16 39 66 40 17 41 71 42
REMARK SMILES IDX 65 43 67 44 18 45 70 46 64 47 63 48 19 50 51 51 31 52 50 53
REMARK SMILES IDX 32 54 35 55 49 56 68 57 33 58 34 59 48 61 69 62 36 63 20 64
REMARK SMILES IDX 21 65 29 66 22 67 24 68 30 69 23 70 25 71 26 72 27 73 28 74
REMARK SMILES IDX 52 75 53 76 61 77 54 78 56 79 62 80 55 81 57 82 58 83 59 84
REMARK SMILES IDX 60 85 37 86 38 87 46 88 39 89 41 90 47 91 40 92 42 93 43 94
REMARK SMILES IDX 44 95 45 96
REMARK H PARENT 67 49 35 60
REMARK Flexibility Score: inf
ROOT
ATOM      1  C   UNL A   1      31.296  29.274  24.167  1.00  0.00     0.274 C 
ENDROOT
BRANCH   1   2
ATOM      2  O   UNL A   1      30.932  27.909  24.445  1.00  0.00    -0.462 OA
BRANCH   2   3
ATOM      3  C   UNL A   1      31.805  26.953  24.017  1.00  0.00     0.313 C 
ATOM      4  O   UNL A   1      32.074  26.726  22.844  1.00  0.00    -0.252 OA
BRANCH   3   5
ATOM      5  C   UNL A   1      32.392  26.165  25.175  1.00  0.00     0.126 C 
ATOM      6  C   UNL A   1      31.677  26.539  26.487  1.00  0.00     0.025 C 
BRANCH   5   7
ATOM      7  C   UNL A   1      32.399  24.655  24.988  1.00  0.00    -0.032 A 
ATOM      8  C   UNL A   1      31.326  23.826  25.321  1.00  0.00     0.005 A 
ATOM      9  C   UNL A   1      33.584  24.074  24.513  1.00  0.00     0.032 A 
ATOM     10  C   UNL A   1      31.449  22.430  25.268  1.00  0.00     0.011 A 
ATOM     11  C   UNL A   1      33.740  22.682  24.568  1.00  0.00     0.058 A 
ATOM     12  C   UNL A   1      32.686  21.849  24.915  1.00  0.00     0.008 A 
ATOM     13  N   UNL A   1      34.871  21.904  24.329  1.00  0.00    -0.274 N 
ATOM     14  C   UNL A   1      33.170  20.513  24.851  1.00  0.00     0.009 A 
ATOM     15  C   UNL A   1      34.527  20.558  24.501  1.00  0.00     0.057 A 
ATOM     16  C   UNL A   1      32.562  19.267  25.121  1.00  0.00     0.031 A 
ATOM     17  C   UNL A   1      35.305  19.385  24.479  1.00  0.00     0.029 A 
ATOM     18  C   UNL A   1      33.330  18.106  25.065  1.00  0.00     0.041 A 
ATOM     19  C   UNL A   1      34.683  18.162  24.755  1.00  0.00     0.023 A 
ATOM     20  Cl  UNL A   1      32.598  16.589  25.424  1.00  0.00    -0.084 Cl
BRANCH  13  21
ATOM     21  C   UNL A   1      36.156  22.445  24.070  1.00  0.00     0.284 C 
ATOM     22  O   UNL A   1      36.394  22.720  22.894  1.00  0.00    -0.266 OA
BRANCH  21  23
ATOM     23  C   UNL A   1      37.182  22.637  25.086  1.00  0.00     0.167 A 
ATOM     24  C   UNL A   1      38.161  21.758  25.493  1.00  0.00     0.231 A 
ATOM     25  N   UNL A   1      37.388  23.852  25.721  1.00  0.00    -0.211 NA
ATOM     26  O   UNL A   1      38.975  22.400  26.379  1.00  0.00    -0.451 OA
ATOM     27  C   UNL A   1      38.462  23.658  26.446  1.00  0.00     0.308 A 
ENDBRANCH  21  23
ENDBRANCH  13  21
ENDBRANCH   5   7
ENDBRANCH   3   5
ENDBRANCH   2   3
ENDBRANCH   1   2
BRANCH   1  28
ATOM     28  C   UNL A   1      31.388  30.041  25.480  1.00  0.00     0.275 C 
BRANCH  28  29
ATOM     29  O   UNL A   1      32.778  30.240  25.797  1.00  0.00    -0.458 OA
BRANCH  29  30
ATOM     30  C   UNL A   1      33.038  31.160  26.750  1.00  0.00     0.338 C 
ATOM     31  O   UNL A   1      32.304  32.069  27.107  1.00  0.00    -0.246 OA
BRANCH  30  32
ATOM     32  C   UNL A   1      34.362  30.905  27.355  1.00  0.00     0.060 A 
ATOM     33  C   UNL A   1      34.778  29.604  27.671  1.00  0.00     0.016 A 
ATOM     34  C   UNL A   1      35.160  31.992  27.716  1.00  0.00     0.016 A 
ATOM     35  C   UNL A   1      35.929  29.403  28.431  1.00  0.00     0.010 A 
ATOM     36  C   UNL A   1      36.372  31.776  28.372  1.00  0.00     0.010 A 
ATOM     37  C   UNL A   1      36.757  30.484  28.769  1.00  0.00    -0.014 A 
BRANCH  37  38
ATOM     38  C   UNL A   1      38.025  30.281  29.528  1.00  0.00     0.031 A 
ATOM     39  C   UNL A   1      39.131  29.444  28.942  1.00  0.00     0.074 A 
ATOM     40  C   UNL A   1      38.164  30.794  30.767  1.00  0.00     0.049 A 
ATOM     41  N   UNL A   1      40.180  28.932  29.533  1.00  0.00    -0.248 NA
ATOM     42  C   UNL A   1      39.033  29.114  27.510  1.00  0.00     0.031 C 
ATOM     43  C   UNL A   1      37.180  31.630  31.456  1.00  0.00     0.029 A 
ATOM     44  N   UNL A   1      39.185  30.670  31.679  1.00  0.00    -0.354 N 
ATOM     45  C   UNL A   1      40.810  28.144  28.576  1.00  0.00     0.074 A 
ATOM     46  C   UNL A   1      40.042  28.268  27.355  1.00  0.00     0.031 C 
ATOM     47  C   UNL A   1      37.652  31.966  32.665  1.00  0.00     0.029 A 
ATOM     48  C   UNL A   1      38.929  31.296  32.877  1.00  0.00     0.049 A 
ATOM     49  H   UNL A   1      40.019  30.180  31.493  1.00  0.00     0.167 HD
ATOM     50  C   UNL A   1      41.928  27.390  28.703  1.00  0.00     0.034 A 
ATOM     51  C   UNL A   1      39.617  31.298  34.036  1.00  0.00     0.034 A 
ATOM     52  C   UNL A   1      42.746  27.353  29.886  1.00  0.00     0.049 A 
ATOM     53  C   UNL A   1      40.882  30.496  34.135  1.00  0.00     0.074 A 
ATOM     54  C   UNL A   1      43.926  26.661  30.095  1.00  0.00     0.029 A 
ATOM     55  N   UNL A   1      42.485  28.060  31.049  1.00  0.00    -0.354 N 
ATOM     56  N   UNL A   1      41.473  29.775  33.213  1.00  0.00    -0.248 NA
ATOM     57  C   UNL A   1      41.575  30.505  35.430  1.00  0.00     0.031 C 
ATOM     58  C   UNL A   1      44.383  26.957  31.385  1.00  0.00     0.029 A 
ATOM     59  C   UNL A   1      43.485  27.831  31.977  1.00  0.00     0.049 A 
ATOM     60  H   UNL A   1      41.702  28.640  31.194  1.00  0.00     0.167 HD
ATOM     61  C   UNL A   1      42.611  29.251  33.813  1.00  0.00     0.074 A 
ATOM     62  C   UNL A   1      42.644  29.765  35.168  1.00  0.00     0.031 C 
ATOM     63  C   UNL A   1      43.529  28.396  33.300  1.00  0.00     0.034 A 
BRANCH  50  64
ATOM     64  C   UNL A   1      42.358  26.563  27.520  1.00  0.00     0.023 A 
ATOM     65  C   UNL A   1      42.903  27.197  26.388  1.00  0.00     0.012 A 
ATOM     66  C   UNL A   1      42.285  25.157  27.560  1.00  0.00     0.148 A 
ATOM     67  C   UNL A   1      43.351  26.444  25.302  1.00  0.00     0.002 A 
ATOM     68  C   UNL A   1      42.766  24.411  26.487  1.00  0.00     0.091 A 
ATOM     69  F   UNL A   1      41.737  24.571  28.634  1.00  0.00    -0.205 F 
ATOM     70  C   UNL A   1      43.293  25.053  25.355  1.00  0.00     0.022 A 
BRANCH  68  71
ATOM     71  S   UNL A   1      42.793  22.614  26.509  1.00  0.00     0.127 S 
ATOM     72  O   UNL A   1      44.205  22.342  26.774  1.00  0.00    -0.237 OA
ATOM     73  O   UNL A   1      41.895  22.298  27.621  1.00  0.00    -0.237 OA
ATOM     74  O   UNL A   1      42.301  22.198  25.204  1.00  0.00    -0.744 OA
ENDBRANCH  68  71
ENDBRANCH  50  64
BRANCH  51  75
ATOM     75  C   UNL A   1      39.122  32.112  35.182  1.00  0.00     0.023 A 
ATOM     76  C   UNL A   1      38.244  31.522  36.111  1.00  0.00     0.012 A 
ATOM     77  C   UNL A   1      39.571  33.428  35.402  1.00  0.00     0.148 A 
ATOM     78  C   UNL A   1      37.820  32.231  37.236  1.00  0.00     0.002 A 
ATOM     79  C   UNL A   1      39.193  34.105  36.557  1.00  0.00     0.091 A 
ATOM     80  F   UNL A   1      40.381  33.989  34.493  1.00  0.00    -0.205 F 
ATOM     81  C   UNL A   1      38.308  33.514  37.469  1.00  0.00     0.022 A 
BRANCH  79  82
ATOM     82  S   UNL A   1      39.922  35.691  36.993  1.00  0.00     0.127 S 
ATOM     83  O   UNL A   1      41.334  35.349  37.122  1.00  0.00    -0.237 OA
ATOM     84  O   UNL A   1      39.592  36.517  35.830  1.00  0.00    -0.237 OA
ATOM     85  O   UNL A   1      39.239  36.093  38.215  1.00  0.00    -0.744 OA
ENDBRANCH  79  82
ENDBRANCH  51  75
BRANCH  63  86
ATOM     86  C   UNL A   1      44.652  27.968  34.202  1.00  0.00     0.023 A 
ATOM     87  C   UNL A   1      45.822  28.750  34.261  1.00  0.00     0.012 A 
ATOM     88  C   UNL A   1      44.527  26.840  35.034  1.00  0.00     0.148 A 
ATOM     89  C   UNL A   1      46.862  28.403  35.123  1.00  0.00     0.002 A 
ATOM     90  C   UNL A   1      45.554  26.520  35.915  1.00  0.00     0.091 A 
ATOM     91  F   UNL A   1      43.417  26.094  34.944  1.00  0.00    -0.205 F 
ATOM     92  C   UNL A   1      46.724  27.297  35.957  1.00  0.00     0.022 A 
BRANCH  90  93
ATOM     93  S   UNL A   1      45.414  25.152  37.073  1.00  0.00     0.127 S 
ATOM     94  O   UNL A   1      46.802  24.972  37.492  1.00  0.00    -0.237 OA
ATOM     95  O   UNL A   1      44.533  25.698  38.106  1.00  0.00    -0.237 OA
ATOM     96  O   UNL A   1      44.833  24.056  36.310  1.00  0.00    -0.744 OA
ENDBRANCH  90  93
ENDBRANCH  63  86
ENDBRANCH  37  38
ENDBRANCH  30  32
ENDBRANCH  29  30
ENDBRANCH  28  29
ENDBRANCH   1  28
TORSDOF 17
ENDMDL
MODEL 3
REMARK VINA RESULT:     -12.5      5.104     10.201
REMARK SMILES C[C@H](C(=O)OCCOC(=O)c1ccc(-c2c3nc(c(-c4cccc(S(=O)(=O)[O-])c4F)c4ccc([nH]4)c(-c4cccc(S(=O)(=O)[O-])c4F)c4nc(c(-c5cccc(S(=O)(=O)[O-])c5F)c5ccc2[nH]5)C=C4)C=C3)cc1)c1ccc2c3cc(Cl)ccc3n(C(=O)c3cocn3)c2c1
REMARK SMILES IDX 6 1 5 2 3 3 4 4 2 5 1 6 74 7 75 8 94 9 76 10 93 11 77 12
REMARK SMILES IDX 85 13 78 14 84 15 79 16 83 17 80 18 82 19 81 20 86 21 87 22
REMARK SMILES IDX 88 23 89 24 92 25 90 26 91 27 7 28 8 29 9 30 10 31 11 32
REMARK SMILES IDX 12 33 73 34 13 35 72 36 14 37 15 38 16 39 66 40 17 41 71 42
REMARK SMILES IDX 65 43 67 44 18 45 70 46 64 47 63 48 19 50 51 51 31 52 50 53
REMARK SMILES IDX 32 54 35 55 49 56 68 57 33 58 34 59 48 61 69 62 36 63 20 64
REMARK SMILES IDX 21 65 29 66 22 67 24 68 30 69 23 70 25 71 26 72 27 73 28 74
REMARK SMILES IDX 52 75 53 76 61 77 54 78 56 79 62 80 55 81 57 82 58 83 59 84
REMARK SMILES IDX 60 85 37 86 38 87 46 88 39 89 41 90 47 91 40 92 42 93 43 94
REMARK SMILES IDX 44 95 45 96
REMARK H PARENT 67 49 35 60
REMARK Flexibility Score: inf
ROOT
ATOM      1  C   UNL A   1      31.454  28.681  25.033  1.00  0.00     0.274 C 
ENDROOT
BRANCH   1   2
ATOM      2  O   UNL A   1      31.563  28.492  23.609  1.00  0.00    -0.462 OA
BRANCH   2   3
ATOM      3  C   UNL A   1      31.628  27.201  23.177  1.00  0.00     0.313 C 
ATOM      4  O   UNL A   1      31.825  26.859  22.017  1.00  0.00    -0.252 OA
BRANCH   3   5
ATOM      5  C   UNL A   1      31.391  26.215  24.307  1.00  0.00     0.126 C 
ATOM      6  C   UNL A   1      30.282  25.219  23.920  1.00  0.00     0.025 C 
BRANCH   5   7
ATOM      7  C   UNL A   1      32.631  25.468  24.780  1.00  0.00    -0.032 A 
ATOM      8  C   UNL A   1      33.774  26.098  25.278  1.00  0.00     0.005 A 
ATOM      9  C   UNL A   1      32.632  24.073  24.639  1.00  0.00     0.032 A 
ATOM     10  C   UNL A   1      34.938  25.366  25.553  1.00  0.00     0.011 A 
ATOM     11  C   UNL A   1      33.828  23.363  24.808  1.00  0.00     0.058 A 
ATOM     12  C   UNL A   1      34.975  23.981  25.285  1.00  0.00     0.008 A 
ATOM     13  N   UNL A   1      34.111  22.023  24.548  1.00  0.00    -0.274 N 
ATOM     14  C   UNL A   1      35.988  22.985  25.359  1.00  0.00     0.009 A 
ATOM     15  C   UNL A   1      35.448  21.779  24.888  1.00  0.00     0.057 A 
ATOM     16  C   UNL A   1      37.346  23.035  25.742  1.00  0.00     0.031 A 
ATOM     17  C   UNL A   1      36.258  20.639  24.731  1.00  0.00     0.029 A 
ATOM     18  C   UNL A   1      38.134  21.894  25.616  1.00  0.00     0.041 A 
ATOM     19  C   UNL A   1      37.602  20.714  25.112  1.00  0.00     0.023 A 
ATOM     20  Cl  UNL A   1      39.798  21.962  26.054  1.00  0.00    -0.084 Cl
BRANCH  13  21
ATOM     21  C   UNL A   1      33.195  21.131  23.937  1.00  0.00     0.284 C 
ATOM     22  O   UNL A   1      32.608  21.563  22.945  1.00  0.00    -0.266 OA
BRANCH  21  23
ATOM     23  C   UNL A   1      32.894  19.797  24.439  1.00  0.00     0.167 A 
ATOM     24  C   UNL A   1      32.796  19.375  25.747  1.00  0.00     0.231 A 
ATOM     25  N   UNL A   1      32.525  18.750  23.610  1.00  0.00    -0.211 NA
ATOM     26  O   UNL A   1      32.376  18.077  25.751  1.00  0.00    -0.451 OA
ATOM     27  C   UNL A   1      32.213  17.780  24.434  1.00  0.00     0.308 A 
ENDBRANCH  21  23
ENDBRANCH  13  21
ENDBRANCH   5   7
ENDBRANCH   3   5
ENDBRANCH   2   3
ENDBRANCH   1   2
BRANCH   1  28
ATOM     28  C   UNL A   1      31.925  30.087  25.384  1.00  0.00     0.275 C 
BRANCH  28  29
ATOM     29  O   UNL A   1      33.167  29.986  26.104  1.00  0.00    -0.458 OA
BRANCH  29  30
ATOM     30  C   UNL A   1      33.461  31.022  26.918  1.00  0.00     0.338 C 
ATOM     31  O   UNL A   1      32.780  32.019  27.107  1.00  0.00    -0.246 OA
BRANCH  30  32
ATOM     32  C   UNL A   1      34.748  30.780  27.604  1.00  0.00     0.060 A 
ATOM     33  C   UNL A   1      35.106  29.500  28.046  1.00  0.00     0.016 A 
ATOM     34  C   UNL A   1      35.564  31.870  27.911  1.00  0.00     0.016 A 
ATOM     35  C   UNL A   1      36.214  29.329  28.874  1.00  0.00     0.010 A 
ATOM     36  C   UNL A   1      36.738  31.675  28.640  1.00  0.00     0.010 A 
ATOM     37  C   UNL A   1      37.062  30.410  29.160  1.00  0.00    -0.014 A 
BRANCH  37  38
ATOM     38  C   UNL A   1      38.287  30.236  29.993  1.00  0.00     0.031 A 
ATOM     39  C   UNL A   1      39.398  29.335  29.523  1.00  0.00     0.074 A 
ATOM     40  C   UNL A   1      38.380  30.833  31.198  1.00  0.00     0.049 A 
ATOM     41  N   UNL A   1      40.405  28.844  30.199  1.00  0.00    -0.248 NA
ATOM     42  C   UNL A   1      39.360  28.905  28.114  1.00  0.00     0.031 C 
ATOM     43  C   UNL A   1      37.386  31.738  31.777  1.00  0.00     0.029 A 
ATOM     44  N   UNL A   1      39.353  30.753  32.165  1.00  0.00    -0.354 N 
ATOM     45  C   UNL A   1      41.060  27.976  29.331  1.00  0.00     0.074 A 
ATOM     46  C   UNL A   1      40.354  28.029  28.069  1.00  0.00     0.031 C 
ATOM     47  C   UNL A   1      37.809  32.149  32.981  1.00  0.00     0.029 A 
ATOM     48  C   UNL A   1      39.057  31.469  33.302  1.00  0.00     0.049 A 
ATOM     49  H   UNL A   1      40.182  30.233  32.055  1.00  0.00     0.167 HD
ATOM     50  C   UNL A   1      42.151  27.209  29.566  1.00  0.00     0.034 A 
ATOM     51  C   UNL A   1      39.689  31.539  34.490  1.00  0.00     0.034 A 
ATOM     52  C   UNL A   1      42.911  27.240  30.787  1.00  0.00     0.049 A 
ATOM     53  C   UNL A   1      40.927  30.719  34.707  1.00  0.00     0.074 A 
ATOM     54  C   UNL A   1      44.062  26.539  31.102  1.00  0.00     0.029 A 
ATOM     55  N   UNL A   1      42.613  28.034  31.884  1.00  0.00    -0.354 N 
ATOM     56  N   UNL A   1      41.543  29.921  33.869  1.00  0.00    -0.248 NA
ATOM     57  C   UNL A   1      41.559  30.807  36.031  1.00  0.00     0.031 C 
ATOM     58  C   UNL A   1      44.465  26.917  32.389  1.00  0.00     0.029 A 
ATOM     59  C   UNL A   1      43.562  27.850  32.873  1.00  0.00     0.049 A 
ATOM     60  H   UNL A   1      41.839  28.639  31.948  1.00  0.00     0.167 HD
ATOM     61  C   UNL A   1      42.638  29.417  34.559  1.00  0.00     0.074 A 
ATOM     62  C   UNL A   1      42.620  30.026  35.874  1.00  0.00     0.031 C 
ATOM     63  C   UNL A   1      43.558  28.508  34.153  1.00  0.00     0.034 A 
BRANCH  50  64
ATOM     64  C   UNL A   1      42.616  26.290  28.468  1.00  0.00     0.023 A 
ATOM     65  C   UNL A   1      41.923  25.089  28.223  1.00  0.00     0.012 A 
ATOM     66  C   UNL A   1      43.694  26.650  27.635  1.00  0.00     0.148 A 
ATOM     67  C   UNL A   1      42.310  24.248  27.179  1.00  0.00     0.002 A 
ATOM     68  C   UNL A   1      44.052  25.823  26.575  1.00  0.00     0.091 A 
ATOM     69  F   UNL A   1      44.359  27.783  27.900  1.00  0.00    -0.205 F 
ATOM     70  C   UNL A   1      43.366  24.619  26.349  1.00  0.00     0.022 A 
BRANCH  68  71
ATOM     71  S   UNL A   1      45.353  26.265  25.416  1.00  0.00     0.127 S 
ATOM     72  O   UNL A   1      46.517  26.350  26.295  1.00  0.00    -0.237 OA
ATOM     73  O   UNL A   1      45.364  25.122  24.502  1.00  0.00    -0.237 OA
ATOM     74  O   UNL A   1      44.926  27.515  24.805  1.00  0.00    -0.744 OA
ENDBRANCH  68  71
ENDBRANCH  50  64
BRANCH  51  75
ATOM     75  C   UNL A   1      39.161  32.444  35.551  1.00  0.00     0.023 A 
ATOM     76  C   UNL A   1      38.207  31.949  36.459  1.00  0.00     0.012 A 
ATOM     77  C   UNL A   1      39.649  33.754  35.714  1.00  0.00     0.148 A 
ATOM     78  C   UNL A   1      37.746  32.744  37.509  1.00  0.00     0.002 A 
ATOM     79  C   UNL A   1      39.232  34.519  36.799  1.00  0.00     0.091 A 
ATOM     80  F   UNL A   1      40.534  34.225  34.823  1.00  0.00    -0.205 F 
ATOM     81  C   UNL A   1      38.271  34.021  37.690  1.00  0.00     0.022 A 
BRANCH  79  82
ATOM     82  S   UNL A   1      39.997  36.101  37.177  1.00  0.00     0.127 S 
ATOM     83  O   UNL A   1      39.176  36.578  38.285  1.00  0.00    -0.237 OA
ATOM     84  O   UNL A   1      41.360  35.711  37.544  1.00  0.00    -0.237 OA
ATOM     85  O   UNL A   1      39.915  36.862  35.938  1.00  0.00    -0.744 OA
ENDBRANCH  79  82
ENDBRANCH  51  75
BRANCH  63  86
ATOM     86  C   UNL A   1      44.626  28.122  35.138  1.00  0.00     0.023 A 
ATOM     87  C   UNL A   1      45.870  28.780  35.094  1.00  0.00     0.012 A 
ATOM     88  C   UNL A   1      44.381  27.164  36.138  1.00  0.00     0.148 A 
ATOM     89  C   UNL A   1      46.864  28.476  36.023  1.00  0.00     0.002 A 
ATOM     90  C   UNL A   1      45.365  26.890  37.082  1.00  0.00     0.091 A 
ATOM     91  F   UNL A   1      43.199  26.529  36.147  1.00  0.00    -0.205 F 
ATOM     92  C   UNL A   1      46.609  27.540  37.022  1.00  0.00     0.022 A 
BRANCH  90  93
ATOM     93  S   UNL A   1      45.078  25.752  38.443  1.00  0.00     0.127 S 
ATOM     94  O   UNL A   1      44.010  26.427  39.177  1.00  0.00    -0.237 OA
ATOM     95  O   UNL A   1      44.664  24.529  37.754  1.00  0.00    -0.237 OA
ATOM     96  O   UNL A   1      46.355  25.644  39.135  1.00  0.00    -0.744 OA
ENDBRANCH  90  93
ENDBRANCH  63  86
ENDBRANCH  37  38
ENDBRANCH  30  32
ENDBRANCH  29  30
ENDBRANCH  28  29
ENDBRANCH   1  28
TORSDOF 17
ENDMDL
