MODEL 1
REMARK VINA RESULT:      -9.7      0.000      0.000
REMARK SMILES CN(CCOCC1CC1)C(=O)N1CC[C@H](C(=O)OCCOC(=O)c2ccc(-c3c4nc(c(-c5cccc(S(=O)(=O)[O-])c5F)c5ccc([nH]5)c(-c5cccc(S(=O)(=O)[O-])c5F)c5nc(c(-c6cccc(S(=O)(=O)[O-])c6F)c6ccc3[nH]6)C=C5)C=C4)cc2)C1
REMARK SMILES IDX 16 1 17 2 15 3 12 4 13 5 87 6 14 7 10 8 11 9 2 10 1 11 3 12
REMARK SMILES IDX 4 13 5 14 6 15 7 16 8 17 9 18 18 19 19 20 20 21 21 22 22 23
REMARK SMILES IDX 23 24 24 25 25 26 86 27 26 28 85 29 27 30 28 31 29 32 79 33
REMARK SMILES IDX 30 34 84 35 78 36 80 37 31 38 83 39 77 40 76 41 32 43 64 44
REMARK SMILES IDX 44 45 63 46 45 47 48 48 62 49 81 50 46 51 47 52 61 54 82 55
REMARK SMILES IDX 49 56 33 57 34 58 42 59 35 60 37 61 43 62 36 63 38 64 39 65
REMARK SMILES IDX 40 66 41 67 65 68 66 69 74 70 67 71 69 72 75 73 68 74 70 75
REMARK SMILES IDX 71 76 72 77 73 78 50 79 51 80 59 81 52 82 54 83 60 84 53 85
REMARK SMILES IDX 55 86 56 87 57 88 58 89
REMARK H PARENT 80 42 48 53
REMARK Flexibility Score: inf
ROOT
ATOM      1  C   UNL A   1      31.990  27.395  24.301  1.00  0.00     0.310 C 
ATOM      2  O   UNL A   1      31.005  26.817  23.865  1.00  0.00    -0.252 OA
ENDROOT
BRANCH   1   3
ATOM      3  C   UNL A   1      33.109  26.692  25.018  1.00  0.00     0.120 C 
ATOM      4  N   UNL A   1      34.315  24.664  24.671  1.00  0.00    -0.324 N 
ATOM      5  C   UNL A   1      33.820  24.680  26.040  1.00  0.00     0.122 C 
ATOM      6  C   UNL A   1      34.027  25.960  24.053  1.00  0.00     0.136 C 
ATOM      7  C   UNL A   1      32.637  25.612  25.989  1.00  0.00     0.039 C 
BRANCH   4   8
ATOM      8  C   UNL A   1      35.144  23.814  23.989  1.00  0.00     0.319 C 
ATOM      9  O   UNL A   1      35.067  23.776  22.753  1.00  0.00    -0.248 OA
BRANCH   8  10
ATOM     10  N   UNL A   1      36.072  23.026  24.635  1.00  0.00    -0.325 N 
ATOM     11  C   UNL A   1      37.211  23.704  25.249  1.00  0.00     0.148 C 
BRANCH  10  12
ATOM     12  C   UNL A   1      36.073  21.573  24.779  1.00  0.00     0.149 C 
BRANCH  12  13
ATOM     13  C   UNL A   1      35.290  21.038  25.990  1.00  0.00     0.181 C 
BRANCH  13  14
ATOM     14  O   UNL A   1      33.882  20.871  25.843  1.00  0.00    -0.379 OA
BRANCH  14  15
ATOM     15  C   UNL A   1      33.445  20.144  24.694  1.00  0.00     0.163 C 
BRANCH  15  16
ATOM     16  C   UNL A   1      32.233  20.703  24.018  1.00  0.00     0.015 C 
ATOM     17  C   UNL A   1      31.844  22.152  24.134  1.00  0.00     0.006 C 
ATOM     18  C   UNL A   1      32.255  21.589  22.799  1.00  0.00     0.006 C 
ENDBRANCH  15  16
ENDBRANCH  14  15
ENDBRANCH  13  14
ENDBRANCH  12  13
ENDBRANCH  10  12
ENDBRANCH   8  10
ENDBRANCH   4   8
ENDBRANCH   1   3
BRANCH   1  19
ATOM     19  O   UNL A   1      32.236  28.725  24.178  1.00  0.00    -0.462 OA
BRANCH  19  20
ATOM     20  C   UNL A   1      31.181  29.603  24.599  1.00  0.00     0.274 C 
BRANCH  20  21
ATOM     21  C   UNL A   1      31.523  30.173  25.977  1.00  0.00     0.275 C 
BRANCH  21  22
ATOM     22  O   UNL A   1      32.920  30.531  26.045  1.00  0.00    -0.458 OA
BRANCH  22  23
ATOM     23  C   UNL A   1      33.262  31.444  26.981  1.00  0.00     0.338 C 
ATOM     24  O   UNL A   1      32.618  32.424  27.330  1.00  0.00    -0.246 OA
BRANCH  23  25
ATOM     25  C   UNL A   1      34.526  31.054  27.625  1.00  0.00     0.060 A 
ATOM     26  C   UNL A   1      34.723  29.714  27.963  1.00  0.00     0.016 A 
ATOM     27  C   UNL A   1      35.467  32.014  27.995  1.00  0.00     0.016 A 
ATOM     28  C   UNL A   1      35.838  29.327  28.699  1.00  0.00     0.010 A 
ATOM     29  C   UNL A   1      36.614  31.616  28.697  1.00  0.00     0.010 A 
ATOM     30  C   UNL A   1      36.800  30.273  29.067  1.00  0.00    -0.014 A 
BRANCH  30  31
ATOM     31  C   UNL A   1      37.994  29.833  29.834  1.00  0.00     0.031 A 
ATOM     32  C   UNL A   1      38.229  30.330  31.233  1.00  0.00     0.074 A 
ATOM     33  C   UNL A   1      38.862  28.971  29.269  1.00  0.00     0.049 A 
ATOM     34  N   UNL A   1      39.235  30.090  32.033  1.00  0.00    -0.248 NA
ATOM     35  C   UNL A   1      37.203  31.214  31.807  1.00  0.00     0.031 C 
ATOM     36  C   UNL A   1      38.741  28.417  27.919  1.00  0.00     0.029 A 
ATOM     37  N   UNL A   1      40.022  28.421  29.752  1.00  0.00    -0.354 N 
ATOM     38  C   UNL A   1      38.992  30.827  33.185  1.00  0.00     0.074 A 
ATOM     39  C   UNL A   1      37.738  31.523  32.980  1.00  0.00     0.031 C 
ATOM     40  C   UNL A   1      39.787  27.609  27.681  1.00  0.00     0.029 A 
ATOM     41  C   UNL A   1      40.673  27.624  28.841  1.00  0.00     0.049 A 
ATOM     42  H   UNL A   1      40.357  28.581  30.664  1.00  0.00     0.167 HD
ATOM     43  C   UNL A   1      39.736  30.908  34.314  1.00  0.00     0.034 A 
ATOM     44  C   UNL A   1      41.862  26.996  28.916  1.00  0.00     0.034 A 
ATOM     45  C   UNL A   1      40.960  30.181  34.532  1.00  0.00     0.049 A 
ATOM     46  C   UNL A   1      42.663  27.099  30.184  1.00  0.00     0.074 A 
ATOM     47  C   UNL A   1      41.759  30.162  35.662  1.00  0.00     0.029 A 
ATOM     48  N   UNL A   1      41.566  29.350  33.602  1.00  0.00    -0.354 N 
ATOM     49  N   UNL A   1      42.368  27.722  31.299  1.00  0.00    -0.248 NA
ATOM     50  C   UNL A   1      43.951  26.390  30.214  1.00  0.00     0.031 C 
ATOM     51  C   UNL A   1      42.858  29.333  35.408  1.00  0.00     0.029 A 
ATOM     52  C   UNL A   1      42.732  28.818  34.128  1.00  0.00     0.049 A 
ATOM     53  H   UNL A   1      41.218  29.163  32.700  1.00  0.00     0.167 HD
ATOM     54  C   UNL A   1      43.421  27.466  32.169  1.00  0.00     0.074 A 
ATOM     55  C   UNL A   1      44.343  26.599  31.463  1.00  0.00     0.031 C 
ATOM     56  C   UNL A   1      43.621  27.924  33.430  1.00  0.00     0.034 A 
BRANCH  43  57
ATOM     57  C   UNL A   1      39.234  31.798  35.420  1.00  0.00     0.023 A 
ATOM     58  C   UNL A   1      38.287  31.303  36.339  1.00  0.00     0.012 A 
ATOM     59  C   UNL A   1      39.743  33.102  35.586  1.00  0.00     0.148 A 
ATOM     60  C   UNL A   1      37.833  32.101  37.390  1.00  0.00     0.002 A 
ATOM     61  C   UNL A   1      39.314  33.877  36.657  1.00  0.00     0.091 A 
ATOM     62  F   UNL A   1      40.625  33.563  34.688  1.00  0.00    -0.205 F 
ATOM     63  C   UNL A   1      38.353  33.382  37.554  1.00  0.00     0.022 A 
BRANCH  61  64
ATOM     64  S   UNL A   1      39.979  35.511  36.997  1.00  0.00     0.127 S 
ATOM     65  O   UNL A   1      39.280  35.863  38.232  1.00  0.00    -0.237 OA
ATOM     66  O   UNL A   1      41.406  35.237  37.160  1.00  0.00    -0.237 OA
ATOM     67  O   UNL A   1      39.648  36.327  35.836  1.00  0.00    -0.744 OA
ENDBRANCH  61  64
ENDBRANCH  43  57
BRANCH  44  68
ATOM     68  C   UNL A   1      42.352  26.190  27.762  1.00  0.00     0.023 A 
ATOM     69  C   UNL A   1      43.261  26.763  26.852  1.00  0.00     0.012 A 
ATOM     70  C   UNL A   1      41.947  24.854  27.580  1.00  0.00     0.148 A 
ATOM     71  C   UNL A   1      43.737  26.027  25.766  1.00  0.00     0.002 A 
ATOM     72  C   UNL A   1      42.470  24.108  26.530  1.00  0.00     0.091 A 
ATOM     73  F   UNL A   1      41.063  24.333  28.443  1.00  0.00    -0.205 F 
ATOM     74  C   UNL A   1      43.352  24.698  25.612  1.00  0.00     0.022 A 
BRANCH  72  75
ATOM     75  S   UNL A   1      42.132  22.354  26.341  1.00  0.00     0.127 S 
ATOM     76  O   UNL A   1      40.687  22.349  26.128  1.00  0.00    -0.237 OA
ATOM     77  O   UNL A   1      42.930  22.016  25.162  1.00  0.00    -0.237 OA
ATOM     78  O   UNL A   1      42.596  21.733  27.574  1.00  0.00    -0.744 OA
ENDBRANCH  72  75
ENDBRANCH  44  68
BRANCH  56  79
ATOM     79  C   UNL A   1      44.880  27.486  34.131  1.00  0.00     0.023 A 
ATOM     80  C   UNL A   1      46.037  28.287  34.049  1.00  0.00     0.012 A 
ATOM     81  C   UNL A   1      44.909  26.308  34.903  1.00  0.00     0.148 A 
ATOM     82  C   UNL A   1      47.214  27.901  34.689  1.00  0.00     0.002 A 
ATOM     83  C   UNL A   1      46.073  25.954  35.577  1.00  0.00     0.091 A 
ATOM     84  F   UNL A   1      43.807  25.546  34.954  1.00  0.00    -0.205 F 
ATOM     85  C   UNL A   1      47.230  26.741  35.460  1.00  0.00     0.022 A 
BRANCH  83  86
ATOM     86  S   UNL A   1      46.149  24.525  36.663  1.00  0.00     0.127 S 
ATOM     87  O   UNL A   1      45.166  23.633  36.053  1.00  0.00    -0.237 OA
ATOM     88  O   UNL A   1      47.540  24.091  36.514  1.00  0.00    -0.237 OA
ATOM     89  O   UNL A   1      45.816  25.021  37.991  1.00  0.00    -0.744 OA
ENDBRANCH  83  86
ENDBRANCH  56  79
ENDBRANCH  30  31
ENDBRANCH  23  25
ENDBRANCH  22  23
ENDBRANCH  21  22
ENDBRANCH  20  21
ENDBRANCH  19  20
ENDBRANCH   1  19
TORSDOF 21
ENDMDL
MODEL 2
REMARK VINA RESULT:      -9.6      1.034      8.020
REMARK SMILES CN(CCOCC1CC1)C(=O)N1CC[C@H](C(=O)OCCOC(=O)c2ccc(-c3c4nc(c(-c5cccc(S(=O)(=O)[O-])c5F)c5ccc([nH]5)c(-c5cccc(S(=O)(=O)[O-])c5F)c5nc(c(-c6cccc(S(=O)(=O)[O-])c6F)c6ccc3[nH]6)C=C5)C=C4)cc2)C1
REMARK SMILES IDX 16 1 17 2 15 3 12 4 13 5 87 6 14 7 10 8 11 9 2 10 1 11 3 12
REMARK SMILES IDX 4 13 5 14 6 15 7 16 8 17 9 18 18 19 19 20 20 21 21 22 22 23
REMARK SMILES IDX 23 24 24 25 25 26 86 27 26 28 85 29 27 30 28 31 29 32 79 33
REMARK SMILES IDX 30 34 84 35 78 36 80 37 31 38 83 39 77 40 76 41 32 43 64 44
REMARK SMILES IDX 44 45 63 46 45 47 48 48 62 49 81 50 46 51 47 52 61 54 82 55
REMARK SMILES IDX 49 56 33 57 34 58 42 59 35 60 37 61 43 62 36 63 38 64 39 65
REMARK SMILES IDX 40 66 41 67 65 68 66 69 74 70 67 71 69 72 75 73 68 74 70 75
REMARK SMILES IDX 71 76 72 77 73 78 50 79 51 80 59 81 52 82 54 83 60 84 53 85
REMARK SMILES IDX 55 86 56 87 57 88 58 89
REMARK H PARENT 80 42 48 53
REMARK Flexibility Score: inf
ROOT
ATOM      1  C   UNL A   1      31.157  28.202  22.635  1.00  0.00     0.310 C 
ATOM      2  O   UNL A   1      30.242  28.712  22.005  1.00  0.00    -0.252 OA
ENDROOT
BRANCH   1   3
ATOM      3  C   UNL A   1      31.712  26.839  22.326  1.00  0.00     0.120 C 
ATOM      4  N   UNL A   1      32.173  24.882  23.608  1.00  0.00    -0.324 N 
ATOM      5  C   UNL A   1      33.368  25.234  22.855  1.00  0.00     0.122 C 
ATOM      6  C   UNL A   1      31.079  25.761  23.190  1.00  0.00     0.136 C 
ATOM      7  C   UNL A   1      33.211  26.709  22.591  1.00  0.00     0.039 C 
BRANCH   4   8
ATOM      8  C   UNL A   1      31.849  23.810  24.397  1.00  0.00     0.319 C 
ATOM      9  O   UNL A   1      31.073  22.956  23.947  1.00  0.00    -0.248 OA
BRANCH   8  10
ATOM     10  N   UNL A   1      32.381  23.647  25.658  1.00  0.00    -0.325 N 
ATOM     11  C   UNL A   1      32.978  24.822  26.287  1.00  0.00     0.148 C 
BRANCH  10  12
ATOM     12  C   UNL A   1      32.437  22.428  26.459  1.00  0.00     0.149 C 
BRANCH  12  13
ATOM     13  C   UNL A   1      33.353  21.324  25.901  1.00  0.00     0.181 C 
BRANCH  13  14
ATOM     14  O   UNL A   1      34.354  21.710  24.965  1.00  0.00    -0.379 OA
BRANCH  14  15
ATOM     15  C   UNL A   1      35.579  20.976  25.002  1.00  0.00     0.163 C 
BRANCH  15  16
ATOM     16  C   UNL A   1      36.766  21.700  24.453  1.00  0.00     0.015 C 
ATOM     17  C   UNL A   1      36.631  22.917  23.577  1.00  0.00     0.006 C 
ATOM     18  C   UNL A   1      37.265  23.037  24.939  1.00  0.00     0.006 C 
ENDBRANCH  15  16
ENDBRANCH  14  15
ENDBRANCH  13  14
ENDBRANCH  12  13
ENDBRANCH  10  12
ENDBRANCH   8  10
ENDBRANCH   4   8
ENDBRANCH   1   3
BRANCH   1  19
ATOM     19  O   UNL A   1      31.821  28.787  23.666  1.00  0.00    -0.462 OA
BRANCH  19  20
ATOM     20  C   UNL A   1      31.043  29.657  24.503  1.00  0.00     0.274 C 
BRANCH  20  21
ATOM     21  C   UNL A   1      31.641  29.660  25.912  1.00  0.00     0.275 C 
BRANCH  21  22
ATOM     22  O   UNL A   1      32.937  30.295  25.911  1.00  0.00    -0.458 OA
BRANCH  22  23
ATOM     23  C   UNL A   1      33.161  31.205  26.885  1.00  0.00     0.338 C 
ATOM     24  O   UNL A   1      32.410  32.100  27.250  1.00  0.00    -0.246 OA
BRANCH  23  25
ATOM     25  C   UNL A   1      34.445  30.927  27.548  1.00  0.00     0.060 A 
ATOM     26  C   UNL A   1      34.733  29.617  27.932  1.00  0.00     0.016 A 
ATOM     27  C   UNL A   1      35.314  31.963  27.888  1.00  0.00     0.016 A 
ATOM     28  C   UNL A   1      35.868  29.335  28.686  1.00  0.00     0.010 A 
ATOM     29  C   UNL A   1      36.481  31.671  28.608  1.00  0.00     0.010 A 
ATOM     30  C   UNL A   1      36.759  30.358  29.025  1.00  0.00    -0.014 A 
BRANCH  30  31
ATOM     31  C   UNL A   1      37.975  30.029  29.811  1.00  0.00     0.031 A 
ATOM     32  C   UNL A   1      39.012  29.092  29.258  1.00  0.00     0.074 A 
ATOM     33  C   UNL A   1      38.150  30.589  31.024  1.00  0.00     0.049 A 
ATOM     34  N   UNL A   1      40.110  28.656  29.819  1.00  0.00    -0.248 NA
ATOM     35  C   UNL A   1      38.785  28.573  27.900  1.00  0.00     0.031 C 
ATOM     36  C   UNL A   1      37.216  31.516  31.667  1.00  0.00     0.029 A 
ATOM     37  N   UNL A   1      39.166  30.453  31.937  1.00  0.00    -0.354 N 
ATOM     38  C   UNL A   1      40.682  27.778  28.908  1.00  0.00     0.074 A 
ATOM     39  C   UNL A   1      39.809  27.744  27.753  1.00  0.00     0.031 C 
ATOM     40  C   UNL A   1      37.700  31.861  32.871  1.00  0.00     0.029 A 
ATOM     41  C   UNL A   1      38.951  31.147  33.103  1.00  0.00     0.049 A 
ATOM     42  H   UNL A   1      39.970  29.910  31.772  1.00  0.00     0.167 HD
ATOM     43  C   UNL A   1      41.835  27.074  29.016  1.00  0.00     0.034 A 
ATOM     44  C   UNL A   1      39.666  31.187  34.244  1.00  0.00     0.034 A 
ATOM     45  C   UNL A   1      42.724  27.142  30.147  1.00  0.00     0.049 A 
ATOM     46  C   UNL A   1      40.944  30.400  34.334  1.00  0.00     0.074 A 
ATOM     47  C   UNL A   1      43.938  26.502  30.327  1.00  0.00     0.029 A 
ATOM     48  N   UNL A   1      42.494  27.890  31.292  1.00  0.00    -0.354 N 
ATOM     49  N   UNL A   1      41.518  29.652  33.423  1.00  0.00    -0.248 NA
ATOM     50  C   UNL A   1      41.687  30.482  35.599  1.00  0.00     0.031 C 
ATOM     51  C   UNL A   1      44.434  26.849  31.589  1.00  0.00     0.029 A 
ATOM     52  C   UNL A   1      43.539  27.722  32.186  1.00  0.00     0.049 A 
ATOM     53  H   UNL A   1      41.706  28.458  31.447  1.00  0.00     0.167 HD
ATOM     54  C   UNL A   1      42.697  29.191  33.996  1.00  0.00     0.074 A 
ATOM     55  C   UNL A   1      42.772  29.775  35.320  1.00  0.00     0.031 C 
ATOM     56  C   UNL A   1      43.623  28.342  33.484  1.00  0.00     0.034 A 
BRANCH  43  57
ATOM     57  C   UNL A   1      42.220  26.181  27.866  1.00  0.00     0.023 A 
ATOM     58  C   UNL A   1      43.120  26.651  26.888  1.00  0.00     0.012 A 
ATOM     59  C   UNL A   1      41.739  24.859  27.784  1.00  0.00     0.148 A 
ATOM     60  C   UNL A   1      43.514  25.829  25.831  1.00  0.00     0.002 A 
ATOM     61  C   UNL A   1      42.166  24.033  26.750  1.00  0.00     0.091 A 
ATOM     62  F   UNL A   1      40.865  24.438  28.710  1.00  0.00    -0.205 F 
ATOM     63  C   UNL A   1      43.045  24.519  25.769  1.00  0.00     0.022 A 
BRANCH  61  64
ATOM     64  S   UNL A   1      41.677  22.309  26.624  1.00  0.00     0.127 S 
ATOM     65  O   UNL A   1      42.332  21.908  25.380  1.00  0.00    -0.237 OA
ATOM     66  O   UNL A   1      42.260  21.732  27.835  1.00  0.00    -0.237 OA
ATOM     67  O   UNL A   1      40.220  22.307  26.593  1.00  0.00    -0.744 OA
ENDBRANCH  61  64
ENDBRANCH  43  57
BRANCH  44  68
ATOM     68  C   UNL A   1      39.200  32.025  35.385  1.00  0.00     0.023 A 
ATOM     69  C   UNL A   1      38.275  31.494  36.305  1.00  0.00     0.012 A 
ATOM     70  C   UNL A   1      39.691  33.331  35.580  1.00  0.00     0.148 A 
ATOM     71  C   UNL A   1      37.828  32.259  37.383  1.00  0.00     0.002 A 
ATOM     72  C   UNL A   1      39.286  34.065  36.688  1.00  0.00     0.091 A 
ATOM     73  F   UNL A   1      40.554  33.827  34.682  1.00  0.00    -0.205 F 
ATOM     74  C   UNL A   1      38.341  33.537  37.582  1.00  0.00     0.022 A 
BRANCH  72  75
ATOM     75  S   UNL A   1      40.001  35.663  37.092  1.00  0.00     0.127 S 
ATOM     76  O   UNL A   1      39.650  36.453  35.915  1.00  0.00    -0.237 OA
ATOM     77  O   UNL A   1      39.279  36.020  38.313  1.00  0.00    -0.237 OA
ATOM     78  O   UNL A   1      41.423  35.414  37.290  1.00  0.00    -0.744 OA
ENDBRANCH  72  75
ENDBRANCH  44  68
BRANCH  56  79
ATOM     79  C   UNL A   1      44.805  28.004  34.356  1.00  0.00     0.023 A 
ATOM     80  C   UNL A   1      46.009  28.722  34.205  1.00  0.00     0.012 A 
ATOM     81  C   UNL A   1      44.714  27.009  35.348  1.00  0.00     0.148 A 
ATOM     82  C   UNL A   1      47.115  28.426  34.999  1.00  0.00     0.002 A 
ATOM     83  C   UNL A   1      45.808  26.753  36.169  1.00  0.00     0.091 A 
ATOM     84  F   UNL A   1      43.569  26.320  35.465  1.00  0.00    -0.205 F 
ATOM     85  C   UNL A   1      47.012  27.450  35.987  1.00  0.00     0.022 A 
BRANCH  83  86
ATOM     86  S   UNL A   1      45.728  25.574  37.523  1.00  0.00     0.127 S 
ATOM     87  O   UNL A   1      45.156  24.401  36.865  1.00  0.00    -0.237 OA
ATOM     88  O   UNL A   1      47.136  25.434  37.901  1.00  0.00    -0.237 OA
ATOM     89  O   UNL A   1      44.894  26.199  38.540  1.00  0.00    -0.744 OA
ENDBRANCH  83  86
ENDBRANCH  56  79
ENDBRANCH  30  31
ENDBRANCH  23  25
ENDBRANCH  22  23
ENDBRANCH  21  22
ENDBRANCH  20  21
ENDBRANCH  19  20
ENDBRANCH   1  19
TORSDOF 21
ENDMDL
MODEL 3
REMARK VINA RESULT:      -9.6      1.475      1.893
REMARK SMILES CN(CCOCC1CC1)C(=O)N1CC[C@H](C(=O)OCCOC(=O)c2ccc(-c3c4nc(c(-c5cccc(S(=O)(=O)[O-])c5F)c5ccc([nH]5)c(-c5cccc(S(=O)(=O)[O-])c5F)c5nc(c(-c6cccc(S(=O)(=O)[O-])c6F)c6ccc3[nH]6)C=C5)C=C4)cc2)C1
REMARK SMILES IDX 16 1 17 2 15 3 12 4 13 5 87 6 14 7 10 8 11 9 2 10 1 11 3 12
REMARK SMILES IDX 4 13 5 14 6 15 7 16 8 17 9 18 18 19 19 20 20 21 21 22 22 23
REMARK SMILES IDX 23 24 24 25 25 26 86 27 26 28 85 29 27 30 28 31 29 32 79 33
REMARK SMILES IDX 30 34 84 35 78 36 80 37 31 38 83 39 77 40 76 41 32 43 64 44
REMARK SMILES IDX 44 45 63 46 45 47 48 48 62 49 81 50 46 51 47 52 61 54 82 55
REMARK SMILES IDX 49 56 33 57 34 58 42 59 35 60 37 61 43 62 36 63 38 64 39 65
REMARK SMILES IDX 40 66 41 67 65 68 66 69 74 70 67 71 69 72 75 73 68 74 70 75
REMARK SMILES IDX 71 76 72 77 73 78 50 79 51 80 59 81 52 82 54 83 60 84 53 85
REMARK SMILES IDX 55 86 56 87 57 88 58 89
REMARK H PARENT 80 42 48 53
REMARK Flexibility Score: inf
ROOT
ATOM      1  C   UNL A   1      31.630  27.974  24.518  1.00  0.00     0.310 C 
ATOM      2  O   UNL A   1      31.501  28.029  23.304  1.00  0.00    -0.252 OA
ENDROOT
BRANCH   1   3
ATOM      3  C   UNL A   1      32.451  26.922  25.213  1.00  0.00     0.120 C 
ATOM      4  N   UNL A   1      33.594  24.949  24.515  1.00  0.00    -0.324 N 
ATOM      5  C   UNL A   1      32.721  24.609  25.630  1.00  0.00     0.122 C 
ATOM      6  C   UNL A   1      33.570  26.401  24.327  1.00  0.00     0.136 C 
ATOM      7  C   UNL A   1      31.657  25.675  25.598  1.00  0.00     0.039 C 
BRANCH   4   8
ATOM      8  C   UNL A   1      34.540  24.242  23.821  1.00  0.00     0.319 C 
ATOM      9  O   UNL A   1      34.566  24.342  22.587  1.00  0.00    -0.248 OA
BRANCH   8  10
ATOM     10  N   UNL A   1      35.470  23.450  24.458  1.00  0.00    -0.325 N 
ATOM     11  C   UNL A   1      36.156  24.024  25.613  1.00  0.00     0.148 C 
BRANCH  10  12
ATOM     12  C   UNL A   1      35.879  22.090  24.116  1.00  0.00     0.149 C 
BRANCH  12  13
ATOM     13  C   UNL A   1      35.532  21.023  25.169  1.00  0.00     0.181 C 
BRANCH  13  14
ATOM     14  O   UNL A   1      35.472  19.667  24.737  1.00  0.00    -0.379 OA
BRANCH  14  15
ATOM     15  C   UNL A   1      34.176  19.065  24.704  1.00  0.00     0.163 C 
BRANCH  15  16
ATOM     16  C   UNL A   1      34.175  17.580  24.530  1.00  0.00     0.015 C 
ATOM     17  C   UNL A   1      32.984  16.835  23.988  1.00  0.00     0.006 C 
ATOM     18  C   UNL A   1      34.271  16.865  23.206  1.00  0.00     0.006 C 
ENDBRANCH  15  16
ENDBRANCH  14  15
ENDBRANCH  13  14
ENDBRANCH  12  13
ENDBRANCH  10  12
ENDBRANCH   8  10
ENDBRANCH   4   8
ENDBRANCH   1   3
BRANCH   1  19
ATOM     19  O   UNL A   1      31.095  28.852  25.405  1.00  0.00    -0.462 OA
BRANCH  19  20
ATOM     20  C   UNL A   1      31.368  30.240  25.160  1.00  0.00     0.274 C 
BRANCH  20  21
ATOM     21  C   UNL A   1      31.730  30.920  26.482  1.00  0.00     0.275 C 
BRANCH  21  22
ATOM     22  O   UNL A   1      33.123  30.711  26.794  1.00  0.00    -0.458 OA
BRANCH  22  23
ATOM     23  C   UNL A   1      33.755  31.722  27.431  1.00  0.00     0.338 C 
ATOM     24  O   UNL A   1      33.334  32.855  27.623  1.00  0.00    -0.246 OA
BRANCH  23  25
ATOM     25  C   UNL A   1      35.042  31.253  27.969  1.00  0.00     0.060 A 
ATOM     26  C   UNL A   1      35.143  29.934  28.413  1.00  0.00     0.016 A 
ATOM     27  C   UNL A   1      36.111  32.131  28.138  1.00  0.00     0.016 A 
ATOM     28  C   UNL A   1      36.293  29.491  29.057  1.00  0.00     0.010 A 
ATOM     29  C   UNL A   1      37.287  31.672  28.746  1.00  0.00     0.010 A 
ATOM     30  C   UNL A   1      37.382  30.353  29.224  1.00  0.00    -0.014 A 
BRANCH  30  31
ATOM     31  C   UNL A   1      38.608  29.852  29.895  1.00  0.00     0.031 A 
ATOM     32  C   UNL A   1      38.988  30.350  31.261  1.00  0.00     0.074 A 
ATOM     33  C   UNL A   1      39.374  28.934  29.274  1.00  0.00     0.049 A 
ATOM     34  N   UNL A   1      40.043  30.060  31.979  1.00  0.00    -0.248 NA
ATOM     35  C   UNL A   1      38.067  31.299  31.905  1.00  0.00     0.031 C 
ATOM     36  C   UNL A   1      39.108  28.373  27.948  1.00  0.00     0.029 A 
ATOM     37  N   UNL A   1      40.537  28.322  29.668  1.00  0.00    -0.354 N 
ATOM     38  C   UNL A   1      39.940  30.823  33.135  1.00  0.00     0.074 A 
ATOM     39  C   UNL A   1      38.716  31.589  33.025  1.00  0.00     0.031 C 
ATOM     40  C   UNL A   1      40.082  27.503  27.637  1.00  0.00     0.029 A 
ATOM     41  C   UNL A   1      41.062  27.478  28.718  1.00  0.00     0.049 A 
ATOM     42  H   UNL A   1      40.956  28.473  30.546  1.00  0.00     0.167 HD
ATOM     43  C   UNL A   1      40.780  30.872  34.197  1.00  0.00     0.034 A 
ATOM     44  C   UNL A   1      42.214  26.781  28.704  1.00  0.00     0.034 A 
ATOM     45  C   UNL A   1      41.974  30.077  34.324  1.00  0.00     0.049 A 
ATOM     46  C   UNL A   1      43.124  26.851  29.899  1.00  0.00     0.074 A 
ATOM     47  C   UNL A   1      42.863  30.023  35.383  1.00  0.00     0.029 A 
ATOM     48  N   UNL A   1      42.451  29.201  33.360  1.00  0.00    -0.354 N 
ATOM     49  N   UNL A   1      42.961  27.503  31.025  1.00  0.00    -0.248 NA
ATOM     50  C   UNL A   1      44.366  26.068  29.833  1.00  0.00     0.031 C 
ATOM     51  C   UNL A   1      43.887  29.127  35.052  1.00  0.00     0.029 A 
ATOM     52  C   UNL A   1      43.624  28.607  33.795  1.00  0.00     0.049 A 
ATOM     53  H   UNL A   1      42.017  29.025  32.494  1.00  0.00     0.167 HD
ATOM     54  C   UNL A   1      44.066  27.195  31.808  1.00  0.00     0.074 A 
ATOM     55  C   UNL A   1      44.874  26.267  31.041  1.00  0.00     0.031 C 
ATOM     56  C   UNL A   1      44.398  27.654  33.041  1.00  0.00     0.034 A 
BRANCH  43  57
ATOM     57  C   UNL A   1      40.426  31.802  35.327  1.00  0.00     0.023 A 
ATOM     58  C   UNL A   1      41.148  33.001  35.497  1.00  0.00     0.012 A 
ATOM     59  C   UNL A   1      39.342  31.521  36.183  1.00  0.00     0.148 A 
ATOM     60  C   UNL A   1      40.816  33.892  36.518  1.00  0.00     0.002 A 
ATOM     61  C   UNL A   1      38.992  32.432  37.173  1.00  0.00     0.091 A 
ATOM     62  F   UNL A   1      38.682  30.365  36.020  1.00  0.00    -0.205 F 
ATOM     63  C   UNL A   1      39.734  33.612  37.348  1.00  0.00     0.022 A 
BRANCH  61  64
ATOM     64  S   UNL A   1      37.569  32.198  38.244  1.00  0.00     0.127 S 
ATOM     65  O   UNL A   1      37.375  30.752  38.163  1.00  0.00    -0.237 OA
ATOM     66  O   UNL A   1      38.071  32.674  39.533  1.00  0.00    -0.237 OA
ATOM     67  O   UNL A   1      36.501  33.007  37.674  1.00  0.00    -0.744 OA
ENDBRANCH  61  64
ENDBRANCH  43  57
BRANCH  44  68
ATOM     68  C   UNL A   1      42.558  25.936  27.526  1.00  0.00     0.023 A 
ATOM     69  C   UNL A   1      43.367  26.466  26.503  1.00  0.00     0.012 A 
ATOM     70  C   UNL A   1      42.114  24.603  27.430  1.00  0.00     0.148 A 
ATOM     71  C   UNL A   1      43.705  25.692  25.392  1.00  0.00     0.002 A 
ATOM     72  C   UNL A   1      42.504  23.819  26.350  1.00  0.00     0.091 A 
ATOM     73  F   UNL A   1      41.327  24.122  28.402  1.00  0.00    -0.205 F 
ATOM     74  C   UNL A   1      43.285  24.367  25.322  1.00  0.00     0.022 A 
BRANCH  72  75
ATOM     75  S   UNL A   1      42.120  22.067  26.252  1.00  0.00     0.127 S 
ATOM     76  O   UNL A   1      42.942  21.643  25.121  1.00  0.00    -0.237 OA
ATOM     77  O   UNL A   1      42.571  21.582  27.557  1.00  0.00    -0.237 OA
ATOM     78  O   UNL A   1      40.678  21.995  26.053  1.00  0.00    -0.744 OA
ENDBRANCH  72  75
ENDBRANCH  44  68
BRANCH  56  79
ATOM     79  C   UNL A   1      45.684  27.151  33.641  1.00  0.00     0.023 A 
ATOM     80  C   UNL A   1      46.872  27.887  33.460  1.00  0.00     0.012 A 
ATOM     81  C   UNL A   1      45.712  25.975  34.416  1.00  0.00     0.148 A 
ATOM     82  C   UNL A   1      48.074  27.440  34.006  1.00  0.00     0.002 A 
ATOM     83  C   UNL A   1      46.906  25.561  34.997  1.00  0.00     0.091 A 
ATOM     84  F   UNL A   1      44.578  25.274  34.561  1.00  0.00    -0.205 F 
ATOM     85  C   UNL A   1      48.090  26.283  34.781  1.00  0.00     0.022 A 
BRANCH  83  86
ATOM     86  S   UNL A   1      46.992  24.132  36.083  1.00  0.00     0.127 S 
ATOM     87  O   UNL A   1      48.414  24.098  36.420  1.00  0.00    -0.237 OA
ATOM     88  O   UNL A   1      46.114  24.523  37.187  1.00  0.00    -0.237 OA
ATOM     89  O   UNL A   1      46.501  23.009  35.296  1.00  0.00    -0.744 OA
ENDBRANCH  83  86
ENDBRANCH  56  79
ENDBRANCH  30  31
ENDBRANCH  23  25
ENDBRANCH  22  23
ENDBRANCH  21  22
ENDBRANCH  20  21
ENDBRANCH  19  20
ENDBRANCH   1  19
TORSDOF 21
ENDMDL
