MODEL 1
REMARK VINA RESULT:     -13.0      0.000      0.000
REMARK SMILES O=C(CCN1C(=O)c2ccc(NC(=O)c3cc4ccccc4o3)cc2C1=O)OCCOC(=O)c1ccc(-c2c3nc(c(-c4cccc(S(=O)(=O)[O-])c4F)c4ccc([nH]4)c(-c4cccc(S(=O)(=O)[O-])c4F)c4nc(c(-c5cccc(S(=O)(=O)[O-])c5F)c5ccc2[nH]5)C=C4)C=C3)cc1
REMARK SMILES IDX 29 1 28 2 2 3 1 4 3 5 4 6 5 7 6 8 26 9 7 10 8 11 25 12 27 13
REMARK SMILES IDX 9 14 24 15 10 16 11 17 12 18 13 19 14 21 15 22 16 23 23 24
REMARK SMILES IDX 17 25 22 26 18 27 21 28 19 29 20 30 30 31 31 32 32 33 33 34
REMARK SMILES IDX 34 35 35 36 96 37 36 38 95 39 37 40 38 41 39 42 89 43 40 44
REMARK SMILES IDX 94 45 88 46 90 47 41 48 93 49 87 50 86 51 42 53 74 54 54 55
REMARK SMILES IDX 73 56 55 57 58 58 72 59 91 60 56 61 57 62 71 64 92 65 59 66
REMARK SMILES IDX 43 67 44 68 52 69 45 70 47 71 53 72 46 73 48 74 49 75 50 76
REMARK SMILES IDX 51 77 75 78 76 79 84 80 77 81 79 82 85 83 78 84 80 85 81 86
REMARK SMILES IDX 82 87 83 88 60 89 61 90 69 91 62 92 64 93 70 94 63 95 65 96
REMARK SMILES IDX 66 97 67 98 68 99
REMARK H PARENT 12 20 90 52 58 63
REMARK Flexibility Score: inf
ROOT
ATOM      1  C   UNL A   1      31.843  29.055  25.437  1.00  0.00     0.274 C 
ENDROOT
BRANCH   1   2
ATOM      2  O   UNL A   1      32.914  28.158  25.116  1.00  0.00    -0.462 OA
BRANCH   2   3
ATOM      3  C   UNL A   1      33.027  27.063  25.917  1.00  0.00     0.307 C 
ATOM      4  O   UNL A   1      33.979  26.300  25.824  1.00  0.00    -0.252 OA
BRANCH   3   5
ATOM      5  C   UNL A   1      31.835  26.793  26.807  1.00  0.00     0.145 C 
BRANCH   5   6
ATOM      6  C   UNL A   1      30.618  26.260  26.048  1.00  0.00     0.141 C 
BRANCH   6   7
ATOM      7  N   UNL A   1      30.809  24.947  25.435  1.00  0.00    -0.274 N 
ATOM      8  C   UNL A   1      31.012  24.757  24.094  1.00  0.00     0.261 C 
ATOM      9  C   UNL A   1      30.744  23.748  26.086  1.00  0.00     0.261 C 
ATOM     10  O   UNL A   1      30.991  25.555  23.178  1.00  0.00    -0.269 OA
ATOM     11  C   UNL A   1      31.335  23.341  23.923  1.00  0.00     0.053 A 
ATOM     12  C   UNL A   1      31.271  22.745  25.165  1.00  0.00     0.055 A 
ATOM     13  O   UNL A   1      30.382  23.488  27.216  1.00  0.00    -0.269 OA
ATOM     14  C   UNL A   1      31.790  22.656  22.821  1.00  0.00     0.017 A 
ATOM     15  C   UNL A   1      31.804  21.488  25.420  1.00  0.00     0.040 A 
ATOM     16  C   UNL A   1      32.287  21.366  23.041  1.00  0.00     0.027 A 
ATOM     17  C   UNL A   1      32.376  20.810  24.345  1.00  0.00     0.042 A 
BRANCH  17  18
ATOM     18  N   UNL A   1      33.089  19.604  24.436  1.00  0.00    -0.319 N 
ATOM     19  C   UNL A   1      34.409  19.281  24.674  1.00  0.00     0.291 C 
ATOM     20  H   UNL A   1      32.519  18.813  24.300  1.00  0.00     0.170 HD
ATOM     21  O   UNL A   1      34.694  18.085  24.546  1.00  0.00    -0.265 OA
BRANCH  19  22
ATOM     22  C   UNL A   1      35.433  20.274  24.888  1.00  0.00     0.193 A 
ATOM     23  C   UNL A   1      36.805  20.126  24.992  1.00  0.00     0.065 A 
ATOM     24  O   UNL A   1      35.080  21.544  25.254  1.00  0.00    -0.451 OA
ATOM     25  C   UNL A   1      37.328  21.371  25.427  1.00  0.00     0.021 A 
ATOM     26  C   UNL A   1      36.227  22.203  25.587  1.00  0.00     0.135 A 
ATOM     27  C   UNL A   1      38.608  21.881  25.717  1.00  0.00     0.012 A 
ATOM     28  C   UNL A   1      36.307  23.528  26.011  1.00  0.00     0.048 A 
ATOM     29  C   UNL A   1      38.721  23.216  26.131  1.00  0.00     0.001 A 
ATOM     30  C   UNL A   1      37.589  24.024  26.274  1.00  0.00     0.004 A 
ENDBRANCH  19  22
ENDBRANCH  17  18
ENDBRANCH   6   7
ENDBRANCH   5   6
ENDBRANCH   3   5
ENDBRANCH   2   3
ENDBRANCH   1   2
BRANCH   1  31
ATOM     31  C   UNL A   1      32.320  30.430  25.902  1.00  0.00     0.275 C 
BRANCH  31  32
ATOM     32  O   UNL A   1      32.917  30.384  27.198  1.00  0.00    -0.458 OA
BRANCH  32  33
ATOM     33  C   UNL A   1      33.525  31.538  27.552  1.00  0.00     0.338 C 
ATOM     34  O   UNL A   1      32.992  32.616  27.759  1.00  0.00    -0.246 OA
BRANCH  33  35
ATOM     35  C   UNL A   1      34.938  31.265  27.856  1.00  0.00     0.060 A 
ATOM     36  C   UNL A   1      35.269  29.935  28.129  1.00  0.00     0.016 A 
ATOM     37  C   UNL A   1      35.910  32.272  27.911  1.00  0.00     0.016 A 
ATOM     38  C   UNL A   1      36.552  29.619  28.551  1.00  0.00     0.010 A 
ATOM     39  C   UNL A   1      37.205  31.948  28.328  1.00  0.00     0.010 A 
ATOM     40  C   UNL A   1      37.510  30.630  28.705  1.00  0.00    -0.014 A 
BRANCH  40  41
ATOM     41  C   UNL A   1      38.757  30.291  29.428  1.00  0.00     0.031 A 
ATOM     42  C   UNL A   1      38.925  30.770  30.843  1.00  0.00     0.074 A 
ATOM     43  C   UNL A   1      39.671  29.478  28.870  1.00  0.00     0.049 A 
ATOM     44  N   UNL A   1      39.808  30.408  31.736  1.00  0.00    -0.248 NA
ATOM     45  C   UNL A   1      37.968  31.783  31.320  1.00  0.00     0.031 C 
ATOM     46  C   UNL A   1      39.627  28.969  27.500  1.00  0.00     0.029 A 
ATOM     47  N   UNL A   1      40.810  28.929  29.399  1.00  0.00    -0.354 N 
ATOM     48  C   UNL A   1      39.515  31.144  32.876  1.00  0.00     0.074 A 
ATOM     49  C   UNL A   1      38.395  32.000  32.555  1.00  0.00     0.031 C 
ATOM     50  C   UNL A   1      40.692  28.175  27.298  1.00  0.00     0.029 A 
ATOM     51  C   UNL A   1      41.484  28.112  28.525  1.00  0.00     0.049 A 
ATOM     52  H   UNL A   1      41.116  29.103  30.318  1.00  0.00     0.167 HD
ATOM     53  C   UNL A   1      40.102  31.089  34.094  1.00  0.00     0.034 A 
ATOM     54  C   UNL A   1      42.598  27.375  28.706  1.00  0.00     0.034 A 
ATOM     55  C   UNL A   1      41.202  30.222  34.418  1.00  0.00     0.049 A 
ATOM     56  C   UNL A   1      43.227  27.322  30.075  1.00  0.00     0.074 A 
ATOM     57  C   UNL A   1      41.838  30.054  35.634  1.00  0.00     0.029 A 
ATOM     58  N   UNL A   1      41.835  29.384  33.513  1.00  0.00    -0.354 N 
ATOM     59  N   UNL A   1      42.833  27.891  31.189  1.00  0.00    -0.248 NA
ATOM     60  C   UNL A   1      44.424  26.482  30.223  1.00  0.00     0.031 C 
ATOM     61  C   UNL A   1      42.869  29.124  35.460  1.00  0.00     0.029 A 
ATOM     62  C   UNL A   1      42.863  28.703  34.139  1.00  0.00     0.049 A 
ATOM     63  H   UNL A   1      41.590  29.289  32.564  1.00  0.00     0.167 HD
ATOM     64  C   UNL A   1      43.705  27.444  32.176  1.00  0.00     0.074 A 
ATOM     65  C   UNL A   1      44.638  26.544  31.530  1.00  0.00     0.031 C 
ATOM     66  C   UNL A   1      43.740  27.761  33.495  1.00  0.00     0.034 A 
BRANCH  53  67
ATOM     67  C   UNL A   1      39.532  31.960  35.180  1.00  0.00     0.023 A 
ATOM     68  C   UNL A   1      38.544  31.437  36.038  1.00  0.00     0.012 A 
ATOM     69  C   UNL A   1      39.996  33.274  35.378  1.00  0.00     0.148 A 
ATOM     70  C   UNL A   1      38.006  32.216  37.061  1.00  0.00     0.002 A 
ATOM     71  C   UNL A   1      39.481  34.034  36.422  1.00  0.00     0.091 A 
ATOM     72  F   UNL A   1      40.913  33.764  34.532  1.00  0.00    -0.205 F 
ATOM     73  C   UNL A   1      38.482  33.509  37.259  1.00  0.00     0.022 A 
BRANCH  71  74
ATOM     74  S   UNL A   1      40.077  35.687  36.793  1.00  0.00     0.127 S 
ATOM     75  O   UNL A   1      41.516  35.462  36.910  1.00  0.00    -0.237 OA
ATOM     76  O   UNL A   1      39.673  36.438  35.604  1.00  0.00    -0.237 OA
ATOM     77  O   UNL A   1      39.399  36.088  38.018  1.00  0.00    -0.744 OA
ENDBRANCH  71  74
ENDBRANCH  53  67
BRANCH  54  78
ATOM     78  C   UNL A   1      43.136  26.555  27.586  1.00  0.00     0.023 A 
ATOM     79  C   UNL A   1      43.939  27.164  26.602  1.00  0.00     0.012 A 
ATOM     80  C   UNL A   1      42.872  25.174  27.500  1.00  0.00     0.148 A 
ATOM     81  C   UNL A   1      44.444  26.419  25.535  1.00  0.00     0.002 A 
ATOM     82  C   UNL A   1      43.419  24.428  26.461  1.00  0.00     0.091 A 
ATOM     83  F   UNL A   1      42.090  24.617  28.435  1.00  0.00    -0.205 F 
ATOM     84  C   UNL A   1      44.192  25.051  25.470  1.00  0.00     0.022 A 
BRANCH  82  85
ATOM     85  S   UNL A   1      43.241  22.643  26.371  1.00  0.00     0.127 S 
ATOM     86  O   UNL A   1      42.351  22.489  25.224  1.00  0.00    -0.237 OA
ATOM     87  O   UNL A   1      44.621  22.210  26.145  1.00  0.00    -0.237 OA
ATOM     88  O   UNL A   1      42.695  22.243  27.661  1.00  0.00    -0.744 OA
ENDBRANCH  82  85
ENDBRANCH  54  78
BRANCH  66  89
ATOM     89  C   UNL A   1      44.800  27.107  34.343  1.00  0.00     0.023 A 
ATOM     90  C   UNL A   1      46.070  27.706  34.456  1.00  0.00     0.012 A 
ATOM     91  C   UNL A   1      44.514  25.947  35.090  1.00  0.00     0.148 A 
ATOM     92  C   UNL A   1      47.049  27.144  35.274  1.00  0.00     0.002 A 
ATOM     93  C   UNL A   1      45.479  25.419  35.939  1.00  0.00     0.091 A 
ATOM     94  F   UNL A   1      43.307  25.378  34.955  1.00  0.00    -0.205 F 
ATOM     95  C   UNL A   1      46.750  26.008  36.024  1.00  0.00     0.022 A 
BRANCH  93  96
ATOM     96  S   UNL A   1      45.134  24.017  37.010  1.00  0.00     0.127 S 
ATOM     97  O   UNL A   1      44.090  24.554  37.881  1.00  0.00    -0.237 OA
ATOM     98  O   UNL A   1      44.674  22.999  36.065  1.00  0.00    -0.237 OA
ATOM     99  O   UNL A   1      46.400  23.701  37.658  1.00  0.00    -0.744 OA
ENDBRANCH  93  96
ENDBRANCH  66  89
ENDBRANCH  40  41
ENDBRANCH  33  35
ENDBRANCH  32  33
ENDBRANCH  31  32
ENDBRANCH   1  31
TORSDOF 18
ENDMDL
MODEL 2
REMARK VINA RESULT:     -12.8      4.750     10.337
REMARK SMILES O=C(CCN1C(=O)c2ccc(NC(=O)c3cc4ccccc4o3)cc2C1=O)OCCOC(=O)c1ccc(-c2c3nc(c(-c4cccc(S(=O)(=O)[O-])c4F)c4ccc([nH]4)c(-c4cccc(S(=O)(=O)[O-])c4F)c4nc(c(-c5cccc(S(=O)(=O)[O-])c5F)c5ccc2[nH]5)C=C4)C=C3)cc1
REMARK SMILES IDX 29 1 28 2 2 3 1 4 3 5 4 6 5 7 6 8 26 9 7 10 8 11 25 12 27 13
REMARK SMILES IDX 9 14 24 15 10 16 11 17 12 18 13 19 14 21 15 22 16 23 23 24
REMARK SMILES IDX 17 25 22 26 18 27 21 28 19 29 20 30 30 31 31 32 32 33 33 34
REMARK SMILES IDX 34 35 35 36 96 37 36 38 95 39 37 40 38 41 39 42 89 43 40 44
REMARK SMILES IDX 94 45 88 46 90 47 41 48 93 49 87 50 86 51 42 53 74 54 54 55
REMARK SMILES IDX 73 56 55 57 58 58 72 59 91 60 56 61 57 62 71 64 92 65 59 66
REMARK SMILES IDX 43 67 44 68 52 69 45 70 47 71 53 72 46 73 48 74 49 75 50 76
REMARK SMILES IDX 51 77 75 78 76 79 84 80 77 81 79 82 85 83 78 84 80 85 81 86
REMARK SMILES IDX 82 87 83 88 60 89 61 90 69 91 62 92 64 93 70 94 63 95 65 96
REMARK SMILES IDX 66 97 67 98 68 99
REMARK H PARENT 12 20 90 52 58 63
REMARK Flexibility Score: inf
ROOT
ATOM      1  C   UNL A   1      35.620  21.204  24.869  1.00  0.00     0.274 C 
ENDROOT
BRANCH   1   2
ATOM      2  O   UNL A   1      35.529  19.787  25.060  1.00  0.00    -0.462 OA
BRANCH   2   3
ATOM      3  C   UNL A   1      34.314  19.233  24.796  1.00  0.00     0.307 C 
ATOM      4  O   UNL A   1      34.197  18.281  24.035  1.00  0.00    -0.252 OA
BRANCH   3   5
ATOM      5  C   UNL A   1      33.132  19.965  25.390  1.00  0.00     0.145 C 
BRANCH   5   6
ATOM      6  C   UNL A   1      32.205  20.579  24.338  1.00  0.00     0.141 C 
BRANCH   6   7
ATOM      7  N   UNL A   1      31.934  22.003  24.520  1.00  0.00    -0.274 N 
ATOM      8  C   UNL A   1      31.014  22.494  25.408  1.00  0.00     0.261 C 
ATOM      9  C   UNL A   1      32.496  23.018  23.799  1.00  0.00     0.261 C 
ATOM     10  O   UNL A   1      30.220  21.909  26.118  1.00  0.00    -0.269 OA
ATOM     11  C   UNL A   1      31.180  23.947  25.411  1.00  0.00     0.053 A 
ATOM     12  C   UNL A   1      32.164  24.257  24.496  1.00  0.00     0.055 A 
ATOM     13  O   UNL A   1      33.185  22.981  22.800  1.00  0.00    -0.269 OA
ATOM     14  C   UNL A   1      30.639  24.906  26.235  1.00  0.00     0.017 A 
ATOM     15  C   UNL A   1      32.783  25.500  24.455  1.00  0.00     0.040 A 
ATOM     16  C   UNL A   1      31.210  26.182  26.178  1.00  0.00     0.027 A 
ATOM     17  C   UNL A   1      32.333  26.464  25.356  1.00  0.00     0.042 A 
BRANCH  17  18
ATOM     18  N   UNL A   1      32.928  27.718  25.563  1.00  0.00    -0.319 N 
ATOM     19  C   UNL A   1      32.589  29.013  25.227  1.00  0.00     0.291 C 
ATOM     20  H   UNL A   1      33.777  27.661  26.058  1.00  0.00     0.170 HD
ATOM     21  O   UNL A   1      33.448  29.868  25.473  1.00  0.00    -0.265 OA
BRANCH  19  22
ATOM     22  C   UNL A   1      31.396  29.344  24.488  1.00  0.00     0.193 A 
ATOM     23  C   UNL A   1      30.919  28.828  23.294  1.00  0.00     0.065 A 
ATOM     24  O   UNL A   1      30.672  30.454  24.828  1.00  0.00    -0.451 OA
ATOM     25  C   UNL A   1      29.837  29.649  22.886  1.00  0.00     0.021 A 
ATOM     26  C   UNL A   1      29.735  30.641  23.854  1.00  0.00     0.135 A 
ATOM     27  C   UNL A   1      28.942  29.671  21.800  1.00  0.00     0.012 A 
ATOM     28  C   UNL A   1      28.789  31.663  23.825  1.00  0.00     0.048 A 
ATOM     29  C   UNL A   1      27.969  30.680  21.751  1.00  0.00     0.001 A 
ATOM     30  C   UNL A   1      27.894  31.657  22.748  1.00  0.00     0.004 A 
ENDBRANCH  19  22
ENDBRANCH  17  18
ENDBRANCH   6   7
ENDBRANCH   5   6
ENDBRANCH   3   5
ENDBRANCH   2   3
ENDBRANCH   1   2
BRANCH   1  31
ATOM     31  C   UNL A   1      36.645  21.876  25.782  1.00  0.00     0.275 C 
BRANCH  31  32
ATOM     32  O   UNL A   1      37.888  22.108  25.118  1.00  0.00    -0.458 OA
BRANCH  32  33
ATOM     33  C   UNL A   1      38.962  21.702  25.829  1.00  0.00     0.338 C 
ATOM     34  O   UNL A   1      39.583  20.660  25.693  1.00  0.00    -0.246 OA
BRANCH  33  35
ATOM     35  C   UNL A   1      39.419  22.807  26.686  1.00  0.00     0.060 A 
ATOM     36  C   UNL A   1      38.846  24.058  26.444  1.00  0.00     0.016 A 
ATOM     37  C   UNL A   1      40.401  22.645  27.671  1.00  0.00     0.016 A 
ATOM     38  C   UNL A   1      39.318  25.172  27.121  1.00  0.00     0.010 A 
ATOM     39  C   UNL A   1      40.869  23.770  28.359  1.00  0.00     0.010 A 
ATOM     40  C   UNL A   1      40.367  25.043  28.042  1.00  0.00    -0.014 A 
BRANCH  40  41
ATOM     41  C   UNL A   1      41.025  26.282  28.513  1.00  0.00     0.031 A 
ATOM     42  C   UNL A   1      42.461  26.528  28.137  1.00  0.00     0.074 A 
ATOM     43  C   UNL A   1      40.323  27.222  29.168  1.00  0.00     0.049 A 
ATOM     44  N   UNL A   1      43.161  27.627  28.234  1.00  0.00    -0.248 NA
ATOM     45  C   UNL A   1      43.203  25.390  27.568  1.00  0.00     0.031 C 
ATOM     46  C   UNL A   1      38.934  27.089  29.606  1.00  0.00     0.029 A 
ATOM     47  N   UNL A   1      40.684  28.483  29.568  1.00  0.00    -0.354 N 
ATOM     48  C   UNL A   1      44.421  27.315  27.740  1.00  0.00     0.074 A 
ATOM     49  C   UNL A   1      44.403  25.916  27.376  1.00  0.00     0.031 C 
ATOM     50  C   UNL A   1      38.558  28.229  30.211  1.00  0.00     0.029 A 
ATOM     51  C   UNL A   1      39.674  29.173  30.193  1.00  0.00     0.049 A 
ATOM     52  H   UNL A   1      41.581  28.859  29.421  1.00  0.00     0.167 HD
ATOM     53  C   UNL A   1      45.489  28.128  27.571  1.00  0.00     0.034 A 
ATOM     54  C   UNL A   1      39.646  30.433  30.669  1.00  0.00     0.034 A 
ATOM     55  C   UNL A   1      45.500  29.524  27.914  1.00  0.00     0.049 A 
ATOM     56  C   UNL A   1      40.845  31.322  30.459  1.00  0.00     0.074 A 
ATOM     57  C   UNL A   1      46.514  30.447  27.739  1.00  0.00     0.029 A 
ATOM     58  N   UNL A   1      44.444  30.194  28.514  1.00  0.00    -0.354 N 
ATOM     59  N   UNL A   1      41.969  31.062  29.833  1.00  0.00    -0.248 NA
ATOM     60  C   UNL A   1      40.751  32.696  30.974  1.00  0.00     0.031 C 
ATOM     61  C   UNL A   1      46.076  31.675  28.249  1.00  0.00     0.029 A 
ATOM     62  C   UNL A   1      44.784  31.518  28.727  1.00  0.00     0.049 A 
ATOM     63  H   UNL A   1      43.581  29.787  28.755  1.00  0.00     0.167 HD
ATOM     64  C   UNL A   1      42.694  32.249  29.842  1.00  0.00     0.074 A 
ATOM     65  C   UNL A   1      41.876  33.233  30.520  1.00  0.00     0.031 C 
ATOM     66  C   UNL A   1      43.932  32.499  29.345  1.00  0.00     0.034 A 
BRANCH  53  67
ATOM     67  C   UNL A   1      46.721  27.536  26.944  1.00  0.00     0.023 A 
ATOM     68  C   UNL A   1      47.611  26.786  27.741  1.00  0.00     0.012 A 
ATOM     69  C   UNL A   1      46.981  27.684  25.569  1.00  0.00     0.148 A 
ATOM     70  C   UNL A   1      48.754  26.215  27.185  1.00  0.00     0.002 A 
ATOM     71  C   UNL A   1      48.105  27.082  25.013  1.00  0.00     0.091 A 
ATOM     72  F   UNL A   1      46.141  28.426  24.834  1.00  0.00    -0.205 F 
ATOM     73  C   UNL A   1      48.995  26.354  25.820  1.00  0.00     0.022 A 
BRANCH  71  74
ATOM     74  S   UNL A   1      48.464  27.153  23.255  1.00  0.00     0.127 S 
ATOM     75  O   UNL A   1      49.870  27.553  23.257  1.00  0.00    -0.237 OA
ATOM     76  O   UNL A   1      48.224  25.773  22.832  1.00  0.00    -0.237 OA
ATOM     77  O   UNL A   1      47.533  28.125  22.698  1.00  0.00    -0.744 OA
ENDBRANCH  71  74
ENDBRANCH  53  67
BRANCH  54  78
ATOM     78  C   UNL A   1      38.409  30.959  31.308  1.00  0.00     0.023 A 
ATOM     79  C   UNL A   1      38.241  30.838  32.702  1.00  0.00     0.012 A 
ATOM     80  C   UNL A   1      37.406  31.592  30.548  1.00  0.00     0.148 A 
ATOM     81  C   UNL A   1      37.084  31.310  33.323  1.00  0.00     0.002 A 
ATOM     82  C   UNL A   1      36.278  32.104  31.180  1.00  0.00     0.091 A 
ATOM     83  F   UNL A   1      37.575  31.680  29.222  1.00  0.00    -0.205 F 
ATOM     84  C   UNL A   1      36.108  31.952  32.564  1.00  0.00     0.022 A 
BRANCH  82  85
ATOM     85  S   UNL A   1      35.033  33.047  30.293  1.00  0.00     0.127 S 
ATOM     86  O   UNL A   1      35.832  34.113  29.698  1.00  0.00    -0.237 OA
ATOM     87  O   UNL A   1      34.519  32.057  29.344  1.00  0.00    -0.237 OA
ATOM     88  O   UNL A   1      34.068  33.460  31.303  1.00  0.00    -0.744 OA
ENDBRANCH  82  85
ENDBRANCH  54  78
BRANCH  66  89
ATOM     89  C   UNL A   1      44.472  33.898  29.484  1.00  0.00     0.023 A 
ATOM     90  C   UNL A   1      45.103  34.287  30.682  1.00  0.00     0.012 A 
ATOM     91  C   UNL A   1      44.427  34.801  28.403  1.00  0.00     0.148 A 
ATOM     92  C   UNL A   1      45.652  35.561  30.814  1.00  0.00     0.002 A 
ATOM     93  C   UNL A   1      45.017  36.053  28.525  1.00  0.00     0.091 A 
ATOM     94  F   UNL A   1      43.804  34.423  27.277  1.00  0.00    -0.205 F 
ATOM     95  C   UNL A   1      45.620  36.439  29.732  1.00  0.00     0.022 A 
BRANCH  93  96
ATOM     96  S   UNL A   1      45.102  37.200  27.144  1.00  0.00     0.127 S 
ATOM     97  O   UNL A   1      45.808  36.408  26.139  1.00  0.00    -0.237 OA
ATOM     98  O   UNL A   1      43.690  37.444  26.845  1.00  0.00    -0.237 OA
ATOM     99  O   UNL A   1      45.815  38.366  27.648  1.00  0.00    -0.744 OA
ENDBRANCH  93  96
ENDBRANCH  66  89
ENDBRANCH  40  41
ENDBRANCH  33  35
ENDBRANCH  32  33
ENDBRANCH  31  32
ENDBRANCH   1  31
TORSDOF 18
ENDMDL
MODEL 3
REMARK VINA RESULT:     -12.4      1.647      2.033
REMARK SMILES O=C(CCN1C(=O)c2ccc(NC(=O)c3cc4ccccc4o3)cc2C1=O)OCCOC(=O)c1ccc(-c2c3nc(c(-c4cccc(S(=O)(=O)[O-])c4F)c4ccc([nH]4)c(-c4cccc(S(=O)(=O)[O-])c4F)c4nc(c(-c5cccc(S(=O)(=O)[O-])c5F)c5ccc2[nH]5)C=C4)C=C3)cc1
REMARK SMILES IDX 29 1 28 2 2 3 1 4 3 5 4 6 5 7 6 8 26 9 7 10 8 11 25 12 27 13
REMARK SMILES IDX 9 14 24 15 10 16 11 17 12 18 13 19 14 21 15 22 16 23 23 24
REMARK SMILES IDX 17 25 22 26 18 27 21 28 19 29 20 30 30 31 31 32 32 33 33 34
REMARK SMILES IDX 34 35 35 36 96 37 36 38 95 39 37 40 38 41 39 42 89 43 40 44
REMARK SMILES IDX 94 45 88 46 90 47 41 48 93 49 87 50 86 51 42 53 74 54 54 55
REMARK SMILES IDX 73 56 55 57 58 58 72 59 91 60 56 61 57 62 71 64 92 65 59 66
REMARK SMILES IDX 43 67 44 68 52 69 45 70 47 71 53 72 46 73 48 74 49 75 50 76
REMARK SMILES IDX 51 77 75 78 76 79 84 80 77 81 79 82 85 83 78 84 80 85 81 86
REMARK SMILES IDX 82 87 83 88 60 89 61 90 69 91 62 92 64 93 70 94 63 95 65 96
REMARK SMILES IDX 66 97 67 98 68 99
REMARK H PARENT 12 20 90 52 58 63
REMARK Flexibility Score: inf
ROOT
ATOM      1  C   UNL A   1      31.537  29.857  26.228  1.00  0.00     0.274 C 
ENDROOT
BRANCH   1   2
ATOM      2  O   UNL A   1      31.907  29.007  25.135  1.00  0.00    -0.462 OA
BRANCH   2   3
ATOM      3  C   UNL A   1      32.526  27.844  25.476  1.00  0.00     0.307 C 
ATOM      4  O   UNL A   1      33.513  27.445  24.872  1.00  0.00    -0.252 OA
BRANCH   3   5
ATOM      5  C   UNL A   1      31.824  27.031  26.540  1.00  0.00     0.145 C 
BRANCH   5   6
ATOM      6  C   UNL A   1      30.551  26.346  26.040  1.00  0.00     0.141 C 
BRANCH   6   7
ATOM      7  N   UNL A   1      30.764  25.041  25.417  1.00  0.00    -0.274 N 
ATOM      8  C   UNL A   1      30.906  24.858  24.067  1.00  0.00     0.261 C 
ATOM      9  C   UNL A   1      30.781  23.841  26.069  1.00  0.00     0.261 C 
ATOM     10  O   UNL A   1      30.806  25.653  23.153  1.00  0.00    -0.269 OA
ATOM     11  C   UNL A   1      31.277  23.456  23.879  1.00  0.00     0.053 A 
ATOM     12  C   UNL A   1      31.302  22.860  25.122  1.00  0.00     0.055 A 
ATOM     13  O   UNL A   1      30.488  23.569  27.216  1.00  0.00    -0.269 OA
ATOM     14  C   UNL A   1      31.704  22.789  22.755  1.00  0.00     0.017 A 
ATOM     15  C   UNL A   1      31.898  21.626  25.349  1.00  0.00     0.040 A 
ATOM     16  C   UNL A   1      32.265  21.521  22.948  1.00  0.00     0.027 A 
ATOM     17  C   UNL A   1      32.442  20.970  24.246  1.00  0.00     0.042 A 
BRANCH  17  18
ATOM     18  N   UNL A   1      33.208  19.795  24.299  1.00  0.00    -0.319 N 
ATOM     19  C   UNL A   1      34.494  19.501  24.703  1.00  0.00     0.291 C 
ATOM     20  H   UNL A   1      32.717  19.005  23.977  1.00  0.00     0.170 HD
ATOM     21  O   UNL A   1      34.870  18.345  24.475  1.00  0.00    -0.265 OA
BRANCH  19  22
ATOM     22  C   UNL A   1      35.408  20.500  25.200  1.00  0.00     0.193 A 
ATOM     23  C   UNL A   1      35.202  21.846  25.447  1.00  0.00     0.065 A 
ATOM     24  O   UNL A   1      36.744  20.219  25.275  1.00  0.00    -0.451 OA
ATOM     25  C   UNL A   1      36.472  22.423  25.705  1.00  0.00     0.021 A 
ATOM     26  C   UNL A   1      37.387  21.385  25.574  1.00  0.00     0.135 A 
ATOM     27  C   UNL A   1      36.950  23.708  26.021  1.00  0.00     0.012 A 
ATOM     28  C   UNL A   1      38.762  21.532  25.745  1.00  0.00     0.048 A 
ATOM     29  C   UNL A   1      38.329  23.884  26.214  1.00  0.00     0.001 A 
ATOM     30  C   UNL A   1      39.217  22.813  26.079  1.00  0.00     0.004 A 
ENDBRANCH  19  22
ENDBRANCH  17  18
ENDBRANCH   6   7
ENDBRANCH   5   6
ENDBRANCH   3   5
ENDBRANCH   2   3
ENDBRANCH   1   2
BRANCH   1  31
ATOM     31  C   UNL A   1      32.398  31.115  26.338  1.00  0.00     0.275 C 
BRANCH  31  32
ATOM     32  O   UNL A   1      32.861  31.337  27.670  1.00  0.00    -0.458 OA
BRANCH  32  33
ATOM     33  C   UNL A   1      33.646  32.430  27.792  1.00  0.00     0.338 C 
ATOM     34  O   UNL A   1      33.288  33.596  27.785  1.00  0.00    -0.246 OA
BRANCH  33  35
ATOM     35  C   UNL A   1      35.011  32.007  28.142  1.00  0.00     0.060 A 
ATOM     36  C   UNL A   1      35.169  30.672  28.521  1.00  0.00     0.016 A 
ATOM     37  C   UNL A   1      36.101  32.885  28.138  1.00  0.00     0.016 A 
ATOM     38  C   UNL A   1      36.398  30.231  28.989  1.00  0.00     0.010 A 
ATOM     39  C   UNL A   1      37.342  32.435  28.602  1.00  0.00     0.010 A 
ATOM     40  C   UNL A   1      37.475  31.123  29.083  1.00  0.00    -0.014 A 
BRANCH  40  41
ATOM     41  C   UNL A   1      38.663  30.688  29.852  1.00  0.00     0.031 A 
ATOM     42  C   UNL A   1      38.822  31.165  31.269  1.00  0.00     0.074 A 
ATOM     43  C   UNL A   1      39.524  29.795  29.333  1.00  0.00     0.049 A 
ATOM     44  N   UNL A   1      39.640  30.739  32.196  1.00  0.00    -0.248 NA
ATOM     45  C   UNL A   1      37.938  32.260  31.705  1.00  0.00     0.031 C 
ATOM     46  C   UNL A   1      39.485  29.278  27.966  1.00  0.00     0.029 A 
ATOM     47  N   UNL A   1      40.594  29.158  29.906  1.00  0.00    -0.354 N 
ATOM     48  C   UNL A   1      39.370  31.509  33.319  1.00  0.00     0.074 A 
ATOM     49  C   UNL A   1      38.338  32.453  32.952  1.00  0.00     0.031 C 
ATOM     50  C   UNL A   1      40.486  28.395  27.808  1.00  0.00     0.029 A 
ATOM     51  C   UNL A   1      41.226  28.278  29.062  1.00  0.00     0.049 A 
ATOM     52  H   UNL A   1      40.881  29.315  30.834  1.00  0.00     0.167 HD
ATOM     53  C   UNL A   1      39.908  31.417  34.557  1.00  0.00     0.034 A 
ATOM     54  C   UNL A   1      42.267  27.452  29.288  1.00  0.00     0.034 A 
ATOM     55  C   UNL A   1      40.918  30.464  34.926  1.00  0.00     0.049 A 
ATOM     56  C   UNL A   1      42.841  27.361  30.679  1.00  0.00     0.074 A 
ATOM     57  C   UNL A   1      41.495  30.256  36.165  1.00  0.00     0.029 A 
ATOM     58  N   UNL A   1      41.510  29.567  34.050  1.00  0.00    -0.354 N 
ATOM     59  N   UNL A   1      42.458  27.972  31.774  1.00  0.00    -0.248 NA
ATOM     60  C   UNL A   1      43.958  26.424  30.875  1.00  0.00     0.031 C 
ATOM     61  C   UNL A   1      42.449  29.241  36.034  1.00  0.00     0.029 A 
ATOM     62  C   UNL A   1      42.454  28.808  34.717  1.00  0.00     0.049 A 
ATOM     63  H   UNL A   1      41.291  29.483  33.094  1.00  0.00     0.167 HD
ATOM     64  C   UNL A   1      43.255  27.463  32.794  1.00  0.00     0.074 A 
ATOM     65  C   UNL A   1      44.131  26.481  32.189  1.00  0.00     0.031 C 
ATOM     66  C   UNL A   1      43.271  27.789  34.112  1.00  0.00     0.034 A 
BRANCH  53  67
ATOM     67  C   UNL A   1      39.376  32.344  35.616  1.00  0.00     0.023 A 
ATOM     68  C   UNL A   1      38.362  31.891  36.485  1.00  0.00     0.012 A 
ATOM     69  C   UNL A   1      39.899  33.640  35.778  1.00  0.00     0.148 A 
ATOM     70  C   UNL A   1      37.859  32.723  37.484  1.00  0.00     0.002 A 
ATOM     71  C   UNL A   1      39.417  34.452  36.799  1.00  0.00     0.091 A 
ATOM     72  F   UNL A   1      40.840  34.063  34.922  1.00  0.00    -0.205 F 
ATOM     73  C   UNL A   1      38.393  33.998  37.646  1.00  0.00     0.022 A 
BRANCH  71  74
ATOM     74  S   UNL A   1      40.087  36.086  37.125  1.00  0.00     0.127 S 
ATOM     75  O   UNL A   1      39.268  36.520  38.255  1.00  0.00    -0.237 OA
ATOM     76  O   UNL A   1      41.480  35.789  37.462  1.00  0.00    -0.237 OA
ATOM     77  O   UNL A   1      39.912  36.841  35.893  1.00  0.00    -0.744 OA
ENDBRANCH  71  74
ENDBRANCH  53  67
BRANCH  54  78
ATOM     78  C   UNL A   1      42.773  26.578  28.194  1.00  0.00     0.023 A 
ATOM     79  C   UNL A   1      42.054  25.418  27.843  1.00  0.00     0.012 A 
ATOM     80  C   UNL A   1      43.949  26.898  27.489  1.00  0.00     0.148 A 
ATOM     81  C   UNL A   1      42.515  24.576  26.830  1.00  0.00     0.002 A 
ATOM     82  C   UNL A   1      44.376  26.080  26.448  1.00  0.00     0.091 A 
ATOM     83  F   UNL A   1      44.629  27.995  27.850  1.00  0.00    -0.205 F 
ATOM     84  C   UNL A   1      43.669  24.912  26.126  1.00  0.00     0.022 A 
BRANCH  82  85
ATOM     85  S   UNL A   1      45.784  26.505  25.417  1.00  0.00     0.127 S 
ATOM     86  O   UNL A   1      45.920  25.310  24.590  1.00  0.00    -0.237 OA
ATOM     87  O   UNL A   1      45.299  27.692  24.711  1.00  0.00    -0.237 OA
ATOM     88  O   UNL A   1      46.878  26.768  26.343  1.00  0.00    -0.744 OA
ENDBRANCH  82  85
ENDBRANCH  54  78
BRANCH  66  89
ATOM     89  C   UNL A   1      44.241  27.057  35.002  1.00  0.00     0.023 A 
ATOM     90  C   UNL A   1      43.846  25.858  35.628  1.00  0.00     0.012 A 
ATOM     91  C   UNL A   1      45.566  27.512  35.153  1.00  0.00     0.148 A 
ATOM     92  C   UNL A   1      44.744  25.141  36.416  1.00  0.00     0.002 A 
ATOM     93  C   UNL A   1      46.469  26.767  35.903  1.00  0.00     0.091 A 
ATOM     94  F   UNL A   1      45.920  28.665  34.568  1.00  0.00    -0.205 F 
ATOM     95  C   UNL A   1      46.058  25.588  36.543  1.00  0.00     0.022 A 
BRANCH  93  96
ATOM     96  S   UNL A   1      48.202  27.227  36.031  1.00  0.00     0.127 S 
ATOM     97  O   UNL A   1      48.152  28.316  37.005  1.00  0.00    -0.237 OA
ATOM     98  O   UNL A   1      48.822  25.997  36.525  1.00  0.00    -0.237 OA
ATOM     99  O   UNL A   1      48.607  27.600  34.683  1.00  0.00    -0.744 OA
ENDBRANCH  93  96
ENDBRANCH  66  89
ENDBRANCH  40  41
ENDBRANCH  33  35
ENDBRANCH  32  33
ENDBRANCH  31  32
ENDBRANCH   1  31
TORSDOF 18
ENDMDL
