MODEL 1
REMARK VINA RESULT:     -11.2      0.000      0.000
REMARK SMILES C[C@H](CN(C)C(=O)CCc1nc2ccccc2o1)C(=O)OCCOC(=O)c1ccc(-c2c3nc(c(-c4cccc(S(=O)(=O)[O-])c4F)c4ccc([nH]4)c(-c4cccc(S(=O)(=O)[O-])c4F)c4nc(c(-c5cccc(S(=O)(=O)[O-])c5F)c5ccc2[nH]5)C=C4)C=C3)cc1
REMARK SMILES IDX 21 1 19 2 20 3 2 4 1 5 3 6 4 7 5 8 6 9 7 10 8 11 9 12 10 13
REMARK SMILES IDX 11 14 18 15 12 16 17 17 13 18 16 19 14 20 15 21 22 22 23 23
REMARK SMILES IDX 24 24 25 25 26 26 27 27 28 28 89 29 29 30 88 31 30 32 31 33
REMARK SMILES IDX 32 34 82 35 33 36 87 37 81 38 83 39 34 40 86 41 80 42 79 43
REMARK SMILES IDX 35 45 67 46 47 47 66 48 48 49 51 50 65 51 84 52 49 53 50 54
REMARK SMILES IDX 64 56 85 57 52 58 36 59 37 60 45 61 38 62 40 63 46 64 39 65
REMARK SMILES IDX 41 66 42 67 43 68 44 69 68 70 69 71 77 72 70 73 72 74 78 75
REMARK SMILES IDX 71 76 73 77 74 78 75 79 76 80 53 81 54 82 62 83 55 84 57 85
REMARK SMILES IDX 63 86 56 87 58 88 59 89 60 90 61 91
REMARK H PARENT 83 44 51 55
REMARK Flexibility Score: inf
ROOT
ATOM      1  O   UNL A   1      35.882  22.645  24.971  1.00  0.00    -0.462 OA
ENDROOT
BRANCH   1   2
ATOM      2  C   UNL A   1      35.713  23.281  23.792  1.00  0.00     0.310 C 
ATOM      3  O   UNL A   1      36.261  22.960  22.743  1.00  0.00    -0.252 OA
BRANCH   2   4
ATOM      4  C   UNL A   1      34.811  24.498  23.888  1.00  0.00     0.115 C 
ATOM      5  C   UNL A   1      34.298  24.644  25.310  1.00  0.00     0.022 C 
BRANCH   4   6
ATOM      6  C   UNL A   1      33.772  24.675  22.761  1.00  0.00     0.134 C 
BRANCH   6   7
ATOM      7  N   UNL A   1      32.392  25.016  23.140  1.00  0.00    -0.345 N 
ATOM      8  C   UNL A   1      31.944  26.344  22.752  1.00  0.00     0.146 C 
BRANCH   7   9
ATOM      9  C   UNL A   1      31.470  23.990  23.311  1.00  0.00     0.222 C 
ATOM     10  O   UNL A   1      30.290  24.203  23.586  1.00  0.00    -0.275 OA
BRANCH   9  11
ATOM     11  C   UNL A   1      31.909  22.548  23.127  1.00  0.00     0.110 C 
BRANCH  11  12
ATOM     12  C   UNL A   1      32.112  21.813  24.452  1.00  0.00     0.107 C 
BRANCH  12  13
ATOM     13  C   UNL A   1      32.229  20.348  24.252  1.00  0.00     0.195 A 
ATOM     14  N   UNL A   1      32.594  19.695  23.168  1.00  0.00    -0.214 NA
ATOM     15  O   UNL A   1      32.102  19.571  25.374  1.00  0.00    -0.441 OA
ATOM     16  C   UNL A   1      32.898  18.444  23.633  1.00  0.00     0.109 A 
ATOM     17  C   UNL A   1      32.585  18.359  24.979  1.00  0.00     0.154 A 
ATOM     18  C   UNL A   1      33.512  17.355  23.007  1.00  0.00     0.032 A 
ATOM     19  C   UNL A   1      32.822  17.251  25.780  1.00  0.00     0.049 A 
ATOM     20  C   UNL A   1      33.806  16.228  23.790  1.00  0.00     0.003 A 
ATOM     21  C   UNL A   1      33.464  16.179  25.148  1.00  0.00     0.004 A 
ENDBRANCH  12  13
ENDBRANCH  11  12
ENDBRANCH   9  11
ENDBRANCH   7   9
ENDBRANCH   6   7
ENDBRANCH   4   6
ENDBRANCH   2   4
ENDBRANCH   1   2
BRANCH   1  22
ATOM     22  C   UNL A   1      35.764  21.209  24.963  1.00  0.00     0.274 C 
BRANCH  22  23
ATOM     23  C   UNL A   1      37.134  20.540  25.086  1.00  0.00     0.275 C 
BRANCH  23  24
ATOM     24  O   UNL A   1      38.158  21.539  25.226  1.00  0.00    -0.458 OA
BRANCH  24  25
ATOM     25  C   UNL A   1      39.128  21.261  26.124  1.00  0.00     0.338 C 
ATOM     26  O   UNL A   1      39.566  20.180  26.467  1.00  0.00    -0.246 OA
BRANCH  25  27
ATOM     27  C   UNL A   1      39.661  22.510  26.668  1.00  0.00     0.060 A 
ATOM     28  C   UNL A   1      39.208  23.721  26.144  1.00  0.00     0.016 A 
ATOM     29  C   UNL A   1      40.710  22.466  27.583  1.00  0.00     0.016 A 
ATOM     30  C   UNL A   1      39.822  24.908  26.523  1.00  0.00     0.010 A 
ATOM     31  C   UNL A   1      41.311  23.660  27.981  1.00  0.00     0.010 A 
ATOM     32  C   UNL A   1      40.881  24.881  27.439  1.00  0.00    -0.014 A 
BRANCH  32  33
ATOM     33  C   UNL A   1      41.530  26.147  27.837  1.00  0.00     0.031 A 
ATOM     34  C   UNL A   1      40.767  27.178  28.611  1.00  0.00     0.074 A 
ATOM     35  C   UNL A   1      42.812  26.349  27.482  1.00  0.00     0.049 A 
ATOM     36  N   UNL A   1      41.155  28.363  29.004  1.00  0.00    -0.248 NA
ATOM     37  C   UNL A   1      39.386  26.839  28.993  1.00  0.00     0.031 C 
ATOM     38  C   UNL A   1      43.630  25.406  26.716  1.00  0.00     0.029 A 
ATOM     39  N   UNL A   1      43.644  27.415  27.702  1.00  0.00    -0.354 N 
ATOM     40  C   UNL A   1      40.061  28.925  29.651  1.00  0.00     0.074 A 
ATOM     41  C   UNL A   1      38.991  27.952  29.597  1.00  0.00     0.031 C 
ATOM     42  C   UNL A   1      44.845  25.940  26.521  1.00  0.00     0.029 A 
ATOM     43  C   UNL A   1      44.880  27.270  27.119  1.00  0.00     0.049 A 
ATOM     44  H   UNL A   1      43.383  28.206  28.226  1.00  0.00     0.167 HD
ATOM     45  C   UNL A   1      39.970  30.137  30.246  1.00  0.00     0.034 A 
ATOM     46  C   UNL A   1      45.918  28.125  27.061  1.00  0.00     0.034 A 
ATOM     47  C   UNL A   1      41.054  31.082  30.313  1.00  0.00     0.049 A 
ATOM     48  C   UNL A   1      45.796  29.450  27.757  1.00  0.00     0.074 A 
ATOM     49  C   UNL A   1      41.071  32.335  30.900  1.00  0.00     0.029 A 
ATOM     50  N   UNL A   1      42.315  30.875  29.775  1.00  0.00    -0.354 N 
ATOM     51  N   UNL A   1      44.784  29.932  28.438  1.00  0.00    -0.248 NA
ATOM     52  C   UNL A   1      46.965  30.337  27.705  1.00  0.00     0.031 C 
ATOM     53  C   UNL A   1      42.346  32.883  30.719  1.00  0.00     0.029 A 
ATOM     54  C   UNL A   1      43.123  31.971  30.022  1.00  0.00     0.049 A 
ATOM     55  H   UNL A   1      42.596  30.066  29.289  1.00  0.00     0.167 HD
ATOM     56  C   UNL A   1      45.194  31.174  28.902  1.00  0.00     0.074 A 
ATOM     57  C   UNL A   1      46.563  31.351  28.460  1.00  0.00     0.031 C 
ATOM     58  C   UNL A   1      44.495  32.101  29.604  1.00  0.00     0.034 A 
BRANCH  45  59
ATOM     59  C   UNL A   1      38.668  30.491  30.915  1.00  0.00     0.023 A 
ATOM     60  C   UNL A   1      38.479  30.156  32.270  1.00  0.00     0.012 A 
ATOM     61  C   UNL A   1      37.663  31.201  30.230  1.00  0.00     0.148 A 
ATOM     62  C   UNL A   1      37.301  30.504  32.931  1.00  0.00     0.002 A 
ATOM     63  C   UNL A   1      36.504  31.572  30.904  1.00  0.00     0.091 A 
ATOM     64  F   UNL A   1      37.851  31.489  28.935  1.00  0.00    -0.205 F 
ATOM     65  C   UNL A   1      36.319  31.220  32.251  1.00  0.00     0.022 A 
BRANCH  63  66
ATOM     66  S   UNL A   1      35.205  32.547  30.135  1.00  0.00     0.127 S 
ATOM     67  O   UNL A   1      34.232  32.654  31.222  1.00  0.00    -0.237 OA
ATOM     68  O   UNL A   1      35.900  33.794  29.816  1.00  0.00    -0.237 OA
ATOM     69  O   UNL A   1      34.765  31.785  28.975  1.00  0.00    -0.744 OA
ENDBRANCH  63  66
ENDBRANCH  45  59
BRANCH  46  70
ATOM     70  C   UNL A   1      47.166  27.718  26.359  1.00  0.00     0.023 A 
ATOM     71  C   UNL A   1      48.175  27.044  27.073  1.00  0.00     0.012 A 
ATOM     72  C   UNL A   1      47.331  27.933  24.977  1.00  0.00     0.148 A 
ATOM     73  C   UNL A   1      49.332  26.608  26.427  1.00  0.00     0.002 A 
ATOM     74  C   UNL A   1      48.460  27.445  24.329  1.00  0.00     0.091 A 
ATOM     75  F   UNL A   1      46.374  28.598  24.313  1.00  0.00    -0.205 F 
ATOM     76  C   UNL A   1      49.469  26.795  25.053  1.00  0.00     0.022 A 
BRANCH  74  77
ATOM     77  S   UNL A   1      48.614  27.523  22.540  1.00  0.00     0.127 S 
ATOM     78  O   UNL A   1      49.901  28.191  22.375  1.00  0.00    -0.237 OA
ATOM     79  O   UNL A   1      48.601  26.110  22.158  1.00  0.00    -0.237 OA
ATOM     80  O   UNL A   1      47.439  28.264  22.098  1.00  0.00    -0.744 OA
ENDBRANCH  74  77
ENDBRANCH  46  70
BRANCH  58  81
ATOM     81  C   UNL A   1      45.203  33.390  29.920  1.00  0.00     0.023 A 
ATOM     82  C   UNL A   1      45.948  33.487  31.113  1.00  0.00     0.012 A 
ATOM     83  C   UNL A   1      45.170  34.479  29.031  1.00  0.00     0.148 A 
ATOM     84  C   UNL A   1      46.624  34.664  31.430  1.00  0.00     0.002 A 
ATOM     85  C   UNL A   1      45.877  35.636  29.337  1.00  0.00     0.091 A 
ATOM     86  F   UNL A   1      44.435  34.377  27.914  1.00  0.00    -0.205 F 
ATOM     87  C   UNL A   1      46.598  35.734  30.539  1.00  0.00     0.022 A 
BRANCH  85  88
ATOM     88  S   UNL A   1      45.949  37.022  28.197  1.00  0.00     0.127 S 
ATOM     89  O   UNL A   1      44.981  37.945  28.785  1.00  0.00    -0.237 OA
ATOM     90  O   UNL A   1      47.343  37.454  28.303  1.00  0.00    -0.237 OA
ATOM     91  O   UNL A   1      45.594  36.470  26.896  1.00  0.00    -0.744 OA
ENDBRANCH  85  88
ENDBRANCH  58  81
ENDBRANCH  32  33
ENDBRANCH  25  27
ENDBRANCH  24  25
ENDBRANCH  23  24
ENDBRANCH  22  23
ENDBRANCH   1  22
TORSDOF 20
ENDMDL
MODEL 2
REMARK VINA RESULT:     -11.0      1.919      8.417
REMARK SMILES C[C@H](CN(C)C(=O)CCc1nc2ccccc2o1)C(=O)OCCOC(=O)c1ccc(-c2c3nc(c(-c4cccc(S(=O)(=O)[O-])c4F)c4ccc([nH]4)c(-c4cccc(S(=O)(=O)[O-])c4F)c4nc(c(-c5cccc(S(=O)(=O)[O-])c5F)c5ccc2[nH]5)C=C4)C=C3)cc1
REMARK SMILES IDX 21 1 19 2 20 3 2 4 1 5 3 6 4 7 5 8 6 9 7 10 8 11 9 12 10 13
REMARK SMILES IDX 11 14 18 15 12 16 17 17 13 18 16 19 14 20 15 21 22 22 23 23
REMARK SMILES IDX 24 24 25 25 26 26 27 27 28 28 89 29 29 30 88 31 30 32 31 33
REMARK SMILES IDX 32 34 82 35 33 36 87 37 81 38 83 39 34 40 86 41 80 42 79 43
REMARK SMILES IDX 35 45 67 46 47 47 66 48 48 49 51 50 65 51 84 52 49 53 50 54
REMARK SMILES IDX 64 56 85 57 52 58 36 59 37 60 45 61 38 62 40 63 46 64 39 65
REMARK SMILES IDX 41 66 42 67 43 68 44 69 68 70 69 71 77 72 70 73 72 74 78 75
REMARK SMILES IDX 71 76 73 77 74 78 75 79 76 80 53 81 54 82 62 83 55 84 57 85
REMARK SMILES IDX 63 86 56 87 58 88 59 89 60 90 61 91
REMARK H PARENT 83 44 51 55
REMARK Flexibility Score: inf
ROOT
ATOM      1  O   UNL A   1      35.825  21.371  25.987  1.00  0.00    -0.462 OA
ENDROOT
BRANCH   1   2
ATOM      2  C   UNL A   1      35.079  22.412  25.559  1.00  0.00     0.310 C 
ATOM      3  O   UNL A   1      34.538  23.229  26.297  1.00  0.00    -0.252 OA
BRANCH   2   4
ATOM      4  C   UNL A   1      34.909  22.454  24.052  1.00  0.00     0.115 C 
ATOM      5  C   UNL A   1      36.061  23.220  23.427  1.00  0.00     0.022 C 
BRANCH   4   6
ATOM      6  C   UNL A   1      33.496  22.790  23.529  1.00  0.00     0.134 C 
BRANCH   6   7
ATOM      7  N   UNL A   1      32.400  21.864  23.853  1.00  0.00    -0.345 N 
ATOM      8  C   UNL A   1      32.632  20.470  23.508  1.00  0.00     0.146 C 
BRANCH   7   9
ATOM      9  C   UNL A   1      31.526  22.192  24.884  1.00  0.00     0.222 C 
ATOM     10  O   UNL A   1      31.244  21.404  25.785  1.00  0.00    -0.275 OA
BRANCH   9  11
ATOM     11  C   UNL A   1      30.911  23.580  24.932  1.00  0.00     0.110 C 
BRANCH  11  12
ATOM     12  C   UNL A   1      30.985  24.216  26.320  1.00  0.00     0.107 C 
BRANCH  12  13
ATOM     13  C   UNL A   1      31.411  25.636  26.248  1.00  0.00     0.195 A 
ATOM     14  N   UNL A   1      30.788  26.703  26.704  1.00  0.00    -0.214 NA
ATOM     15  O   UNL A   1      32.685  25.864  25.797  1.00  0.00    -0.441 OA
ATOM     16  C   UNL A   1      31.764  27.661  26.722  1.00  0.00     0.109 A 
ATOM     17  C   UNL A   1      32.922  27.158  26.154  1.00  0.00     0.154 A 
ATOM     18  C   UNL A   1      31.778  28.949  27.269  1.00  0.00     0.032 A 
ATOM     19  C   UNL A   1      34.125  27.843  26.066  1.00  0.00     0.049 A 
ATOM     20  C   UNL A   1      32.987  29.662  27.236  1.00  0.00     0.003 A 
ATOM     21  C   UNL A   1      34.134  29.118  26.643  1.00  0.00     0.004 A 
ENDBRANCH  12  13
ENDBRANCH  11  12
ENDBRANCH   9  11
ENDBRANCH   7   9
ENDBRANCH   6   7
ENDBRANCH   4   6
ENDBRANCH   2   4
ENDBRANCH   1   2
BRANCH   1  22
ATOM     22  C   UNL A   1      36.037  20.292  25.056  1.00  0.00     0.274 C 
BRANCH  22  23
ATOM     23  C   UNL A   1      37.513  19.898  24.993  1.00  0.00     0.275 C 
BRANCH  23  24
ATOM     24  O   UNL A   1      38.340  21.045  25.250  1.00  0.00    -0.458 OA
BRANCH  24  25
ATOM     25  C   UNL A   1      39.306  20.875  26.179  1.00  0.00     0.338 C 
ATOM     26  O   UNL A   1      39.776  19.841  26.612  1.00  0.00    -0.246 OA
BRANCH  25  27
ATOM     27  C   UNL A   1      39.786  22.181  26.628  1.00  0.00     0.060 A 
ATOM     28  C   UNL A   1      39.186  23.333  26.116  1.00  0.00     0.016 A 
ATOM     29  C   UNL A   1      40.919  22.255  27.433  1.00  0.00     0.016 A 
ATOM     30  C   UNL A   1      39.735  24.578  26.394  1.00  0.00     0.010 A 
ATOM     31  C   UNL A   1      41.458  23.506  27.731  1.00  0.00     0.010 A 
ATOM     32  C   UNL A   1      40.878  24.669  27.199  1.00  0.00    -0.014 A 
BRANCH  32  33
ATOM     33  C   UNL A   1      41.458  25.996  27.490  1.00  0.00     0.031 A 
ATOM     34  C   UNL A   1      42.834  26.342  27.008  1.00  0.00     0.074 A 
ATOM     35  C   UNL A   1      40.726  26.874  28.198  1.00  0.00     0.049 A 
ATOM     36  N   UNL A   1      43.523  27.435  27.207  1.00  0.00    -0.248 NA
ATOM     37  C   UNL A   1      43.532  25.329  26.198  1.00  0.00     0.031 C 
ATOM     38  C   UNL A   1      39.382  26.619  28.720  1.00  0.00     0.029 A 
ATOM     39  N   UNL A   1      41.013  28.147  28.615  1.00  0.00    -0.354 N 
ATOM     40  C   UNL A   1      44.745  27.234  26.577  1.00  0.00     0.074 A 
ATOM     41  C   UNL A   1      44.706  25.911  25.989  1.00  0.00     0.031 C 
ATOM     42  C   UNL A   1      38.964  27.699  29.397  1.00  0.00     0.029 A 
ATOM     43  C   UNL A   1      40.020  28.705  29.382  1.00  0.00     0.049 A 
ATOM     44  H   UNL A   1      41.848  28.616  28.387  1.00  0.00     0.167 HD
ATOM     45  C   UNL A   1      45.794  28.084  26.488  1.00  0.00     0.034 A 
ATOM     46  C   UNL A   1      39.975  29.892  30.017  1.00  0.00     0.034 A 
ATOM     47  C   UNL A   1      45.805  29.406  27.057  1.00  0.00     0.049 A 
ATOM     48  C   UNL A   1      41.143  30.826  29.874  1.00  0.00     0.074 A 
ATOM     49  C   UNL A   1      46.813  30.354  27.018  1.00  0.00     0.029 A 
ATOM     50  N   UNL A   1      44.755  29.968  27.767  1.00  0.00    -0.354 N 
ATOM     51  N   UNL A   1      42.257  30.654  29.204  1.00  0.00    -0.248 NA
ATOM     52  C   UNL A   1      41.039  32.126  30.548  1.00  0.00     0.031 C 
ATOM     53  C   UNL A   1      46.369  31.491  27.703  1.00  0.00     0.029 A 
ATOM     54  C   UNL A   1      45.084  31.252  28.166  1.00  0.00     0.049 A 
ATOM     55  H   UNL A   1      43.899  29.520  27.959  1.00  0.00     0.167 HD
ATOM     56  C   UNL A   1      42.984  31.825  29.367  1.00  0.00     0.074 A 
ATOM     57  C   UNL A   1      42.164  32.715  30.165  1.00  0.00     0.031 C 
ATOM     58  C   UNL A   1      44.230  32.129  28.926  1.00  0.00     0.034 A 
BRANCH  45  59
ATOM     59  C   UNL A   1      46.999  27.629  25.709  1.00  0.00     0.023 A 
ATOM     60  C   UNL A   1      47.031  27.832  24.315  1.00  0.00     0.012 A 
ATOM     61  C   UNL A   1      48.115  27.060  26.352  1.00  0.00     0.148 A 
ATOM     62  C   UNL A   1      48.149  27.459  23.568  1.00  0.00     0.002 A 
ATOM     63  C   UNL A   1      49.238  26.719  25.605  1.00  0.00     0.091 A 
ATOM     64  F   UNL A   1      48.055  26.853  27.674  1.00  0.00    -0.205 F 
ATOM     65  C   UNL A   1      49.254  26.912  24.214  1.00  0.00     0.022 A 
BRANCH  63  66
ATOM     66  S   UNL A   1      50.736  26.063  26.350  1.00  0.00     0.127 S 
ATOM     67  O   UNL A   1      51.571  25.823  25.174  1.00  0.00    -0.237 OA
ATOM     68  O   UNL A   1      51.176  27.176  27.192  1.00  0.00    -0.237 OA
ATOM     69  O   UNL A   1      50.330  24.873  27.083  1.00  0.00    -0.744 OA
ENDBRANCH  63  66
ENDBRANCH  45  59
BRANCH  46  70
ATOM     70  C   UNL A   1      38.761  30.265  30.793  1.00  0.00     0.023 A 
ATOM     71  C   UNL A   1      38.691  29.950  32.164  1.00  0.00     0.012 A 
ATOM     72  C   UNL A   1      37.708  30.989  30.202  1.00  0.00     0.148 A 
ATOM     73  C   UNL A   1      37.587  30.333  32.925  1.00  0.00     0.002 A 
ATOM     74  C   UNL A   1      36.637  31.417  30.979  1.00  0.00     0.091 A 
ATOM     75  F   UNL A   1      37.775  31.261  28.890  1.00  0.00    -0.205 F 
ATOM     76  C   UNL A   1      36.567  31.078  32.337  1.00  0.00     0.022 A 
BRANCH  74  77
ATOM     77  S   UNL A   1      35.377  32.507  30.307  1.00  0.00     0.127 S 
ATOM     78  O   UNL A   1      34.932  31.767  29.130  1.00  0.00    -0.237 OA
ATOM     79  O   UNL A   1      34.401  32.571  31.397  1.00  0.00    -0.237 OA
ATOM     80  O   UNL A   1      36.067  33.766  30.059  1.00  0.00    -0.744 OA
ENDBRANCH  74  77
ENDBRANCH  46  70
BRANCH  58  81
ATOM     81  C   UNL A   1      44.777  33.476  29.311  1.00  0.00     0.023 A 
ATOM     82  C   UNL A   1      45.489  33.605  30.521  1.00  0.00     0.012 A 
ATOM     83  C   UNL A   1      44.629  34.593  28.470  1.00  0.00     0.148 A 
ATOM     84  C   UNL A   1      46.018  34.837  30.902  1.00  0.00     0.002 A 
ATOM     85  C   UNL A   1      45.192  35.810  28.839  1.00  0.00     0.091 A 
ATOM     86  F   UNL A   1      43.926  34.457  27.336  1.00  0.00    -0.205 F 
ATOM     87  C   UNL A   1      45.879  35.936  30.058  1.00  0.00     0.022 A 
BRANCH  85  88
ATOM     88  S   UNL A   1      45.115  37.245  27.762  1.00  0.00     0.127 S 
ATOM     89  O   UNL A   1      45.773  38.266  28.574  1.00  0.00    -0.237 OA
ATOM     90  O   UNL A   1      45.881  36.811  26.593  1.00  0.00    -0.237 OA
ATOM     91  O   UNL A   1      43.697  37.455  27.500  1.00  0.00    -0.744 OA
ENDBRANCH  85  88
ENDBRANCH  58  81
ENDBRANCH  32  33
ENDBRANCH  25  27
ENDBRANCH  24  25
ENDBRANCH  23  24
ENDBRANCH  22  23
ENDBRANCH   1  22
TORSDOF 20
ENDMDL
MODEL 3
REMARK VINA RESULT:     -11.0      1.545      7.707
REMARK SMILES C[C@H](CN(C)C(=O)CCc1nc2ccccc2o1)C(=O)OCCOC(=O)c1ccc(-c2c3nc(c(-c4cccc(S(=O)(=O)[O-])c4F)c4ccc([nH]4)c(-c4cccc(S(=O)(=O)[O-])c4F)c4nc(c(-c5cccc(S(=O)(=O)[O-])c5F)c5ccc2[nH]5)C=C4)C=C3)cc1
REMARK SMILES IDX 21 1 19 2 20 3 2 4 1 5 3 6 4 7 5 8 6 9 7 10 8 11 9 12 10 13
REMARK SMILES IDX 11 14 18 15 12 16 17 17 13 18 16 19 14 20 15 21 22 22 23 23
REMARK SMILES IDX 24 24 25 25 26 26 27 27 28 28 89 29 29 30 88 31 30 32 31 33
REMARK SMILES IDX 32 34 82 35 33 36 87 37 81 38 83 39 34 40 86 41 80 42 79 43
REMARK SMILES IDX 35 45 67 46 47 47 66 48 48 49 51 50 65 51 84 52 49 53 50 54
REMARK SMILES IDX 64 56 85 57 52 58 36 59 37 60 45 61 38 62 40 63 46 64 39 65
REMARK SMILES IDX 41 66 42 67 43 68 44 69 68 70 69 71 77 72 70 73 72 74 78 75
REMARK SMILES IDX 71 76 73 77 74 78 75 79 76 80 53 81 54 82 62 83 55 84 57 85
REMARK SMILES IDX 63 86 56 87 58 88 59 89 60 90 61 91
REMARK H PARENT 83 44 51 55
REMARK Flexibility Score: inf
ROOT
ATOM      1  O   UNL A   1      35.529  21.152  24.593  1.00  0.00    -0.462 OA
ENDROOT
BRANCH   1   2
ATOM      2  C   UNL A   1      34.903  21.831  25.578  1.00  0.00     0.310 C 
ATOM      3  O   UNL A   1      34.383  21.311  26.559  1.00  0.00    -0.252 OA
BRANCH   2   4
ATOM      4  C   UNL A   1      34.841  23.328  25.333  1.00  0.00     0.115 C 
ATOM      5  C   UNL A   1      36.090  23.990  25.886  1.00  0.00     0.022 C 
BRANCH   4   6
ATOM      6  C   UNL A   1      33.499  24.021  25.650  1.00  0.00     0.134 C 
BRANCH   6   7
ATOM      7  N   UNL A   1      32.830  24.761  24.569  1.00  0.00    -0.345 N 
ATOM      8  C   UNL A   1      33.472  26.002  24.166  1.00  0.00     0.146 C 
BRANCH   7   9
ATOM      9  C   UNL A   1      32.035  24.061  23.668  1.00  0.00     0.222 C 
ATOM     10  O   UNL A   1      31.593  24.575  22.642  1.00  0.00    -0.275 OA
BRANCH   9  11
ATOM     11  C   UNL A   1      31.716  22.599  23.927  1.00  0.00     0.110 C 
BRANCH  11  12
ATOM     12  C   UNL A   1      32.096  21.689  22.759  1.00  0.00     0.107 C 
BRANCH  12  13
ATOM     13  C   UNL A   1      32.182  20.269  23.178  1.00  0.00     0.195 A 
ATOM     14  N   UNL A   1      32.535  19.222  22.461  1.00  0.00    -0.214 NA
ATOM     15  O   UNL A   1      32.036  20.023  24.519  1.00  0.00    -0.441 OA
ATOM     16  C   UNL A   1      32.811  18.267  23.401  1.00  0.00     0.109 A 
ATOM     17  C   UNL A   1      32.494  18.746  24.661  1.00  0.00     0.154 A 
ATOM     18  C   UNL A   1      33.403  17.005  23.282  1.00  0.00     0.032 A 
ATOM     19  C   UNL A   1      32.706  18.060  25.847  1.00  0.00     0.049 A 
ATOM     20  C   UNL A   1      33.671  16.294  24.462  1.00  0.00     0.003 A 
ATOM     21  C   UNL A   1      33.326  16.812  25.717  1.00  0.00     0.004 A 
ENDBRANCH  12  13
ENDBRANCH  11  12
ENDBRANCH   9  11
ENDBRANCH   7   9
ENDBRANCH   6   7
ENDBRANCH   4   6
ENDBRANCH   2   4
ENDBRANCH   1   2
BRANCH   1  22
ATOM     22  C   UNL A   1      36.123  19.888  24.944  1.00  0.00     0.274 C 
BRANCH  22  23
ATOM     23  C   UNL A   1      37.649  19.954  24.868  1.00  0.00     0.275 C 
BRANCH  23  24
ATOM     24  O   UNL A   1      38.131  21.074  25.629  1.00  0.00    -0.458 OA
BRANCH  24  25
ATOM     25  C   UNL A   1      39.358  20.926  26.176  1.00  0.00     0.338 C 
ATOM     26  O   UNL A   1      40.045  19.926  26.254  1.00  0.00    -0.246 OA
BRANCH  25  27
ATOM     27  C   UNL A   1      39.823  22.215  26.685  1.00  0.00     0.060 A 
ATOM     28  C   UNL A   1      39.400  23.384  26.050  1.00  0.00     0.016 A 
ATOM     29  C   UNL A   1      40.789  22.248  27.688  1.00  0.00     0.016 A 
ATOM     30  C   UNL A   1      39.961  24.603  26.405  1.00  0.00     0.010 A 
ATOM     31  C   UNL A   1      41.336  23.475  28.060  1.00  0.00     0.010 A 
ATOM     32  C   UNL A   1      40.938  24.653  27.409  1.00  0.00    -0.014 A 
BRANCH  32  33
ATOM     33  C   UNL A   1      41.532  25.953  27.781  1.00  0.00     0.031 A 
ATOM     34  C   UNL A   1      42.955  26.262  27.430  1.00  0.00     0.074 A 
ATOM     35  C   UNL A   1      40.769  26.841  28.443  1.00  0.00     0.049 A 
ATOM     36  N   UNL A   1      43.658  27.327  27.714  1.00  0.00    -0.248 NA
ATOM     37  C   UNL A   1      43.689  25.244  26.660  1.00  0.00     0.031 C 
ATOM     38  C   UNL A   1      39.376  26.621  28.840  1.00  0.00     0.029 A 
ATOM     39  N   UNL A   1      41.058  28.094  28.914  1.00  0.00    -0.354 N 
ATOM     40  C   UNL A   1      44.924  27.097  27.189  1.00  0.00     0.074 A 
ATOM     41  C   UNL A   1      44.895  25.790  26.569  1.00  0.00     0.031 C 
ATOM     42  C   UNL A   1      38.934  27.700  29.503  1.00  0.00     0.029 A 
ATOM     43  C   UNL A   1      40.019  28.670  29.604  1.00  0.00     0.049 A 
ATOM     44  H   UNL A   1      41.925  28.539  28.772  1.00  0.00     0.167 HD
ATOM     45  C   UNL A   1      46.003  27.913  27.213  1.00  0.00     0.034 A 
ATOM     46  C   UNL A   1      39.957  29.844  30.261  1.00  0.00     0.034 A 
ATOM     47  C   UNL A   1      46.007  29.222  27.813  1.00  0.00     0.049 A 
ATOM     48  C   UNL A   1      41.161  30.740  30.244  1.00  0.00     0.074 A 
ATOM     49  C   UNL A   1      47.044  30.135  27.885  1.00  0.00     0.029 A 
ATOM     50  N   UNL A   1      44.916  29.804  28.441  1.00  0.00    -0.354 N 
ATOM     51  N   UNL A   1      42.324  30.544  29.669  1.00  0.00    -0.248 NA
ATOM     52  C   UNL A   1      41.040  32.028  30.937  1.00  0.00     0.031 C 
ATOM     53  C   UNL A   1      46.577  31.272  28.555  1.00  0.00     0.029 A 
ATOM     54  C   UNL A   1      45.250  31.068  28.898  1.00  0.00     0.049 A 
ATOM     55  H   UNL A   1      44.033  29.382  28.547  1.00  0.00     0.167 HD
ATOM     56  C   UNL A   1      43.072  31.686  29.924  1.00  0.00     0.074 A 
ATOM     57  C   UNL A   1      42.213  32.586  30.668  1.00  0.00     0.031 C 
ATOM     58  C   UNL A   1      44.360  31.957  29.600  1.00  0.00     0.034 A 
BRANCH  45  59
ATOM     59  C   UNL A   1      47.257  27.434  26.532  1.00  0.00     0.023 A 
ATOM     60  C   UNL A   1      47.520  27.846  25.210  1.00  0.00     0.012 A 
ATOM     61  C   UNL A   1      48.198  26.633  27.207  1.00  0.00     0.148 A 
ATOM     62  C   UNL A   1      48.692  27.453  24.563  1.00  0.00     0.002 A 
ATOM     63  C   UNL A   1      49.378  26.270  26.566  1.00  0.00     0.091 A 
ATOM     64  F   UNL A   1      47.917  26.230  28.455  1.00  0.00    -0.205 F 
ATOM     65  C   UNL A   1      49.623  26.674  25.244  1.00  0.00     0.022 A 
BRANCH  63  66
ATOM     66  S   UNL A   1      50.669  25.318  27.377  1.00  0.00     0.127 S 
ATOM     67  O   UNL A   1      51.073  26.223  28.452  1.00  0.00    -0.237 OA
ATOM     68  O   UNL A   1      49.944  24.128  27.822  1.00  0.00    -0.237 OA
ATOM     69  O   UNL A   1      51.679  25.066  26.359  1.00  0.00    -0.744 OA
ENDBRANCH  63  66
ENDBRANCH  45  59
BRANCH  46  70
ATOM     70  C   UNL A   1      38.691  30.241  30.937  1.00  0.00     0.023 A 
ATOM     71  C   UNL A   1      38.514  29.950  32.303  1.00  0.00     0.012 A 
ATOM     72  C   UNL A   1      37.694  30.965  30.255  1.00  0.00     0.148 A 
ATOM     73  C   UNL A   1      37.359  30.356  32.972  1.00  0.00     0.002 A 
ATOM     74  C   UNL A   1      36.572  31.416  30.942  1.00  0.00     0.091 A 
ATOM     75  F   UNL A   1      37.864  31.214  28.949  1.00  0.00    -0.205 F 
ATOM     76  C   UNL A   1      36.395  31.101  32.296  1.00  0.00     0.022 A 
BRANCH  74  77
ATOM     77  S   UNL A   1      35.378  32.507  30.159  1.00  0.00     0.127 S 
ATOM     78  O   UNL A   1      34.361  32.638  31.198  1.00  0.00    -0.237 OA
ATOM     79  O   UNL A   1      36.166  33.716  29.915  1.00  0.00    -0.237 OA
ATOM     80  O   UNL A   1      34.977  31.809  28.944  1.00  0.00    -0.744 OA
ENDBRANCH  74  77
ENDBRANCH  46  70
BRANCH  58  81
ATOM     81  C   UNL A   1      44.915  33.276  30.065  1.00  0.00     0.023 A 
ATOM     82  C   UNL A   1      45.573  33.343  31.309  1.00  0.00     0.012 A 
ATOM     83  C   UNL A   1      44.825  34.429  29.264  1.00  0.00     0.148 A 
ATOM     84  C   UNL A   1      46.107  34.548  31.763  1.00  0.00     0.002 A 
ATOM     85  C   UNL A   1      45.393  35.618  29.707  1.00  0.00     0.091 A 
ATOM     86  F   UNL A   1      44.172  34.352  28.095  1.00  0.00    -0.205 F 
ATOM     87  C   UNL A   1      46.026  35.682  30.959  1.00  0.00     0.022 A 
BRANCH  85  88
ATOM     88  S   UNL A   1      45.392  37.096  28.687  1.00  0.00     0.127 S 
ATOM     89  O   UNL A   1      43.972  37.435  28.648  1.00  0.00    -0.237 OA
ATOM     90  O   UNL A   1      46.218  38.022  29.463  1.00  0.00    -0.237 OA
ATOM     91  O   UNL A   1      45.985  36.690  27.419  1.00  0.00    -0.744 OA
ENDBRANCH  85  88
ENDBRANCH  58  81
ENDBRANCH  32  33
ENDBRANCH  25  27
ENDBRANCH  24  25
ENDBRANCH  23  24
ENDBRANCH  22  23
ENDBRANCH   1  22
TORSDOF 20
ENDMDL
