MODEL 1
REMARK VINA RESULT:     -12.6      0.000      0.000
REMARK SMILES Cc1ccc(C(=O)OCCOC(=O)c2ccc(-c3c4nc(c(-c5cccc(S(=O)(=O)[O-])c5F)c5ccc([nH]5)c(-c5cccc(S(=O)(=O)[O-])c5F)c5nc(c(-c6cccc(S(=O)(=O)[O-])c6F)c6ccc3[nH]6)C=C5)C=C4)cc2)cc1N[C@@H]1CC(=O)N(c2ccccc2C)C1=O
REMARK SMILES IDX 9 1 8 2 6 3 7 4 5 5 1 6 2 7 3 8 78 9 4 10 77 11 79 12 80 14
REMARK SMILES IDX 81 15 92 16 82 17 84 18 93 19 83 20 85 21 86 22 90 23 87 24
REMARK SMILES IDX 89 25 91 26 88 27 10 28 11 29 12 30 13 31 14 32 15 33 76 34
REMARK SMILES IDX 16 35 75 36 17 37 18 38 19 39 69 40 20 41 74 42 68 43 70 44
REMARK SMILES IDX 21 45 73 46 67 47 66 48 22 50 54 51 34 52 53 53 35 54 38 55
REMARK SMILES IDX 52 56 71 57 36 58 37 59 51 61 72 62 39 63 23 64 24 65 32 66
REMARK SMILES IDX 25 67 27 68 33 69 26 70 28 71 29 72 30 73 31 74 55 75 56 76
REMARK SMILES IDX 64 77 57 78 59 79 65 80 58 81 60 82 61 83 62 84 63 85 40 86
REMARK SMILES IDX 41 87 49 88 42 89 44 90 50 91 43 92 45 93 46 94 47 95 48 96
REMARK H PARENT 79 13 70 49 38 60
REMARK Flexibility Score: inf
ROOT
ATOM      1  C   UNL A   1      32.894  28.721  27.482  1.00  0.00     0.275 C 
ENDROOT
BRANCH   1   2
ATOM      2  O   UNL A   1      32.901  27.795  26.394  1.00  0.00    -0.458 OA
BRANCH   2   3
ATOM      3  C   UNL A   1      31.780  27.125  26.069  1.00  0.00     0.338 C 
ATOM      4  O   UNL A   1      30.846  26.856  26.808  1.00  0.00    -0.246 OA
BRANCH   3   5
ATOM      5  C   UNL A   1      31.862  26.760  24.641  1.00  0.00     0.062 A 
ATOM      6  C   UNL A   1      32.358  25.649  20.521  1.00  0.00     0.046 C 
ATOM      7  C   UNL A   1      32.167  25.951  21.987  1.00  0.00    -0.028 A 
ATOM      8  C   UNL A   1      32.370  27.297  22.369  1.00  0.00     0.006 A 
ATOM      9  C   UNL A   1      31.748  24.993  22.941  1.00  0.00     0.038 A 
ATOM     10  C   UNL A   1      32.260  27.694  23.698  1.00  0.00     0.016 A 
ATOM     11  C   UNL A   1      31.575  25.443  24.256  1.00  0.00     0.041 A 
BRANCH   9  12
ATOM     12  N   UNL A   1      31.578  23.662  22.593  1.00  0.00    -0.373 N 
ATOM     13  H   UNL A   1      30.799  23.471  22.022  1.00  0.00     0.161 HD
BRANCH  12  14
ATOM     14  C   UNL A   1      32.397  22.498  22.956  1.00  0.00     0.179 C 
ATOM     15  C   UNL A   1      31.946  21.859  24.254  1.00  0.00     0.136 C 
ATOM     16  C   UNL A   1      33.893  22.737  23.111  1.00  0.00     0.256 C 
ATOM     17  C   UNL A   1      33.198  21.798  25.069  1.00  0.00     0.236 C 
ATOM     18  N   UNL A   1      34.273  22.181  24.309  1.00  0.00    -0.248 N 
ATOM     19  O   UNL A   1      34.606  23.304  22.291  1.00  0.00    -0.272 OA
ATOM     20  O   UNL A   1      33.213  21.546  26.266  1.00  0.00    -0.274 OA
BRANCH  18  21
ATOM     21  C   UNL A   1      35.584  22.185  24.836  1.00  0.00     0.055 A 
ATOM     22  C   UNL A   1      36.394  21.047  24.692  1.00  0.00     0.027 A 
ATOM     23  C   UNL A   1      36.109  23.340  25.457  1.00  0.00    -0.027 A 
ATOM     24  C   UNL A   1      37.725  21.068  25.112  1.00  0.00     0.002 A 
ATOM     25  C   UNL A   1      37.448  23.338  25.878  1.00  0.00     0.005 A 
ATOM     26  C   UNL A   1      35.286  24.582  25.703  1.00  0.00     0.046 C 
ATOM     27  C   UNL A   1      38.251  22.212  25.704  1.00  0.00     0.000 A 
ENDBRANCH  18  21
ENDBRANCH  12  14
ENDBRANCH   9  12
ENDBRANCH   3   5
ENDBRANCH   2   3
ENDBRANCH   1   2
BRANCH   1  28
ATOM     28  C   UNL A   1      33.233  30.213  27.258  1.00  0.00     0.275 C 
BRANCH  28  29
ATOM     29  O   UNL A   1      34.090  31.022  28.122  1.00  0.00    -0.458 OA
BRANCH  29  30
ATOM     30  C   UNL A   1      35.361  31.469  28.017  1.00  0.00     0.338 C 
ATOM     31  O   UNL A   1      35.641  32.593  27.624  1.00  0.00    -0.246 OA
BRANCH  30  32
ATOM     32  C   UNL A   1      36.411  30.532  28.387  1.00  0.00     0.060 A 
ATOM     33  C   UNL A   1      36.415  29.931  29.658  1.00  0.00     0.016 A 
ATOM     34  C   UNL A   1      37.351  30.219  27.416  1.00  0.00     0.016 A 
ATOM     35  C   UNL A   1      37.367  28.969  29.952  1.00  0.00     0.010 A 
ATOM     36  C   UNL A   1      38.164  29.146  27.630  1.00  0.00     0.010 A 
ATOM     37  C   UNL A   1      38.257  28.635  28.938  1.00  0.00    -0.014 A 
BRANCH  37  38
ATOM     38  C   UNL A   1      39.613  28.195  29.209  1.00  0.00     0.031 A 
ATOM     39  C   UNL A   1      40.007  26.811  28.969  1.00  0.00     0.074 A 
ATOM     40  C   UNL A   1      40.416  29.283  29.277  1.00  0.00     0.049 A 
ATOM     41  N   UNL A   1      41.100  26.271  29.369  1.00  0.00    -0.248 NA
ATOM     42  C   UNL A   1      39.140  25.885  28.256  1.00  0.00     0.031 C 
ATOM     43  C   UNL A   1      41.802  29.484  28.916  1.00  0.00     0.029 A 
ATOM     44  N   UNL A   1      40.021  30.550  29.747  1.00  0.00    -0.354 N 
ATOM     45  C   UNL A   1      41.254  25.122  28.611  1.00  0.00     0.074 A 
ATOM     46  C   UNL A   1      39.942  24.826  28.103  1.00  0.00     0.031 C 
ATOM     47  C   UNL A   1      42.211  30.649  29.464  1.00  0.00     0.029 A 
ATOM     48  C   UNL A   1      41.138  31.114  30.345  1.00  0.00     0.049 A 
ATOM     49  H   UNL A   1      39.127  30.955  29.668  1.00  0.00     0.167 HD
ATOM     50  C   UNL A   1      42.516  24.735  28.267  1.00  0.00     0.034 A 
ATOM     51  C   UNL A   1      41.180  31.212  31.711  1.00  0.00     0.034 A 
ATOM     52  C   UNL A   1      43.481  25.696  28.837  1.00  0.00     0.049 A 
ATOM     53  C   UNL A   1      42.251  30.287  32.257  1.00  0.00     0.074 A 
ATOM     54  C   UNL A   1      44.109  26.799  28.280  1.00  0.00     0.029 A 
ATOM     55  N   UNL A   1      43.591  25.839  30.216  1.00  0.00    -0.354 N 
ATOM     56  N   UNL A   1      42.729  29.264  31.603  1.00  0.00    -0.248 NA
ATOM     57  C   UNL A   1      42.878  30.455  33.561  1.00  0.00     0.031 C 
ATOM     58  C   UNL A   1      44.503  27.660  29.341  1.00  0.00     0.029 A 
ATOM     59  C   UNL A   1      44.121  27.082  30.540  1.00  0.00     0.049 A 
ATOM     60  H   UNL A   1      43.331  25.153  30.873  1.00  0.00     0.167 HD
ATOM     61  C   UNL A   1      43.667  28.623  32.354  1.00  0.00     0.074 A 
ATOM     62  C   UNL A   1      43.748  29.429  33.564  1.00  0.00     0.031 C 
ATOM     63  C   UNL A   1      44.274  27.470  31.939  1.00  0.00     0.034 A 
BRANCH  50  64
ATOM     64  C   UNL A   1      42.889  23.784  27.130  1.00  0.00     0.023 A 
ATOM     65  C   UNL A   1      43.447  24.382  25.974  1.00  0.00     0.012 A 
ATOM     66  C   UNL A   1      42.719  22.378  27.069  1.00  0.00     0.148 A 
ATOM     67  C   UNL A   1      43.727  23.670  24.804  1.00  0.00     0.002 A 
ATOM     68  C   UNL A   1      42.967  21.665  25.883  1.00  0.00     0.091 A 
ATOM     69  F   UNL A   1      42.390  21.696  28.170  1.00  0.00    -0.205 F 
ATOM     70  C   UNL A   1      43.462  22.313  24.748  1.00  0.00     0.022 A 
BRANCH  68  71
ATOM     71  S   UNL A   1      42.648  19.895  25.707  1.00  0.00     0.127 S 
ATOM     72  O   UNL A   1      43.518  19.533  24.585  1.00  0.00    -0.237 OA
ATOM     73  O   UNL A   1      43.082  19.369  27.000  1.00  0.00    -0.237 OA
ATOM     74  O   UNL A   1      41.224  19.755  25.426  1.00  0.00    -0.744 OA
ENDBRANCH  68  71
ENDBRANCH  50  64
BRANCH  51  75
ATOM     75  C   UNL A   1      39.831  31.437  32.361  1.00  0.00     0.023 A 
ATOM     76  C   UNL A   1      39.272  30.361  33.104  1.00  0.00     0.012 A 
ATOM     77  C   UNL A   1      39.290  32.721  32.563  1.00  0.00     0.148 A 
ATOM     78  C   UNL A   1      38.313  30.579  34.100  1.00  0.00     0.002 A 
ATOM     79  C   UNL A   1      38.322  32.928  33.554  1.00  0.00     0.091 A 
ATOM     80  F   UNL A   1      39.757  33.747  31.839  1.00  0.00    -0.205 F 
ATOM     81  C   UNL A   1      37.854  31.867  34.341  1.00  0.00     0.022 A 
BRANCH  79  82
ATOM     82  S   UNL A   1      37.763  34.596  33.938  1.00  0.00     0.127 S 
ATOM     83  O   UNL A   1      36.726  34.381  34.950  1.00  0.00    -0.237 OA
ATOM     84  O   UNL A   1      38.959  35.248  34.453  1.00  0.00    -0.237 OA
ATOM     85  O   UNL A   1      37.266  35.057  32.646  1.00  0.00    -0.744 OA
ENDBRANCH  79  82
ENDBRANCH  51  75
BRANCH  63  86
ATOM     86  C   UNL A   1      45.084  26.578  32.842  1.00  0.00     0.023 A 
ATOM     87  C   UNL A   1      46.471  26.747  32.998  1.00  0.00     0.012 A 
ATOM     88  C   UNL A   1      44.439  25.665  33.713  1.00  0.00     0.148 A 
ATOM     89  C   UNL A   1      47.201  25.992  33.917  1.00  0.00     0.002 A 
ATOM     90  C   UNL A   1      45.147  25.022  34.718  1.00  0.00     0.091 A 
ATOM     91  F   UNL A   1      43.130  25.408  33.569  1.00  0.00    -0.205 F 
ATOM     92  C   UNL A   1      46.535  25.149  34.797  1.00  0.00     0.022 A 
BRANCH  90  93
ATOM     93  S   UNL A   1      44.281  24.173  36.043  1.00  0.00     0.127 S 
ATOM     94  O   UNL A   1      43.535  25.263  36.667  1.00  0.00    -0.237 OA
ATOM     95  O   UNL A   1      43.456  23.209  35.312  1.00  0.00    -0.237 OA
ATOM     96  O   UNL A   1      45.330  23.563  36.851  1.00  0.00    -0.744 OA
ENDBRANCH  90  93
ENDBRANCH  63  86
ENDBRANCH  37  38
ENDBRANCH  30  32
ENDBRANCH  29  30
ENDBRANCH  28  29
ENDBRANCH   1  28
TORSDOF 17
ENDMDL
MODEL 2
REMARK VINA RESULT:     -12.6      4.662     10.452
REMARK SMILES Cc1ccc(C(=O)OCCOC(=O)c2ccc(-c3c4nc(c(-c5cccc(S(=O)(=O)[O-])c5F)c5ccc([nH]5)c(-c5cccc(S(=O)(=O)[O-])c5F)c5nc(c(-c6cccc(S(=O)(=O)[O-])c6F)c6ccc3[nH]6)C=C5)C=C4)cc2)cc1N[C@@H]1CC(=O)N(c2ccccc2C)C1=O
REMARK SMILES IDX 9 1 8 2 6 3 7 4 5 5 1 6 2 7 3 8 78 9 4 10 77 11 79 12 80 14
REMARK SMILES IDX 81 15 92 16 82 17 84 18 93 19 83 20 85 21 86 22 90 23 87 24
REMARK SMILES IDX 89 25 91 26 88 27 10 28 11 29 12 30 13 31 14 32 15 33 76 34
REMARK SMILES IDX 16 35 75 36 17 37 18 38 19 39 69 40 20 41 74 42 68 43 70 44
REMARK SMILES IDX 21 45 73 46 67 47 66 48 22 50 54 51 34 52 53 53 35 54 38 55
REMARK SMILES IDX 52 56 71 57 36 58 37 59 51 61 72 62 39 63 23 64 24 65 32 66
REMARK SMILES IDX 25 67 27 68 33 69 26 70 28 71 29 72 30 73 31 74 55 75 56 76
REMARK SMILES IDX 64 77 57 78 59 79 65 80 58 81 60 82 61 83 62 84 63 85 40 86
REMARK SMILES IDX 41 87 49 88 42 89 44 90 50 91 43 92 45 93 46 94 47 95 48 96
REMARK H PARENT 79 13 70 49 38 60
REMARK Flexibility Score: inf
ROOT
ATOM      1  C   UNL A   1      43.366  18.701  26.002  1.00  0.00     0.275 C 
ENDROOT
BRANCH   1   2
ATOM      2  O   UNL A   1      42.555  19.757  26.520  1.00  0.00    -0.458 OA
BRANCH   2   3
ATOM      3  C   UNL A   1      41.251  19.828  26.196  1.00  0.00     0.338 C 
ATOM      4  O   UNL A   1      40.594  18.986  25.606  1.00  0.00    -0.246 OA
BRANCH   3   5
ATOM      5  C   UNL A   1      40.728  21.121  26.682  1.00  0.00     0.062 A 
ATOM      6  C   UNL A   1      39.364  25.001  27.923  1.00  0.00     0.046 C 
ATOM      7  C   UNL A   1      39.777  23.638  27.424  1.00  0.00    -0.028 A 
ATOM      8  C   UNL A   1      40.913  23.073  28.048  1.00  0.00     0.006 A 
ATOM      9  C   UNL A   1      39.063  22.908  26.443  1.00  0.00     0.038 A 
ATOM     10  C   UNL A   1      41.414  21.837  27.650  1.00  0.00     0.016 A 
ATOM     11  C   UNL A   1      39.552  21.637  26.121  1.00  0.00     0.041 A 
BRANCH   9  12
ATOM     12  N   UNL A   1      37.969  23.460  25.796  1.00  0.00    -0.373 N 
ATOM     13  H   UNL A   1      37.993  24.437  25.683  1.00  0.00     0.161 HD
BRANCH  12  14
ATOM     14  C   UNL A   1      36.778  22.791  25.257  1.00  0.00     0.179 C 
ATOM     15  C   UNL A   1      36.578  23.072  23.781  1.00  0.00     0.136 C 
ATOM     16  C   UNL A   1      35.449  23.122  25.922  1.00  0.00     0.256 C 
ATOM     17  C   UNL A   1      35.168  23.564  23.703  1.00  0.00     0.236 C 
ATOM     18  N   UNL A   1      34.557  23.432  24.923  1.00  0.00    -0.248 N 
ATOM     19  O   UNL A   1      35.235  23.088  27.129  1.00  0.00    -0.272 OA
ATOM     20  O   UNL A   1      34.695  24.101  22.712  1.00  0.00    -0.274 OA
BRANCH  18  21
ATOM     21  C   UNL A   1      33.207  23.801  25.115  1.00  0.00     0.055 A 
ATOM     22  C   UNL A   1      32.201  22.825  25.020  1.00  0.00     0.027 A 
ATOM     23  C   UNL A   1      32.861  25.127  25.454  1.00  0.00    -0.027 A 
ATOM     24  C   UNL A   1      30.873  23.147  25.307  1.00  0.00     0.002 A 
ATOM     25  C   UNL A   1      31.519  25.432  25.733  1.00  0.00     0.005 A 
ATOM     26  C   UNL A   1      33.874  26.245  25.518  1.00  0.00     0.046 C 
ATOM     27  C   UNL A   1      30.533  24.448  25.664  1.00  0.00     0.000 A 
ENDBRANCH  18  21
ENDBRANCH  12  14
ENDBRANCH   9  12
ENDBRANCH   3   5
ENDBRANCH   2   3
ENDBRANCH   1   2
BRANCH   1  28
ATOM     28  C   UNL A   1      44.601  19.007  25.122  1.00  0.00     0.275 C 
BRANCH  28  29
ATOM     29  O   UNL A   1      45.236  20.316  24.986  1.00  0.00    -0.458 OA
BRANCH  29  30
ATOM     30  C   UNL A   1      44.854  21.479  24.414  1.00  0.00     0.338 C 
ATOM     31  O   UNL A   1      44.406  21.547  23.277  1.00  0.00    -0.246 OA
BRANCH  30  32
ATOM     32  C   UNL A   1      45.011  22.681  25.220  1.00  0.00     0.060 A 
ATOM     33  C   UNL A   1      44.875  22.625  26.618  1.00  0.00     0.016 A 
ATOM     34  C   UNL A   1      45.360  23.847  24.554  1.00  0.00     0.016 A 
ATOM     35  C   UNL A   1      45.126  23.759  27.371  1.00  0.00     0.010 A 
ATOM     36  C   UNL A   1      45.791  24.906  25.297  1.00  0.00     0.010 A 
ATOM     37  C   UNL A   1      45.532  24.895  26.680  1.00  0.00    -0.014 A 
BRANCH  37  38
ATOM     38  C   UNL A   1      45.226  26.236  27.144  1.00  0.00     0.031 A 
ATOM     39  C   UNL A   1      43.880  26.783  27.000  1.00  0.00     0.074 A 
ATOM     40  C   UNL A   1      46.185  26.622  28.017  1.00  0.00     0.049 A 
ATOM     41  N   UNL A   1      43.557  28.012  27.176  1.00  0.00    -0.248 NA
ATOM     42  C   UNL A   1      42.758  25.948  26.596  1.00  0.00     0.031 C 
ATOM     43  C   UNL A   1      46.141  27.470  29.187  1.00  0.00     0.029 A 
ATOM     44  N   UNL A   1      47.537  26.232  27.955  1.00  0.00    -0.354 N 
ATOM     45  C   UNL A   1      42.181  28.021  27.335  1.00  0.00     0.074 A 
ATOM     46  C   UNL A   1      41.726  26.780  26.770  1.00  0.00     0.031 C 
ATOM     47  C   UNL A   1      47.411  27.788  29.521  1.00  0.00     0.029 A 
ATOM     48  C   UNL A   1      48.277  27.298  28.446  1.00  0.00     0.049 A 
ATOM     49  H   UNL A   1      47.887  25.373  27.626  1.00  0.00     0.167 HD
ATOM     50  C   UNL A   1      41.632  28.935  28.185  1.00  0.00     0.034 A 
ATOM     51  C   UNL A   1      49.011  28.055  27.571  1.00  0.00     0.034 A 
ATOM     52  C   UNL A   1      42.713  29.759  28.762  1.00  0.00     0.049 A 
ATOM     53  C   UNL A   1      48.419  29.448  27.481  1.00  0.00     0.074 A 
ATOM     54  C   UNL A   1      43.396  29.660  29.964  1.00  0.00     0.029 A 
ATOM     55  N   UNL A   1      43.490  30.566  27.937  1.00  0.00    -0.354 N 
ATOM     56  N   UNL A   1      47.191  29.739  27.816  1.00  0.00    -0.248 NA
ATOM     57  C   UNL A   1      49.163  30.617  27.032  1.00  0.00     0.031 C 
ATOM     58  C   UNL A   1      44.643  30.328  29.815  1.00  0.00     0.029 A 
ATOM     59  C   UNL A   1      44.718  30.836  28.529  1.00  0.00     0.049 A 
ATOM     60  H   UNL A   1      43.208  30.901  27.055  1.00  0.00     0.167 HD
ATOM     61  C   UNL A   1      46.951  31.064  27.616  1.00  0.00     0.074 A 
ATOM     62  C   UNL A   1      48.231  31.579  27.152  1.00  0.00     0.031 C 
ATOM     63  C   UNL A   1      45.718  31.622  27.813  1.00  0.00     0.034 A 
BRANCH  50  64
ATOM     64  C   UNL A   1      40.242  28.858  28.818  1.00  0.00     0.023 A 
ATOM     65  C   UNL A   1      39.146  29.053  27.942  1.00  0.00     0.012 A 
ATOM     66  C   UNL A   1      39.906  28.648  30.179  1.00  0.00     0.148 A 
ATOM     67  C   UNL A   1      37.821  29.135  28.381  1.00  0.00     0.002 A 
ATOM     68  C   UNL A   1      38.580  28.765  30.628  1.00  0.00     0.091 A 
ATOM     69  F   UNL A   1      40.845  28.259  31.046  1.00  0.00    -0.205 F 
ATOM     70  C   UNL A   1      37.539  29.017  29.730  1.00  0.00     0.022 A 
BRANCH  68  71
ATOM     71  S   UNL A   1      38.108  28.634  32.367  1.00  0.00     0.127 S 
ATOM     72  O   UNL A   1      39.071  29.525  33.019  1.00  0.00    -0.237 OA
ATOM     73  O   UNL A   1      36.735  29.136  32.357  1.00  0.00    -0.237 OA
ATOM     74  O   UNL A   1      38.253  27.230  32.733  1.00  0.00    -0.744 OA
ENDBRANCH  68  71
ENDBRANCH  50  64
BRANCH  51  75
ATOM     75  C   UNL A   1      49.565  27.282  26.393  1.00  0.00     0.023 A 
ATOM     76  C   UNL A   1      49.007  27.548  25.112  1.00  0.00     0.012 A 
ATOM     77  C   UNL A   1      50.800  26.607  26.441  1.00  0.00     0.148 A 
ATOM     78  C   UNL A   1      49.714  27.274  23.935  1.00  0.00     0.002 A 
ATOM     79  C   UNL A   1      51.494  26.326  25.257  1.00  0.00     0.091 A 
ATOM     80  F   UNL A   1      51.325  26.293  27.633  1.00  0.00    -0.205 F 
ATOM     81  C   UNL A   1      50.968  26.684  24.008  1.00  0.00     0.022 A 
BRANCH  79  82
ATOM     82  S   UNL A   1      53.153  25.629  25.325  1.00  0.00     0.127 S 
ATOM     83  O   UNL A   1      53.871  26.550  26.210  1.00  0.00    -0.237 OA
ATOM     84  O   UNL A   1      52.944  24.307  25.901  1.00  0.00    -0.237 OA
ATOM     85  O   UNL A   1      53.565  25.683  23.927  1.00  0.00    -0.744 OA
ENDBRANCH  79  82
ENDBRANCH  51  75
BRANCH  63  86
ATOM     86  C   UNL A   1      45.333  32.996  27.331  1.00  0.00     0.023 A 
ATOM     87  C   UNL A   1      44.830  33.211  26.036  1.00  0.00     0.012 A 
ATOM     88  C   UNL A   1      45.284  34.084  28.237  1.00  0.00     0.148 A 
ATOM     89  C   UNL A   1      44.372  34.465  25.629  1.00  0.00     0.002 A 
ATOM     90  C   UNL A   1      44.698  35.287  27.869  1.00  0.00     0.091 A 
ATOM     91  F   UNL A   1      45.811  33.962  29.464  1.00  0.00    -0.205 F 
ATOM     92  C   UNL A   1      44.280  35.497  26.554  1.00  0.00     0.022 A 
BRANCH  90  93
ATOM     93  S   UNL A   1      44.295  36.521  29.111  1.00  0.00     0.127 S 
ATOM     94  O   UNL A   1      43.558  37.510  28.329  1.00  0.00    -0.237 OA
ATOM     95  O   UNL A   1      43.478  35.760  30.058  1.00  0.00    -0.237 OA
ATOM     96  O   UNL A   1      45.580  36.951  29.648  1.00  0.00    -0.744 OA
ENDBRANCH  90  93
ENDBRANCH  63  86
ENDBRANCH  37  38
ENDBRANCH  30  32
ENDBRANCH  29  30
ENDBRANCH  28  29
ENDBRANCH   1  28
TORSDOF 17
ENDMDL
MODEL 3
REMARK VINA RESULT:     -12.6      3.587      9.645
REMARK SMILES Cc1ccc(C(=O)OCCOC(=O)c2ccc(-c3c4nc(c(-c5cccc(S(=O)(=O)[O-])c5F)c5ccc([nH]5)c(-c5cccc(S(=O)(=O)[O-])c5F)c5nc(c(-c6cccc(S(=O)(=O)[O-])c6F)c6ccc3[nH]6)C=C5)C=C4)cc2)cc1N[C@@H]1CC(=O)N(c2ccccc2C)C1=O
REMARK SMILES IDX 9 1 8 2 6 3 7 4 5 5 1 6 2 7 3 8 78 9 4 10 77 11 79 12 80 14
REMARK SMILES IDX 81 15 92 16 82 17 84 18 93 19 83 20 85 21 86 22 90 23 87 24
REMARK SMILES IDX 89 25 91 26 88 27 10 28 11 29 12 30 13 31 14 32 15 33 76 34
REMARK SMILES IDX 16 35 75 36 17 37 18 38 19 39 69 40 20 41 74 42 68 43 70 44
REMARK SMILES IDX 21 45 73 46 67 47 66 48 22 50 54 51 34 52 53 53 35 54 38 55
REMARK SMILES IDX 52 56 71 57 36 58 37 59 51 61 72 62 39 63 23 64 24 65 32 66
REMARK SMILES IDX 25 67 27 68 33 69 26 70 28 71 29 72 30 73 31 74 55 75 56 76
REMARK SMILES IDX 64 77 57 78 59 79 65 80 58 81 60 82 61 83 62 84 63 85 40 86
REMARK SMILES IDX 41 87 49 88 42 89 44 90 50 91 43 92 45 93 46 94 47 95 48 96
REMARK H PARENT 79 13 70 49 38 60
REMARK Flexibility Score: inf
ROOT
ATOM      1  C   UNL A   1      36.724  23.257  25.078  1.00  0.00     0.275 C 
ENDROOT
BRANCH   1   2
ATOM      2  O   UNL A   1      35.624  22.475  24.610  1.00  0.00    -0.458 OA
BRANCH   2   3
ATOM      3  C   UNL A   1      34.659  23.043  23.864  1.00  0.00     0.338 C 
ATOM      4  O   UNL A   1      34.786  23.543  22.758  1.00  0.00    -0.246 OA
BRANCH   3   5
ATOM      5  C   UNL A   1      33.392  22.964  24.616  1.00  0.00     0.062 A 
ATOM      6  C   UNL A   1      29.789  22.928  26.956  1.00  0.00     0.046 C 
ATOM      7  C   UNL A   1      31.015  23.003  26.080  1.00  0.00    -0.028 A 
ATOM      8  C   UNL A   1      32.113  22.213  26.490  1.00  0.00     0.006 A 
ATOM      9  C   UNL A   1      31.081  23.751  24.880  1.00  0.00     0.038 A 
ATOM     10  C   UNL A   1      33.313  22.225  25.786  1.00  0.00     0.016 A 
ATOM     11  C   UNL A   1      32.279  23.681  24.157  1.00  0.00     0.041 A 
BRANCH   9  12
ATOM     12  N   UNL A   1      30.028  24.558  24.480  1.00  0.00    -0.373 N 
ATOM     13  H   UNL A   1      29.261  24.086  24.083  1.00  0.00     0.161 HD
BRANCH  12  14
ATOM     14  C   UNL A   1      29.897  26.018  24.565  1.00  0.00     0.179 C 
ATOM     15  C   UNL A   1      30.312  26.710  23.282  1.00  0.00     0.136 C 
ATOM     16  C   UNL A   1      30.674  26.710  25.677  1.00  0.00     0.256 C 
ATOM     17  C   UNL A   1      31.310  27.727  23.737  1.00  0.00     0.236 C 
ATOM     18  N   UNL A   1      31.356  27.759  25.107  1.00  0.00    -0.248 N 
ATOM     19  O   UNL A   1      30.659  26.384  26.858  1.00  0.00    -0.272 OA
ATOM     20  O   UNL A   1      32.040  28.344  22.975  1.00  0.00    -0.274 OA
BRANCH  18  21
ATOM     21  C   UNL A   1      32.202  28.658  25.795  1.00  0.00     0.055 A 
ATOM     22  C   UNL A   1      31.738  29.945  26.110  1.00  0.00     0.027 A 
ATOM     23  C   UNL A   1      33.489  28.258  26.217  1.00  0.00    -0.027 A 
ATOM     24  C   UNL A   1      32.519  30.810  26.879  1.00  0.00     0.002 A 
ATOM     25  C   UNL A   1      34.262  29.145  26.983  1.00  0.00     0.005 A 
ATOM     26  C   UNL A   1      34.084  26.914  25.866  1.00  0.00     0.046 C 
ATOM     27  C   UNL A   1      33.779  30.410  27.315  1.00  0.00     0.000 A 
ENDBRANCH  18  21
ENDBRANCH  12  14
ENDBRANCH   9  12
ENDBRANCH   3   5
ENDBRANCH   2   3
ENDBRANCH   1   2
BRANCH   1  28
ATOM     28  C   UNL A   1      38.115  22.618  25.303  1.00  0.00     0.275 C 
BRANCH  28  29
ATOM     29  O   UNL A   1      38.869  22.659  26.554  1.00  0.00    -0.458 OA
BRANCH  29  30
ATOM     30  C   UNL A   1      40.053  23.206  26.909  1.00  0.00     0.338 C 
ATOM     31  O   UNL A   1      41.091  22.562  26.973  1.00  0.00    -0.246 OA
BRANCH  30  32
ATOM     32  C   UNL A   1      40.041  24.626  27.231  1.00  0.00     0.060 A 
ATOM     33  C   UNL A   1      40.581  25.565  26.334  1.00  0.00     0.016 A 
ATOM     34  C   UNL A   1      39.423  25.000  28.415  1.00  0.00     0.016 A 
ATOM     35  C   UNL A   1      40.470  26.916  26.617  1.00  0.00     0.010 A 
ATOM     36  C   UNL A   1      39.142  26.321  28.603  1.00  0.00     0.010 A 
ATOM     37  C   UNL A   1      39.792  27.260  27.781  1.00  0.00    -0.014 A 
BRANCH  37  38
ATOM     38  C   UNL A   1      40.112  28.456  28.540  1.00  0.00     0.031 A 
ATOM     39  C   UNL A   1      39.218  29.609  28.521  1.00  0.00     0.074 A 
ATOM     40  C   UNL A   1      41.031  28.138  29.482  1.00  0.00     0.049 A 
ATOM     41  N   UNL A   1      39.503  30.775  28.974  1.00  0.00    -0.248 NA
ATOM     42  C   UNL A   1      37.889  29.533  27.932  1.00  0.00     0.031 C 
ATOM     43  C   UNL A   1      41.261  28.645  30.816  1.00  0.00     0.029 A 
ATOM     44  N   UNL A   1      42.029  27.155  29.337  1.00  0.00    -0.354 N 
ATOM     45  C   UNL A   1      38.290  31.427  29.126  1.00  0.00     0.074 A 
ATOM     46  C   UNL A   1      37.367  30.711  28.289  1.00  0.00     0.031 C 
ATOM     47  C   UNL A   1      42.480  28.225  31.218  1.00  0.00     0.029 A 
ATOM     48  C   UNL A   1      43.124  27.597  30.063  1.00  0.00     0.049 A 
ATOM     49  H   UNL A   1      41.962  26.320  28.820  1.00  0.00     0.167 HD
ATOM     50  C   UNL A   1      38.150  32.303  30.163  1.00  0.00     0.034 A 
ATOM     51  C   UNL A   1      44.227  28.052  29.389  1.00  0.00     0.034 A 
ATOM     52  C   UNL A   1      39.418  32.355  30.917  1.00  0.00     0.049 A 
ATOM     53  C   UNL A   1      44.387  29.543  29.619  1.00  0.00     0.074 A 
ATOM     54  C   UNL A   1      39.825  31.697  32.066  1.00  0.00     0.029 A 
ATOM     55  N   UNL A   1      40.575  32.822  30.303  1.00  0.00    -0.354 N 
ATOM     56  N   UNL A   1      43.418  30.326  30.008  1.00  0.00    -0.248 NA
ATOM     57  C   UNL A   1      45.646  30.257  29.454  1.00  0.00     0.031 C 
ATOM     58  C   UNL A   1      41.248  31.680  32.080  1.00  0.00     0.029 A 
ATOM     59  C   UNL A   1      41.705  32.330  30.945  1.00  0.00     0.049 A 
ATOM     60  H   UNL A   1      40.592  33.420  29.521  1.00  0.00     0.167 HD
ATOM     61  C   UNL A   1      43.865  31.608  30.118  1.00  0.00     0.074 A 
ATOM     62  C   UNL A   1      45.280  31.507  29.790  1.00  0.00     0.031 C 
ATOM     63  C   UNL A   1      43.034  32.648  30.433  1.00  0.00     0.034 A 
BRANCH  50  64
ATOM     64  C   UNL A   1      36.829  32.795  30.755  1.00  0.00     0.023 A 
ATOM     65  C   UNL A   1      36.470  32.255  32.014  1.00  0.00     0.012 A 
ATOM     66  C   UNL A   1      35.897  33.703  30.192  1.00  0.00     0.148 A 
ATOM     67  C   UNL A   1      35.242  32.507  32.633  1.00  0.00     0.002 A 
ATOM     68  C   UNL A   1      34.647  33.930  30.793  1.00  0.00     0.091 A 
ATOM     69  F   UNL A   1      36.228  34.415  29.111  1.00  0.00    -0.205 F 
ATOM     70  C   UNL A   1      34.317  33.325  32.009  1.00  0.00     0.022 A 
BRANCH  68  71
ATOM     71  S   UNL A   1      33.370  34.974  30.057  1.00  0.00     0.127 S 
ATOM     72  O   UNL A   1      32.788  34.088  29.046  1.00  0.00    -0.237 OA
ATOM     73  O   UNL A   1      32.493  35.245  31.196  1.00  0.00    -0.237 OA
ATOM     74  O   UNL A   1      34.051  36.140  29.507  1.00  0.00    -0.744 OA
ENDBRANCH  68  71
ENDBRANCH  50  64
BRANCH  51  75
ATOM     75  C   UNL A   1      44.477  27.360  28.066  1.00  0.00     0.023 A 
ATOM     76  C   UNL A   1      44.002  27.999  26.889  1.00  0.00     0.012 A 
ATOM     77  C   UNL A   1      45.435  26.337  27.914  1.00  0.00     0.148 A 
ATOM     78  C   UNL A   1      44.556  27.725  25.632  1.00  0.00     0.002 A 
ATOM     79  C   UNL A   1      45.975  26.063  26.651  1.00  0.00     0.091 A 
ATOM     80  F   UNL A   1      45.863  25.678  28.999  1.00  0.00    -0.205 F 
ATOM     81  C   UNL A   1      45.559  26.773  25.516  1.00  0.00     0.022 A 
BRANCH  79  82
ATOM     82  S   UNL A   1      47.327  24.885  26.482  1.00  0.00     0.127 S 
ATOM     83  O   UNL A   1      48.360  25.427  27.369  1.00  0.00    -0.237 OA
ATOM     84  O   UNL A   1      46.750  23.633  26.952  1.00  0.00    -0.237 OA
ATOM     85  O   UNL A   1      47.636  24.977  25.060  1.00  0.00    -0.744 OA
ENDBRANCH  79  82
ENDBRANCH  51  75
BRANCH  63  86
ATOM     86  C   UNL A   1      43.412  34.097  30.280  1.00  0.00     0.023 A 
ATOM     87  C   UNL A   1      43.985  34.828  31.335  1.00  0.00     0.012 A 
ATOM     88  C   UNL A   1      43.380  34.714  29.005  1.00  0.00     0.148 A 
ATOM     89  C   UNL A   1      44.435  36.137  31.158  1.00  0.00     0.002 A 
ATOM     90  C   UNL A   1      43.956  35.960  28.805  1.00  0.00     0.091 A 
ATOM     91  F   UNL A   1      42.784  34.096  27.974  1.00  0.00    -0.205 F 
ATOM     92  C   UNL A   1      44.446  36.694  29.886  1.00  0.00     0.022 A 
BRANCH  90  93
ATOM     93  S   UNL A   1      44.254  36.570  27.141  1.00  0.00     0.127 S 
ATOM     94  O   UNL A   1      44.986  37.807  27.398  1.00  0.00    -0.237 OA
ATOM     95  O   UNL A   1      45.056  35.497  26.551  1.00  0.00    -0.237 OA
ATOM     96  O   UNL A   1      42.930  36.714  26.549  1.00  0.00    -0.744 OA
ENDBRANCH  90  93
ENDBRANCH  63  86
ENDBRANCH  37  38
ENDBRANCH  30  32
ENDBRANCH  29  30
ENDBRANCH  28  29
ENDBRANCH   1  28
TORSDOF 17
ENDMDL
