MODEL 1
REMARK VINA RESULT:     -12.6      0.000      0.000
REMARK SMILES COc1ccc2c(c1)c(CC(=O)OCCOC(=O)c1ccc(-c3c4nc(c(-c5cccc(S(=O)(=O)[O-])c5F)c5ccc([nH]5)c(-c5cccc(S(=O)(=O)[O-])c5F)c5nc(c(-c6cccc(S(=O)(=O)[O-])c6F)c6ccc3[nH]6)C=C5)C=C4)cc1)c(C)n2C(=O)c1ccc(Cl)cc1
REMARK SMILES IDX 14 1 13 2 11 3 12 4 10 5 9 6 3 7 4 8 8 9 5 10 7 11 6 12
REMARK SMILES IDX 84 13 82 14 83 15 2 16 1 17 85 18 86 19 87 20 88 21 93 22
REMARK SMILES IDX 89 23 92 24 90 25 91 26 15 27 16 28 17 29 18 30 19 31 20 32
REMARK SMILES IDX 81 33 21 34 80 35 22 36 23 37 24 38 74 39 25 40 79 41 73 42
REMARK SMILES IDX 75 43 26 44 78 45 72 46 71 47 27 49 59 50 39 51 58 52 40 53
REMARK SMILES IDX 43 54 57 55 76 56 41 57 42 58 56 60 77 61 44 62 28 63 29 64
REMARK SMILES IDX 37 65 30 66 32 67 38 68 31 69 33 70 34 71 35 72 36 73 60 74
REMARK SMILES IDX 61 75 69 76 62 77 64 78 70 79 63 80 65 81 66 82 67 83 68 84
REMARK SMILES IDX 45 85 46 86 54 87 47 88 49 89 55 90 48 91 50 92 51 93 52 94
REMARK SMILES IDX 53 95
REMARK H PARENT 75 48 43 59
REMARK Flexibility Score: inf
ROOT
ATOM      1  C   UNL A   1      35.139  21.721  25.515  1.00  0.00     0.274 C 
ENDROOT
BRANCH   1   2
ATOM      2  O   UNL A   1      34.114  22.653  25.109  1.00  0.00    -0.462 OA
BRANCH   2   3
ATOM      3  C   UNL A   1      34.553  23.901  24.809  1.00  0.00     0.310 C 
ATOM      4  O   UNL A   1      35.461  24.468  25.410  1.00  0.00    -0.252 OA
BRANCH   3   5
ATOM      5  C   UNL A   1      33.787  24.600  23.723  1.00  0.00     0.160 C 
BRANCH   5   6
ATOM      6  C   UNL A   1      32.811  25.707  24.032  1.00  0.00    -0.008 A 
ATOM      7  C   UNL A   1      33.865  28.766  26.166  1.00  0.00     0.119 A 
ATOM      8  C   UNL A   1      32.586  29.240  26.376  1.00  0.00     0.048 A 
ATOM      9  C   UNL A   1      34.050  27.652  25.329  1.00  0.00     0.057 A 
ATOM     10  C   UNL A   1      31.496  28.608  25.773  1.00  0.00     0.031 A 
ATOM     11  C   UNL A   1      32.966  26.941  24.754  1.00  0.00     0.008 A 
ATOM     12  C   UNL A   1      31.684  27.475  24.949  1.00  0.00     0.057 A 
ATOM     13  N   UNL A   1      30.787  26.710  24.185  1.00  0.00    -0.280 N 
ATOM     14  C   UNL A   1      31.446  25.541  23.827  1.00  0.00     0.028 A 
ATOM     15  C   UNL A   1      30.762  24.307  23.318  1.00  0.00     0.065 C 
BRANCH   7  16
ATOM     16  O   UNL A   1      35.000  29.304  26.710  1.00  0.00    -0.497 OA
ATOM     17  C   UNL A   1      34.933  29.728  28.069  1.00  0.00     0.278 C 
ENDBRANCH   7  16
BRANCH  13  18
ATOM     18  C   UNL A   1      29.462  27.068  23.827  1.00  0.00     0.262 C 
ATOM     19  O   UNL A   1      28.523  26.337  24.137  1.00  0.00    -0.268 OA
BRANCH  18  20
ATOM     20  C   UNL A   1      29.117  28.242  23.024  1.00  0.00     0.040 A 
ATOM     21  C   UNL A   1      30.107  28.869  22.260  1.00  0.00     0.015 A 
ATOM     22  C   UNL A   1      27.818  28.752  23.100  1.00  0.00     0.015 A 
ATOM     23  C   UNL A   1      29.803  30.063  21.609  1.00  0.00     0.021 A 
ATOM     24  C   UNL A   1      27.521  29.943  22.441  1.00  0.00     0.021 A 
ATOM     25  C   UNL A   1      28.516  30.599  21.711  1.00  0.00     0.041 A 
ATOM     26  Cl  UNL A   1      28.162  32.099  20.946  1.00  0.00    -0.084 Cl
ENDBRANCH  18  20
ENDBRANCH  13  18
ENDBRANCH   5   6
ENDBRANCH   3   5
ENDBRANCH   2   3
ENDBRANCH   1   2
BRANCH   1  27
ATOM     27  C   UNL A   1      35.915  21.215  24.298  1.00  0.00     0.275 C 
BRANCH  27  28
ATOM     28  O   UNL A   1      37.289  21.603  24.438  1.00  0.00    -0.458 OA
BRANCH  28  29
ATOM     29  C   UNL A   1      38.086  20.799  25.183  1.00  0.00     0.338 C 
ATOM     30  O   UNL A   1      38.374  19.636  24.967  1.00  0.00    -0.246 OA
BRANCH  29  31
ATOM     31  C   UNL A   1      38.781  21.707  26.109  1.00  0.00     0.060 A 
ATOM     32  C   UNL A   1      38.376  23.037  26.220  1.00  0.00     0.016 A 
ATOM     33  C   UNL A   1      39.985  21.276  26.674  1.00  0.00     0.016 A 
ATOM     34  C   UNL A   1      39.246  23.957  26.788  1.00  0.00     0.010 A 
ATOM     35  C   UNL A   1      40.877  22.204  27.178  1.00  0.00     0.010 A 
ATOM     36  C   UNL A   1      40.523  23.547  27.196  1.00  0.00    -0.014 A 
BRANCH  36  37
ATOM     37  C   UNL A   1      41.345  24.463  27.967  1.00  0.00     0.031 A 
ATOM     38  C   UNL A   1      40.663  25.763  28.126  1.00  0.00     0.074 A 
ATOM     39  C   UNL A   1      42.504  24.215  28.602  1.00  0.00     0.049 A 
ATOM     40  N   UNL A   1      40.816  26.801  27.373  1.00  0.00    -0.248 NA
ATOM     41  C   UNL A   1      39.545  25.856  29.079  1.00  0.00     0.031 C 
ATOM     42  C   UNL A   1      43.129  22.922  28.874  1.00  0.00     0.029 A 
ATOM     43  N   UNL A   1      43.328  25.103  29.235  1.00  0.00    -0.354 N 
ATOM     44  C   UNL A   1      40.013  27.765  27.956  1.00  0.00     0.074 A 
ATOM     45  C   UNL A   1      39.082  27.079  28.816  1.00  0.00     0.031 C 
ATOM     46  C   UNL A   1      44.114  23.092  29.790  1.00  0.00     0.029 A 
ATOM     47  C   UNL A   1      44.291  24.514  30.046  1.00  0.00     0.049 A 
ATOM     48  H   UNL A   1      43.245  26.079  29.127  1.00  0.00     0.167 HD
ATOM     49  C   UNL A   1      40.405  29.065  27.986  1.00  0.00     0.034 A 
ATOM     50  C   UNL A   1      45.131  25.171  30.884  1.00  0.00     0.034 A 
ATOM     51  C   UNL A   1      41.575  29.303  27.192  1.00  0.00     0.049 A 
ATOM     52  C   UNL A   1      45.294  26.545  30.349  1.00  0.00     0.074 A 
ATOM     53  C   UNL A   1      41.889  29.412  25.858  1.00  0.00     0.029 A 
ATOM     54  N   UNL A   1      42.739  29.059  27.870  1.00  0.00    -0.354 N 
ATOM     55  N   UNL A   1      45.884  26.818  29.217  1.00  0.00    -0.248 NA
ATOM     56  C   UNL A   1      44.585  27.660  30.973  1.00  0.00     0.031 C 
ATOM     57  C   UNL A   1      43.279  29.112  25.744  1.00  0.00     0.029 A 
ATOM     58  C   UNL A   1      43.782  28.835  27.013  1.00  0.00     0.049 A 
ATOM     59  H   UNL A   1      42.816  29.046  28.851  1.00  0.00     0.167 HD
ATOM     60  C   UNL A   1      45.262  27.975  28.793  1.00  0.00     0.074 A 
ATOM     61  C   UNL A   1      44.639  28.545  29.975  1.00  0.00     0.031 C 
ATOM     62  C   UNL A   1      44.987  28.181  27.476  1.00  0.00     0.034 A 
BRANCH  49  63
ATOM     63  C   UNL A   1      40.043  29.984  29.114  1.00  0.00     0.023 A 
ATOM     64  C   UNL A   1      40.778  29.905  30.308  1.00  0.00     0.012 A 
ATOM     65  C   UNL A   1      38.861  30.757  29.117  1.00  0.00     0.148 A 
ATOM     66  C   UNL A   1      40.376  30.613  31.444  1.00  0.00     0.002 A 
ATOM     67  C   UNL A   1      38.523  31.537  30.211  1.00  0.00     0.091 A 
ATOM     68  F   UNL A   1      37.990  30.633  28.105  1.00  0.00    -0.205 F 
ATOM     69  C   UNL A   1      39.269  31.455  31.388  1.00  0.00     0.022 A 
BRANCH  67  70
ATOM     70  S   UNL A   1      37.158  32.698  30.137  1.00  0.00     0.127 S 
ATOM     71  O   UNL A   1      37.035  32.918  28.700  1.00  0.00    -0.237 OA
ATOM     72  O   UNL A   1      36.075  31.926  30.745  1.00  0.00    -0.237 OA
ATOM     73  O   UNL A   1      37.591  33.840  30.933  1.00  0.00    -0.744 OA
ENDBRANCH  67  70
ENDBRANCH  49  63
BRANCH  50  74
ATOM     74  C   UNL A   1      45.712  24.808  32.204  1.00  0.00     0.023 A 
ATOM     75  C   UNL A   1      46.927  25.418  32.595  1.00  0.00     0.012 A 
ATOM     76  C   UNL A   1      44.955  24.157  33.199  1.00  0.00     0.148 A 
ATOM     77  C   UNL A   1      47.318  25.476  33.937  1.00  0.00     0.002 A 
ATOM     78  C   UNL A   1      45.357  24.203  34.534  1.00  0.00     0.091 A 
ATOM     79  F   UNL A   1      43.795  23.579  32.862  1.00  0.00    -0.205 F 
ATOM     80  C   UNL A   1      46.522  24.885  34.909  1.00  0.00     0.022 A 
BRANCH  78  81
ATOM     81  S   UNL A   1      44.379  23.450  35.841  1.00  0.00     0.127 S 
ATOM     82  O   UNL A   1      44.204  22.081  35.350  1.00  0.00    -0.237 OA
ATOM     83  O   UNL A   1      45.262  23.575  36.997  1.00  0.00    -0.237 OA
ATOM     84  O   UNL A   1      43.144  24.223  35.892  1.00  0.00    -0.744 OA
ENDBRANCH  78  81
ENDBRANCH  50  74
BRANCH  62  85
ATOM     85  C   UNL A   1      45.876  27.532  26.462  1.00  0.00     0.023 A 
ATOM     86  C   UNL A   1      47.072  28.114  26.002  1.00  0.00     0.012 A 
ATOM     87  C   UNL A   1      45.532  26.236  26.043  1.00  0.00     0.148 A 
ATOM     88  C   UNL A   1      47.910  27.408  25.134  1.00  0.00     0.002 A 
ATOM     89  C   UNL A   1      46.384  25.524  25.213  1.00  0.00     0.091 A 
ATOM     90  F   UNL A   1      44.379  25.714  26.489  1.00  0.00    -0.205 F 
ATOM     91  C   UNL A   1      47.574  26.108  24.751  1.00  0.00     0.022 A 
BRANCH  89  92
ATOM     92  S   UNL A   1      46.059  23.817  24.765  1.00  0.00     0.127 S 
ATOM     93  O   UNL A   1      47.078  23.567  23.748  1.00  0.00    -0.237 OA
ATOM     94  O   UNL A   1      46.276  23.120  26.035  1.00  0.00    -0.237 OA
ATOM     95  O   UNL A   1      44.683  23.776  24.287  1.00  0.00    -0.744 OA
ENDBRANCH  89  92
ENDBRANCH  62  85
ENDBRANCH  36  37
ENDBRANCH  29  31
ENDBRANCH  28  29
ENDBRANCH  27  28
ENDBRANCH   1  27
TORSDOF 18
ENDMDL
MODEL 2
REMARK VINA RESULT:     -12.5      3.878      8.502
REMARK SMILES COc1ccc2c(c1)c(CC(=O)OCCOC(=O)c1ccc(-c3c4nc(c(-c5cccc(S(=O)(=O)[O-])c5F)c5ccc([nH]5)c(-c5cccc(S(=O)(=O)[O-])c5F)c5nc(c(-c6cccc(S(=O)(=O)[O-])c6F)c6ccc3[nH]6)C=C5)C=C4)cc1)c(C)n2C(=O)c1ccc(Cl)cc1
REMARK SMILES IDX 14 1 13 2 11 3 12 4 10 5 9 6 3 7 4 8 8 9 5 10 7 11 6 12
REMARK SMILES IDX 84 13 82 14 83 15 2 16 1 17 85 18 86 19 87 20 88 21 93 22
REMARK SMILES IDX 89 23 92 24 90 25 91 26 15 27 16 28 17 29 18 30 19 31 20 32
REMARK SMILES IDX 81 33 21 34 80 35 22 36 23 37 24 38 74 39 25 40 79 41 73 42
REMARK SMILES IDX 75 43 26 44 78 45 72 46 71 47 27 49 59 50 39 51 58 52 40 53
REMARK SMILES IDX 43 54 57 55 76 56 41 57 42 58 56 60 77 61 44 62 28 63 29 64
REMARK SMILES IDX 37 65 30 66 32 67 38 68 31 69 33 70 34 71 35 72 36 73 60 74
REMARK SMILES IDX 61 75 69 76 62 77 64 78 70 79 63 80 65 81 66 82 67 83 68 84
REMARK SMILES IDX 45 85 46 86 54 87 47 88 49 89 55 90 48 91 50 92 51 93 52 94
REMARK SMILES IDX 53 95
REMARK H PARENT 75 48 43 59
REMARK Flexibility Score: inf
ROOT
ATOM      1  C   UNL A   1      40.074  21.464  26.886  1.00  0.00     0.274 C 
ENDROOT
BRANCH   1   2
ATOM      2  O   UNL A   1      39.086  21.425  25.834  1.00  0.00    -0.462 OA
BRANCH   2   3
ATOM      3  C   UNL A   1      38.278  22.511  25.759  1.00  0.00     0.310 C 
ATOM      4  O   UNL A   1      38.354  23.473  26.519  1.00  0.00    -0.252 OA
BRANCH   3   5
ATOM      5  C   UNL A   1      37.200  22.431  24.717  1.00  0.00     0.160 C 
BRANCH   5   6
ATOM      6  C   UNL A   1      35.768  22.135  25.083  1.00  0.00    -0.008 A 
ATOM      7  C   UNL A   1      34.268  18.594  24.601  1.00  0.00     0.119 A 
ATOM      8  C   UNL A   1      32.953  18.971  24.778  1.00  0.00     0.048 A 
ATOM      9  C   UNL A   1      35.281  19.553  24.771  1.00  0.00     0.057 A 
ATOM     10  C   UNL A   1      32.640  20.292  25.107  1.00  0.00     0.031 A 
ATOM     11  C   UNL A   1      35.002  20.919  25.037  1.00  0.00     0.008 A 
ATOM     12  C   UNL A   1      33.661  21.260  25.256  1.00  0.00     0.057 A 
ATOM     13  N   UNL A   1      33.626  22.610  25.641  1.00  0.00    -0.280 N 
ATOM     14  C   UNL A   1      34.859  23.161  25.320  1.00  0.00     0.028 A 
ATOM     15  C   UNL A   1      35.132  24.634  25.235  1.00  0.00     0.065 C 
BRANCH   7  16
ATOM     16  O   UNL A   1      34.685  17.332  24.273  1.00  0.00    -0.497 OA
ATOM     17  C   UNL A   1      33.855  16.581  23.390  1.00  0.00     0.278 C 
ENDBRANCH   7  16
BRANCH  13  18
ATOM     18  C   UNL A   1      32.542  23.285  26.260  1.00  0.00     0.262 C 
ATOM     19  O   UNL A   1      32.237  23.022  27.422  1.00  0.00    -0.268 OA
BRANCH  18  20
ATOM     20  C   UNL A   1      31.678  24.250  25.578  1.00  0.00     0.040 A 
ATOM     21  C   UNL A   1      31.303  25.425  26.237  1.00  0.00     0.015 A 
ATOM     22  C   UNL A   1      31.187  23.934  24.309  1.00  0.00     0.015 A 
ATOM     23  C   UNL A   1      30.372  26.270  25.637  1.00  0.00     0.021 A 
ATOM     24  C   UNL A   1      30.261  24.787  23.712  1.00  0.00     0.021 A 
ATOM     25  C   UNL A   1      29.848  25.942  24.383  1.00  0.00     0.041 A 
ATOM     26  Cl  UNL A   1      28.662  26.963  23.668  1.00  0.00    -0.084 Cl
ENDBRANCH  18  20
ENDBRANCH  13  18
ENDBRANCH   5   6
ENDBRANCH   3   5
ENDBRANCH   2   3
ENDBRANCH   1   2
BRANCH   1  27
ATOM     27  C   UNL A   1      41.461  21.136  26.330  1.00  0.00     0.275 C 
BRANCH  27  28
ATOM     28  O   UNL A   1      41.855  22.184  25.433  1.00  0.00    -0.458 OA
BRANCH  28  29
ATOM     29  C   UNL A   1      42.944  22.915  25.776  1.00  0.00     0.338 C 
ATOM     30  O   UNL A   1      44.070  22.821  25.323  1.00  0.00    -0.246 OA
BRANCH  29  31
ATOM     31  C   UNL A   1      42.414  24.045  26.554  1.00  0.00     0.060 A 
ATOM     32  C   UNL A   1      41.579  24.981  25.946  1.00  0.00     0.016 A 
ATOM     33  C   UNL A   1      42.956  24.284  27.820  1.00  0.00     0.016 A 
ATOM     34  C   UNL A   1      41.396  26.213  26.558  1.00  0.00     0.010 A 
ATOM     35  C   UNL A   1      42.827  25.535  28.395  1.00  0.00     0.010 A 
ATOM     36  C   UNL A   1      42.082  26.509  27.744  1.00  0.00    -0.014 A 
BRANCH  36  37
ATOM     37  C   UNL A   1      41.733  27.712  28.479  1.00  0.00     0.031 A 
ATOM     38  C   UNL A   1      42.676  28.804  28.165  1.00  0.00     0.074 A 
ATOM     39  C   UNL A   1      40.652  27.940  29.247  1.00  0.00     0.049 A 
ATOM     40  N   UNL A   1      43.735  29.113  28.837  1.00  0.00    -0.248 NA
ATOM     41  C   UNL A   1      42.555  29.482  26.864  1.00  0.00     0.031 C 
ATOM     42  C   UNL A   1      39.441  27.131  29.368  1.00  0.00     0.029 A 
ATOM     43  N   UNL A   1      40.381  29.033  30.021  1.00  0.00    -0.354 N 
ATOM     44  C   UNL A   1      44.242  30.221  28.180  1.00  0.00     0.074 A 
ATOM     45  C   UNL A   1      43.649  30.244  26.867  1.00  0.00     0.031 C 
ATOM     46  C   UNL A   1      38.486  27.858  29.999  1.00  0.00     0.029 A 
ATOM     47  C   UNL A   1      39.064  29.111  30.461  1.00  0.00     0.049 A 
ATOM     48  H   UNL A   1      41.061  29.708  30.249  1.00  0.00     0.167 HD
ATOM     49  C   UNL A   1      44.812  31.237  28.878  1.00  0.00     0.034 A 
ATOM     50  C   UNL A   1      38.510  30.160  31.119  1.00  0.00     0.034 A 
ATOM     51  C   UNL A   1      44.994  30.915  30.263  1.00  0.00     0.049 A 
ATOM     52  C   UNL A   1      39.610  30.867  31.819  1.00  0.00     0.074 A 
ATOM     53  C   UNL A   1      45.842  30.141  31.021  1.00  0.00     0.029 A 
ATOM     54  N   UNL A   1      43.884  31.173  31.022  1.00  0.00    -0.354 N 
ATOM     55  N   UNL A   1      40.296  30.350  32.803  1.00  0.00    -0.248 NA
ATOM     56  C   UNL A   1      40.137  32.116  31.275  1.00  0.00     0.031 C 
ATOM     57  C   UNL A   1      45.146  29.848  32.232  1.00  0.00     0.029 A 
ATOM     58  C   UNL A   1      43.895  30.457  32.189  1.00  0.00     0.049 A 
ATOM     59  H   UNL A   1      43.168  31.797  30.762  1.00  0.00     0.167 HD
ATOM     60  C   UNL A   1      41.531  30.957  32.697  1.00  0.00     0.074 A 
ATOM     61  C   UNL A   1      41.318  32.150  31.896  1.00  0.00     0.031 C 
ATOM     62  C   UNL A   1      42.676  30.264  32.944  1.00  0.00     0.034 A 
BRANCH  49  63
ATOM     63  C   UNL A   1      44.728  32.664  28.427  1.00  0.00     0.023 A 
ATOM     64  C   UNL A   1      43.536  33.371  28.652  1.00  0.00     0.012 A 
ATOM     65  C   UNL A   1      45.696  33.255  27.585  1.00  0.00     0.148 A 
ATOM     66  C   UNL A   1      43.343  34.642  28.103  1.00  0.00     0.002 A 
ATOM     67  C   UNL A   1      45.545  34.553  27.127  1.00  0.00     0.091 A 
ATOM     68  F   UNL A   1      46.707  32.508  27.118  1.00  0.00    -0.205 F 
ATOM     69  C   UNL A   1      44.359  35.248  27.368  1.00  0.00     0.022 A 
BRANCH  67  70
ATOM     70  S   UNL A   1      46.871  35.392  26.258  1.00  0.00     0.127 S 
ATOM     71  O   UNL A   1      47.985  35.221  27.185  1.00  0.00    -0.237 OA
ATOM     72  O   UNL A   1      46.962  34.610  25.025  1.00  0.00    -0.237 OA
ATOM     73  O   UNL A   1      46.392  36.754  26.063  1.00  0.00    -0.744 OA
ENDBRANCH  67  70
ENDBRANCH  49  63
BRANCH  50  74
ATOM     74  C   UNL A   1      37.139  30.736  31.105  1.00  0.00     0.023 A 
ATOM     75  C   UNL A   1      36.598  31.214  32.322  1.00  0.00     0.012 A 
ATOM     76  C   UNL A   1      36.505  31.126  29.908  1.00  0.00     0.148 A 
ATOM     77  C   UNL A   1      35.541  32.131  32.343  1.00  0.00     0.002 A 
ATOM     78  C   UNL A   1      35.440  32.027  29.935  1.00  0.00     0.091 A 
ATOM     79  F   UNL A   1      37.000  30.698  28.740  1.00  0.00    -0.205 F 
ATOM     80  C   UNL A   1      34.975  32.552  31.147  1.00  0.00     0.022 A 
BRANCH  78  81
ATOM     81  S   UNL A   1      34.655  32.604  28.424  1.00  0.00     0.127 S 
ATOM     82  O   UNL A   1      35.798  33.078  27.640  1.00  0.00    -0.237 OA
ATOM     83  O   UNL A   1      34.030  31.386  27.918  1.00  0.00    -0.237 OA
ATOM     84  O   UNL A   1      33.745  33.663  28.844  1.00  0.00    -0.744 OA
ENDBRANCH  78  81
ENDBRANCH  50  74
BRANCH  62  85
ATOM     85  C   UNL A   1      42.613  29.120  33.907  1.00  0.00     0.023 A 
ATOM     86  C   UNL A   1      41.966  27.905  33.617  1.00  0.00     0.012 A 
ATOM     87  C   UNL A   1      43.329  29.253  35.108  1.00  0.00     0.148 A 
ATOM     88  C   UNL A   1      42.035  26.838  34.519  1.00  0.00     0.002 A 
ATOM     89  C   UNL A   1      43.428  28.181  35.981  1.00  0.00     0.091 A 
ATOM     90  F   UNL A   1      43.924  30.428  35.361  1.00  0.00    -0.205 F 
ATOM     91  C   UNL A   1      42.777  26.971  35.693  1.00  0.00     0.022 A 
BRANCH  89  92
ATOM     92  S   UNL A   1      44.447  28.255  37.457  1.00  0.00     0.127 S 
ATOM     93  O   UNL A   1      45.796  28.148  36.905  1.00  0.00    -0.237 OA
ATOM     94  O   UNL A   1      44.108  29.573  37.998  1.00  0.00    -0.237 OA
ATOM     95  O   UNL A   1      44.031  27.138  38.296  1.00  0.00    -0.744 OA
ENDBRANCH  89  92
ENDBRANCH  62  85
ENDBRANCH  36  37
ENDBRANCH  29  31
ENDBRANCH  28  29
ENDBRANCH  27  28
ENDBRANCH   1  27
TORSDOF 18
ENDMDL
MODEL 3
REMARK VINA RESULT:     -12.4      3.333      7.739
REMARK SMILES COc1ccc2c(c1)c(CC(=O)OCCOC(=O)c1ccc(-c3c4nc(c(-c5cccc(S(=O)(=O)[O-])c5F)c5ccc([nH]5)c(-c5cccc(S(=O)(=O)[O-])c5F)c5nc(c(-c6cccc(S(=O)(=O)[O-])c6F)c6ccc3[nH]6)C=C5)C=C4)cc1)c(C)n2C(=O)c1ccc(Cl)cc1
REMARK SMILES IDX 14 1 13 2 11 3 12 4 10 5 9 6 3 7 4 8 8 9 5 10 7 11 6 12
REMARK SMILES IDX 84 13 82 14 83 15 2 16 1 17 85 18 86 19 87 20 88 21 93 22
REMARK SMILES IDX 89 23 92 24 90 25 91 26 15 27 16 28 17 29 18 30 19 31 20 32
REMARK SMILES IDX 81 33 21 34 80 35 22 36 23 37 24 38 74 39 25 40 79 41 73 42
REMARK SMILES IDX 75 43 26 44 78 45 72 46 71 47 27 49 59 50 39 51 58 52 40 53
REMARK SMILES IDX 43 54 57 55 76 56 41 57 42 58 56 60 77 61 44 62 28 63 29 64
REMARK SMILES IDX 37 65 30 66 32 67 38 68 31 69 33 70 34 71 35 72 36 73 60 74
REMARK SMILES IDX 61 75 69 76 62 77 64 78 70 79 63 80 65 81 66 82 67 83 68 84
REMARK SMILES IDX 45 85 46 86 54 87 47 88 49 89 55 90 48 91 50 92 51 93 52 94
REMARK SMILES IDX 53 95
REMARK H PARENT 75 48 43 59
REMARK Flexibility Score: inf
ROOT
ATOM      1  C   UNL A   1      36.611  22.515  25.071  1.00  0.00     0.274 C 
ENDROOT
BRANCH   1   2
ATOM      2  O   UNL A   1      35.627  21.967  24.169  1.00  0.00    -0.462 OA
BRANCH   2   3
ATOM      3  C   UNL A   1      34.680  21.189  24.749  1.00  0.00     0.310 C 
ATOM      4  O   UNL A   1      34.933  20.185  25.411  1.00  0.00    -0.252 OA
BRANCH   3   5
ATOM      5  C   UNL A   1      33.263  21.589  24.458  1.00  0.00     0.160 C 
BRANCH   5   6
ATOM      6  C   UNL A   1      32.840  23.036  24.436  1.00  0.00    -0.008 A 
ATOM      7  C   UNL A   1      32.917  25.094  21.153  1.00  0.00     0.119 A 
ATOM      8  C   UNL A   1      32.755  26.326  21.754  1.00  0.00     0.048 A 
ATOM      9  C   UNL A   1      32.869  23.937  21.948  1.00  0.00     0.057 A 
ATOM     10  C   UNL A   1      32.561  26.414  23.134  1.00  0.00     0.031 A 
ATOM     11  C   UNL A   1      32.742  23.986  23.361  1.00  0.00     0.008 A 
ATOM     12  C   UNL A   1      32.535  25.248  23.934  1.00  0.00     0.057 A 
ATOM     13  N   UNL A   1      32.294  25.054  25.304  1.00  0.00    -0.280 N 
ATOM     14  C   UNL A   1      32.694  23.762  25.614  1.00  0.00     0.028 A 
ATOM     15  C   UNL A   1      32.940  23.262  27.007  1.00  0.00     0.065 C 
BRANCH   7  16
ATOM     16  O   UNL A   1      33.117  24.895  19.814  1.00  0.00    -0.497 OA
ATOM     17  C   UNL A   1      32.281  25.620  18.915  1.00  0.00     0.278 C 
ENDBRANCH   7  16
BRANCH  13  18
ATOM     18  C   UNL A   1      31.728  25.994  26.204  1.00  0.00     0.262 C 
ATOM     19  O   UNL A   1      30.592  25.821  26.641  1.00  0.00    -0.268 OA
BRANCH  18  20
ATOM     20  C   UNL A   1      32.382  27.239  26.611  1.00  0.00     0.040 A 
ATOM     21  C   UNL A   1      31.606  28.306  27.073  1.00  0.00     0.015 A 
ATOM     22  C   UNL A   1      33.767  27.354  26.455  1.00  0.00     0.015 A 
ATOM     23  C   UNL A   1      32.221  29.531  27.326  1.00  0.00     0.021 A 
ATOM     24  C   UNL A   1      34.375  28.580  26.716  1.00  0.00     0.021 A 
ATOM     25  C   UNL A   1      33.600  29.664  27.137  1.00  0.00     0.041 A 
ATOM     26  Cl  UNL A   1      34.346  31.191  27.403  1.00  0.00    -0.084 Cl
ENDBRANCH  18  20
ENDBRANCH  13  18
ENDBRANCH   5   6
ENDBRANCH   3   5
ENDBRANCH   2   3
ENDBRANCH   1   2
BRANCH   1  27
ATOM     27  C   UNL A   1      37.876  21.654  25.072  1.00  0.00     0.275 C 
BRANCH  27  28
ATOM     28  O   UNL A   1      38.488  21.743  26.366  1.00  0.00    -0.458 OA
BRANCH  28  29
ATOM     29  C   UNL A   1      39.821  21.988  26.404  1.00  0.00     0.338 C 
ATOM     30  O   UNL A   1      40.699  21.397  25.802  1.00  0.00    -0.246 OA
BRANCH  29  31
ATOM     31  C   UNL A   1      39.947  23.302  27.052  1.00  0.00     0.060 A 
ATOM     32  C   UNL A   1      39.263  24.403  26.538  1.00  0.00     0.016 A 
ATOM     33  C   UNL A   1      40.940  23.465  28.022  1.00  0.00     0.016 A 
ATOM     34  C   UNL A   1      39.671  25.677  26.907  1.00  0.00     0.010 A 
ATOM     35  C   UNL A   1      41.388  24.735  28.337  1.00  0.00     0.010 A 
ATOM     36  C   UNL A   1      40.781  25.836  27.748  1.00  0.00    -0.014 A 
BRANCH  36  37
ATOM     37  C   UNL A   1      41.075  27.152  28.287  1.00  0.00     0.031 A 
ATOM     38  C   UNL A   1      42.389  27.626  27.810  1.00  0.00     0.074 A 
ATOM     39  C   UNL A   1      40.275  27.959  29.008  1.00  0.00     0.049 A 
ATOM     40  N   UNL A   1      43.515  27.499  28.428  1.00  0.00    -0.248 NA
ATOM     41  C   UNL A   1      42.501  28.096  26.419  1.00  0.00     0.031 C 
ATOM     42  C   UNL A   1      38.840  27.829  29.250  1.00  0.00     0.029 A 
ATOM     43  N   UNL A   1      40.590  29.148  29.603  1.00  0.00    -0.354 N 
ATOM     44  C   UNL A   1      44.427  28.142  27.609  1.00  0.00     0.074 A 
ATOM     45  C   UNL A   1      43.820  28.256  26.306  1.00  0.00     0.031 C 
ATOM     46  C   UNL A   1      38.371  28.996  29.759  1.00  0.00     0.029 A 
ATOM     47  C   UNL A   1      39.490  29.888  30.022  1.00  0.00     0.049 A 
ATOM     48  H   UNL A   1      41.518  29.455  29.725  1.00  0.00     0.167 HD
ATOM     49  C   UNL A   1      45.446  28.863  28.142  1.00  0.00     0.034 A 
ATOM     50  C   UNL A   1      39.526  31.154  30.509  1.00  0.00     0.034 A 
ATOM     51  C   UNL A   1      45.557  28.689  29.561  1.00  0.00     0.049 A 
ATOM     52  C   UNL A   1      40.874  31.359  31.093  1.00  0.00     0.074 A 
ATOM     53  C   UNL A   1      46.006  27.723  30.431  1.00  0.00     0.029 A 
ATOM     54  N   UNL A   1      44.746  29.535  30.268  1.00  0.00    -0.354 N 
ATOM     55  N   UNL A   1      41.313  30.725  32.147  1.00  0.00    -0.248 NA
ATOM     56  C   UNL A   1      41.876  32.132  30.363  1.00  0.00     0.031 C 
ATOM     57  C   UNL A   1      45.340  27.956  31.671  1.00  0.00     0.029 A 
ATOM     58  C   UNL A   1      44.508  29.064  31.531  1.00  0.00     0.049 A 
ATOM     59  H   UNL A   1      44.378  30.376  29.913  1.00  0.00     0.167 HD
ATOM     60  C   UNL A   1      42.678  30.669  31.951  1.00  0.00     0.074 A 
ATOM     61  C   UNL A   1      42.980  31.701  30.975  1.00  0.00     0.031 C 
ATOM     62  C   UNL A   1      43.392  29.565  32.305  1.00  0.00     0.034 A 
BRANCH  49  63
ATOM     63  C   UNL A   1      45.995  30.089  27.475  1.00  0.00     0.023 A 
ATOM     64  C   UNL A   1      47.385  30.283  27.464  1.00  0.00     0.012 A 
ATOM     65  C   UNL A   1      45.176  31.164  27.064  1.00  0.00     0.148 A 
ATOM     66  C   UNL A   1      47.937  31.485  27.010  1.00  0.00     0.002 A 
ATOM     67  C   UNL A   1      45.727  32.312  26.520  1.00  0.00     0.091 A 
ATOM     68  F   UNL A   1      43.861  31.127  27.325  1.00  0.00    -0.205 F 
ATOM     69  C   UNL A   1      47.112  32.487  26.507  1.00  0.00     0.022 A 
BRANCH  67  70
ATOM     70  S   UNL A   1      44.694  33.578  25.781  1.00  0.00     0.127 S 
ATOM     71  O   UNL A   1      43.992  34.104  26.948  1.00  0.00    -0.237 OA
ATOM     72  O   UNL A   1      45.692  34.476  25.198  1.00  0.00    -0.237 OA
ATOM     73  O   UNL A   1      43.881  32.875  24.797  1.00  0.00    -0.744 OA
ENDBRANCH  67  70
ENDBRANCH  49  63
BRANCH  50  74
ATOM     74  C   UNL A   1      38.575  32.293  30.403  1.00  0.00     0.023 A 
ATOM     75  C   UNL A   1      38.102  32.658  29.121  1.00  0.00     0.012 A 
ATOM     76  C   UNL A   1      37.883  32.793  31.525  1.00  0.00     0.148 A 
ATOM     77  C   UNL A   1      36.925  33.396  28.958  1.00  0.00     0.002 A 
ATOM     78  C   UNL A   1      36.719  33.543  31.357  1.00  0.00     0.091 A 
ATOM     79  F   UNL A   1      38.301  32.457  32.752  1.00  0.00    -0.205 F 
ATOM     80  C   UNL A   1      36.222  33.822  30.077  1.00  0.00     0.022 A 
BRANCH  78  81
ATOM     81  S   UNL A   1      35.768  34.135  32.764  1.00  0.00     0.127 S 
ATOM     82  O   UNL A   1      35.481  32.896  33.490  1.00  0.00    -0.237 OA
ATOM     83  O   UNL A   1      36.718  35.024  33.425  1.00  0.00    -0.237 OA
ATOM     84  O   UNL A   1      34.588  34.772  32.191  1.00  0.00    -0.744 OA
ENDBRANCH  78  81
ENDBRANCH  50  74
BRANCH  62  85
ATOM     85  C   UNL A   1      42.879  28.727  33.434  1.00  0.00     0.023 A 
ATOM     86  C   UNL A   1      41.792  27.843  33.303  1.00  0.00     0.012 A 
ATOM     87  C   UNL A   1      43.599  28.764  34.639  1.00  0.00     0.148 A 
ATOM     88  C   UNL A   1      41.430  27.011  34.367  1.00  0.00     0.002 A 
ATOM     89  C   UNL A   1      43.262  27.910  35.678  1.00  0.00     0.091 A 
ATOM     90  F   UNL A   1      44.623  29.626  34.736  1.00  0.00    -0.205 F 
ATOM     91  C   UNL A   1      42.173  27.033  35.548  1.00  0.00     0.022 A 
BRANCH  89  92
ATOM     92  S   UNL A   1      44.237  27.821  37.181  1.00  0.00     0.127 S 
ATOM     93  O   UNL A   1      45.550  27.427  36.674  1.00  0.00    -0.237 OA
ATOM     94  O   UNL A   1      44.160  29.195  37.680  1.00  0.00    -0.237 OA
ATOM     95  O   UNL A   1      43.583  26.836  38.034  1.00  0.00    -0.744 OA
ENDBRANCH  89  92
ENDBRANCH  62  85
ENDBRANCH  36  37
ENDBRANCH  29  31
ENDBRANCH  28  29
ENDBRANCH  27  28
ENDBRANCH   1  27
TORSDOF 18
ENDMDL
