MODEL 1
REMARK VINA RESULT:     -12.9      0.000      0.000
REMARK SMILES Cc1c(NC(=O)c2ccccc2NC(=O)[C@@H]2CCCO2)cccc1C(=O)OCCOC(=O)c1ccc(-c2c3nc(c(-c4cccc(S(=O)(=O)[O-])c4F)c4ccc([nH]4)c(-c4cccc(S(=O)(=O)[O-])c4F)c4nc(c(-c5cccc(S(=O)(=O)[O-])c5F)c5ccc2[nH]5)C=C4)C=C3)cc1
REMARK SMILES IDX 28 1 27 2 25 3 26 4 24 5 1 6 2 7 3 8 21 9 23 10 22 11 4 12
REMARK SMILES IDX 5 13 6 15 7 16 8 17 12 18 9 19 11 20 10 21 13 22 14 23 15 25
REMARK SMILES IDX 16 26 17 27 20 28 18 29 19 30 29 31 30 32 31 33 32 34 33 35
REMARK SMILES IDX 34 36 95 37 35 38 94 39 36 40 37 41 38 42 88 43 39 44 93 45
REMARK SMILES IDX 87 46 89 47 40 48 92 49 86 50 85 51 41 53 73 54 53 55 72 56
REMARK SMILES IDX 54 57 57 58 71 59 90 60 55 61 56 62 70 64 91 65 58 66 42 67
REMARK SMILES IDX 43 68 51 69 44 70 46 71 52 72 45 73 47 74 48 75 49 76 50 77
REMARK SMILES IDX 74 78 75 79 83 80 76 81 78 82 84 83 77 84 79 85 80 86 81 87
REMARK SMILES IDX 82 88 59 89 60 90 68 91 61 92 63 93 69 94 62 95 64 96 65 97
REMARK SMILES IDX 66 98 67 99
REMARK H PARENT 4 14 13 24 89 52 57 63
REMARK Flexibility Score: inf
ROOT
ATOM      1  C   UNL A   1      32.246  29.365  27.039  1.00  0.00     0.275 C 
ENDROOT
BRANCH   1   2
ATOM      2  O   UNL A   1      31.654  28.548  26.020  1.00  0.00    -0.458 OA
BRANCH   2   3
ATOM      3  C   UNL A   1      31.365  29.101  24.830  1.00  0.00     0.338 C 
ATOM      4  O   UNL A   1      30.642  30.068  24.668  1.00  0.00    -0.246 OA
BRANCH   3   5
ATOM      5  C   UNL A   1      31.947  28.280  23.729  1.00  0.00     0.065 A 
ATOM      6  C   UNL A   1      29.924  26.741  23.551  1.00  0.00     0.047 C 
ATOM      7  C   UNL A   1      31.331  27.133  23.185  1.00  0.00    -0.013 A 
ATOM      8  C   UNL A   1      32.150  26.280  22.405  1.00  0.00     0.045 A 
ATOM      9  C   UNL A   1      33.354  26.744  21.867  1.00  0.00     0.026 A 
ATOM     10  C   UNL A   1      33.244  28.639  23.326  1.00  0.00     0.016 A 
ATOM     11  C   UNL A   1      33.894  27.943  22.313  1.00  0.00     0.003 A 
BRANCH   8  12
ATOM     12  N   UNL A   1      31.832  24.909  22.364  1.00  0.00    -0.322 N 
ATOM     13  C   UNL A   1      32.510  23.807  22.858  1.00  0.00     0.257 C 
ATOM     14  H   UNL A   1      30.986  24.697  21.906  1.00  0.00     0.170 HD
ATOM     15  O   UNL A   1      31.994  22.696  22.701  1.00  0.00    -0.269 OA
BRANCH  13  16
ATOM     16  C   UNL A   1      33.798  23.861  23.621  1.00  0.00     0.063 A 
ATOM     17  C   UNL A   1      34.836  23.098  23.044  1.00  0.00     0.016 A 
ATOM     18  C   UNL A   1      34.028  24.515  24.857  1.00  0.00     0.054 A 
ATOM     19  C   UNL A   1      36.108  23.066  23.604  1.00  0.00     0.001 A 
ATOM     20  C   UNL A   1      35.351  24.586  25.310  1.00  0.00     0.027 A 
ATOM     21  C   UNL A   1      36.377  23.856  24.706  1.00  0.00     0.002 A 
BRANCH  18  22
ATOM     22  N   UNL A   1      32.929  24.977  25.614  1.00  0.00    -0.323 N 
ATOM     23  C   UNL A   1      32.032  24.445  26.497  1.00  0.00     0.253 C 
ATOM     24  H   UNL A   1      32.765  25.937  25.467  1.00  0.00     0.170 HD
ATOM     25  O   UNL A   1      31.109  25.193  26.846  1.00  0.00    -0.272 OA
BRANCH  23  26
ATOM     26  C   UNL A   1      32.086  22.992  26.975  1.00  0.00     0.207 C 
ATOM     27  C   UNL A   1      33.449  22.753  27.616  1.00  0.00     0.044 C 
ATOM     28  O   UNL A   1      31.976  22.009  25.930  1.00  0.00    -0.368 OA
ATOM     29  C   UNL A   1      33.686  21.288  27.382  1.00  0.00     0.032 C 
ATOM     30  C   UNL A   1      33.065  21.090  26.021  1.00  0.00     0.161 C 
ENDBRANCH  23  26
ENDBRANCH  18  22
ENDBRANCH  13  16
ENDBRANCH   8  12
ENDBRANCH   3   5
ENDBRANCH   2   3
ENDBRANCH   1   2
BRANCH   1  31
ATOM     31  C   UNL A   1      33.784  29.514  27.195  1.00  0.00     0.275 C 
BRANCH  31  32
ATOM     32  O   UNL A   1      34.585  30.741  27.256  1.00  0.00    -0.458 OA
BRANCH  32  33
ATOM     33  C   UNL A   1      35.497  31.247  28.113  1.00  0.00     0.338 C 
ATOM     34  O   UNL A   1      35.453  32.399  28.531  1.00  0.00    -0.246 OA
BRANCH  33  35
ATOM     35  C   UNL A   1      36.616  30.379  28.437  1.00  0.00     0.060 A 
ATOM     36  C   UNL A   1      36.689  29.723  29.674  1.00  0.00     0.016 A 
ATOM     37  C   UNL A   1      37.560  30.181  27.442  1.00  0.00     0.016 A 
ATOM     38  C   UNL A   1      37.656  28.749  29.875  1.00  0.00     0.010 A 
ATOM     39  C   UNL A   1      38.403  29.117  27.563  1.00  0.00     0.010 A 
ATOM     40  C   UNL A   1      38.506  28.472  28.808  1.00  0.00    -0.014 A 
BRANCH  40  41
ATOM     41  C   UNL A   1      39.850  27.970  28.999  1.00  0.00     0.031 A 
ATOM     42  C   UNL A   1      40.206  26.590  28.688  1.00  0.00     0.074 A 
ATOM     43  C   UNL A   1      40.694  29.016  29.167  1.00  0.00     0.049 A 
ATOM     44  N   UNL A   1      41.324  26.064  29.028  1.00  0.00    -0.248 NA
ATOM     45  C   UNL A   1      39.320  25.658  27.998  1.00  0.00     0.031 C 
ATOM     46  C   UNL A   1      42.107  29.171  28.908  1.00  0.00     0.029 A 
ATOM     47  N   UNL A   1      40.323  30.260  29.710  1.00  0.00    -0.354 N 
ATOM     48  C   UNL A   1      41.451  24.880  28.332  1.00  0.00     0.074 A 
ATOM     49  C   UNL A   1      40.124  24.597  27.841  1.00  0.00     0.031 C 
ATOM     50  C   UNL A   1      42.530  30.279  29.556  1.00  0.00     0.029 A 
ATOM     51  C   UNL A   1      41.425  30.748  30.394  1.00  0.00     0.049 A 
ATOM     52  H   UNL A   1      39.448  30.701  29.621  1.00  0.00     0.167 HD
ATOM     53  C   UNL A   1      42.713  24.412  28.115  1.00  0.00     0.034 A 
ATOM     54  C   UNL A   1      41.383  30.798  31.761  1.00  0.00     0.034 A 
ATOM     55  C   UNL A   1      43.676  25.293  28.806  1.00  0.00     0.049 A 
ATOM     56  C   UNL A   1      42.376  29.804  32.330  1.00  0.00     0.074 A 
ATOM     57  C   UNL A   1      44.412  26.379  28.359  1.00  0.00     0.029 A 
ATOM     58  N   UNL A   1      43.674  25.366  30.196  1.00  0.00    -0.354 N 
ATOM     59  N   UNL A   1      42.863  28.794  31.663  1.00  0.00    -0.248 NA
ATOM     60  C   UNL A   1      42.904  29.889  33.684  1.00  0.00     0.031 C 
ATOM     61  C   UNL A   1      44.733  27.179  29.493  1.00  0.00     0.029 A 
ATOM     62  C   UNL A   1      44.227  26.565  30.629  1.00  0.00     0.049 A 
ATOM     63  H   UNL A   1      43.327  24.663  30.793  1.00  0.00     0.167 HD
ATOM     64  C   UNL A   1      43.701  28.071  32.457  1.00  0.00     0.074 A 
ATOM     65  C   UNL A   1      43.727  28.826  33.703  1.00  0.00     0.031 C 
ATOM     66  C   UNL A   1      44.265  26.892  32.054  1.00  0.00     0.034 A 
BRANCH  53  67
ATOM     67  C   UNL A   1      43.164  23.385  27.079  1.00  0.00     0.023 A 
ATOM     68  C   UNL A   1      43.996  23.872  26.040  1.00  0.00     0.012 A 
ATOM     69  C   UNL A   1      42.806  22.017  26.981  1.00  0.00     0.148 A 
ATOM     70  C   UNL A   1      44.398  23.089  24.952  1.00  0.00     0.002 A 
ATOM     71  C   UNL A   1      43.215  21.227  25.896  1.00  0.00     0.091 A 
ATOM     72  F   UNL A   1      42.065  21.449  27.930  1.00  0.00    -0.205 F 
ATOM     73  C   UNL A   1      44.002  21.766  24.875  1.00  0.00     0.022 A 
BRANCH  71  74
ATOM     74  S   UNL A   1      42.760  19.488  25.712  1.00  0.00     0.127 S 
ATOM     75  O   UNL A   1      41.314  19.570  25.503  1.00  0.00    -0.237 OA
ATOM     76  O   UNL A   1      43.522  19.089  24.528  1.00  0.00    -0.237 OA
ATOM     77  O   UNL A   1      43.159  18.824  26.947  1.00  0.00    -0.744 OA
ENDBRANCH  71  74
ENDBRANCH  53  67
BRANCH  54  78
ATOM     78  C   UNL A   1      40.013  31.071  32.352  1.00  0.00     0.023 A 
ATOM     79  C   UNL A   1      39.410  30.046  33.131  1.00  0.00     0.012 A 
ATOM     80  C   UNL A   1      39.467  32.366  32.447  1.00  0.00     0.148 A 
ATOM     81  C   UNL A   1      38.393  30.324  34.053  1.00  0.00     0.002 A 
ATOM     82  C   UNL A   1      38.449  32.636  33.372  1.00  0.00     0.091 A 
ATOM     83  F   UNL A   1      39.970  33.341  31.680  1.00  0.00    -0.205 F 
ATOM     84  C   UNL A   1      37.925  31.624  34.187  1.00  0.00     0.022 A 
BRANCH  82  85
ATOM     85  S   UNL A   1      37.911  34.332  33.665  1.00  0.00     0.127 S 
ATOM     86  O   UNL A   1      36.891  34.187  34.705  1.00  0.00    -0.237 OA
ATOM     87  O   UNL A   1      39.116  35.008  34.127  1.00  0.00    -0.237 OA
ATOM     88  O   UNL A   1      37.400  34.719  32.356  1.00  0.00    -0.744 OA
ENDBRANCH  82  85
ENDBRANCH  54  78
BRANCH  66  89
ATOM     89  C   UNL A   1      44.920  25.924  33.010  1.00  0.00     0.023 A 
ATOM     90  C   UNL A   1      44.210  24.846  33.572  1.00  0.00     0.012 A 
ATOM     91  C   UNL A   1      46.315  25.966  33.239  1.00  0.00     0.148 A 
ATOM     92  C   UNL A   1      44.829  23.912  34.403  1.00  0.00     0.002 A 
ATOM     93  C   UNL A   1      46.948  24.953  33.947  1.00  0.00     0.091 A 
ATOM     94  F   UNL A   1      47.044  26.994  32.779  1.00  0.00    -0.205 F 
ATOM     95  C   UNL A   1      46.204  23.951  34.573  1.00  0.00     0.022 A 
BRANCH  93  96
ATOM     96  S   UNL A   1      48.738  24.798  33.910  1.00  0.00     0.127 S 
ATOM     97  O   UNL A   1      49.150  25.784  34.904  1.00  0.00    -0.237 OA
ATOM     98  O   UNL A   1      48.942  23.404  34.311  1.00  0.00    -0.237 OA
ATOM     99  O   UNL A   1      49.107  25.078  32.529  1.00  0.00    -0.744 OA
ENDBRANCH  93  96
ENDBRANCH  66  89
ENDBRANCH  40  41
ENDBRANCH  33  35
ENDBRANCH  32  33
ENDBRANCH  31  32
ENDBRANCH   1  31
TORSDOF 18
ENDMDL
MODEL 2
REMARK VINA RESULT:     -12.9      3.817      9.409
REMARK SMILES Cc1c(NC(=O)c2ccccc2NC(=O)[C@@H]2CCCO2)cccc1C(=O)OCCOC(=O)c1ccc(-c2c3nc(c(-c4cccc(S(=O)(=O)[O-])c4F)c4ccc([nH]4)c(-c4cccc(S(=O)(=O)[O-])c4F)c4nc(c(-c5cccc(S(=O)(=O)[O-])c5F)c5ccc2[nH]5)C=C4)C=C3)cc1
REMARK SMILES IDX 28 1 27 2 25 3 26 4 24 5 1 6 2 7 3 8 21 9 23 10 22 11 4 12
REMARK SMILES IDX 5 13 6 15 7 16 8 17 12 18 9 19 11 20 10 21 13 22 14 23 15 25
REMARK SMILES IDX 16 26 17 27 20 28 18 29 19 30 29 31 30 32 31 33 32 34 33 35
REMARK SMILES IDX 34 36 95 37 35 38 94 39 36 40 37 41 38 42 88 43 39 44 93 45
REMARK SMILES IDX 87 46 89 47 40 48 92 49 86 50 85 51 41 53 73 54 53 55 72 56
REMARK SMILES IDX 54 57 57 58 71 59 90 60 55 61 56 62 70 64 91 65 58 66 42 67
REMARK SMILES IDX 43 68 51 69 44 70 46 71 52 72 45 73 47 74 48 75 49 76 50 77
REMARK SMILES IDX 74 78 75 79 83 80 76 81 78 82 84 83 77 84 79 85 80 86 81 87
REMARK SMILES IDX 82 88 59 89 60 90 68 91 61 92 63 93 69 94 62 95 64 96 65 97
REMARK SMILES IDX 66 98 67 99
REMARK H PARENT 4 14 13 24 89 52 57 63
REMARK Flexibility Score: inf
ROOT
ATOM      1  C   UNL A   1      37.322  21.841  24.539  1.00  0.00     0.275 C 
ENDROOT
BRANCH   1   2
ATOM      2  O   UNL A   1      35.895  21.976  24.523  1.00  0.00    -0.458 OA
BRANCH   2   3
ATOM      3  C   UNL A   1      35.142  20.988  25.034  1.00  0.00     0.338 C 
ATOM      4  O   UNL A   1      35.321  19.800  24.833  1.00  0.00    -0.246 OA
BRANCH   3   5
ATOM      5  C   UNL A   1      33.979  21.560  25.772  1.00  0.00     0.065 A 
ATOM      6  C   UNL A   1      32.370  21.309  23.812  1.00  0.00     0.047 C 
ATOM      7  C   UNL A   1      32.712  21.794  25.196  1.00  0.00    -0.013 A 
ATOM      8  C   UNL A   1      31.835  22.646  25.912  1.00  0.00     0.045 A 
ATOM      9  C   UNL A   1      32.036  22.896  27.272  1.00  0.00     0.026 A 
ATOM     10  C   UNL A   1      34.243  21.988  27.084  1.00  0.00     0.016 A 
ATOM     11  C   UNL A   1      33.240  22.543  27.868  1.00  0.00     0.003 A 
BRANCH   8  12
ATOM     12  N   UNL A   1      30.892  23.395  25.181  1.00  0.00    -0.322 N 
ATOM     13  C   UNL A   1      30.761  24.761  25.005  1.00  0.00     0.257 C 
ATOM     14  H   UNL A   1      30.210  22.856  24.717  1.00  0.00     0.170 HD
ATOM     15  O   UNL A   1      29.841  25.165  24.287  1.00  0.00    -0.269 OA
BRANCH  13  16
ATOM     16  C   UNL A   1      31.687  25.794  25.574  1.00  0.00     0.063 A 
ATOM     17  C   UNL A   1      31.044  26.747  26.393  1.00  0.00     0.016 A 
ATOM     18  C   UNL A   1      33.071  25.936  25.306  1.00  0.00     0.054 A 
ATOM     19  C   UNL A   1      31.760  27.754  27.030  1.00  0.00     0.001 A 
ATOM     20  C   UNL A   1      33.783  26.862  26.077  1.00  0.00     0.027 A 
ATOM     21  C   UNL A   1      33.138  27.775  26.915  1.00  0.00     0.002 A 
BRANCH  18  22
ATOM     22  N   UNL A   1      33.648  25.222  24.232  1.00  0.00    -0.323 N 
ATOM     23  C   UNL A   1      33.748  25.369  22.878  1.00  0.00     0.253 C 
ATOM     24  H   UNL A   1      34.097  24.402  24.541  1.00  0.00     0.170 HD
ATOM     25  O   UNL A   1      34.244  24.413  22.266  1.00  0.00    -0.272 OA
BRANCH  23  26
ATOM     26  C   UNL A   1      33.208  26.586  22.122  1.00  0.00     0.207 C 
ATOM     27  C   UNL A   1      33.855  27.835  22.711  1.00  0.00     0.044 C 
ATOM     28  O   UNL A   1      31.789  26.793  22.248  1.00  0.00    -0.368 OA
ATOM     29  C   UNL A   1      32.821  28.900  22.478  1.00  0.00     0.032 C 
ATOM     30  C   UNL A   1      31.538  28.131  22.680  1.00  0.00     0.161 C 
ENDBRANCH  23  26
ENDBRANCH  18  22
ENDBRANCH  13  16
ENDBRANCH   8  12
ENDBRANCH   3   5
ENDBRANCH   2   3
ENDBRANCH   1   2
BRANCH   1  31
ATOM     31  C   UNL A   1      38.164  22.073  25.822  1.00  0.00     0.275 C 
BRANCH  31  32
ATOM     32  O   UNL A   1      38.776  23.315  26.307  1.00  0.00    -0.458 OA
BRANCH  32  33
ATOM     33  C   UNL A   1      39.705  23.625  27.235  1.00  0.00     0.338 C 
ATOM     34  O   UNL A   1      40.439  22.789  27.750  1.00  0.00    -0.246 OA
BRANCH  33  35
ATOM     35  C   UNL A   1      39.719  25.006  27.684  1.00  0.00     0.060 A 
ATOM     36  C   UNL A   1      40.296  26.017  26.901  1.00  0.00     0.016 A 
ATOM     37  C   UNL A   1      39.077  25.279  28.881  1.00  0.00     0.016 A 
ATOM     38  C   UNL A   1      40.114  27.345  27.258  1.00  0.00     0.010 A 
ATOM     39  C   UNL A   1      38.750  26.575  29.151  1.00  0.00     0.010 A 
ATOM     40  C   UNL A   1      39.347  27.596  28.391  1.00  0.00    -0.014 A 
BRANCH  40  41
ATOM     41  C   UNL A   1      39.532  28.779  29.205  1.00  0.00     0.031 A 
ATOM     42  C   UNL A   1      38.709  29.970  29.028  1.00  0.00     0.074 A 
ATOM     43  C   UNL A   1      40.296  28.463  30.278  1.00  0.00     0.049 A 
ATOM     44  N   UNL A   1      38.974  31.091  29.590  1.00  0.00    -0.248 NA
ATOM     45  C   UNL A   1      37.530  30.023  28.170  1.00  0.00     0.031 C 
ATOM     46  C   UNL A   1      40.390  29.036  31.602  1.00  0.00     0.029 A 
ATOM     47  N   UNL A   1      41.259  27.437  30.297  1.00  0.00    -0.354 N 
ATOM     48  C   UNL A   1      37.859  31.892  29.456  1.00  0.00     0.074 A 
ATOM     49  C   UNL A   1      37.065  31.252  28.437  1.00  0.00     0.031 C 
ATOM     50  C   UNL A   1      41.528  28.580  32.172  1.00  0.00     0.029 A 
ATOM     51  C   UNL A   1      42.273  27.850  31.145  1.00  0.00     0.049 A 
ATOM     52  H   UNL A   1      41.220  26.587  29.801  1.00  0.00     0.167 HD
ATOM     53  C   UNL A   1      37.687  32.886  30.375  1.00  0.00     0.034 A 
ATOM     54  C   UNL A   1      43.488  28.181  30.608  1.00  0.00     0.034 A 
ATOM     55  C   UNL A   1      38.858  32.915  31.274  1.00  0.00     0.049 A 
ATOM     56  C   UNL A   1      43.723  29.668  30.780  1.00  0.00     0.074 A 
ATOM     57  C   UNL A   1      39.080  32.332  32.511  1.00  0.00     0.029 A 
ATOM     58  N   UNL A   1      40.110  33.257  30.770  1.00  0.00    -0.354 N 
ATOM     59  N   UNL A   1      42.776  30.538  31.004  1.00  0.00    -0.248 NA
ATOM     60  C   UNL A   1      45.044  30.279  30.730  1.00  0.00     0.031 C 
ATOM     61  C   UNL A   1      40.489  32.202  32.680  1.00  0.00     0.029 A 
ATOM     62  C   UNL A   1      41.122  32.738  31.568  1.00  0.00     0.049 A 
ATOM     63  H   UNL A   1      40.258  33.794  29.958  1.00  0.00     0.167 HD
ATOM     64  C   UNL A   1      43.302  31.792  31.078  1.00  0.00     0.074 A 
ATOM     65  C   UNL A   1      44.735  31.570  30.944  1.00  0.00     0.031 C 
ATOM     66  C   UNL A   1      42.525  32.912  31.193  1.00  0.00     0.034 A 
BRANCH  53  67
ATOM     67  C   UNL A   1      36.402  33.642  30.703  1.00  0.00     0.023 A 
ATOM     68  C   UNL A   1      36.010  33.640  32.065  1.00  0.00     0.012 A 
ATOM     69  C   UNL A   1      35.510  34.293  29.814  1.00  0.00     0.148 A 
ATOM     70  C   UNL A   1      34.801  34.185  32.513  1.00  0.00     0.002 A 
ATOM     71  C   UNL A   1      34.301  34.848  30.261  1.00  0.00     0.091 A 
ATOM     72  F   UNL A   1      35.807  34.391  28.520  1.00  0.00    -0.205 F 
ATOM     73  C   UNL A   1      33.940  34.784  31.610  1.00  0.00     0.022 A 
BRANCH  71  74
ATOM     74  S   UNL A   1      33.120  35.661  29.163  1.00  0.00     0.127 S 
ATOM     75  O   UNL A   1      32.570  34.530  28.414  1.00  0.00    -0.237 OA
ATOM     76  O   UNL A   1      32.186  36.274  30.107  1.00  0.00    -0.237 OA
ATOM     77  O   UNL A   1      33.887  36.606  28.360  1.00  0.00    -0.744 OA
ENDBRANCH  71  74
ENDBRANCH  53  67
BRANCH  54  78
ATOM     78  C   UNL A   1      43.882  27.390  29.375  1.00  0.00     0.023 A 
ATOM     79  C   UNL A   1      44.002  25.979  29.503  1.00  0.00     0.012 A 
ATOM     80  C   UNL A   1      43.814  27.921  28.073  1.00  0.00     0.148 A 
ATOM     81  C   UNL A   1      43.931  25.130  28.391  1.00  0.00     0.002 A 
ATOM     82  C   UNL A   1      43.744  27.066  26.964  1.00  0.00     0.091 A 
ATOM     83  F   UNL A   1      43.765  29.250  27.915  1.00  0.00    -0.205 F 
ATOM     84  C   UNL A   1      43.783  25.674  27.122  1.00  0.00     0.022 A 
BRANCH  82  85
ATOM     85  S   UNL A   1      43.420  27.730  25.320  1.00  0.00     0.127 S 
ATOM     86  O   UNL A   1      42.744  26.625  24.637  1.00  0.00    -0.237 OA
ATOM     87  O   UNL A   1      42.553  28.874  25.567  1.00  0.00    -0.237 OA
ATOM     88  O   UNL A   1      44.766  28.016  24.837  1.00  0.00    -0.744 OA
ENDBRANCH  82  85
ENDBRANCH  54  78
BRANCH  66  89
ATOM     89  C   UNL A   1      43.050  34.306  30.951  1.00  0.00     0.023 A 
ATOM     90  C   UNL A   1      43.552  35.099  32.000  1.00  0.00     0.012 A 
ATOM     91  C   UNL A   1      43.217  34.799  29.636  1.00  0.00     0.148 A 
ATOM     92  C   UNL A   1      44.099  36.362  31.771  1.00  0.00     0.002 A 
ATOM     93  C   UNL A   1      43.892  35.990  29.405  1.00  0.00     0.091 A 
ATOM     94  F   UNL A   1      42.714  34.120  28.593  1.00  0.00    -0.205 F 
ATOM     95  C   UNL A   1      44.291  36.799  30.470  1.00  0.00     0.022 A 
BRANCH  93  96
ATOM     96  S   UNL A   1      44.438  36.420  27.747  1.00  0.00     0.127 S 
ATOM     97  O   UNL A   1      43.173  36.676  27.065  1.00  0.00    -0.237 OA
ATOM     98  O   UNL A   1      45.257  37.611  27.984  1.00  0.00    -0.237 OA
ATOM     99  O   UNL A   1      45.195  35.260  27.293  1.00  0.00    -0.744 OA
ENDBRANCH  93  96
ENDBRANCH  66  89
ENDBRANCH  40  41
ENDBRANCH  33  35
ENDBRANCH  32  33
ENDBRANCH  31  32
ENDBRANCH   1  31
TORSDOF 18
ENDMDL
MODEL 3
REMARK VINA RESULT:     -12.8      2.156      2.889
REMARK SMILES Cc1c(NC(=O)c2ccccc2NC(=O)[C@@H]2CCCO2)cccc1C(=O)OCCOC(=O)c1ccc(-c2c3nc(c(-c4cccc(S(=O)(=O)[O-])c4F)c4ccc([nH]4)c(-c4cccc(S(=O)(=O)[O-])c4F)c4nc(c(-c5cccc(S(=O)(=O)[O-])c5F)c5ccc2[nH]5)C=C4)C=C3)cc1
REMARK SMILES IDX 28 1 27 2 25 3 26 4 24 5 1 6 2 7 3 8 21 9 23 10 22 11 4 12
REMARK SMILES IDX 5 13 6 15 7 16 8 17 12 18 9 19 11 20 10 21 13 22 14 23 15 25
REMARK SMILES IDX 16 26 17 27 20 28 18 29 19 30 29 31 30 32 31 33 32 34 33 35
REMARK SMILES IDX 34 36 95 37 35 38 94 39 36 40 37 41 38 42 88 43 39 44 93 45
REMARK SMILES IDX 87 46 89 47 40 48 92 49 86 50 85 51 41 53 73 54 53 55 72 56
REMARK SMILES IDX 54 57 57 58 71 59 90 60 55 61 56 62 70 64 91 65 58 66 42 67
REMARK SMILES IDX 43 68 51 69 44 70 46 71 52 72 45 73 47 74 48 75 49 76 50 77
REMARK SMILES IDX 74 78 75 79 83 80 76 81 78 82 84 83 77 84 79 85 80 86 81 87
REMARK SMILES IDX 82 88 59 89 60 90 68 91 61 92 63 93 69 94 62 95 64 96 65 97
REMARK SMILES IDX 66 98 67 99
REMARK H PARENT 4 14 13 24 89 52 57 63
REMARK Flexibility Score: inf
ROOT
ATOM      1  C   UNL A   1      33.253  29.615  25.734  1.00  0.00     0.275 C 
ENDROOT
BRANCH   1   2
ATOM      2  O   UNL A   1      32.920  29.319  24.371  1.00  0.00    -0.458 OA
BRANCH   2   3
ATOM      3  C   UNL A   1      31.771  28.672  24.108  1.00  0.00     0.338 C 
ATOM      4  O   UNL A   1      30.773  29.188  23.639  1.00  0.00    -0.246 OA
BRANCH   3   5
ATOM      5  C   UNL A   1      31.853  27.265  24.598  1.00  0.00     0.065 A 
ATOM      6  C   UNL A   1      33.147  26.434  22.567  1.00  0.00     0.047 C 
ATOM      7  C   UNL A   1      32.410  26.201  23.859  1.00  0.00    -0.013 A 
ATOM      8  C   UNL A   1      32.106  24.890  24.303  1.00  0.00     0.045 A 
ATOM      9  C   UNL A   1      31.644  24.667  25.603  1.00  0.00     0.026 A 
ATOM     10  C   UNL A   1      31.214  27.011  25.823  1.00  0.00     0.016 A 
ATOM     11  C   UNL A   1      31.217  25.737  26.378  1.00  0.00     0.003 A 
BRANCH   8  12
ATOM     12  N   UNL A   1      32.076  23.855  23.348  1.00  0.00    -0.322 N 
ATOM     13  C   UNL A   1      32.974  22.834  23.090  1.00  0.00     0.257 C 
ATOM     14  H   UNL A   1      31.282  23.858  22.765  1.00  0.00     0.170 HD
ATOM     15  O   UNL A   1      32.695  22.033  22.193  1.00  0.00    -0.269 OA
BRANCH  13  16
ATOM     16  C   UNL A   1      34.239  22.588  23.856  1.00  0.00     0.063 A 
ATOM     17  C   UNL A   1      35.366  23.251  23.324  1.00  0.00     0.016 A 
ATOM     18  C   UNL A   1      34.407  21.724  24.966  1.00  0.00     0.054 A 
ATOM     19  C   UNL A   1      36.613  23.161  23.933  1.00  0.00     0.001 A 
ATOM     20  C   UNL A   1      35.633  21.775  25.640  1.00  0.00     0.027 A 
ATOM     21  C   UNL A   1      36.731  22.467  25.123  1.00  0.00     0.002 A 
BRANCH  18  22
ATOM     22  N   UNL A   1      33.391  20.797  25.286  1.00  0.00    -0.323 N 
ATOM     23  C   UNL A   1      33.118  19.485  25.020  1.00  0.00     0.253 C 
ATOM     24  H   UNL A   1      32.693  21.204  25.850  1.00  0.00     0.170 HD
ATOM     25  O   UNL A   1      32.012  19.076  25.397  1.00  0.00    -0.272 OA
BRANCH  23  26
ATOM     26  C   UNL A   1      34.061  18.575  24.228  1.00  0.00     0.207 C 
ATOM     27  C   UNL A   1      33.222  17.754  23.254  1.00  0.00     0.044 C 
ATOM     28  O   UNL A   1      34.780  17.614  25.021  1.00  0.00    -0.368 OA
ATOM     29  C   UNL A   1      34.022  16.494  23.091  1.00  0.00     0.032 C 
ATOM     30  C   UNL A   1      34.588  16.307  24.478  1.00  0.00     0.161 C 
ENDBRANCH  23  26
ENDBRANCH  18  22
ENDBRANCH  13  16
ENDBRANCH   8  12
ENDBRANCH   3   5
ENDBRANCH   2   3
ENDBRANCH   1   2
BRANCH   1  31
ATOM     31  C   UNL A   1      34.369  28.855  26.500  1.00  0.00     0.275 C 
BRANCH  31  32
ATOM     32  O   UNL A   1      35.093  29.261  27.709  1.00  0.00    -0.458 OA
BRANCH  32  33
ATOM     33  C   UNL A   1      36.086  30.133  27.981  1.00  0.00     0.338 C 
ATOM     34  O   UNL A   1      35.919  31.348  28.010  1.00  0.00    -0.246 OA
BRANCH  33  35
ATOM     35  C   UNL A   1      37.412  29.560  28.133  1.00  0.00     0.060 A 
ATOM     36  C   UNL A   1      38.316  29.531  27.061  1.00  0.00     0.016 A 
ATOM     37  C   UNL A   1      37.757  29.114  29.398  1.00  0.00     0.016 A 
ATOM     38  C   UNL A   1      39.635  29.168  27.289  1.00  0.00     0.010 A 
ATOM     39  C   UNL A   1      39.079  28.917  29.670  1.00  0.00     0.010 A 
ATOM     40  C   UNL A   1      39.988  28.856  28.598  1.00  0.00    -0.014 A 
BRANCH  40  41
ATOM     41  C   UNL A   1      41.068  27.945  28.914  1.00  0.00     0.031 A 
ATOM     42  C   UNL A   1      40.967  26.513  28.655  1.00  0.00     0.074 A 
ATOM     43  C   UNL A   1      42.197  28.659  29.141  1.00  0.00     0.049 A 
ATOM     44  N   UNL A   1      41.816  25.662  29.100  1.00  0.00    -0.248 NA
ATOM     45  C   UNL A   1      39.878  25.899  27.903  1.00  0.00     0.031 C 
ATOM     46  C   UNL A   1      43.596  28.326  29.006  1.00  0.00     0.029 A 
ATOM     47  N   UNL A   1      42.221  29.978  29.632  1.00  0.00    -0.354 N 
ATOM     48  C   UNL A   1      41.594  24.475  28.435  1.00  0.00     0.074 A 
ATOM     49  C   UNL A   1      40.292  24.626  27.833  1.00  0.00     0.031 C 
ATOM     50  C   UNL A   1      44.312  29.258  29.673  1.00  0.00     0.029 A 
ATOM     51  C   UNL A   1      43.364  30.102  30.403  1.00  0.00     0.049 A 
ATOM     52  H   UNL A   1      41.552  30.680  29.459  1.00  0.00     0.167 HD
ATOM     53  C   UNL A   1      42.641  23.606  28.337  1.00  0.00     0.034 A 
ATOM     54  C   UNL A   1      43.234  30.222  31.760  1.00  0.00     0.034 A 
ATOM     55  C   UNL A   1      43.785  24.148  29.098  1.00  0.00     0.049 A 
ATOM     56  C   UNL A   1      43.791  28.981  32.428  1.00  0.00     0.074 A 
ATOM     57  C   UNL A   1      44.873  24.908  28.702  1.00  0.00     0.029 A 
ATOM     58  N   UNL A   1      43.698  24.276  30.481  1.00  0.00    -0.354 N 
ATOM     59  N   UNL A   1      43.964  27.839  31.822  1.00  0.00    -0.248 NA
ATOM     60  C   UNL A   1      44.209  28.944  33.823  1.00  0.00     0.031 C 
ATOM     61  C   UNL A   1      45.353  25.605  29.849  1.00  0.00     0.029 A 
ATOM     62  C   UNL A   1      44.583  25.242  30.944  1.00  0.00     0.049 A 
ATOM     63  H   UNL A   1      43.091  23.754  31.055  1.00  0.00     0.167 HD
ATOM     64  C   UNL A   1      44.447  26.914  32.697  1.00  0.00     0.074 A 
ATOM     65  C   UNL A   1      44.626  27.671  33.929  1.00  0.00     0.031 C 
ATOM     66  C   UNL A   1      44.616  25.598  32.363  1.00  0.00     0.034 A 
BRANCH  53  67
ATOM     67  C   UNL A   1      42.803  22.444  27.359  1.00  0.00     0.023 A 
ATOM     68  C   UNL A   1      41.991  21.309  27.602  1.00  0.00     0.012 A 
ATOM     69  C   UNL A   1      43.710  22.324  26.277  1.00  0.00     0.148 A 
ATOM     70  C   UNL A   1      42.102  20.120  26.872  1.00  0.00     0.002 A 
ATOM     71  C   UNL A   1      43.818  21.136  25.538  1.00  0.00     0.091 A 
ATOM     72  F   UNL A   1      44.488  23.350  25.936  1.00  0.00    -0.205 F 
ATOM     73  C   UNL A   1      43.021  20.029  25.842  1.00  0.00     0.022 A 
BRANCH  71  74
ATOM     74  S   UNL A   1      44.978  20.924  24.169  1.00  0.00     0.127 S 
ATOM     75  O   UNL A   1      44.648  19.581  23.693  1.00  0.00    -0.237 OA
ATOM     76  O   UNL A   1      44.589  22.002  23.260  1.00  0.00    -0.237 OA
ATOM     77  O   UNL A   1      46.315  21.056  24.737  1.00  0.00    -0.744 OA
ENDBRANCH  71  74
ENDBRANCH  53  67
BRANCH  54  78
ATOM     78  C   UNL A   1      41.992  30.959  32.224  1.00  0.00     0.023 A 
ATOM     79  C   UNL A   1      41.735  32.241  31.665  1.00  0.00     0.012 A 
ATOM     80  C   UNL A   1      40.936  30.323  32.904  1.00  0.00     0.148 A 
ATOM     81  C   UNL A   1      40.453  32.805  31.678  1.00  0.00     0.002 A 
ATOM     82  C   UNL A   1      39.656  30.894  32.914  1.00  0.00     0.091 A 
ATOM     83  F   UNL A   1      41.163  29.143  33.496  1.00  0.00    -0.205 F 
ATOM     84  C   UNL A   1      39.408  32.121  32.287  1.00  0.00     0.022 A 
BRANCH  82  85
ATOM     85  S   UNL A   1      38.254  29.976  33.577  1.00  0.00     0.127 S 
ATOM     86  O   UNL A   1      38.416  28.643  32.993  1.00  0.00    -0.237 OA
ATOM     87  O   UNL A   1      38.463  30.005  35.019  1.00  0.00    -0.237 OA
ATOM     88  O   UNL A   1      37.121  30.736  33.061  1.00  0.00    -0.744 OA
ENDBRANCH  82  85
ENDBRANCH  54  78
BRANCH  66  89
ATOM     89  C   UNL A   1      44.834  24.510  33.386  1.00  0.00     0.023 A 
ATOM     90  C   UNL A   1      43.868  23.513  33.620  1.00  0.00     0.012 A 
ATOM     91  C   UNL A   1      46.088  24.355  34.021  1.00  0.00     0.148 A 
ATOM     92  C   UNL A   1      44.093  22.469  34.518  1.00  0.00     0.002 A 
ATOM     93  C   UNL A   1      46.354  23.235  34.799  1.00  0.00     0.091 A 
ATOM     94  F   UNL A   1      47.034  25.296  33.885  1.00  0.00    -0.205 F 
ATOM     95  C   UNL A   1      45.346  22.316  35.090  1.00  0.00     0.022 A 
BRANCH  93  96
ATOM     96  S   UNL A   1      48.041  22.845  35.282  1.00  0.00     0.127 S 
ATOM     97  O   UNL A   1      48.384  23.977  36.138  1.00  0.00    -0.237 OA
ATOM     98  O   UNL A   1      47.879  21.572  35.989  1.00  0.00    -0.237 OA
ATOM     99  O   UNL A   1      48.772  22.737  34.027  1.00  0.00    -0.744 OA
ENDBRANCH  93  96
ENDBRANCH  66  89
ENDBRANCH  40  41
ENDBRANCH  33  35
ENDBRANCH  32  33
ENDBRANCH  31  32
ENDBRANCH   1  31
TORSDOF 18
ENDMDL
