MODEL 1
REMARK VINA RESULT:     -12.9      0.000      0.000
REMARK SMILES CC1(C)CCN(C(=O)N[C@](C)(C(=O)OCCOC(=O)c2ccc(-c3c4nc(c(-c5cccc(S(=O)(=O)[O-])c5F)c5ccc([nH]5)c(-c5cccc(S(=O)(=O)[O-])c5F)c5nc(c(-c6cccc(S(=O)(=O)[O-])c6F)c6ccc3[nH]6)C=C5)C=C4)cc2)c2ccccc2)C1
REMARK SMILES IDX 16 1 15 2 14 3 12 4 13 5 10 6 11 7 9 8 7 9 8 10 6 12 1 13
REMARK SMILES IDX 2 14 3 15 4 16 89 17 5 18 83 19 84 20 88 21 85 22 87 23
REMARK SMILES IDX 86 24 17 25 18 26 19 27 20 28 21 29 82 30 22 31 81 32 23 33
REMARK SMILES IDX 24 34 25 35 75 36 26 37 80 38 74 39 76 40 27 41 79 42 73 43
REMARK SMILES IDX 72 44 28 46 60 47 40 48 59 49 41 50 44 51 58 52 77 53 42 54
REMARK SMILES IDX 43 55 57 57 78 58 45 59 29 60 30 61 38 62 31 63 33 64 39 65
REMARK SMILES IDX 32 66 34 67 35 68 36 69 37 70 61 71 62 72 70 73 63 74 65 75
REMARK SMILES IDX 71 76 64 77 66 78 67 79 68 80 69 81 46 82 47 83 55 84 48 85
REMARK SMILES IDX 50 86 56 87 49 88 51 89 52 90 53 91 54 92
REMARK H PARENT 9 11 76 45 44 56
REMARK Flexibility Score: inf
ROOT
ATOM      1  C   UNL A   1      31.670  28.620  27.515  1.00  0.00     0.275 C 
ENDROOT
BRANCH   1   2
ATOM      2  C   UNL A   1      31.679  27.227  26.883  1.00  0.00     0.274 C 
BRANCH   2   3
ATOM      3  O   UNL A   1      31.932  27.379  25.472  1.00  0.00    -0.460 OA
BRANCH   3   4
ATOM      4  C   UNL A   1      31.014  26.836  24.611  1.00  0.00     0.336 C 
ATOM      5  O   UNL A   1      30.176  26.010  24.945  1.00  0.00    -0.249 OA
BRANCH   4   6
ATOM      6  C   UNL A   1      31.201  27.427  23.164  1.00  0.00     0.162 C 
ATOM      7  C   UNL A   1      32.505  28.271  23.259  1.00  0.00     0.053 C 
BRANCH   6   8
ATOM      8  N   UNL A   1      31.534  26.364  22.153  1.00  0.00    -0.318 N 
ATOM      9  C   UNL A   1      32.714  25.781  21.855  1.00  0.00     0.318 C 
ATOM     10  O   UNL A   1      33.188  26.065  20.750  1.00  0.00    -0.249 OA
ATOM     11  H   UNL A   1      30.767  26.042  21.626  1.00  0.00     0.166 HD
BRANCH   9  12
ATOM     12  N   UNL A   1      33.248  24.785  22.622  1.00  0.00    -0.324 N 
ATOM     13  C   UNL A   1      34.443  23.358  25.673  1.00  0.00     0.013 C 
ATOM     14  C   UNL A   1      34.499  23.389  24.143  1.00  0.00    -0.016 C 
ATOM     15  C   UNL A   1      35.834  22.757  23.721  1.00  0.00     0.013 C 
ATOM     16  C   UNL A   1      33.351  22.582  23.502  1.00  0.00     0.030 C 
ATOM     17  C   UNL A   1      34.296  24.842  23.632  1.00  0.00     0.127 C 
ATOM     18  C   UNL A   1      32.448  23.597  22.833  1.00  0.00     0.122 C 
ENDBRANCH   9  12
ENDBRANCH   6   8
BRANCH   6  19
ATOM     19  C   UNL A   1      29.988  28.267  22.779  1.00  0.00    -0.012 A 
ATOM     20  C   UNL A   1      30.183  29.436  22.028  1.00  0.00     0.007 A 
ATOM     21  C   UNL A   1      28.676  27.962  23.193  1.00  0.00     0.007 A 
ATOM     22  C   UNL A   1      29.127  30.316  21.819  1.00  0.00     0.000 A 
ATOM     23  C   UNL A   1      27.612  28.824  22.928  1.00  0.00     0.000 A 
ATOM     24  C   UNL A   1      27.846  30.018  22.266  1.00  0.00     0.000 A 
ENDBRANCH   6  19
ENDBRANCH   4   6
ENDBRANCH   3   4
ENDBRANCH   2   3
ENDBRANCH   1   2
BRANCH   1  25
ATOM     25  O   UNL A   1      32.005  29.565  26.483  1.00  0.00    -0.458 OA
BRANCH  25  26
ATOM     26  C   UNL A   1      32.465  30.783  26.858  1.00  0.00     0.338 C 
ATOM     27  O   UNL A   1      31.801  31.806  26.958  1.00  0.00    -0.246 OA
BRANCH  26  28
ATOM     28  C   UNL A   1      33.911  30.684  27.194  1.00  0.00     0.060 A 
ATOM     29  C   UNL A   1      34.552  29.452  27.186  1.00  0.00     0.016 A 
ATOM     30  C   UNL A   1      34.630  31.797  27.631  1.00  0.00     0.016 A 
ATOM     31  C   UNL A   1      35.827  29.317  27.751  1.00  0.00     0.010 A 
ATOM     32  C   UNL A   1      35.946  31.653  28.127  1.00  0.00     0.010 A 
ATOM     33  C   UNL A   1      36.540  30.389  28.312  1.00  0.00    -0.014 A 
BRANCH  33  34
ATOM     34  C   UNL A   1      37.771  30.189  29.196  1.00  0.00     0.031 A 
ATOM     35  C   UNL A   1      38.996  29.444  28.659  1.00  0.00     0.074 A 
ATOM     36  C   UNL A   1      37.937  30.732  30.430  1.00  0.00     0.049 A 
ATOM     37  N   UNL A   1      39.972  28.865  29.320  1.00  0.00    -0.248 NA
ATOM     38  C   UNL A   1      39.143  29.331  27.197  1.00  0.00     0.031 C 
ATOM     39  C   UNL A   1      36.992  31.584  31.147  1.00  0.00     0.029 A 
ATOM     40  N   UNL A   1      39.013  30.667  31.303  1.00  0.00    -0.354 N 
ATOM     41  C   UNL A   1      40.741  28.193  28.372  1.00  0.00     0.074 A 
ATOM     42  C   UNL A   1      40.161  28.490  27.080  1.00  0.00     0.031 C 
ATOM     43  C   UNL A   1      37.565  32.066  32.258  1.00  0.00     0.029 A 
ATOM     44  C   UNL A   1      38.844  31.400  32.460  1.00  0.00     0.049 A 
ATOM     45  H   UNL A   1      39.825  30.144  31.114  1.00  0.00     0.167 HD
ATOM     46  C   UNL A   1      41.824  27.397  28.550  1.00  0.00     0.034 A 
ATOM     47  C   UNL A   1      39.562  31.475  33.603  1.00  0.00     0.034 A 
ATOM     48  C   UNL A   1      42.530  27.234  29.793  1.00  0.00     0.049 A 
ATOM     49  C   UNL A   1      40.757  30.582  33.799  1.00  0.00     0.074 A 
ATOM     50  C   UNL A   1      43.603  26.402  30.075  1.00  0.00     0.029 A 
ATOM     51  N   UNL A   1      42.289  27.970  30.938  1.00  0.00    -0.354 N 
ATOM     52  N   UNL A   1      41.357  29.798  32.941  1.00  0.00    -0.248 NA
ATOM     53  C   UNL A   1      41.349  30.559  35.149  1.00  0.00     0.031 C 
ATOM     54  C   UNL A   1      44.023  26.653  31.386  1.00  0.00     0.029 A 
ATOM     55  C   UNL A   1      43.211  27.639  31.917  1.00  0.00     0.049 A 
ATOM     56  H   UNL A   1      41.568  28.632  31.043  1.00  0.00     0.167 HD
ATOM     57  C   UNL A   1      42.392  29.190  33.644  1.00  0.00     0.074 A 
ATOM     58  C   UNL A   1      42.373  29.733  34.985  1.00  0.00     0.031 C 
ATOM     59  C   UNL A   1      43.251  28.229  33.226  1.00  0.00     0.034 A 
BRANCH  46  60
ATOM     60  C   UNL A   1      42.332  26.614  27.367  1.00  0.00     0.023 A 
ATOM     61  C   UNL A   1      43.198  27.210  26.432  1.00  0.00     0.012 A 
ATOM     62  C   UNL A   1      42.021  25.242  27.248  1.00  0.00     0.148 A 
ATOM     63  C   UNL A   1      43.729  26.457  25.384  1.00  0.00     0.002 A 
ATOM     64  C   UNL A   1      42.589  24.490  26.228  1.00  0.00     0.091 A 
ATOM     65  F   UNL A   1      41.180  24.698  28.140  1.00  0.00    -0.205 F 
ATOM     66  C   UNL A   1      43.437  25.098  25.289  1.00  0.00     0.022 A 
BRANCH  64  67
ATOM     67  S   UNL A   1      42.337  22.715  26.089  1.00  0.00     0.127 S 
ATOM     68  O   UNL A   1      40.877  22.626  26.055  1.00  0.00    -0.237 OA
ATOM     69  O   UNL A   1      42.997  22.404  24.821  1.00  0.00    -0.237 OA
ATOM     70  O   UNL A   1      42.977  22.131  27.260  1.00  0.00    -0.744 OA
ENDBRANCH  64  67
ENDBRANCH  46  60
BRANCH  47  71
ATOM     71  C   UNL A   1      39.139  32.390  34.709  1.00  0.00     0.023 A 
ATOM     72  C   UNL A   1      38.152  31.965  35.621  1.00  0.00     0.012 A 
ATOM     73  C   UNL A   1      39.697  33.672  34.865  1.00  0.00     0.148 A 
ATOM     74  C   UNL A   1      37.727  32.803  36.655  1.00  0.00     0.002 A 
ATOM     75  C   UNL A   1      39.335  34.465  35.947  1.00  0.00     0.091 A 
ATOM     76  F   UNL A   1      40.587  34.099  33.957  1.00  0.00    -0.205 F 
ATOM     77  C   UNL A   1      38.335  34.044  36.832  1.00  0.00     0.022 A 
BRANCH  75  78
ATOM     78  S   UNL A   1      40.234  35.973  36.322  1.00  0.00     0.127 S 
ATOM     79  O   UNL A   1      39.949  36.798  35.153  1.00  0.00    -0.237 OA
ATOM     80  O   UNL A   1      39.598  36.421  37.563  1.00  0.00    -0.237 OA
ATOM     81  O   UNL A   1      41.618  35.543  36.491  1.00  0.00    -0.744 OA
ENDBRANCH  75  78
ENDBRANCH  47  71
BRANCH  59  82
ATOM     82  C   UNL A   1      44.267  27.715  34.209  1.00  0.00     0.023 A 
ATOM     83  C   UNL A   1      45.526  28.343  34.294  1.00  0.00     0.012 A 
ATOM     84  C   UNL A   1      43.963  26.656  35.086  1.00  0.00     0.148 A 
ATOM     85  C   UNL A   1      46.475  27.910  35.218  1.00  0.00     0.002 A 
ATOM     86  C   UNL A   1      44.901  26.252  36.030  1.00  0.00     0.091 A 
ATOM     87  F   UNL A   1      42.769  26.055  34.974  1.00  0.00    -0.205 F 
ATOM     88  C   UNL A   1      46.160  26.872  36.092  1.00  0.00     0.022 A 
BRANCH  86  89
ATOM     89  S   UNL A   1      44.553  24.974  37.245  1.00  0.00     0.127 S 
ATOM     90  O   UNL A   1      44.643  23.761  36.435  1.00  0.00    -0.237 OA
ATOM     91  O   UNL A   1      45.642  25.150  38.206  1.00  0.00    -0.237 OA
ATOM     92  O   UNL A   1      43.230  25.280  37.773  1.00  0.00    -0.744 OA
ENDBRANCH  86  89
ENDBRANCH  59  82
ENDBRANCH  33  34
ENDBRANCH  26  28
ENDBRANCH  25  26
ENDBRANCH   1  25
TORSDOF 17
ENDMDL
MODEL 2
REMARK VINA RESULT:     -12.8      1.396      1.776
REMARK SMILES CC1(C)CCN(C(=O)N[C@](C)(C(=O)OCCOC(=O)c2ccc(-c3c4nc(c(-c5cccc(S(=O)(=O)[O-])c5F)c5ccc([nH]5)c(-c5cccc(S(=O)(=O)[O-])c5F)c5nc(c(-c6cccc(S(=O)(=O)[O-])c6F)c6ccc3[nH]6)C=C5)C=C4)cc2)c2ccccc2)C1
REMARK SMILES IDX 16 1 15 2 14 3 12 4 13 5 10 6 11 7 9 8 7 9 8 10 6 12 1 13
REMARK SMILES IDX 2 14 3 15 4 16 89 17 5 18 83 19 84 20 88 21 85 22 87 23
REMARK SMILES IDX 86 24 17 25 18 26 19 27 20 28 21 29 82 30 22 31 81 32 23 33
REMARK SMILES IDX 24 34 25 35 75 36 26 37 80 38 74 39 76 40 27 41 79 42 73 43
REMARK SMILES IDX 72 44 28 46 60 47 40 48 59 49 41 50 44 51 58 52 77 53 42 54
REMARK SMILES IDX 43 55 57 57 78 58 45 59 29 60 30 61 38 62 31 63 33 64 39 65
REMARK SMILES IDX 32 66 34 67 35 68 36 69 37 70 61 71 62 72 70 73 63 74 65 75
REMARK SMILES IDX 71 76 64 77 66 78 67 79 68 80 69 81 46 82 47 83 55 84 48 85
REMARK SMILES IDX 50 86 56 87 49 88 51 89 52 90 53 91 54 92
REMARK H PARENT 9 11 76 45 44 56
REMARK Flexibility Score: inf
ROOT
ATOM      1  C   UNL A   1      31.640  29.563  27.235  1.00  0.00     0.275 C 
ENDROOT
BRANCH   1   2
ATOM      2  C   UNL A   1      31.793  28.042  27.219  1.00  0.00     0.274 C 
BRANCH   2   3
ATOM      3  O   UNL A   1      32.480  27.676  26.006  1.00  0.00    -0.460 OA
BRANCH   3   4
ATOM      4  C   UNL A   1      31.828  26.826  25.150  1.00  0.00     0.336 C 
ATOM      5  O   UNL A   1      31.402  25.728  25.479  1.00  0.00    -0.249 OA
BRANCH   4   6
ATOM      6  C   UNL A   1      31.715  27.468  23.718  1.00  0.00     0.162 C 
ATOM      7  C   UNL A   1      32.980  28.366  23.598  1.00  0.00     0.053 C 
BRANCH   6   8
ATOM      8  N   UNL A   1      31.890  26.452  22.623  1.00  0.00    -0.318 N 
ATOM      9  C   UNL A   1      33.006  25.848  22.162  1.00  0.00     0.318 C 
ATOM     10  O   UNL A   1      33.363  26.177  21.025  1.00  0.00    -0.249 OA
ATOM     11  H   UNL A   1      31.057  26.185  22.171  1.00  0.00     0.166 HD
BRANCH   9  12
ATOM     12  N   UNL A   1      33.584  24.795  22.810  1.00  0.00    -0.324 N 
ATOM     13  C   UNL A   1      34.818  23.067  25.686  1.00  0.00     0.013 C 
ATOM     14  C   UNL A   1      34.891  23.290  24.172  1.00  0.00    -0.016 C 
ATOM     15  C   UNL A   1      36.263  22.785  23.701  1.00  0.00     0.013 C 
ATOM     16  C   UNL A   1      33.797  22.508  23.416  1.00  0.00     0.030 C 
ATOM     17  C   UNL A   1      34.615  24.781  23.839  1.00  0.00     0.127 C 
ATOM     18  C   UNL A   1      32.847  23.550  22.859  1.00  0.00     0.122 C 
ENDBRANCH   9  12
ENDBRANCH   6   8
BRANCH   6  19
ATOM     19  C   UNL A   1      30.420  28.265  23.600  1.00  0.00    -0.012 A 
ATOM     20  C   UNL A   1      29.222  27.580  23.349  1.00  0.00     0.007 A 
ATOM     21  C   UNL A   1      30.372  29.672  23.669  1.00  0.00     0.007 A 
ATOM     22  C   UNL A   1      28.061  28.287  23.055  1.00  0.00     0.000 A 
ATOM     23  C   UNL A   1      29.188  30.370  23.429  1.00  0.00     0.000 A 
ATOM     24  C   UNL A   1      28.039  29.675  23.092  1.00  0.00     0.000 A 
ENDBRANCH   6  19
ENDBRANCH   4   6
ENDBRANCH   3   4
ENDBRANCH   2   3
ENDBRANCH   1   2
BRANCH   1  25
ATOM     25  O   UNL A   1      32.836  30.125  26.664  1.00  0.00    -0.458 OA
BRANCH  25  26
ATOM     26  C   UNL A   1      33.400  31.188  27.284  1.00  0.00     0.338 C 
ATOM     27  O   UNL A   1      32.825  32.212  27.630  1.00  0.00    -0.246 OA
BRANCH  26  28
ATOM     28  C   UNL A   1      34.838  30.904  27.545  1.00  0.00     0.060 A 
ATOM     29  C   UNL A   1      35.300  29.595  27.584  1.00  0.00     0.016 A 
ATOM     30  C   UNL A   1      35.731  31.928  27.863  1.00  0.00     0.016 A 
ATOM     31  C   UNL A   1      36.579  29.315  28.083  1.00  0.00     0.010 A 
ATOM     32  C   UNL A   1      37.044  31.628  28.292  1.00  0.00     0.010 A 
ATOM     33  C   UNL A   1      37.468  30.306  28.528  1.00  0.00    -0.014 A 
BRANCH  33  34
ATOM     34  C   UNL A   1      38.715  29.985  29.353  1.00  0.00     0.031 A 
ATOM     35  C   UNL A   1      39.820  29.100  28.772  1.00  0.00     0.074 A 
ATOM     36  C   UNL A   1      39.006  30.529  30.563  1.00  0.00     0.049 A 
ATOM     37  N   UNL A   1      40.760  28.427  29.395  1.00  0.00    -0.248 NA
ATOM     38  C   UNL A   1      39.875  28.945  27.307  1.00  0.00     0.031 C 
ATOM     39  C   UNL A   1      38.200  31.493  31.308  1.00  0.00     0.029 A 
ATOM     40  N   UNL A   1      40.114  30.359  31.381  1.00  0.00    -0.354 N 
ATOM     41  C   UNL A   1      41.399  27.657  28.424  1.00  0.00     0.074 A 
ATOM     42  C   UNL A   1      40.787  27.994  27.158  1.00  0.00     0.031 C 
ATOM     43  C   UNL A   1      38.882  31.928  32.377  1.00  0.00     0.029 A 
ATOM     44  C   UNL A   1      40.088  31.127  32.528  1.00  0.00     0.049 A 
ATOM     45  H   UNL A   1      40.852  29.746  31.163  1.00  0.00     0.167 HD
ATOM     46  C   UNL A   1      42.396  26.749  28.565  1.00  0.00     0.034 A 
ATOM     47  C   UNL A   1      40.870  31.141  33.631  1.00  0.00     0.034 A 
ATOM     48  C   UNL A   1      43.144  26.530  29.774  1.00  0.00     0.049 A 
ATOM     49  C   UNL A   1      41.968  30.125  33.787  1.00  0.00     0.074 A 
ATOM     50  C   UNL A   1      44.133  25.589  30.021  1.00  0.00     0.029 A 
ATOM     51  N   UNL A   1      43.048  27.308  30.913  1.00  0.00    -0.354 N 
ATOM     52  N   UNL A   1      42.432  29.264  32.918  1.00  0.00    -0.248 NA
ATOM     53  C   UNL A   1      42.626  30.060  35.104  1.00  0.00     0.031 C 
ATOM     54  C   UNL A   1      44.648  25.815  31.302  1.00  0.00     0.029 A 
ATOM     55  C   UNL A   1      43.979  26.894  31.850  1.00  0.00     0.049 A 
ATOM     56  H   UNL A   1      42.411  28.048  31.039  1.00  0.00     0.167 HD
ATOM     57  C   UNL A   1      43.429  28.557  33.581  1.00  0.00     0.074 A 
ATOM     58  C   UNL A   1      43.542  29.122  34.907  1.00  0.00     0.031 C 
ATOM     59  C   UNL A   1      44.153  27.499  33.142  1.00  0.00     0.034 A 
BRANCH  46  60
ATOM     60  C   UNL A   1      42.750  25.893  27.377  1.00  0.00     0.023 A 
ATOM     61  C   UNL A   1      43.639  26.365  26.395  1.00  0.00     0.012 A 
ATOM     62  C   UNL A   1      42.269  24.569  27.297  1.00  0.00     0.148 A 
ATOM     63  C   UNL A   1      44.027  25.539  25.339  1.00  0.00     0.002 A 
ATOM     64  C   UNL A   1      42.693  23.738  26.268  1.00  0.00     0.091 A 
ATOM     65  F   UNL A   1      41.408  24.144  28.234  1.00  0.00    -0.205 F 
ATOM     66  C   UNL A   1      43.567  24.225  25.283  1.00  0.00     0.022 A 
BRANCH  64  67
ATOM     67  S   UNL A   1      42.220  22.007  26.174  1.00  0.00     0.127 S 
ATOM     68  O   UNL A   1      42.583  21.529  27.508  1.00  0.00    -0.237 OA
ATOM     69  O   UNL A   1      40.780  22.090  25.927  1.00  0.00    -0.237 OA
ATOM     70  O   UNL A   1      42.988  21.445  25.072  1.00  0.00    -0.744 OA
ENDBRANCH  64  67
ENDBRANCH  46  60
BRANCH  47  71
ATOM     71  C   UNL A   1      40.610  32.117  34.735  1.00  0.00     0.023 A 
ATOM     72  C   UNL A   1      41.392  33.287  34.826  1.00  0.00     0.012 A 
ATOM     73  C   UNL A   1      39.605  31.899  35.695  1.00  0.00     0.148 A 
ATOM     74  C   UNL A   1      41.181  34.208  35.854  1.00  0.00     0.002 A 
ATOM     75  C   UNL A   1      39.342  32.862  36.662  1.00  0.00     0.091 A 
ATOM     76  F   UNL A   1      38.908  30.754  35.647  1.00  0.00    -0.205 F 
ATOM     77  C   UNL A   1      40.142  34.008  36.759  1.00  0.00     0.022 A 
BRANCH  75  78
ATOM     78  S   UNL A   1      37.891  32.736  37.713  1.00  0.00     0.127 S 
ATOM     79  O   UNL A   1      38.113  33.814  38.671  1.00  0.00    -0.237 OA
ATOM     80  O   UNL A   1      36.796  32.964  36.770  1.00  0.00    -0.237 OA
ATOM     81  O   UNL A   1      37.940  31.378  38.243  1.00  0.00    -0.744 OA
ENDBRANCH  75  78
ENDBRANCH  47  71
BRANCH  59  82
ATOM     82  C   UNL A   1      45.158  26.892  34.083  1.00  0.00     0.023 A 
ATOM     83  C   UNL A   1      46.480  27.381  34.092  1.00  0.00     0.012 A 
ATOM     84  C   UNL A   1      44.788  25.886  34.995  1.00  0.00     0.148 A 
ATOM     85  C   UNL A   1      47.423  26.861  34.976  1.00  0.00     0.002 A 
ATOM     86  C   UNL A   1      45.725  25.397  35.900  1.00  0.00     0.091 A 
ATOM     87  F   UNL A   1      43.531  25.417  34.956  1.00  0.00    -0.205 F 
ATOM     88  C   UNL A   1      47.044  25.877  35.886  1.00  0.00     0.022 A 
BRANCH  86  89
ATOM     89  S   UNL A   1      45.304  24.183  37.156  1.00  0.00     0.127 S 
ATOM     90  O   UNL A   1      46.516  24.165  37.972  1.00  0.00    -0.237 OA
ATOM     91  O   UNL A   1      44.141  24.791  37.803  1.00  0.00    -0.237 OA
ATOM     92  O   UNL A   1      45.015  22.950  36.435  1.00  0.00    -0.744 OA
ENDBRANCH  86  89
ENDBRANCH  59  82
ENDBRANCH  33  34
ENDBRANCH  26  28
ENDBRANCH  25  26
ENDBRANCH   1  25
TORSDOF 17
ENDMDL
MODEL 3
REMARK VINA RESULT:     -12.4      5.037      9.999
REMARK SMILES CC1(C)CCN(C(=O)N[C@](C)(C(=O)OCCOC(=O)c2ccc(-c3c4nc(c(-c5cccc(S(=O)(=O)[O-])c5F)c5ccc([nH]5)c(-c5cccc(S(=O)(=O)[O-])c5F)c5nc(c(-c6cccc(S(=O)(=O)[O-])c6F)c6ccc3[nH]6)C=C5)C=C4)cc2)c2ccccc2)C1
REMARK SMILES IDX 16 1 15 2 14 3 12 4 13 5 10 6 11 7 9 8 7 9 8 10 6 12 1 13
REMARK SMILES IDX 2 14 3 15 4 16 89 17 5 18 83 19 84 20 88 21 85 22 87 23
REMARK SMILES IDX 86 24 17 25 18 26 19 27 20 28 21 29 82 30 22 31 81 32 23 33
REMARK SMILES IDX 24 34 25 35 75 36 26 37 80 38 74 39 76 40 27 41 79 42 73 43
REMARK SMILES IDX 72 44 28 46 60 47 40 48 59 49 41 50 44 51 58 52 77 53 42 54
REMARK SMILES IDX 43 55 57 57 78 58 45 59 29 60 30 61 38 62 31 63 33 64 39 65
REMARK SMILES IDX 32 66 34 67 35 68 36 69 37 70 61 71 62 72 70 73 63 74 65 75
REMARK SMILES IDX 71 76 64 77 66 78 67 79 68 80 69 81 46 82 47 83 55 84 48 85
REMARK SMILES IDX 50 86 56 87 49 88 51 89 52 90 53 91 54 92
REMARK H PARENT 9 11 76 45 44 56
REMARK Flexibility Score: inf
ROOT
ATOM      1  C   UNL A   1      37.004  21.809  23.832  1.00  0.00     0.275 C 
ENDROOT
BRANCH   1   2
ATOM      2  C   UNL A   1      36.313  23.056  23.281  1.00  0.00     0.274 C 
BRANCH   2   3
ATOM      3  O   UNL A   1      35.421  23.557  24.296  1.00  0.00    -0.460 OA
BRANCH   3   4
ATOM      4  C   UNL A   1      34.085  23.599  23.990  1.00  0.00     0.336 C 
ATOM      5  O   UNL A   1      33.635  24.144  22.992  1.00  0.00    -0.249 OA
BRANCH   4   6
ATOM      6  C   UNL A   1      33.244  22.853  25.092  1.00  0.00     0.162 C 
ATOM      7  C   UNL A   1      34.137  22.918  26.365  1.00  0.00     0.053 C 
BRANCH   6   8
ATOM      8  N   UNL A   1      32.009  23.617  25.480  1.00  0.00    -0.318 N 
ATOM      9  C   UNL A   1      31.819  24.538  26.449  1.00  0.00     0.318 C 
ATOM     10  O   UNL A   1      31.108  24.182  27.394  1.00  0.00    -0.249 OA
ATOM     11  H   UNL A   1      31.211  23.414  24.939  1.00  0.00     0.166 HD
BRANCH   9  12
ATOM     12  N   UNL A   1      32.205  25.839  26.302  1.00  0.00    -0.324 N 
ATOM     13  C   UNL A   1      33.768  28.563  24.595  1.00  0.00     0.013 C 
ATOM     14  C   UNL A   1      33.334  27.940  25.926  1.00  0.00    -0.016 C 
ATOM     15  C   UNL A   1      34.165  28.602  27.034  1.00  0.00     0.013 C 
ATOM     16  C   UNL A   1      31.840  28.185  26.222  1.00  0.00     0.030 C 
ATOM     17  C   UNL A   1      33.477  26.395  25.861  1.00  0.00     0.127 C 
ATOM     18  C   UNL A   1      31.165  26.832  26.123  1.00  0.00     0.122 C 
ENDBRANCH   9  12
ENDBRANCH   6   8
BRANCH   6  19
ATOM     19  C   UNL A   1      32.956  21.421  24.653  1.00  0.00    -0.012 A 
ATOM     20  C   UNL A   1      33.294  20.367  25.514  1.00  0.00     0.007 A 
ATOM     21  C   UNL A   1      32.418  21.095  23.392  1.00  0.00     0.007 A 
ATOM     22  C   UNL A   1      33.215  19.051  25.072  1.00  0.00     0.000 A 
ATOM     23  C   UNL A   1      32.288  19.769  22.980  1.00  0.00     0.000 A 
ATOM     24  C   UNL A   1      32.717  18.748  23.811  1.00  0.00     0.000 A 
ENDBRANCH   6  19
ENDBRANCH   4   6
ENDBRANCH   3   4
ENDBRANCH   2   3
ENDBRANCH   1   2
BRANCH   1  25
ATOM     25  O   UNL A   1      37.254  22.036  25.232  1.00  0.00    -0.458 OA
BRANCH  25  26
ATOM     26  C   UNL A   1      38.479  21.725  25.720  1.00  0.00     0.338 C 
ATOM     27  O   UNL A   1      39.122  20.715  25.467  1.00  0.00    -0.246 OA
BRANCH  26  28
ATOM     28  C   UNL A   1      38.967  22.838  26.579  1.00  0.00     0.060 A 
ATOM     29  C   UNL A   1      38.367  24.089  26.516  1.00  0.00     0.016 A 
ATOM     30  C   UNL A   1      40.099  22.690  27.380  1.00  0.00     0.016 A 
ATOM     31  C   UNL A   1      38.981  25.195  27.117  1.00  0.00     0.010 A 
ATOM     32  C   UNL A   1      40.661  23.805  28.043  1.00  0.00     0.010 A 
ATOM     33  C   UNL A   1      40.186  25.115  27.834  1.00  0.00    -0.014 A 
BRANCH  33  34
ATOM     34  C   UNL A   1      41.006  26.349  28.211  1.00  0.00     0.031 A 
ATOM     35  C   UNL A   1      40.423  27.406  29.153  1.00  0.00     0.074 A 
ATOM     36  C   UNL A   1      42.305  26.552  27.870  1.00  0.00     0.049 A 
ATOM     37  N   UNL A   1      40.781  28.658  29.318  1.00  0.00    -0.248 NA
ATOM     38  C   UNL A   1      39.294  27.010  30.013  1.00  0.00     0.031 C 
ATOM     39  C   UNL A   1      43.154  25.662  27.082  1.00  0.00     0.029 A 
ATOM     40  N   UNL A   1      43.165  27.593  28.187  1.00  0.00    -0.354 N 
ATOM     41  C   UNL A   1      39.831  29.227  30.164  1.00  0.00     0.074 A 
ATOM     42  C   UNL A   1      38.918  28.169  30.535  1.00  0.00     0.031 C 
ATOM     43  C   UNL A   1      44.417  26.109  27.092  1.00  0.00     0.029 A 
ATOM     44  C   UNL A   1      44.447  27.431  27.703  1.00  0.00     0.049 A 
ATOM     45  H   UNL A   1      42.885  28.379  28.709  1.00  0.00     0.167 HD
ATOM     46  C   UNL A   1      39.718  30.510  30.593  1.00  0.00     0.034 A 
ATOM     47  C   UNL A   1      45.513  28.260  27.655  1.00  0.00     0.034 A 
ATOM     48  C   UNL A   1      40.708  31.534  30.393  1.00  0.00     0.049 A 
ATOM     49  C   UNL A   1      45.380  29.684  28.122  1.00  0.00     0.074 A 
ATOM     50  C   UNL A   1      40.648  32.874  30.744  1.00  0.00     0.029 A 
ATOM     51  N   UNL A   1      41.966  31.321  29.863  1.00  0.00    -0.354 N 
ATOM     52  N   UNL A   1      44.388  30.261  28.750  1.00  0.00    -0.248 NA
ATOM     53  C   UNL A   1      46.510  30.583  27.831  1.00  0.00     0.031 C 
ATOM     54  C   UNL A   1      41.880  33.465  30.445  1.00  0.00     0.029 A 
ATOM     55  C   UNL A   1      42.704  32.492  29.908  1.00  0.00     0.049 A 
ATOM     56  H   UNL A   1      42.292  30.463  29.507  1.00  0.00     0.167 HD
ATOM     57  C   UNL A   1      44.773  31.586  28.927  1.00  0.00     0.074 A 
ATOM     58  C   UNL A   1      46.109  31.717  28.388  1.00  0.00     0.031 C 
ATOM     59  C   UNL A   1      44.060  32.614  29.447  1.00  0.00     0.034 A 
BRANCH  46  60
ATOM     60  C   UNL A   1      38.463  30.905  31.327  1.00  0.00     0.023 A 
ATOM     61  C   UNL A   1      38.382  30.777  32.725  1.00  0.00     0.012 A 
ATOM     62  C   UNL A   1      37.396  31.503  30.622  1.00  0.00     0.148 A 
ATOM     63  C   UNL A   1      37.248  31.219  33.409  1.00  0.00     0.002 A 
ATOM     64  C   UNL A   1      36.291  31.980  31.314  1.00  0.00     0.091 A 
ATOM     65  F   UNL A   1      37.486  31.598  29.287  1.00  0.00    -0.205 F 
ATOM     66  C   UNL A   1      36.211  31.832  32.708  1.00  0.00     0.022 A 
BRANCH  64  67
ATOM     67  S   UNL A   1      34.955  32.863  30.497  1.00  0.00     0.127 S 
ATOM     68  O   UNL A   1      34.024  33.078  31.605  1.00  0.00    -0.237 OA
ATOM     69  O   UNL A   1      35.626  34.073  30.021  1.00  0.00    -0.237 OA
ATOM     70  O   UNL A   1      34.484  31.980  29.440  1.00  0.00    -0.744 OA
ENDBRANCH  64  67
ENDBRANCH  46  60
BRANCH  47  71
ATOM     71  C   UNL A   1      46.813  27.796  27.075  1.00  0.00     0.023 A 
ATOM     72  C   UNL A   1      47.822  27.313  27.932  1.00  0.00     0.012 A 
ATOM     73  C   UNL A   1      47.061  27.833  25.690  1.00  0.00     0.148 A 
ATOM     74  C   UNL A   1      49.050  26.887  27.420  1.00  0.00     0.002 A 
ATOM     75  C   UNL A   1      48.250  27.325  25.180  1.00  0.00     0.091 A 
ATOM     76  F   UNL A   1      46.125  28.356  24.884  1.00  0.00    -0.205 F 
ATOM     77  C   UNL A   1      49.256  26.871  26.042  1.00  0.00     0.022 A 
BRANCH  75  78
ATOM     78  S   UNL A   1      48.470  27.102  23.412  1.00  0.00     0.127 S 
ATOM     79  O   UNL A   1      47.484  28.028  22.863  1.00  0.00    -0.237 OA
ATOM     80  O   UNL A   1      49.865  27.498  23.214  1.00  0.00    -0.237 OA
ATOM     81  O   UNL A   1      48.222  25.682  23.188  1.00  0.00    -0.744 OA
ENDBRANCH  75  78
ENDBRANCH  47  71
BRANCH  59  82
ATOM     82  C   UNL A   1      44.708  33.971  29.494  1.00  0.00     0.023 A 
ATOM     83  C   UNL A   1      45.413  34.361  30.650  1.00  0.00     0.012 A 
ATOM     84  C   UNL A   1      44.674  34.834  28.382  1.00  0.00     0.148 A 
ATOM     85  C   UNL A   1      46.051  35.599  30.709  1.00  0.00     0.002 A 
ATOM     86  C   UNL A   1      45.344  36.052  28.434  1.00  0.00     0.091 A 
ATOM     87  F   UNL A   1      43.979  34.455  27.299  1.00  0.00    -0.205 F 
ATOM     88  C   UNL A   1      46.026  36.439  29.599  1.00  0.00     0.022 A 
BRANCH  86  89
ATOM     89  S   UNL A   1      45.427  37.163  27.024  1.00  0.00     0.127 S 
ATOM     90  O   UNL A   1      45.969  36.289  25.986  1.00  0.00    -0.237 OA
ATOM     91  O   UNL A   1      44.025  37.538  26.837  1.00  0.00    -0.237 OA
ATOM     92  O   UNL A   1      46.293  38.261  27.435  1.00  0.00    -0.744 OA
ENDBRANCH  86  89
ENDBRANCH  59  82
ENDBRANCH  33  34
ENDBRANCH  26  28
ENDBRANCH  25  26
ENDBRANCH   1  25
TORSDOF 17
ENDMDL
