MODEL 1
REMARK VINA RESULT:     -10.5      0.000      0.000
REMARK SMILES CC(C)CCNC(=O)[C@@H](C)Oc1ccc(N)cc1C(=O)OCCOC(=O)c1ccc(-c2c3nc(c(-c4cccc(S(=O)(=O)[O-])c4F)c4ccc([nH]4)c(-c4cccc(S(=O)(=O)[O-])c4F)c4nc(c(-c5cccc(S(=O)(=O)[O-])c5F)c5ccc2[nH]5)C=C4)C=C3)cc1
REMARK SMILES IDX 21 1 19 2 20 3 18 4 12 5 13 6 14 7 17 8 15 9 11 10 9 11
REMARK SMILES IDX 10 12 7 13 6 14 8 16 5 17 4 18 2 19 1 20 3 21 16 22 22 25
REMARK SMILES IDX 23 26 24 27 25 28 26 29 27 30 28 31 89 32 29 33 88 34 30 35
REMARK SMILES IDX 31 36 32 37 82 38 33 39 87 40 81 41 83 42 34 43 86 44 80 45
REMARK SMILES IDX 79 46 35 48 67 49 47 50 66 51 48 52 51 53 65 54 84 55 49 56
REMARK SMILES IDX 50 57 64 59 85 60 52 61 36 62 37 63 45 64 38 65 40 66 46 67
REMARK SMILES IDX 39 68 41 69 42 70 43 71 44 72 68 73 69 74 77 75 70 76 72 77
REMARK SMILES IDX 78 78 71 79 73 80 74 81 75 82 76 83 53 84 54 85 62 86 55 87
REMARK SMILES IDX 57 88 63 89 56 90 58 91 59 92 60 93 61 94
REMARK H PARENT 6 15 16 23 16 24 83 47 51 58
REMARK Flexibility Score: inf
ROOT
ATOM      1  O   UNL A   1      33.417  26.426  26.087  1.00  0.00    -0.458 OA
ENDROOT
BRANCH   1   2
ATOM      2  C   UNL A   1      33.954  25.717  25.067  1.00  0.00     0.342 C 
ATOM      3  O   UNL A   1      33.851  25.994  23.883  1.00  0.00    -0.246 OA
BRANCH   2   4
ATOM      4  C   UNL A   1      34.720  24.519  25.486  1.00  0.00     0.104 A 
ATOM      5  C   UNL A   1      34.196  23.229  25.474  1.00  0.00     0.135 A 
ATOM      6  C   UNL A   1      35.068  22.146  25.327  1.00  0.00     0.049 A 
ATOM      7  C   UNL A   1      36.453  22.334  25.419  1.00  0.00     0.029 A 
ATOM      8  C   UNL A   1      36.101  24.682  25.667  1.00  0.00     0.045 A 
ATOM      9  C   UNL A   1      36.975  23.598  25.676  1.00  0.00     0.032 A 
BRANCH   5  10
ATOM     10  O   UNL A   1      32.858  22.991  25.549  1.00  0.00    -0.480 OA
BRANCH  10  11
ATOM     11  C   UNL A   1      32.175  23.148  24.294  1.00  0.00     0.258 C 
ATOM     12  C   UNL A   1      30.667  23.363  24.452  1.00  0.00     0.064 C 
BRANCH  11  13
ATOM     13  C   UNL A   1      32.561  22.317  23.024  1.00  0.00     0.260 C 
ATOM     14  N   UNL A   1      32.538  20.952  22.963  1.00  0.00    -0.353 N 
ATOM     15  H   UNL A   1      32.577  20.580  22.053  1.00  0.00     0.163 HD
ATOM     16  O   UNL A   1      32.906  22.902  21.989  1.00  0.00    -0.271 OA
BRANCH  14  17
ATOM     17  C   UNL A   1      32.464  19.963  24.023  1.00  0.00     0.116 C 
BRANCH  17  18
ATOM     18  C   UNL A   1      32.446  18.518  23.534  1.00  0.00     0.024 C 
BRANCH  18  19
ATOM     19  C   UNL A   1      33.721  17.695  23.816  1.00  0.00    -0.016 C 
ATOM     20  C   UNL A   1      34.774  18.459  24.626  1.00  0.00     0.007 C 
ATOM     21  C   UNL A   1      33.336  16.420  24.573  1.00  0.00     0.007 C 
ENDBRANCH  18  19
ENDBRANCH  17  18
ENDBRANCH  14  17
ENDBRANCH  11  13
ENDBRANCH  10  11
ENDBRANCH   5  10
BRANCH   9  22
ATOM     22  N   UNL A   1      38.306  23.781  25.985  1.00  0.00    -0.399 N 
ATOM     23  H   UNL A   1      38.986  23.741  25.274  1.00  0.00     0.156 HD
ATOM     24  H   UNL A   1      38.577  23.950  26.917  1.00  0.00     0.156 HD
ENDBRANCH   9  22
ENDBRANCH   2   4
ENDBRANCH   1   2
BRANCH   1  25
ATOM     25  C   UNL A   1      32.332  27.300  25.710  1.00  0.00     0.275 C 
BRANCH  25  26
ATOM     26  C   UNL A   1      32.745  28.772  25.654  1.00  0.00     0.275 C 
BRANCH  26  27
ATOM     27  O   UNL A   1      32.328  29.493  26.825  1.00  0.00    -0.458 OA
BRANCH  27  28
ATOM     28  C   UNL A   1      32.909  30.699  26.986  1.00  0.00     0.338 C 
ATOM     29  O   UNL A   1      32.377  31.800  26.877  1.00  0.00    -0.246 OA
BRANCH  28  30
ATOM     30  C   UNL A   1      34.313  30.551  27.382  1.00  0.00     0.060 A 
ATOM     31  C   UNL A   1      34.803  29.271  27.619  1.00  0.00     0.016 A 
ATOM     32  C   UNL A   1      35.077  31.666  27.715  1.00  0.00     0.016 A 
ATOM     33  C   UNL A   1      35.986  29.093  28.327  1.00  0.00     0.010 A 
ATOM     34  C   UNL A   1      36.329  31.481  28.312  1.00  0.00     0.010 A 
ATOM     35  C   UNL A   1      36.774  30.196  28.676  1.00  0.00    -0.014 A 
BRANCH  35  36
ATOM     36  C   UNL A   1      38.043  30.023  29.438  1.00  0.00     0.031 A 
ATOM     37  C   UNL A   1      39.146  29.164  28.875  1.00  0.00     0.074 A 
ATOM     38  C   UNL A   1      38.205  30.599  30.647  1.00  0.00     0.049 A 
ATOM     39  N   UNL A   1      40.195  28.665  29.475  1.00  0.00    -0.248 NA
ATOM     40  C   UNL A   1      39.040  28.798  27.452  1.00  0.00     0.031 C 
ATOM     41  C   UNL A   1      37.239  31.482  31.303  1.00  0.00     0.029 A 
ATOM     42  N   UNL A   1      39.233  30.507  31.553  1.00  0.00    -0.354 N 
ATOM     43  C   UNL A   1      40.818  27.850  28.537  1.00  0.00     0.074 A 
ATOM     44  C   UNL A   1      40.045  27.943  27.317  1.00  0.00     0.031 C 
ATOM     45  C   UNL A   1      37.718  31.856  32.497  1.00  0.00     0.029 A 
ATOM     46  C   UNL A   1      38.979  31.164  32.736  1.00  0.00     0.049 A 
ATOM     47  H   UNL A   1      40.070  30.018  31.375  1.00  0.00     0.167 HD
ATOM     48  C   UNL A   1      41.933  27.094  28.680  1.00  0.00     0.034 A 
ATOM     49  C   UNL A   1      39.646  31.165  33.907  1.00  0.00     0.034 A 
ATOM     50  C   UNL A   1      42.745  27.077  29.867  1.00  0.00     0.049 A 
ATOM     51  C   UNL A   1      40.896  30.345  34.034  1.00  0.00     0.074 A 
ATOM     52  C   UNL A   1      43.914  26.374  30.102  1.00  0.00     0.029 A 
ATOM     53  N   UNL A   1      42.487  27.818  31.011  1.00  0.00    -0.354 N 
ATOM     54  N   UNL A   1      41.479  29.588  33.136  1.00  0.00    -0.248 NA
ATOM     55  C   UNL A   1      41.588  30.384  35.330  1.00  0.00     0.031 C 
ATOM     56  C   UNL A   1      44.363  26.692  31.388  1.00  0.00     0.029 A 
ATOM     57  C   UNL A   1      43.478  27.599  31.951  1.00  0.00     0.049 A 
ATOM     58  H   UNL A   1      41.711  28.412  31.136  1.00  0.00     0.167 HD
ATOM     59  C   UNL A   1      42.614  29.074  33.749  1.00  0.00     0.074 A 
ATOM     60  C   UNL A   1      42.650  29.625  35.089  1.00  0.00     0.031 C 
ATOM     61  C   UNL A   1      43.530  28.206  33.256  1.00  0.00     0.034 A 
BRANCH  48  62
ATOM     62  C   UNL A   1      42.353  26.236  27.515  1.00  0.00     0.023 A 
ATOM     63  C   UNL A   1      43.134  26.788  26.481  1.00  0.00     0.012 A 
ATOM     64  C   UNL A   1      42.011  24.870  27.467  1.00  0.00     0.148 A 
ATOM     65  C   UNL A   1      43.540  26.003  25.402  1.00  0.00     0.002 A 
ATOM     66  C   UNL A   1      42.453  24.084  26.407  1.00  0.00     0.091 A 
ATOM     67  F   UNL A   1      41.244  24.363  28.445  1.00  0.00    -0.205 F 
ATOM     68  C   UNL A   1      43.208  24.651  25.369  1.00  0.00     0.022 A 
BRANCH  66  69
ATOM     69  S   UNL A   1      42.129  22.318  26.331  1.00  0.00     0.127 S 
ATOM     70  O   UNL A   1      40.677  22.288  26.176  1.00  0.00    -0.237 OA
ATOM     71  O   UNL A   1      42.878  21.910  25.140  1.00  0.00    -0.237 OA
ATOM     72  O   UNL A   1      42.647  21.772  27.578  1.00  0.00    -0.744 OA
ENDBRANCH  66  69
ENDBRANCH  48  62
BRANCH  49  73
ATOM     73  C   UNL A   1      39.127  31.981  35.040  1.00  0.00     0.023 A 
ATOM     74  C   UNL A   1      38.213  31.407  35.944  1.00  0.00     0.012 A 
ATOM     75  C   UNL A   1      39.601  33.287  35.280  1.00  0.00     0.148 A 
ATOM     76  C   UNL A   1      37.778  32.119  37.062  1.00  0.00     0.002 A 
ATOM     77  C   UNL A   1      39.213  33.966  36.429  1.00  0.00     0.091 A 
ATOM     78  F   UNL A   1      40.453  33.825  34.396  1.00  0.00    -0.205 F 
ATOM     79  C   UNL A   1      38.291  33.390  37.314  1.00  0.00     0.022 A 
BRANCH  77  80
ATOM     80  S   UNL A   1      39.951  35.533  36.908  1.00  0.00     0.127 S 
ATOM     81  O   UNL A   1      39.277  35.805  38.175  1.00  0.00    -0.237 OA
ATOM     82  O   UNL A   1      41.366  35.182  37.026  1.00  0.00    -0.237 OA
ATOM     83  O   UNL A   1      39.654  36.453  35.818  1.00  0.00    -0.744 OA
ENDBRANCH  77  80
ENDBRANCH  49  73
BRANCH  61  84
ATOM     84  C   UNL A   1      44.673  27.820  34.152  1.00  0.00     0.023 A 
ATOM     85  C   UNL A   1      45.831  28.621  34.186  1.00  0.00     0.012 A 
ATOM     86  C   UNL A   1      44.566  26.715  35.020  1.00  0.00     0.148 A 
ATOM     87  C   UNL A   1      46.875  28.317  35.058  1.00  0.00     0.002 A 
ATOM     88  C   UNL A   1      45.594  26.442  35.913  1.00  0.00     0.091 A 
ATOM     89  F   UNL A   1      43.465  25.953  34.953  1.00  0.00    -0.205 F 
ATOM     90  C   UNL A   1      46.752  27.237  35.929  1.00  0.00     0.022 A 
BRANCH  88  91
ATOM     91  S   UNL A   1      45.480  25.121  37.126  1.00  0.00     0.127 S 
ATOM     92  O   UNL A   1      46.780  25.211  37.788  1.00  0.00    -0.237 OA
ATOM     93  O   UNL A   1      44.345  25.546  37.947  1.00  0.00    -0.237 OA
ATOM     94  O   UNL A   1      45.246  23.901  36.365  1.00  0.00    -0.744 OA
ENDBRANCH  88  91
ENDBRANCH  61  84
ENDBRANCH  35  36
ENDBRANCH  28  30
ENDBRANCH  27  28
ENDBRANCH  26  27
ENDBRANCH  25  26
ENDBRANCH   1  25
TORSDOF 21
ENDMDL
MODEL 2
REMARK VINA RESULT:     -10.4      2.297      8.228
REMARK SMILES CC(C)CCNC(=O)[C@@H](C)Oc1ccc(N)cc1C(=O)OCCOC(=O)c1ccc(-c2c3nc(c(-c4cccc(S(=O)(=O)[O-])c4F)c4ccc([nH]4)c(-c4cccc(S(=O)(=O)[O-])c4F)c4nc(c(-c5cccc(S(=O)(=O)[O-])c5F)c5ccc2[nH]5)C=C4)C=C3)cc1
REMARK SMILES IDX 21 1 19 2 20 3 18 4 12 5 13 6 14 7 17 8 15 9 11 10 9 11
REMARK SMILES IDX 10 12 7 13 6 14 8 16 5 17 4 18 2 19 1 20 3 21 16 22 22 25
REMARK SMILES IDX 23 26 24 27 25 28 26 29 27 30 28 31 89 32 29 33 88 34 30 35
REMARK SMILES IDX 31 36 32 37 82 38 33 39 87 40 81 41 83 42 34 43 86 44 80 45
REMARK SMILES IDX 79 46 35 48 67 49 47 50 66 51 48 52 51 53 65 54 84 55 49 56
REMARK SMILES IDX 50 57 64 59 85 60 52 61 36 62 37 63 45 64 38 65 40 66 46 67
REMARK SMILES IDX 39 68 41 69 42 70 43 71 44 72 68 73 69 74 77 75 70 76 72 77
REMARK SMILES IDX 78 78 71 79 73 80 74 81 75 82 76 83 53 84 54 85 62 86 55 87
REMARK SMILES IDX 57 88 63 89 56 90 58 91 59 92 60 93 61 94
REMARK H PARENT 6 15 16 23 16 24 83 47 51 58
REMARK Flexibility Score: inf
ROOT
ATOM      1  O   UNL A   1      31.396  30.135  26.110  1.00  0.00    -0.458 OA
ENDROOT
BRANCH   1   2
ATOM      2  C   UNL A   1      31.930  29.569  25.002  1.00  0.00     0.342 C 
ATOM      3  O   UNL A   1      33.088  29.687  24.637  1.00  0.00    -0.246 OA
BRANCH   2   4
ATOM      4  C   UNL A   1      30.981  28.752  24.210  1.00  0.00     0.104 A 
ATOM      5  C   UNL A   1      30.925  27.362  24.271  1.00  0.00     0.135 A 
ATOM      6  C   UNL A   1      29.719  26.719  23.978  1.00  0.00     0.049 A 
ATOM      7  C   UNL A   1      28.655  27.434  23.415  1.00  0.00     0.029 A 
ATOM      8  C   UNL A   1      29.943  29.438  23.562  1.00  0.00     0.045 A 
ATOM      9  C   UNL A   1      28.793  28.787  23.124  1.00  0.00     0.032 A 
BRANCH   5  10
ATOM     10  O   UNL A   1      31.994  26.612  24.658  1.00  0.00    -0.480 OA
BRANCH  10  11
ATOM     11  C   UNL A   1      32.774  26.113  23.560  1.00  0.00     0.258 C 
ATOM     12  C   UNL A   1      33.855  27.094  23.094  1.00  0.00     0.064 C 
BRANCH  11  13
ATOM     13  C   UNL A   1      32.139  25.279  22.396  1.00  0.00     0.260 C 
ATOM     14  N   UNL A   1      32.001  23.920  22.412  1.00  0.00    -0.353 N 
ATOM     15  H   UNL A   1      31.386  23.561  21.732  1.00  0.00     0.163 HD
ATOM     16  O   UNL A   1      31.717  25.858  21.386  1.00  0.00    -0.271 OA
BRANCH  14  17
ATOM     17  C   UNL A   1      32.613  22.921  23.268  1.00  0.00     0.116 C 
BRANCH  17  18
ATOM     18  C   UNL A   1      31.714  22.425  24.397  1.00  0.00     0.024 C 
BRANCH  18  19
ATOM     19  C   UNL A   1      32.126  21.086  25.047  1.00  0.00    -0.016 C 
ATOM     20  C   UNL A   1      32.426  19.981  24.029  1.00  0.00     0.007 C 
ATOM     21  C   UNL A   1      33.365  21.314  25.919  1.00  0.00     0.007 C 
ENDBRANCH  18  19
ENDBRANCH  17  18
ENDBRANCH  14  17
ENDBRANCH  11  13
ENDBRANCH  10  11
ENDBRANCH   5  10
BRANCH   9  22
ATOM     22  N   UNL A   1      27.852  29.465  22.377  1.00  0.00    -0.399 N 
ATOM     23  H   UNL A   1      27.586  30.378  22.632  1.00  0.00     0.156 HD
ATOM     24  H   UNL A   1      27.446  29.036  21.589  1.00  0.00     0.156 HD
ENDBRANCH   9  22
ENDBRANCH   2   4
ENDBRANCH   1   2
BRANCH   1  25
ATOM     25  C   UNL A   1      31.116  31.546  25.992  1.00  0.00     0.275 C 
BRANCH  25  26
ATOM     26  C   UNL A   1      31.563  32.346  27.217  1.00  0.00     0.275 C 
BRANCH  26  27
ATOM     27  O   UNL A   1      32.591  33.298  26.892  1.00  0.00    -0.458 OA
BRANCH  27  28
ATOM     28  C   UNL A   1      33.211  33.849  27.955  1.00  0.00     0.338 C 
ATOM     29  O   UNL A   1      32.835  34.812  28.617  1.00  0.00    -0.246 OA
BRANCH  28  30
ATOM     30  C   UNL A   1      34.426  33.101  28.293  1.00  0.00     0.060 A 
ATOM     31  C   UNL A   1      34.353  31.713  28.357  1.00  0.00     0.016 A 
ATOM     32  C   UNL A   1      35.564  33.764  28.744  1.00  0.00     0.016 A 
ATOM     33  C   UNL A   1      35.345  30.988  29.007  1.00  0.00     0.010 A 
ATOM     34  C   UNL A   1      36.620  33.018  29.281  1.00  0.00     0.010 A 
ATOM     35  C   UNL A   1      36.501  31.628  29.471  1.00  0.00    -0.014 A 
BRANCH  35  36
ATOM     36  C   UNL A   1      37.572  30.867  30.174  1.00  0.00     0.031 A 
ATOM     37  C   UNL A   1      37.816  31.098  31.643  1.00  0.00     0.074 A 
ATOM     38  C   UNL A   1      38.352  29.996  29.502  1.00  0.00     0.049 A 
ATOM     39  N   UNL A   1      38.845  30.759  32.374  1.00  0.00    -0.248 NA
ATOM     40  C   UNL A   1      36.773  31.830  32.382  1.00  0.00     0.031 C 
ATOM     41  C   UNL A   1      38.212  29.646  28.087  1.00  0.00     0.029 A 
ATOM     42  N   UNL A   1      39.438  29.263  29.915  1.00  0.00    -0.354 N 
ATOM     43  C   UNL A   1      38.623  31.318  33.627  1.00  0.00     0.074 A 
ATOM     44  C   UNL A   1      37.346  31.996  33.567  1.00  0.00     0.031 C 
ATOM     45  C   UNL A   1      39.164  28.766  27.751  1.00  0.00     0.029 A 
ATOM     46  C   UNL A   1      40.043  28.562  28.896  1.00  0.00     0.049 A 
ATOM     47  H   UNL A   1      39.754  29.242  30.848  1.00  0.00     0.167 HD
ATOM     48  C   UNL A   1      39.411  31.271  34.727  1.00  0.00     0.034 A 
ATOM     49  C   UNL A   1      41.206  27.882  28.861  1.00  0.00     0.034 A 
ATOM     50  C   UNL A   1      40.636  30.521  34.807  1.00  0.00     0.049 A 
ATOM     51  C   UNL A   1      42.049  27.815  30.100  1.00  0.00     0.074 A 
ATOM     52  C   UNL A   1      41.492  30.377  35.885  1.00  0.00     0.029 A 
ATOM     53  N   UNL A   1      41.167  29.766  33.771  1.00  0.00    -0.354 N 
ATOM     54  N   UNL A   1      41.821  28.340  31.280  1.00  0.00    -0.248 NA
ATOM     55  C   UNL A   1      43.304  27.057  30.010  1.00  0.00     0.031 C 
ATOM     56  C   UNL A   1      42.539  29.533  35.501  1.00  0.00     0.029 A 
ATOM     57  C   UNL A   1      42.332  29.145  34.187  1.00  0.00     0.049 A 
ATOM     58  H   UNL A   1      40.774  29.684  32.872  1.00  0.00     0.167 HD
ATOM     59  C   UNL A   1      42.893  27.962  32.078  1.00  0.00     0.074 A 
ATOM     60  C   UNL A   1      43.759  27.143  31.254  1.00  0.00     0.031 C 
ATOM     61  C   UNL A   1      43.148  28.283  33.370  1.00  0.00     0.034 A 
BRANCH  48  62
ATOM     62  C   UNL A   1      38.963  32.036  35.945  1.00  0.00     0.023 A 
ATOM     63  C   UNL A   1      39.297  33.398  36.082  1.00  0.00     0.012 A 
ATOM     64  C   UNL A   1      38.172  31.417  36.934  1.00  0.00     0.148 A 
ATOM     65  C   UNL A   1      38.880  34.122  37.198  1.00  0.00     0.002 A 
ATOM     66  C   UNL A   1      37.727  32.157  38.025  1.00  0.00     0.091 A 
ATOM     67  F   UNL A   1      37.885  30.113  36.804  1.00  0.00    -0.205 F 
ATOM     68  C   UNL A   1      38.088  33.505  38.164  1.00  0.00     0.022 A 
BRANCH  66  69
ATOM     69  S   UNL A   1      36.642  31.454  39.273  1.00  0.00     0.127 S 
ATOM     70  O   UNL A   1      36.345  30.141  38.704  1.00  0.00    -0.237 OA
ATOM     71  O   UNL A   1      37.501  31.423  40.459  1.00  0.00    -0.237 OA
ATOM     72  O   UNL A   1      35.516  32.372  39.375  1.00  0.00    -0.744 OA
ENDBRANCH  66  69
ENDBRANCH  48  62
BRANCH  49  73
ATOM     73  C   UNL A   1      41.620  27.212  27.596  1.00  0.00     0.023 A 
ATOM     74  C   UNL A   1      42.152  27.985  26.547  1.00  0.00     0.012 A 
ATOM     75  C   UNL A   1      41.575  25.809  27.461  1.00  0.00     0.148 A 
ATOM     76  C   UNL A   1      42.628  27.374  25.386  1.00  0.00     0.002 A 
ATOM     77  C   UNL A   1      42.109  25.204  26.329  1.00  0.00     0.091 A 
ATOM     78  F   UNL A   1      41.044  25.092  28.461  1.00  0.00    -0.205 F 
ATOM     79  C   UNL A   1      42.623  25.985  25.284  1.00  0.00     0.022 A 
BRANCH  77  80
ATOM     80  S   UNL A   1      42.288  23.421  26.194  1.00  0.00     0.127 S 
ATOM     81  O   UNL A   1      43.122  23.116  27.354  1.00  0.00    -0.237 OA
ATOM     82  O   UNL A   1      40.902  22.965  26.295  1.00  0.00    -0.237 OA
ATOM     83  O   UNL A   1      42.899  23.189  24.892  1.00  0.00    -0.744 OA
ENDBRANCH  77  80
ENDBRANCH  49  73
BRANCH  61  84
ATOM     84  C   UNL A   1      44.397  27.723  33.991  1.00  0.00     0.023 A 
ATOM     85  C   UNL A   1      45.600  28.451  33.910  1.00  0.00     0.012 A 
ATOM     86  C   UNL A   1      44.359  26.521  34.723  1.00  0.00     0.148 A 
ATOM     87  C   UNL A   1      46.753  27.981  34.535  1.00  0.00     0.002 A 
ATOM     88  C   UNL A   1      45.503  26.078  35.376  1.00  0.00     0.091 A 
ATOM     89  F   UNL A   1      43.209  25.833  34.767  1.00  0.00    -0.205 F 
ATOM     90  C   UNL A   1      46.703  26.803  35.277  1.00  0.00     0.022 A 
BRANCH  88  91
ATOM     91  S   UNL A   1      45.502  24.617  36.421  1.00  0.00     0.127 S 
ATOM     92  O   UNL A   1      45.190  23.562  35.459  1.00  0.00    -0.237 OA
ATOM     93  O   UNL A   1      46.875  24.593  36.929  1.00  0.00    -0.237 OA
ATOM     94  O   UNL A   1      44.490  24.858  37.440  1.00  0.00    -0.744 OA
ENDBRANCH  88  91
ENDBRANCH  61  84
ENDBRANCH  35  36
ENDBRANCH  28  30
ENDBRANCH  27  28
ENDBRANCH  26  27
ENDBRANCH  25  26
ENDBRANCH   1  25
TORSDOF 21
ENDMDL
MODEL 3
REMARK VINA RESULT:     -10.3      2.028      2.841
REMARK SMILES CC(C)CCNC(=O)[C@@H](C)Oc1ccc(N)cc1C(=O)OCCOC(=O)c1ccc(-c2c3nc(c(-c4cccc(S(=O)(=O)[O-])c4F)c4ccc([nH]4)c(-c4cccc(S(=O)(=O)[O-])c4F)c4nc(c(-c5cccc(S(=O)(=O)[O-])c5F)c5ccc2[nH]5)C=C4)C=C3)cc1
REMARK SMILES IDX 21 1 19 2 20 3 18 4 12 5 13 6 14 7 17 8 15 9 11 10 9 11
REMARK SMILES IDX 10 12 7 13 6 14 8 16 5 17 4 18 2 19 1 20 3 21 16 22 22 25
REMARK SMILES IDX 23 26 24 27 25 28 26 29 27 30 28 31 89 32 29 33 88 34 30 35
REMARK SMILES IDX 31 36 32 37 82 38 33 39 87 40 81 41 83 42 34 43 86 44 80 45
REMARK SMILES IDX 79 46 35 48 67 49 47 50 66 51 48 52 51 53 65 54 84 55 49 56
REMARK SMILES IDX 50 57 64 59 85 60 52 61 36 62 37 63 45 64 38 65 40 66 46 67
REMARK SMILES IDX 39 68 41 69 42 70 43 71 44 72 68 73 69 74 77 75 70 76 72 77
REMARK SMILES IDX 78 78 71 79 73 80 74 81 75 82 76 83 53 84 54 85 62 86 55 87
REMARK SMILES IDX 57 88 63 89 56 90 58 91 59 92 60 93 61 94
REMARK H PARENT 6 15 16 23 16 24 83 47 51 58
REMARK Flexibility Score: inf
ROOT
ATOM      1  O   UNL A   1      33.902  27.076  23.718  1.00  0.00    -0.458 OA
ENDROOT
BRANCH   1   2
ATOM      2  C   UNL A   1      33.242  25.994  23.243  1.00  0.00     0.342 C 
ATOM      3  O   UNL A   1      33.534  25.375  22.233  1.00  0.00    -0.246 OA
BRANCH   2   4
ATOM      4  C   UNL A   1      32.080  25.574  24.062  1.00  0.00     0.104 A 
ATOM      5  C   UNL A   1      32.187  25.111  25.370  1.00  0.00     0.135 A 
ATOM      6  C   UNL A   1      31.102  25.272  26.236  1.00  0.00     0.049 A 
ATOM      7  C   UNL A   1      29.856  25.678  25.742  1.00  0.00     0.029 A 
ATOM      8  C   UNL A   1      30.807  25.890  23.563  1.00  0.00     0.045 A 
ATOM      9  C   UNL A   1      29.681  25.908  24.381  1.00  0.00     0.032 A 
BRANCH   5  10
ATOM     10  O   UNL A   1      33.335  24.556  25.849  1.00  0.00    -0.480 OA
BRANCH  10  11
ATOM     11  C   UNL A   1      33.341  23.120  25.804  1.00  0.00     0.258 C 
ATOM     12  C   UNL A   1      33.477  22.474  27.186  1.00  0.00     0.064 C 
BRANCH  11  13
ATOM     13  C   UNL A   1      34.064  22.324  24.665  1.00  0.00     0.260 C 
ATOM     14  N   UNL A   1      33.548  21.214  24.058  1.00  0.00    -0.353 N 
ATOM     15  H   UNL A   1      33.993  20.960  23.217  1.00  0.00     0.163 HD
ATOM     16  O   UNL A   1      35.170  22.703  24.259  1.00  0.00    -0.271 OA
BRANCH  14  17
ATOM     17  C   UNL A   1      32.451  20.349  24.451  1.00  0.00     0.116 C 
BRANCH  17  18
ATOM     18  C   UNL A   1      32.471  18.971  23.796  1.00  0.00     0.024 C 
BRANCH  18  19
ATOM     19  C   UNL A   1      33.430  17.938  24.427  1.00  0.00    -0.016 C 
ATOM     20  C   UNL A   1      32.813  17.172  25.603  1.00  0.00     0.007 C 
ATOM     21  C   UNL A   1      33.865  16.937  23.351  1.00  0.00     0.007 C 
ENDBRANCH  18  19
ENDBRANCH  17  18
ENDBRANCH  14  17
ENDBRANCH  11  13
ENDBRANCH  10  11
ENDBRANCH   5  10
BRANCH   9  22
ATOM     22  N   UNL A   1      28.428  26.096  23.836  1.00  0.00    -0.399 N 
ATOM     23  H   UNL A   1      27.987  26.973  23.907  1.00  0.00     0.156 HD
ATOM     24  H   UNL A   1      27.975  25.353  23.375  1.00  0.00     0.156 HD
ENDBRANCH   9  22
ENDBRANCH   2   4
ENDBRANCH   1   2
BRANCH   1  25
ATOM     25  C   UNL A   1      33.195  28.326  23.571  1.00  0.00     0.275 C 
BRANCH  25  26
ATOM     26  C   UNL A   1      33.692  29.407  24.533  1.00  0.00     0.275 C 
BRANCH  26  27
ATOM     27  O   UNL A   1      32.979  29.387  25.781  1.00  0.00    -0.458 OA
BRANCH  27  28
ATOM     28  C   UNL A   1      33.017  30.542  26.475  1.00  0.00     0.338 C 
ATOM     29  O   UNL A   1      32.239  31.488  26.386  1.00  0.00    -0.246 OA
BRANCH  28  30
ATOM     30  C   UNL A   1      34.117  30.530  27.445  1.00  0.00     0.060 A 
ATOM     31  C   UNL A   1      34.866  31.691  27.610  1.00  0.00     0.016 A 
ATOM     32  C   UNL A   1      34.535  29.337  28.027  1.00  0.00     0.016 A 
ATOM     33  C   UNL A   1      36.111  31.639  28.226  1.00  0.00     0.010 A 
ATOM     34  C   UNL A   1      35.728  29.318  28.760  1.00  0.00     0.010 A 
ATOM     35  C   UNL A   1      36.558  30.453  28.821  1.00  0.00    -0.014 A 
BRANCH  35  36
ATOM     36  C   UNL A   1      37.892  30.380  29.482  1.00  0.00     0.031 A 
ATOM     37  C   UNL A   1      38.995  29.566  28.857  1.00  0.00     0.074 A 
ATOM     38  C   UNL A   1      38.114  31.005  30.656  1.00  0.00     0.049 A 
ATOM     39  N   UNL A   1      40.117  29.149  29.383  1.00  0.00    -0.248 NA
ATOM     40  C   UNL A   1      38.799  29.146  27.459  1.00  0.00     0.031 C 
ATOM     41  C   UNL A   1      37.152  31.853  31.362  1.00  0.00     0.029 A 
ATOM     42  N   UNL A   1      39.215  31.003  31.478  1.00  0.00    -0.354 N 
ATOM     43  C   UNL A   1      40.711  28.339  28.422  1.00  0.00     0.074 A 
ATOM     44  C   UNL A   1      39.839  28.346  27.267  1.00  0.00     0.031 C 
ATOM     45  C   UNL A   1      37.702  32.295  32.502  1.00  0.00     0.029 A 
ATOM     46  C   UNL A   1      39.017  31.685  32.657  1.00  0.00     0.049 A 
ATOM     47  H   UNL A   1      40.062  30.557  31.246  1.00  0.00     0.167 HD
ATOM     48  C   UNL A   1      41.876  27.654  28.496  1.00  0.00     0.034 A 
ATOM     49  C   UNL A   1      39.774  31.764  33.770  1.00  0.00     0.034 A 
ATOM     50  C   UNL A   1      42.781  27.724  29.613  1.00  0.00     0.049 A 
ATOM     51  C   UNL A   1      41.077  31.022  33.819  1.00  0.00     0.074 A 
ATOM     52  C   UNL A   1      44.004  27.097  29.773  1.00  0.00     0.029 A 
ATOM     53  N   UNL A   1      42.570  28.488  30.752  1.00  0.00    -0.354 N 
ATOM     54  N   UNL A   1      41.630  30.269  32.899  1.00  0.00    -0.248 NA
ATOM     55  C   UNL A   1      41.867  31.145  35.052  1.00  0.00     0.031 C 
ATOM     56  C   UNL A   1      44.534  27.485  31.009  1.00  0.00     0.029 A 
ATOM     57  C   UNL A   1      43.645  28.358  31.614  1.00  0.00     0.049 A 
ATOM     58  H   UNL A   1      41.773  29.041  30.922  1.00  0.00     0.167 HD
ATOM     59  C   UNL A   1      42.840  29.842  33.433  1.00  0.00     0.074 A 
ATOM     60  C   UNL A   1      42.950  30.441  34.748  1.00  0.00     0.031 C 
ATOM     61  C   UNL A   1      43.764  29.012  32.892  1.00  0.00     0.034 A 
BRANCH  48  62
ATOM     62  C   UNL A   1      42.253  26.782  27.327  1.00  0.00     0.023 A 
ATOM     63  C   UNL A   1      42.936  27.337  26.227  1.00  0.00     0.012 A 
ATOM     64  C   UNL A   1      41.969  25.401  27.338  1.00  0.00     0.148 A 
ATOM     65  C   UNL A   1      43.301  26.540  25.142  1.00  0.00     0.002 A 
ATOM     66  C   UNL A   1      42.372  24.606  26.269  1.00  0.00     0.091 A 
ATOM     67  F   UNL A   1      41.295  24.891  28.379  1.00  0.00    -0.205 F 
ATOM     68  C   UNL A   1      43.028  25.174  25.167  1.00  0.00     0.022 A 
BRANCH  66  69
ATOM     69  S   UNL A   1      42.122  22.826  26.261  1.00  0.00     0.127 S 
ATOM     70  O   UNL A   1      42.795  22.425  27.495  1.00  0.00    -0.237 OA
ATOM     71  O   UNL A   1      40.663  22.711  26.298  1.00  0.00    -0.237 OA
ATOM     72  O   UNL A   1      42.728  22.352  25.024  1.00  0.00    -0.744 OA
ENDBRANCH  66  69
ENDBRANCH  48  62
BRANCH  49  73
ATOM     73  C   UNL A   1      39.299  32.588  34.917  1.00  0.00     0.023 A 
ATOM     74  C   UNL A   1      38.439  32.013  35.871  1.00  0.00     0.012 A 
ATOM     75  C   UNL A   1      39.766  33.903  35.117  1.00  0.00     0.148 A 
ATOM     76  C   UNL A   1      38.048  32.734  37.001  1.00  0.00     0.002 A 
ATOM     77  C   UNL A   1      39.424  34.591  36.275  1.00  0.00     0.091 A 
ATOM     78  F   UNL A   1      40.566  34.441  34.186  1.00  0.00    -0.205 F 
ATOM     79  C   UNL A   1      38.554  34.014  37.212  1.00  0.00     0.022 A 
BRANCH  77  80
ATOM     80  S   UNL A   1      40.162  36.174  36.699  1.00  0.00     0.127 S 
ATOM     81  O   UNL A   1      39.376  36.567  37.865  1.00  0.00    -0.237 OA
ATOM     82  O   UNL A   1      41.547  35.800  36.986  1.00  0.00    -0.237 OA
ATOM     83  O   UNL A   1      40.003  37.007  35.514  1.00  0.00    -0.744 OA
ENDBRANCH  77  80
ENDBRANCH  49  73
BRANCH  61  84
ATOM     84  C   UNL A   1      44.996  28.723  33.703  1.00  0.00     0.023 A 
ATOM     85  C   UNL A   1      45.021  27.602  34.555  1.00  0.00     0.012 A 
ATOM     86  C   UNL A   1      46.154  29.512  33.557  1.00  0.00     0.148 A 
ATOM     87  C   UNL A   1      46.176  27.280  35.265  1.00  0.00     0.002 A 
ATOM     88  C   UNL A   1      47.313  29.162  34.239  1.00  0.00     0.091 A 
ATOM     89  F   UNL A   1      46.100  30.588  32.759  1.00  0.00    -0.205 F 
ATOM     90  C   UNL A   1      47.324  28.051  35.098  1.00  0.00     0.022 A 
BRANCH  88  91
ATOM     91  S   UNL A   1      48.858  30.051  34.015  1.00  0.00     0.127 S 
ATOM     92  O   UNL A   1      48.468  31.418  34.355  1.00  0.00    -0.237 OA
ATOM     93  O   UNL A   1      49.737  29.406  34.992  1.00  0.00    -0.237 OA
ATOM     94  O   UNL A   1      49.244  29.836  32.626  1.00  0.00    -0.744 OA
ENDBRANCH  88  91
ENDBRANCH  61  84
ENDBRANCH  35  36
ENDBRANCH  28  30
ENDBRANCH  27  28
ENDBRANCH  26  27
ENDBRANCH  25  26
ENDBRANCH   1  25
TORSDOF 21
ENDMDL
