MODEL 1
REMARK VINA RESULT:     -12.2      0.000      0.000
REMARK SMILES O=C(OCCOC(=O)c1ccc(-c2c3nc(c(-c4cccc(S(=O)(=O)[O-])c4F)c4ccc([nH]4)c(-c4cccc(S(=O)(=O)[O-])c4F)c4nc(c(-c5cccc(S(=O)(=O)[O-])c5F)c5ccc2[nH]5)C=C4)C=C3)cc1)c1ccc(OCc2cc(Cl)ccc2[N+](=O)[O-])cc1
REMARK SMILES IDX 4 1 3 2 2 3 1 4 72 5 73 6 89 7 74 8 88 9 75 10 76 11 77 12
REMARK SMILES IDX 78 13 79 14 84 15 80 16 83 17 81 18 82 19 85 20 86 21 87 22
REMARK SMILES IDX 5 23 6 24 7 25 8 26 9 27 10 28 71 29 11 30 70 31 12 32 13 33
REMARK SMILES IDX 14 34 64 35 15 36 69 37 63 38 65 39 16 40 68 41 62 42 61 43
REMARK SMILES IDX 17 45 49 46 29 47 48 48 30 49 33 50 47 51 66 52 31 53 32 54
REMARK SMILES IDX 46 56 67 57 34 58 18 59 19 60 27 61 20 62 22 63 28 64 21 65
REMARK SMILES IDX 23 66 24 67 25 68 26 69 50 70 51 71 59 72 52 73 54 74 60 75
REMARK SMILES IDX 53 76 55 77 56 78 57 79 58 80 35 81 36 82 44 83 37 84 39 85
REMARK SMILES IDX 45 86 38 87 40 88 41 89 42 90 43 91
REMARK H PARENT 65 44 33 55
REMARK Flexibility Score: inf
ROOT
ATOM      1  C   UNL A   1      43.093  20.006  25.905  1.00  0.00     0.275 C 
ENDROOT
BRANCH   1   2
ATOM      2  O   UNL A   1      41.997  20.912  25.734  1.00  0.00    -0.458 OA
BRANCH   2   3
ATOM      3  C   UNL A   1      40.883  21.035  26.490  1.00  0.00     0.338 C 
ATOM      4  O   UNL A   1      40.799  20.351  27.510  1.00  0.00    -0.246 OA
BRANCH   3   5
ATOM      5  C   UNL A   1      39.717  21.915  26.143  1.00  0.00     0.060 A 
ATOM      6  C   UNL A   1      38.530  21.519  25.521  1.00  0.00     0.019 A 
ATOM      7  C   UNL A   1      39.782  23.231  26.622  1.00  0.00     0.019 A 
ATOM      8  C   UNL A   1      37.391  22.308  25.561  1.00  0.00     0.047 A 
ATOM      9  C   UNL A   1      38.654  24.048  26.615  1.00  0.00     0.047 A 
ATOM     10  C   UNL A   1      37.434  23.526  26.203  1.00  0.00     0.119 A 
BRANCH  10  11
ATOM     11  O   UNL A   1      36.206  24.052  26.434  1.00  0.00    -0.489 OA
BRANCH  11  12
ATOM     12  C   UNL A   1      35.126  23.185  26.158  1.00  0.00     0.272 C 
BRANCH  12  13
ATOM     13  C   UNL A   1      34.043  23.711  25.179  1.00  0.00     0.068 A 
ATOM     14  C   UNL A   1      33.996  25.513  24.652  1.00  0.00     0.035 A 
ATOM     15  C   UNL A   1      33.468  22.407  24.018  1.00  0.00     0.276 A 
ATOM     16  C   UNL A   1      33.467  25.968  22.926  1.00  0.00     0.041 A 
ATOM     17  C   UNL A   1      32.935  22.828  22.322  1.00  0.00     0.087 A 
ATOM     18  Cl  UNL A   1      33.608  27.597  22.393  1.00  0.00    -0.084 Cl
ATOM     19  C   UNL A   1      32.944  24.643  21.743  1.00  0.00     0.027 A 
BRANCH  15  20
ATOM     20  N   UNL A   1      33.331  21.028  24.439  1.00  0.00     0.063 N 
ATOM     21  O   UNL A   1      34.360  20.349  24.502  1.00  0.00    -0.258 OA
ATOM     22  O   UNL A   1      32.181  20.602  24.608  1.00  0.00    -0.258 OA
ENDBRANCH  15  20
ENDBRANCH  12  13
ENDBRANCH  11  12
ENDBRANCH  10  11
ENDBRANCH   3   5
ENDBRANCH   2   3
ENDBRANCH   1   2
BRANCH   1  23
ATOM     23  C   UNL A   1      44.370  20.510  25.202  1.00  0.00     0.275 C 
BRANCH  23  24
ATOM     24  O   UNL A   1      45.064  21.556  25.929  1.00  0.00    -0.458 OA
BRANCH  24  25
ATOM     25  C   UNL A   1      45.068  22.802  25.380  1.00  0.00     0.338 C 
ATOM     26  O   UNL A   1      45.398  23.059  24.233  1.00  0.00    -0.246 OA
BRANCH  25  27
ATOM     27  C   UNL A   1      44.461  23.810  26.314  1.00  0.00     0.060 A 
ATOM     28  C   UNL A   1      44.781  25.157  26.124  1.00  0.00     0.016 A 
ATOM     29  C   UNL A   1      43.560  23.484  27.337  1.00  0.00     0.016 A 
ATOM     30  C   UNL A   1      44.170  26.164  26.899  1.00  0.00     0.010 A 
ATOM     31  C   UNL A   1      42.906  24.498  28.084  1.00  0.00     0.010 A 
ATOM     32  C   UNL A   1      43.145  25.869  27.836  1.00  0.00    -0.014 A 
BRANCH  32  33
ATOM     33  C   UNL A   1      42.227  27.143  28.636  1.00  0.00     0.031 A 
ATOM     34  C   UNL A   1      43.325  27.114  30.135  1.00  0.00     0.074 A 
ATOM     35  C   UNL A   1      40.775  28.248  28.216  1.00  0.00     0.049 A 
ATOM     36  N   UNL A   1      43.338  28.019  31.103  1.00  0.00    -0.248 NA
ATOM     37  C   UNL A   1      44.274  26.029  30.454  1.00  0.00     0.031 C 
ATOM     38  C   UNL A   1      39.782  28.565  26.891  1.00  0.00     0.029 A 
ATOM     39  N   UNL A   1      40.020  29.361  28.954  1.00  0.00    -0.354 N 
ATOM     40  C   UNL A   1      43.999  27.545  32.178  1.00  0.00     0.074 A 
ATOM     41  C   UNL A   1      44.674  26.357  31.693  1.00  0.00     0.031 C 
ATOM     42  C   UNL A   1      38.758  29.382  27.151  1.00  0.00     0.029 A 
ATOM     43  C   UNL A   1      38.829  29.807  28.505  1.00  0.00     0.049 A 
ATOM     44  H   UNL A   1      40.411  29.755  29.766  1.00  0.00     0.167 HD
ATOM     45  C   UNL A   1      43.921  28.058  33.431  1.00  0.00     0.034 A 
ATOM     46  C   UNL A   1      37.918  30.483  29.223  1.00  0.00     0.034 A 
ATOM     47  C   UNL A   1      42.987  29.096  33.895  1.00  0.00     0.049 A 
ATOM     48  C   UNL A   1      38.237  30.852  30.651  1.00  0.00     0.074 A 
ATOM     49  C   UNL A   1      42.923  29.638  35.170  1.00  0.00     0.029 A 
ATOM     50  N   UNL A   1      41.919  29.695  33.197  1.00  0.00    -0.354 N 
ATOM     51  N   UNL A   1      39.289  30.540  31.386  1.00  0.00    -0.248 NA
ATOM     52  C   UNL A   1      37.267  31.719  31.312  1.00  0.00     0.031 C 
ATOM     53  C   UNL A   1      41.755  30.407  35.280  1.00  0.00     0.029 A 
ATOM     54  C   UNL A   1      41.106  30.448  34.052  1.00  0.00     0.049 A 
ATOM     55  H   UNL A   1      41.764  29.596  32.230  1.00  0.00     0.167 HD
ATOM     56  C   UNL A   1      39.114  31.178  32.614  1.00  0.00     0.074 A 
ATOM     57  C   UNL A   1      37.865  31.929  32.477  1.00  0.00     0.031 C 
ATOM     58  C   UNL A   1      39.863  31.170  33.757  1.00  0.00     0.034 A 
BRANCH  45  59
ATOM     59  C   UNL A   1      44.876  27.445  34.414  1.00  0.00     0.023 A 
ATOM     60  C   UNL A   1      46.172  27.990  34.515  1.00  0.00     0.012 A 
ATOM     61  C   UNL A   1      44.507  26.375  35.249  1.00  0.00     0.148 A 
ATOM     62  C   UNL A   1      47.103  27.451  35.397  1.00  0.00     0.002 A 
ATOM     63  C   UNL A   1      45.428  25.871  36.160  1.00  0.00     0.091 A 
ATOM     64  F   UNL A   1      43.276  25.857  35.127  1.00  0.00    -0.205 F 
ATOM     65  C   UNL A   1      46.728  26.398  36.224  1.00  0.00     0.022 A 
BRANCH  63  66
ATOM     66  S   UNL A   1      45.021  24.568  37.326  1.00  0.00     0.127 S 
ATOM     67  O   UNL A   1      44.818  23.429  36.432  1.00  0.00    -0.237 OA
ATOM     68  O   UNL A   1      46.235  24.494  38.140  1.00  0.00    -0.237 OA
ATOM     69  O   UNL A   1      43.839  25.025  38.041  1.00  0.00    -0.744 OA
ENDBRANCH  63  66
ENDBRANCH  45  59
BRANCH  46  70
ATOM     70  C   UNL A   1      36.657  30.794  28.517  1.00  0.00     0.023 A 
ATOM     71  C   UNL A   1      35.713  29.775  28.315  1.00  0.00     0.012 A 
ATOM     72  C   UNL A   1      36.278  32.146  28.379  1.00  0.00     0.148 A 
ATOM     73  C   UNL A   1      34.390  30.102  28.023  1.00  0.00     0.002 A 
ATOM     74  C   UNL A   1      34.946  32.461  28.168  1.00  0.00     0.091 A 
ATOM     75  F   UNL A   1      37.209  33.088  28.588  1.00  0.00    -0.205 F 
ATOM     76  C   UNL A   1      34.001  31.441  27.980  1.00  0.00     0.022 A 
BRANCH  74  77
ATOM     77  S   UNL A   1      34.334  34.140  28.373  1.00  0.00     0.127 S 
ATOM     78  O   UNL A   1      34.857  34.489  29.690  1.00  0.00    -0.237 OA
ATOM     79  O   UNL A   1      34.968  34.830  27.248  1.00  0.00    -0.237 OA
ATOM     80  O   UNL A   1      32.885  34.041  28.264  1.00  0.00    -0.744 OA
ENDBRANCH  74  77
ENDBRANCH  46  70
BRANCH  58  81
ATOM     81  C   UNL A   1      39.312  32.043  34.886  1.00  0.00     0.023 A 
ATOM     82  C   UNL A   1      38.275  31.581  35.727  1.00  0.00     0.012 A 
ATOM     83  C   UNL A   1      39.846  33.329  35.110  1.00  0.00     0.148 A 
ATOM     84  C   UNL A   1      37.743  32.403  36.725  1.00  0.00     0.002 A 
ATOM     85  C   UNL A   1      39.354  34.118  36.146  1.00  0.00     0.091 A 
ATOM     86  F   UNL A   1      40.818  33.764  34.296  1.00  0.00    -0.205 F 
ATOM     87  C   UNL A   1      38.288  33.666  36.942  1.00  0.00     0.022 A 
BRANCH  85  88
ATOM     88  S   UNL A   1      40.053  35.721  36.560  1.00  0.00     0.127 S 
ATOM     89  O   UNL A   1      41.476  35.405  36.674  1.00  0.00    -0.237 OA
ATOM     90  O   UNL A   1      39.697  36.523  35.389  1.00  0.00    -0.237 OA
ATOM     91  O   UNL A   1      39.408  36.134  37.799  1.00  0.00    -0.744 OA
ENDBRANCH  85  88
ENDBRANCH  58  81
ENDBRANCH  32  33
ENDBRANCH  25  27
ENDBRANCH  24  25
ENDBRANCH  23  24
ENDBRANCH   1  23
TORSDOF 18
ENDMDL
MODEL 2
REMARK VINA RESULT:     -11.8      4.504      5.562
REMARK SMILES O=C(OCCOC(=O)c1ccc(-c2c3nc(c(-c4cccc(S(=O)(=O)[O-])c4F)c4ccc([nH]4)c(-c4cccc(S(=O)(=O)[O-])c4F)c4nc(c(-c5cccc(S(=O)(=O)[O-])c5F)c5ccc2[nH]5)C=C4)C=C3)cc1)c1ccc(OCc2cc(Cl)ccc2[N+](=O)[O-])cc1
REMARK SMILES IDX 4 1 3 2 2 3 1 4 72 5 73 6 89 7 74 8 88 9 75 10 76 11 77 12
REMARK SMILES IDX 78 13 79 14 84 15 80 16 83 17 81 18 82 19 85 20 86 21 87 22
REMARK SMILES IDX 5 23 6 24 7 25 8 26 9 27 10 28 71 29 11 30 70 31 12 32 13 33
REMARK SMILES IDX 14 34 64 35 15 36 69 37 63 38 65 39 16 40 68 41 62 42 61 43
REMARK SMILES IDX 17 45 49 46 29 47 48 48 30 49 33 50 47 51 66 52 31 53 32 54
REMARK SMILES IDX 46 56 67 57 34 58 18 59 19 60 27 61 20 62 22 63 28 64 21 65
REMARK SMILES IDX 23 66 24 67 25 68 26 69 50 70 51 71 59 72 52 73 54 74 60 75
REMARK SMILES IDX 53 76 55 77 56 78 57 79 58 80 35 81 36 82 44 83 37 84 39 85
REMARK SMILES IDX 45 86 38 87 40 88 41 89 42 90 43 91
REMARK H PARENT 65 44 33 55
REMARK Flexibility Score: inf
ROOT
ATOM      1  C   UNL A   1      42.461  18.790  26.382  1.00  0.00     0.275 C 
ENDROOT
BRANCH   1   2
ATOM      2  O   UNL A   1      41.340  19.610  26.029  1.00  0.00    -0.458 OA
BRANCH   2   3
ATOM      3  C   UNL A   1      40.682  20.508  26.795  1.00  0.00     0.338 C 
ATOM      4  O   UNL A   1      40.850  20.461  28.013  1.00  0.00    -0.246 OA
BRANCH   3   5
ATOM      5  C   UNL A   1      39.720  21.531  26.264  1.00  0.00     0.060 A 
ATOM      6  C   UNL A   1      38.588  21.283  25.482  1.00  0.00     0.019 A 
ATOM      7  C   UNL A   1      39.910  22.843  26.721  1.00  0.00     0.019 A 
ATOM      8  C   UNL A   1      37.584  22.229  25.339  1.00  0.00     0.047 A 
ATOM      9  C   UNL A   1      38.927  23.812  26.532  1.00  0.00     0.047 A 
ATOM     10  C   UNL A   1      37.715  23.453  25.956  1.00  0.00     0.119 A 
BRANCH  10  11
ATOM     11  O   UNL A   1      36.557  24.158  25.993  1.00  0.00    -0.489 OA
BRANCH  11  12
ATOM     12  C   UNL A   1      35.758  24.053  24.834  1.00  0.00     0.272 C 
BRANCH  12  13
ATOM     13  C   UNL A   1      34.227  24.222  25.026  1.00  0.00     0.068 A 
ATOM     14  C   UNL A   1      33.334  25.765  24.434  1.00  0.00     0.035 A 
ATOM     15  C   UNL A   1      33.348  22.608  25.035  1.00  0.00     0.276 A 
ATOM     16  C   UNL A   1      31.602  25.643  23.763  1.00  0.00     0.041 A 
ATOM     17  C   UNL A   1      31.644  22.463  24.391  1.00  0.00     0.087 A 
ATOM     18  Cl  UNL A   1      30.866  27.023  23.050  1.00  0.00    -0.084 Cl
ATOM     19  C   UNL A   1      30.743  24.003  23.722  1.00  0.00     0.027 A 
BRANCH  15  20
ATOM     20  N   UNL A   1      33.938  21.430  25.635  1.00  0.00     0.063 N 
ATOM     21  O   UNL A   1      34.453  20.603  24.876  1.00  0.00    -0.258 OA
ATOM     22  O   UNL A   1      33.795  21.288  26.856  1.00  0.00    -0.258 OA
ENDBRANCH  15  20
ENDBRANCH  12  13
ENDBRANCH  11  12
ENDBRANCH  10  11
ENDBRANCH   3   5
ENDBRANCH   2   3
ENDBRANCH   1   2
BRANCH   1  23
ATOM     23  C   UNL A   1      43.583  18.866  25.326  1.00  0.00     0.275 C 
BRANCH  23  24
ATOM     24  O   UNL A   1      43.718  20.172  24.710  1.00  0.00    -0.458 OA
BRANCH  24  25
ATOM     25  C   UNL A   1      44.655  21.014  25.229  1.00  0.00     0.338 C 
ATOM     26  O   UNL A   1      45.859  20.814  25.214  1.00  0.00    -0.246 OA
BRANCH  25  27
ATOM     27  C   UNL A   1      44.034  22.305  25.682  1.00  0.00     0.060 A 
ATOM     28  C   UNL A   1      43.856  22.500  27.055  1.00  0.00     0.016 A 
ATOM     29  C   UNL A   1      43.662  23.340  24.815  1.00  0.00     0.016 A 
ATOM     30  C   UNL A   1      43.373  23.726  27.556  1.00  0.00     0.010 A 
ATOM     31  C   UNL A   1      43.223  24.592  25.318  1.00  0.00     0.010 A 
ATOM     32  C   UNL A   1      43.133  24.839  26.708  1.00  0.00    -0.014 A 
BRANCH  32  33
ATOM     33  C   UNL A   1      42.749  26.432  27.356  1.00  0.00     0.031 A 
ATOM     34  C   UNL A   1      44.519  26.990  27.273  1.00  0.00     0.074 A 
ATOM     35  C   UNL A   1      41.205  27.362  27.864  1.00  0.00     0.049 A 
ATOM     36  N   UNL A   1      44.946  28.236  27.418  1.00  0.00    -0.248 NA
ATOM     37  C   UNL A   1      45.673  26.086  27.098  1.00  0.00     0.031 C 
ATOM     38  C   UNL A   1      39.536  27.126  27.848  1.00  0.00     0.029 A 
ATOM     39  N   UNL A   1      40.927  28.767  28.413  1.00  0.00    -0.354 N 
ATOM     40  C   UNL A   1      46.278  28.254  27.624  1.00  0.00     0.074 A 
ATOM     41  C   UNL A   1      46.713  26.911  27.293  1.00  0.00     0.031 C 
ATOM     42  C   UNL A   1      38.838  28.078  28.474  1.00  0.00     0.029 A 
ATOM     43  C   UNL A   1      39.728  29.078  28.948  1.00  0.00     0.049 A 
ATOM     44  H   UNL A   1      41.633  29.452  28.375  1.00  0.00     0.167 HD
ATOM     45  C   UNL A   1      46.976  29.301  28.131  1.00  0.00     0.034 A 
ATOM     46  C   UNL A   1      39.474  30.108  29.770  1.00  0.00     0.034 A 
ATOM     47  C   UNL A   1      46.412  30.531  28.708  1.00  0.00     0.049 A 
ATOM     48  C   UNL A   1      40.588  31.068  30.109  1.00  0.00     0.074 A 
ATOM     49  C   UNL A   1      47.126  31.612  29.204  1.00  0.00     0.029 A 
ATOM     50  N   UNL A   1      45.062  30.845  28.964  1.00  0.00    -0.354 N 
ATOM     51  N   UNL A   1      41.867  31.023  29.779  1.00  0.00    -0.248 NA
ATOM     52  C   UNL A   1      40.198  32.244  30.878  1.00  0.00     0.031 C 
ATOM     53  C   UNL A   1      46.246  32.466  29.883  1.00  0.00     0.029 A 
ATOM     54  C   UNL A   1      44.944  31.996  29.751  1.00  0.00     0.049 A 
ATOM     55  H   UNL A   1      44.299  30.321  28.631  1.00  0.00     0.167 HD
ATOM     56  C   UNL A   1      42.447  32.179  30.301  1.00  0.00     0.074 A 
ATOM     57  C   UNL A   1      41.344  32.911  30.926  1.00  0.00     0.031 C 
ATOM     58  C   UNL A   1      43.739  32.628  30.301  1.00  0.00     0.034 A 
BRANCH  45  59
ATOM     59  C   UNL A   1      48.467  29.121  28.113  1.00  0.00     0.023 A 
ATOM     60  C   UNL A   1      49.087  28.570  29.253  1.00  0.00     0.012 A 
ATOM     61  C   UNL A   1      49.247  29.453  26.992  1.00  0.00     0.148 A 
ATOM     62  C   UNL A   1      50.466  28.395  29.298  1.00  0.00     0.002 A 
ATOM     63  C   UNL A   1      50.620  29.234  27.027  1.00  0.00     0.091 A 
ATOM     64  F   UNL A   1      48.644  29.993  25.923  1.00  0.00    -0.205 F 
ATOM     65  C   UNL A   1      51.230  28.720  28.182  1.00  0.00     0.022 A 
BRANCH  63  66
ATOM     66  S   UNL A   1      51.685  29.544  25.615  1.00  0.00     0.127 S 
ATOM     67  O   UNL A   1      51.056  28.718  24.587  1.00  0.00    -0.237 OA
ATOM     68  O   UNL A   1      51.525  30.986  25.421  1.00  0.00    -0.237 OA
ATOM     69  O   UNL A   1      53.020  29.134  26.024  1.00  0.00    -0.744 OA
ENDBRANCH  63  66
ENDBRANCH  45  59
BRANCH  46  70
ATOM     70  C   UNL A   1      38.088  30.189  30.279  1.00  0.00     0.023 A 
ATOM     71  C   UNL A   1      37.799  29.706  31.565  1.00  0.00     0.012 A 
ATOM     72  C   UNL A   1      37.179  31.046  29.625  1.00  0.00     0.148 A 
ATOM     73  C   UNL A   1      36.635  30.112  32.214  1.00  0.00     0.002 A 
ATOM     74  C   UNL A   1      36.066  31.507  30.309  1.00  0.00     0.091 A 
ATOM     75  F   UNL A   1      37.498  31.490  28.400  1.00  0.00    -0.205 F 
ATOM     76  C   UNL A   1      35.786  31.035  31.600  1.00  0.00     0.022 A 
BRANCH  74  77
ATOM     77  S   UNL A   1      35.091  32.887  29.694  1.00  0.00     0.127 S 
ATOM     78  O   UNL A   1      34.166  33.115  30.800  1.00  0.00    -0.237 OA
ATOM     79  O   UNL A   1      36.112  33.920  29.514  1.00  0.00    -0.237 OA
ATOM     80  O   UNL A   1      34.497  32.419  28.449  1.00  0.00    -0.744 OA
ENDBRANCH  74  77
ENDBRANCH  46  70
BRANCH  58  81
ATOM     81  C   UNL A   1      43.943  33.983  30.979  1.00  0.00     0.023 A 
ATOM     82  C   UNL A   1      44.197  34.076  32.366  1.00  0.00     0.012 A 
ATOM     83  C   UNL A   1      43.891  35.169  30.217  1.00  0.00     0.148 A 
ATOM     84  C   UNL A   1      44.335  35.321  32.987  1.00  0.00     0.002 A 
ATOM     85  C   UNL A   1      44.090  36.402  30.832  1.00  0.00     0.091 A 
ATOM     86  F   UNL A   1      43.633  35.070  28.905  1.00  0.00    -0.205 F 
ATOM     87  C   UNL A   1      44.292  36.483  32.220  1.00  0.00     0.022 A 
BRANCH  85  88
ATOM     88  S   UNL A   1      44.144  37.946  29.913  1.00  0.00     0.127 S 
ATOM     89  O   UNL A   1      45.408  37.819  29.190  1.00  0.00    -0.237 OA
ATOM     90  O   UNL A   1      42.948  37.846  29.076  1.00  0.00    -0.237 OA
ATOM     91  O   UNL A   1      44.103  39.009  30.908  1.00  0.00    -0.744 OA
ENDBRANCH  85  88
ENDBRANCH  58  81
ENDBRANCH  32  33
ENDBRANCH  25  27
ENDBRANCH  24  25
ENDBRANCH  23  24
ENDBRANCH   1  23
TORSDOF 18
ENDMDL
MODEL 3
REMARK VINA RESULT:     -11.7      4.275      5.170
REMARK SMILES O=C(OCCOC(=O)c1ccc(-c2c3nc(c(-c4cccc(S(=O)(=O)[O-])c4F)c4ccc([nH]4)c(-c4cccc(S(=O)(=O)[O-])c4F)c4nc(c(-c5cccc(S(=O)(=O)[O-])c5F)c5ccc2[nH]5)C=C4)C=C3)cc1)c1ccc(OCc2cc(Cl)ccc2[N+](=O)[O-])cc1
REMARK SMILES IDX 4 1 3 2 2 3 1 4 72 5 73 6 89 7 74 8 88 9 75 10 76 11 77 12
REMARK SMILES IDX 78 13 79 14 84 15 80 16 83 17 81 18 82 19 85 20 86 21 87 22
REMARK SMILES IDX 5 23 6 24 7 25 8 26 9 27 10 28 71 29 11 30 70 31 12 32 13 33
REMARK SMILES IDX 14 34 64 35 15 36 69 37 63 38 65 39 16 40 68 41 62 42 61 43
REMARK SMILES IDX 17 45 49 46 29 47 48 48 30 49 33 50 47 51 66 52 31 53 32 54
REMARK SMILES IDX 46 56 67 57 34 58 18 59 19 60 27 61 20 62 22 63 28 64 21 65
REMARK SMILES IDX 23 66 24 67 25 68 26 69 50 70 51 71 59 72 52 73 54 74 60 75
REMARK SMILES IDX 53 76 55 77 56 78 57 79 58 80 35 81 36 82 44 83 37 84 39 85
REMARK SMILES IDX 45 86 38 87 40 88 41 89 42 90 43 91
REMARK H PARENT 65 44 33 55
REMARK Flexibility Score: inf
ROOT
ATOM      1  C   UNL A   1      42.011  19.105  26.361  1.00  0.00     0.275 C 
ENDROOT
BRANCH   1   2
ATOM      2  O   UNL A   1      41.226  20.245  25.989  1.00  0.00    -0.458 OA
BRANCH   2   3
ATOM      3  C   UNL A   1      40.491  21.054  26.785  1.00  0.00     0.338 C 
ATOM      4  O   UNL A   1      40.830  21.168  27.962  1.00  0.00    -0.246 OA
BRANCH   3   5
ATOM      5  C   UNL A   1      39.259  21.787  26.339  1.00  0.00     0.060 A 
ATOM      6  C   UNL A   1      38.972  23.138  26.549  1.00  0.00     0.019 A 
ATOM      7  C   UNL A   1      38.386  21.066  25.512  1.00  0.00     0.019 A 
ATOM      8  C   UNL A   1      38.000  23.797  25.811  1.00  0.00     0.047 A 
ATOM      9  C   UNL A   1      37.372  21.715  24.810  1.00  0.00     0.047 A 
ATOM     10  C   UNL A   1      37.277  23.100  24.869  1.00  0.00     0.119 A 
BRANCH  10  11
ATOM     11  O   UNL A   1      36.590  23.904  24.021  1.00  0.00    -0.489 OA
BRANCH  11  12
ATOM     12  C   UNL A   1      35.214  23.607  23.903  1.00  0.00     0.272 C 
BRANCH  12  13
ATOM     13  C   UNL A   1      34.272  24.233  24.965  1.00  0.00     0.068 A 
ATOM     14  C   UNL A   1      33.544  25.949  24.733  1.00  0.00     0.035 A 
ATOM     15  C   UNL A   1      33.323  22.958  25.886  1.00  0.00     0.276 A 
ATOM     16  C   UNL A   1      31.826  26.325  25.343  1.00  0.00     0.041 A 
ATOM     17  C   UNL A   1      31.638  23.304  26.504  1.00  0.00     0.087 A 
ATOM     18  Cl  UNL A   1      31.097  27.834  24.960  1.00  0.00    -0.084 Cl
ATOM     19  C   UNL A   1      30.852  25.017  26.220  1.00  0.00     0.027 A 
BRANCH  15  20
ATOM     20  N   UNL A   1      33.912  21.681  26.232  1.00  0.00     0.063 N 
ATOM     21  O   UNL A   1      34.603  21.632  27.253  1.00  0.00    -0.258 OA
ATOM     22  O   UNL A   1      33.763  20.754  25.424  1.00  0.00    -0.258 OA
ENDBRANCH  15  20
ENDBRANCH  12  13
ENDBRANCH  11  12
ENDBRANCH  10  11
ENDBRANCH   3   5
ENDBRANCH   2   3
ENDBRANCH   1   2
BRANCH   1  23
ATOM     23  C   UNL A   1      43.298  18.995  25.519  1.00  0.00     0.275 C 
BRANCH  23  24
ATOM     24  O   UNL A   1      43.603  20.192  24.758  1.00  0.00    -0.458 OA
BRANCH  24  25
ATOM     25  C   UNL A   1      44.550  21.030  25.263  1.00  0.00     0.338 C 
ATOM     26  O   UNL A   1      45.752  20.829  25.228  1.00  0.00    -0.246 OA
BRANCH  25  27
ATOM     27  C   UNL A   1      43.937  22.321  25.732  1.00  0.00     0.060 A 
ATOM     28  C   UNL A   1      43.887  22.561  27.108  1.00  0.00     0.016 A 
ATOM     29  C   UNL A   1      43.453  23.314  24.870  1.00  0.00     0.016 A 
ATOM     30  C   UNL A   1      43.419  23.792  27.612  1.00  0.00     0.010 A 
ATOM     31  C   UNL A   1      43.029  24.572  25.372  1.00  0.00     0.010 A 
ATOM     32  C   UNL A   1      43.066  24.866  26.754  1.00  0.00    -0.014 A 
BRANCH  32  33
ATOM     33  C   UNL A   1      42.699  26.471  27.383  1.00  0.00     0.031 A 
ATOM     34  C   UNL A   1      44.469  27.022  27.252  1.00  0.00     0.074 A 
ATOM     35  C   UNL A   1      41.170  27.415  27.907  1.00  0.00     0.049 A 
ATOM     36  N   UNL A   1      44.902  28.270  27.367  1.00  0.00    -0.248 NA
ATOM     37  C   UNL A   1      45.617  26.112  27.069  1.00  0.00     0.031 C 
ATOM     38  C   UNL A   1      39.500  27.184  27.930  1.00  0.00     0.029 A 
ATOM     39  N   UNL A   1      40.907  28.830  28.438  1.00  0.00    -0.354 N 
ATOM     40  C   UNL A   1      46.239  28.287  27.545  1.00  0.00     0.074 A 
ATOM     41  C   UNL A   1      46.663  26.938  27.228  1.00  0.00     0.031 C 
ATOM     42  C   UNL A   1      38.817  28.148  28.555  1.00  0.00     0.029 A 
ATOM     43  C   UNL A   1      39.720  29.154  28.992  1.00  0.00     0.049 A 
ATOM     44  H   UNL A   1      41.614  29.511  28.373  1.00  0.00     0.167 HD
ATOM     45  C   UNL A   1      46.950  29.341  28.018  1.00  0.00     0.034 A 
ATOM     46  C   UNL A   1      39.487  30.199  29.802  1.00  0.00     0.034 A 
ATOM     47  C   UNL A   1      46.402  30.583  28.586  1.00  0.00     0.049 A 
ATOM     48  C   UNL A   1      40.610  31.160  30.100  1.00  0.00     0.074 A 
ATOM     49  C   UNL A   1      47.128  31.670  29.047  1.00  0.00     0.029 A 
ATOM     50  N   UNL A   1      45.058  30.905  28.864  1.00  0.00    -0.354 N 
ATOM     51  N   UNL A   1      41.881  31.107  29.744  1.00  0.00    -0.248 NA
ATOM     52  C   UNL A   1      40.239  32.351  30.857  1.00  0.00     0.031 C 
ATOM     53  C   UNL A   1      46.265  32.538  29.730  1.00  0.00     0.029 A 
ATOM     54  C   UNL A   1      44.960  32.070  29.634  1.00  0.00     0.049 A 
ATOM     55  H   UNL A   1      44.286  30.377  28.557  1.00  0.00     0.167 HD
ATOM     56  C   UNL A   1      42.476  32.270  30.234  1.00  0.00     0.074 A 
ATOM     57  C   UNL A   1      41.388  33.015  30.869  1.00  0.00     0.031 C 
ATOM     58  C   UNL A   1      43.768  32.714  30.199  1.00  0.00     0.034 A 
BRANCH  45  59
ATOM     59  C   UNL A   1      48.439  29.156  27.972  1.00  0.00     0.023 A 
ATOM     60  C   UNL A   1      49.131  29.586  26.820  1.00  0.00     0.012 A 
ATOM     61  C   UNL A   1      49.158  28.600  29.045  1.00  0.00     0.148 A 
ATOM     62  C   UNL A   1      50.509  29.425  26.717  1.00  0.00     0.002 A 
ATOM     63  C   UNL A   1      50.540  28.484  28.953  1.00  0.00     0.091 A 
ATOM     64  F   UNL A   1      48.483  28.180  30.124  1.00  0.00    -0.205 F 
ATOM     65  C   UNL A   1      51.213  28.881  27.786  1.00  0.00     0.022 A 
BRANCH  63  66
ATOM     66  S   UNL A   1      51.551  27.870  30.304  1.00  0.00     0.127 S 
ATOM     67  O   UNL A   1      51.093  26.486  30.407  1.00  0.00    -0.237 OA
ATOM     68  O   UNL A   1      52.905  28.025  29.769  1.00  0.00    -0.237 OA
ATOM     69  O   UNL A   1      51.251  28.720  31.446  1.00  0.00    -0.744 OA
ENDBRANCH  63  66
ENDBRANCH  45  59
BRANCH  46  70
ATOM     70  C   UNL A   1      38.112  30.292  30.338  1.00  0.00     0.023 A 
ATOM     71  C   UNL A   1      37.853  29.850  31.645  1.00  0.00     0.012 A 
ATOM     72  C   UNL A   1      37.186  31.125  29.677  1.00  0.00     0.148 A 
ATOM     73  C   UNL A   1      36.702  30.275  32.306  1.00  0.00     0.002 A 
ATOM     74  C   UNL A   1      36.087  31.605  30.370  1.00  0.00     0.091 A 
ATOM     75  F   UNL A   1      37.476  31.530  28.432  1.00  0.00    -0.205 F 
ATOM     76  C   UNL A   1      35.837  31.174  31.682  1.00  0.00     0.022 A 
BRANCH  74  77
ATOM     77  S   UNL A   1      35.094  32.962  29.733  1.00  0.00     0.127 S 
ATOM     78  O   UNL A   1      34.469  32.351  28.564  1.00  0.00    -0.237 OA
ATOM     79  O   UNL A   1      34.190  33.226  30.855  1.00  0.00    -0.237 OA
ATOM     80  O   UNL A   1      36.035  34.041  29.466  1.00  0.00    -0.744 OA
ENDBRANCH  74  77
ENDBRANCH  46  70
BRANCH  58  81
ATOM     81  C   UNL A   1      43.990  34.081  30.848  1.00  0.00     0.023 A 
ATOM     82  C   UNL A   1      44.219  34.201  32.237  1.00  0.00     0.012 A 
ATOM     83  C   UNL A   1      43.980  35.249  30.058  1.00  0.00     0.148 A 
ATOM     84  C   UNL A   1      44.373  35.457  32.831  1.00  0.00     0.002 A 
ATOM     85  C   UNL A   1      44.196  36.491  30.648  1.00  0.00     0.091 A 
ATOM     86  F   UNL A   1      43.746  35.124  28.744  1.00  0.00    -0.205 F 
ATOM     87  C   UNL A   1      44.372  36.600  32.037  1.00  0.00     0.022 A 
BRANCH  85  88
ATOM     88  S   UNL A   1      44.303  38.011  29.694  1.00  0.00     0.127 S 
ATOM     89  O   UNL A   1      45.402  37.711  28.777  1.00  0.00    -0.237 OA
ATOM     90  O   UNL A   1      42.983  38.073  29.066  1.00  0.00    -0.237 OA
ATOM     91  O   UNL A   1      44.570  39.072  30.655  1.00  0.00    -0.744 OA
ENDBRANCH  85  88
ENDBRANCH  58  81
ENDBRANCH  32  33
ENDBRANCH  25  27
ENDBRANCH  24  25
ENDBRANCH  23  24
ENDBRANCH   1  23
TORSDOF 18
ENDMDL
