MODEL 1
REMARK VINA RESULT:     -10.8      0.000      0.000
REMARK SMILES [NH3+][C@@H](CCCC(=O)OCCOC(=O)c1ccc(-c2c3nc(c(-c4cccc(S(=O)(=O)[O-])c4F)c4ccc([nH]4)c(-c4cccc(S(=O)(=O)[O-])c4F)c4nc(c(-c5cccc(S(=O)(=O)[O-])c5F)c5ccc2[nH]5)C=C4)C=C3)cc1)c1cnc2[nH]ccc2c1
REMARK SMILES IDX 9 1 8 2 6 3 7 4 5 5 4 6 3 7 2 8 1 9 77 13 78 14 85 15 79 16
REMARK SMILES IDX 84 17 80 18 83 19 81 20 82 21 10 23 11 24 12 25 13 26 14 27
REMARK SMILES IDX 15 28 76 29 16 30 75 31 17 32 18 33 19 34 69 35 20 36 74 37
REMARK SMILES IDX 68 38 70 39 21 40 73 41 67 42 66 43 22 45 54 46 34 47 53 48
REMARK SMILES IDX 35 49 38 50 52 51 71 52 36 53 37 54 51 56 72 57 39 58 23 59
REMARK SMILES IDX 24 60 32 61 25 62 27 63 33 64 26 65 28 66 29 67 30 68 31 69
REMARK SMILES IDX 55 70 56 71 64 72 57 73 59 74 65 75 58 76 60 77 61 78 62 79
REMARK SMILES IDX 63 80 40 81 41 82 49 83 42 84 44 85 50 86 43 87 45 88 46 89
REMARK SMILES IDX 47 90 48 91
REMARK H PARENT 1 10 1 11 1 12 81 22 70 44 38 55
REMARK Flexibility Score: inf
ROOT
ATOM      1  C   UNL A   1      31.452  28.999  24.311  1.00  0.00     0.274 C 
ENDROOT
BRANCH   1   2
ATOM      2  O   UNL A   1      31.954  27.721  23.904  1.00  0.00    -0.462 OA
BRANCH   2   3
ATOM      3  C   UNL A   1      32.979  27.765  23.014  1.00  0.00     0.305 C 
ATOM      4  O   UNL A   1      33.453  28.773  22.510  1.00  0.00    -0.252 OA
BRANCH   3   5
ATOM      5  C   UNL A   1      33.490  26.370  22.782  1.00  0.00     0.123 C 
BRANCH   5   6
ATOM      6  C   UNL A   1      33.151  25.377  23.894  1.00  0.00     0.018 C 
BRANCH   6   7
ATOM      7  C   UNL A   1      32.062  24.326  23.589  1.00  0.00     0.071 C 
BRANCH   7   8
ATOM      8  C   UNL A   1      30.976  23.978  24.635  1.00  0.00     0.213 C 
BRANCH   8   9
ATOM      9  N   UNL A   1      30.827  25.218  25.440  1.00  0.00    -0.351 N 
ATOM     10  H   UNL A   1      31.239  25.075  26.362  1.00  0.00     0.345 HD
ATOM     11  H   UNL A   1      29.838  25.443  25.540  1.00  0.00     0.345 HD
ATOM     12  H   UNL A   1      31.305  25.988  24.970  1.00  0.00     0.345 HD
ENDBRANCH   8   9
BRANCH   8  13
ATOM     13  C   UNL A   1      31.085  22.770  25.590  1.00  0.00     0.028 A 
ATOM     14  C   UNL A   1      31.179  23.112  26.941  1.00  0.00     0.123 A 
ATOM     15  C   UNL A   1      31.812  21.650  25.207  1.00  0.00     0.023 A 
ATOM     16  N   UNL A   1      32.292  22.915  27.688  1.00  0.00    -0.238 NA
ATOM     17  C   UNL A   1      33.083  21.605  25.783  1.00  0.00     0.019 A 
ATOM     18  C   UNL A   1      33.250  22.277  26.985  1.00  0.00     0.137 A 
ATOM     19  C   UNL A   1      34.351  21.112  25.386  1.00  0.00     0.029 A 
ATOM     20  N   UNL A   1      34.584  22.263  27.280  1.00  0.00    -0.346 N 
ATOM     21  C   UNL A   1      35.272  21.623  26.278  1.00  0.00     0.085 A 
ATOM     22  H   UNL A   1      34.989  22.650  28.090  1.00  0.00     0.167 HD
ENDBRANCH   8  13
ENDBRANCH   7   8
ENDBRANCH   6   7
ENDBRANCH   5   6
ENDBRANCH   3   5
ENDBRANCH   2   3
ENDBRANCH   1   2
BRANCH   1  23
ATOM     23  C   UNL A   1      31.855  29.171  25.772  1.00  0.00     0.275 C 
BRANCH  23  24
ATOM     24  O   UNL A   1      33.045  29.984  25.834  1.00  0.00    -0.458 OA
BRANCH  24  25
ATOM     25  C   UNL A   1      33.077  30.939  26.792  1.00  0.00     0.338 C 
ATOM     26  O   UNL A   1      32.225  31.778  27.026  1.00  0.00    -0.246 OA
BRANCH  25  27
ATOM     27  C   UNL A   1      34.352  30.854  27.524  1.00  0.00     0.060 A 
ATOM     28  C   UNL A   1      35.163  31.978  27.718  1.00  0.00     0.016 A 
ATOM     29  C   UNL A   1      34.766  29.602  27.974  1.00  0.00     0.016 A 
ATOM     30  C   UNL A   1      36.408  31.843  28.340  1.00  0.00     0.010 A 
ATOM     31  C   UNL A   1      35.978  29.482  28.651  1.00  0.00     0.010 A 
ATOM     32  C   UNL A   1      36.819  30.596  28.828  1.00  0.00    -0.014 A 
BRANCH  32  33
ATOM     33  C   UNL A   1      38.115  30.405  29.533  1.00  0.00     0.031 A 
ATOM     34  C   UNL A   1      39.137  29.458  28.963  1.00  0.00     0.074 A 
ATOM     35  C   UNL A   1      38.319  30.971  30.739  1.00  0.00     0.049 A 
ATOM     36  N   UNL A   1      40.182  28.923  29.537  1.00  0.00    -0.248 NA
ATOM     37  C   UNL A   1      38.938  29.041  27.565  1.00  0.00     0.031 C 
ATOM     38  C   UNL A   1      37.409  31.906  31.402  1.00  0.00     0.029 A 
ATOM     39  N   UNL A   1      39.336  30.794  31.647  1.00  0.00    -0.354 N 
ATOM     40  C   UNL A   1      40.724  28.052  28.599  1.00  0.00     0.074 A 
ATOM     41  C   UNL A   1      39.899  28.141  27.413  1.00  0.00     0.031 C 
ATOM     42  C   UNL A   1      37.890  32.196  32.621  1.00  0.00     0.029 A 
ATOM     43  C   UNL A   1      39.104  31.420  32.850  1.00  0.00     0.049 A 
ATOM     44  H   UNL A   1      40.148  30.273  31.455  1.00  0.00     0.167 HD
ATOM     45  C   UNL A   1      41.811  27.252  28.717  1.00  0.00     0.034 A 
ATOM     46  C   UNL A   1      39.761  31.339  34.024  1.00  0.00     0.034 A 
ATOM     47  C   UNL A   1      42.658  27.212  29.879  1.00  0.00     0.049 A 
ATOM     48  C   UNL A   1      40.972  30.452  34.126  1.00  0.00     0.074 A 
ATOM     49  C   UNL A   1      43.819  26.483  30.074  1.00  0.00     0.029 A 
ATOM     50  N   UNL A   1      42.439  27.933  31.042  1.00  0.00    -0.354 N 
ATOM     51  N   UNL A   1      41.519  29.695  33.207  1.00  0.00    -0.248 NA
ATOM     52  C   UNL A   1      41.666  30.423  35.421  1.00  0.00     0.031 C 
ATOM     53  C   UNL A   1      44.294  26.755  31.361  1.00  0.00     0.029 A 
ATOM     54  C   UNL A   1      43.439  27.666  31.961  1.00  0.00     0.049 A 
ATOM     55  H   UNL A   1      41.683  28.546  31.193  1.00  0.00     0.167 HD
ATOM     56  C   UNL A   1      42.638  29.121  33.802  1.00  0.00     0.074 A 
ATOM     57  C   UNL A   1      42.701  29.637  35.154  1.00  0.00     0.031 C 
ATOM     58  C   UNL A   1      43.521  28.234  33.282  1.00  0.00     0.034 A 
BRANCH  45  59
ATOM     59  C   UNL A   1      42.169  26.372  27.547  1.00  0.00     0.023 A 
ATOM     60  C   UNL A   1      42.929  26.900  26.484  1.00  0.00     0.012 A 
ATOM     61  C   UNL A   1      41.808  25.010  27.531  1.00  0.00     0.148 A 
ATOM     62  C   UNL A   1      43.300  26.092  25.409  1.00  0.00     0.002 A 
ATOM     63  C   UNL A   1      42.216  24.202  26.475  1.00  0.00     0.091 A 
ATOM     64  F   UNL A   1      41.066  24.531  28.540  1.00  0.00    -0.205 F 
ATOM     65  C   UNL A   1      42.953  24.744  25.409  1.00  0.00     0.022 A 
BRANCH  63  66
ATOM     66  S   UNL A   1      41.883  22.437  26.422  1.00  0.00     0.127 S 
ATOM     67  O   UNL A   1      40.425  22.416  26.312  1.00  0.00    -0.237 OA
ATOM     68  O   UNL A   1      42.591  22.025  25.209  1.00  0.00    -0.237 OA
ATOM     69  O   UNL A   1      42.427  21.890  27.657  1.00  0.00    -0.744 OA
ENDBRANCH  63  66
ENDBRANCH  45  59
BRANCH  46  70
ATOM     70  C   UNL A   1      39.293  32.139  35.192  1.00  0.00     0.023 A 
ATOM     71  C   UNL A   1      38.401  31.554  36.112  1.00  0.00     0.012 A 
ATOM     72  C   UNL A   1      39.754  33.451  35.421  1.00  0.00     0.148 A 
ATOM     73  C   UNL A   1      37.959  32.268  37.226  1.00  0.00     0.002 A 
ATOM     74  C   UNL A   1      39.354  34.135  36.563  1.00  0.00     0.091 A 
ATOM     75  F   UNL A   1      40.587  33.998  34.524  1.00  0.00    -0.205 F 
ATOM     76  C   UNL A   1      38.446  33.552  37.459  1.00  0.00     0.022 A 
BRANCH  74  77
ATOM     77  S   UNL A   1      40.039  35.736  37.011  1.00  0.00     0.127 S 
ATOM     78  O   UNL A   1      41.461  35.430  37.130  1.00  0.00    -0.237 OA
ATOM     79  O   UNL A   1      39.679  36.555  35.853  1.00  0.00    -0.237 OA
ATOM     80  O   UNL A   1      39.363  36.117  38.244  1.00  0.00    -0.744 OA
ENDBRANCH  74  77
ENDBRANCH  46  70
BRANCH  58  81
ATOM     81  C   UNL A   1      44.658  27.786  34.162  1.00  0.00     0.023 A 
ATOM     82  C   UNL A   1      45.853  28.531  34.191  1.00  0.00     0.012 A 
ATOM     83  C   UNL A   1      44.513  26.676  35.016  1.00  0.00     0.148 A 
ATOM     84  C   UNL A   1      46.897  28.163  35.037  1.00  0.00     0.002 A 
ATOM     85  C   UNL A   1      45.541  26.341  35.890  1.00  0.00     0.091 A 
ATOM     86  F   UNL A   1      43.375  25.968  34.959  1.00  0.00    -0.205 F 
ATOM     87  C   UNL A   1      46.736  27.076  35.895  1.00  0.00     0.022 A 
BRANCH  85  88
ATOM     88  S   UNL A   1      45.384  25.014  37.091  1.00  0.00     0.127 S 
ATOM     89  O   UNL A   1      46.636  25.136  37.836  1.00  0.00    -0.237 OA
ATOM     90  O   UNL A   1      44.189  25.409  37.839  1.00  0.00    -0.237 OA
ATOM     91  O   UNL A   1      45.232  23.789  36.318  1.00  0.00    -0.744 OA
ENDBRANCH  85  88
ENDBRANCH  58  81
ENDBRANCH  32  33
ENDBRANCH  25  27
ENDBRANCH  24  25
ENDBRANCH  23  24
ENDBRANCH   1  23
TORSDOF 19
ENDMDL
MODEL 2
REMARK VINA RESULT:     -10.8      5.349      9.074
REMARK SMILES [NH3+][C@@H](CCCC(=O)OCCOC(=O)c1ccc(-c2c3nc(c(-c4cccc(S(=O)(=O)[O-])c4F)c4ccc([nH]4)c(-c4cccc(S(=O)(=O)[O-])c4F)c4nc(c(-c5cccc(S(=O)(=O)[O-])c5F)c5ccc2[nH]5)C=C4)C=C3)cc1)c1cnc2[nH]ccc2c1
REMARK SMILES IDX 9 1 8 2 6 3 7 4 5 5 4 6 3 7 2 8 1 9 77 13 78 14 85 15 79 16
REMARK SMILES IDX 84 17 80 18 83 19 81 20 82 21 10 23 11 24 12 25 13 26 14 27
REMARK SMILES IDX 15 28 76 29 16 30 75 31 17 32 18 33 19 34 69 35 20 36 74 37
REMARK SMILES IDX 68 38 70 39 21 40 73 41 67 42 66 43 22 45 54 46 34 47 53 48
REMARK SMILES IDX 35 49 38 50 52 51 71 52 36 53 37 54 51 56 72 57 39 58 23 59
REMARK SMILES IDX 24 60 32 61 25 62 27 63 33 64 26 65 28 66 29 67 30 68 31 69
REMARK SMILES IDX 55 70 56 71 64 72 57 73 59 74 65 75 58 76 60 77 61 78 62 79
REMARK SMILES IDX 63 80 40 81 41 82 49 83 42 84 44 85 50 86 43 87 45 88 46 89
REMARK SMILES IDX 47 90 48 91
REMARK H PARENT 1 10 1 11 1 12 81 22 70 44 38 55
REMARK Flexibility Score: inf
ROOT
ATOM      1  C   UNL A   1      41.074  19.862  26.114  1.00  0.00     0.274 C 
ENDROOT
BRANCH   1   2
ATOM      2  O   UNL A   1      42.220  19.553  25.312  1.00  0.00    -0.462 OA
BRANCH   2   3
ATOM      3  C   UNL A   1      42.908  18.447  25.699  1.00  0.00     0.305 C 
ATOM      4  O   UNL A   1      42.427  17.355  25.963  1.00  0.00    -0.252 OA
BRANCH   3   5
ATOM      5  C   UNL A   1      44.379  18.757  25.698  1.00  0.00     0.123 C 
BRANCH   5   6
ATOM      6  C   UNL A   1      44.875  19.477  24.443  1.00  0.00     0.018 C 
BRANCH   6   7
ATOM      7  C   UNL A   1      45.446  20.900  24.630  1.00  0.00     0.071 C 
BRANCH   7   8
ATOM      8  C   UNL A   1      44.543  22.147  24.474  1.00  0.00     0.213 C 
BRANCH   8   9
ATOM      9  N   UNL A   1      44.568  22.443  23.018  1.00  0.00    -0.351 N 
ATOM     10  H   UNL A   1      45.311  21.902  22.575  1.00  0.00     0.345 HD
ATOM     11  H   UNL A   1      44.740  23.438  22.876  1.00  0.00     0.345 HD
ATOM     12  H   UNL A   1      43.671  22.190  22.604  1.00  0.00     0.345 HD
ENDBRANCH   8   9
BRANCH   8  13
ATOM     13  C   UNL A   1      44.779  23.457  25.255  1.00  0.00     0.028 A 
ATOM     14  C   UNL A   1      46.044  23.559  25.840  1.00  0.00     0.123 A 
ATOM     15  C   UNL A   1      43.740  24.025  25.982  1.00  0.00     0.023 A 
ATOM     16  N   UNL A   1      46.255  23.542  27.178  1.00  0.00    -0.238 NA
ATOM     17  C   UNL A   1      43.827  23.762  27.350  1.00  0.00     0.019 A 
ATOM     18  C   UNL A   1      45.091  23.501  27.859  1.00  0.00     0.137 A 
ATOM     19  C   UNL A   1      42.894  23.574  28.400  1.00  0.00     0.029 A 
ATOM     20  N   UNL A   1      44.936  23.096  29.154  1.00  0.00    -0.346 N 
ATOM     21  C   UNL A   1      43.600  23.064  29.471  1.00  0.00     0.085 A 
ATOM     22  H   UNL A   1      45.671  22.865  29.768  1.00  0.00     0.167 HD
ENDBRANCH   8  13
ENDBRANCH   7   8
ENDBRANCH   6   7
ENDBRANCH   5   6
ENDBRANCH   3   5
ENDBRANCH   2   3
ENDBRANCH   1   2
BRANCH   1  23
ATOM     23  C   UNL A   1      41.095  21.373  26.324  1.00  0.00     0.275 C 
BRANCH  23  24
ATOM     24  O   UNL A   1      39.874  21.768  26.981  1.00  0.00    -0.458 OA
BRANCH  24  25
ATOM     25  C   UNL A   1      39.158  22.751  26.387  1.00  0.00     0.338 C 
ATOM     26  O   UNL A   1      38.312  22.626  25.519  1.00  0.00    -0.246 OA
BRANCH  25  27
ATOM     27  C   UNL A   1      39.583  24.056  26.921  1.00  0.00     0.060 A 
ATOM     28  C   UNL A   1      39.411  24.390  28.269  1.00  0.00     0.016 A 
ATOM     29  C   UNL A   1      40.115  24.985  26.028  1.00  0.00     0.016 A 
ATOM     30  C   UNL A   1      39.746  25.670  28.720  1.00  0.00     0.010 A 
ATOM     31  C   UNL A   1      40.507  26.238  26.495  1.00  0.00     0.010 A 
ATOM     32  C   UNL A   1      40.313  26.601  27.840  1.00  0.00    -0.014 A 
BRANCH  32  33
ATOM     33  C   UNL A   1      40.725  27.961  28.278  1.00  0.00     0.031 A 
ATOM     34  C   UNL A   1      42.186  28.266  28.471  1.00  0.00     0.074 A 
ATOM     35  C   UNL A   1      39.794  28.871  28.625  1.00  0.00     0.049 A 
ATOM     36  N   UNL A   1      42.748  29.259  29.110  1.00  0.00    -0.248 NA
ATOM     37  C   UNL A   1      43.140  27.310  27.886  1.00  0.00     0.031 C 
ATOM     38  C   UNL A   1      38.347  28.700  28.486  1.00  0.00     0.029 A 
ATOM     39  N   UNL A   1      39.929  30.103  29.221  1.00  0.00    -0.354 N 
ATOM     40  C   UNL A   1      44.115  29.010  29.069  1.00  0.00     0.074 A 
ATOM     41  C   UNL A   1      44.299  27.779  28.329  1.00  0.00     0.031 C 
ATOM     42  C   UNL A   1      37.727  29.768  29.011  1.00  0.00     0.029 A 
ATOM     43  C   UNL A   1      38.726  30.667  29.579  1.00  0.00     0.049 A 
ATOM     44  H   UNL A   1      40.799  30.536  29.376  1.00  0.00     0.167 HD
ATOM     45  C   UNL A   1      45.124  29.743  29.597  1.00  0.00     0.034 A 
ATOM     46  C   UNL A   1      38.454  31.755  30.327  1.00  0.00     0.034 A 
ATOM     47  C   UNL A   1      44.936  30.995  30.282  1.00  0.00     0.049 A 
ATOM     48  C   UNL A   1      39.593  32.558  30.893  1.00  0.00     0.074 A 
ATOM     49  C   UNL A   1      45.898  31.845  30.800  1.00  0.00     0.029 A 
ATOM     50  N   UNL A   1      43.706  31.577  30.541  1.00  0.00    -0.354 N 
ATOM     51  N   UNL A   1      40.882  32.355  30.779  1.00  0.00    -0.248 NA
ATOM     52  C   UNL A   1      39.239  33.750  31.678  1.00  0.00     0.031 C 
ATOM     53  C   UNL A   1      45.246  32.936  31.383  1.00  0.00     0.029 A 
ATOM     54  C   UNL A   1      43.881  32.774  31.214  1.00  0.00     0.049 A 
ATOM     55  H   UNL A   1      42.836  31.196  30.284  1.00  0.00     0.167 HD
ATOM     56  C   UNL A   1      41.495  33.407  31.451  1.00  0.00     0.074 A 
ATOM     57  C   UNL A   1      40.434  34.258  31.950  1.00  0.00     0.031 C 
ATOM     58  C   UNL A   1      42.816  33.639  31.652  1.00  0.00     0.034 A 
BRANCH  45  59
ATOM     59  C   UNL A   1      46.531  29.228  29.433  1.00  0.00     0.023 A 
ATOM     60  C   UNL A   1      47.113  28.450  30.454  1.00  0.00     0.012 A 
ATOM     61  C   UNL A   1      47.251  29.461  28.245  1.00  0.00     0.148 A 
ATOM     62  C   UNL A   1      48.400  27.935  30.306  1.00  0.00     0.002 A 
ATOM     63  C   UNL A   1      48.519  28.910  28.088  1.00  0.00     0.091 A 
ATOM     64  F   UNL A   1      46.691  30.222  27.294  1.00  0.00    -0.205 F 
ATOM     65  C   UNL A   1      49.098  28.156  29.123  1.00  0.00     0.022 A 
BRANCH  63  66
ATOM     66  S   UNL A   1      49.466  29.076  26.571  1.00  0.00     0.127 S 
ATOM     67  O   UNL A   1      49.696  30.519  26.523  1.00  0.00    -0.237 OA
ATOM     68  O   UNL A   1      50.659  28.279  26.862  1.00  0.00    -0.237 OA
ATOM     69  O   UNL A   1      48.623  28.539  25.512  1.00  0.00    -0.744 OA
ENDBRANCH  63  66
ENDBRANCH  45  59
BRANCH  46  70
ATOM     70  C   UNL A   1      37.037  32.156  30.563  1.00  0.00     0.023 A 
ATOM     71  C   UNL A   1      36.462  31.930  31.828  1.00  0.00     0.012 A 
ATOM     72  C   UNL A   1      36.274  32.792  29.565  1.00  0.00     0.148 A 
ATOM     73  C   UNL A   1      35.146  32.311  32.089  1.00  0.00     0.002 A 
ATOM     74  C   UNL A   1      34.982  33.221  29.849  1.00  0.00     0.091 A 
ATOM     75  F   UNL A   1      36.831  32.980  28.360  1.00  0.00    -0.205 F 
ATOM     76  C   UNL A   1      34.411  32.968  31.105  1.00  0.00     0.022 A 
BRANCH  74  77
ATOM     77  S   UNL A   1      34.017  34.195  28.687  1.00  0.00     0.127 S 
ATOM     78  O   UNL A   1      33.722  33.214  27.647  1.00  0.00    -0.237 OA
ATOM     79  O   UNL A   1      32.869  34.593  29.503  1.00  0.00    -0.237 OA
ATOM     80  O   UNL A   1      34.881  35.301  28.294  1.00  0.00    -0.744 OA
ENDBRANCH  74  77
ENDBRANCH  46  70
BRANCH  58  81
ATOM     81  C   UNL A   1      43.197  34.879  32.414  1.00  0.00     0.023 A 
ATOM     82  C   UNL A   1      43.502  36.064  31.714  1.00  0.00     0.012 A 
ATOM     83  C   UNL A   1      43.177  34.894  33.823  1.00  0.00     0.148 A 
ATOM     84  C   UNL A   1      43.806  37.236  32.404  1.00  0.00     0.002 A 
ATOM     85  C   UNL A   1      43.438  36.077  34.504  1.00  0.00     0.091 A 
ATOM     86  F   UNL A   1      42.905  33.751  34.470  1.00  0.00    -0.205 F 
ATOM     87  C   UNL A   1      43.762  37.245  33.797  1.00  0.00     0.022 A 
BRANCH  85  88
ATOM     88  S   UNL A   1      43.314  36.202  36.292  1.00  0.00     0.127 S 
ATOM     89  O   UNL A   1      43.533  37.632  36.507  1.00  0.00    -0.237 OA
ATOM     90  O   UNL A   1      41.944  35.751  36.542  1.00  0.00    -0.237 OA
ATOM     91  O   UNL A   1      44.345  35.323  36.828  1.00  0.00    -0.744 OA
ENDBRANCH  85  88
ENDBRANCH  58  81
ENDBRANCH  32  33
ENDBRANCH  25  27
ENDBRANCH  24  25
ENDBRANCH  23  24
ENDBRANCH   1  23
TORSDOF 19
ENDMDL
MODEL 3
REMARK VINA RESULT:     -10.7      4.470     10.375
REMARK SMILES [NH3+][C@@H](CCCC(=O)OCCOC(=O)c1ccc(-c2c3nc(c(-c4cccc(S(=O)(=O)[O-])c4F)c4ccc([nH]4)c(-c4cccc(S(=O)(=O)[O-])c4F)c4nc(c(-c5cccc(S(=O)(=O)[O-])c5F)c5ccc2[nH]5)C=C4)C=C3)cc1)c1cnc2[nH]ccc2c1
REMARK SMILES IDX 9 1 8 2 6 3 7 4 5 5 4 6 3 7 2 8 1 9 77 13 78 14 85 15 79 16
REMARK SMILES IDX 84 17 80 18 83 19 81 20 82 21 10 23 11 24 12 25 13 26 14 27
REMARK SMILES IDX 15 28 76 29 16 30 75 31 17 32 18 33 19 34 69 35 20 36 74 37
REMARK SMILES IDX 68 38 70 39 21 40 73 41 67 42 66 43 22 45 54 46 34 47 53 48
REMARK SMILES IDX 35 49 38 50 52 51 71 52 36 53 37 54 51 56 72 57 39 58 23 59
REMARK SMILES IDX 24 60 32 61 25 62 27 63 33 64 26 65 28 66 29 67 30 68 31 69
REMARK SMILES IDX 55 70 56 71 64 72 57 73 59 74 65 75 58 76 60 77 61 78 62 79
REMARK SMILES IDX 63 80 40 81 41 82 49 83 42 84 44 85 50 86 43 87 45 88 46 89
REMARK SMILES IDX 47 90 48 91
REMARK H PARENT 1 10 1 11 1 12 81 22 70 44 38 55
REMARK Flexibility Score: inf
ROOT
ATOM      1  C   UNL A   1      33.844  34.246  28.249  1.00  0.00     0.274 C 
ENDROOT
BRANCH   1   2
ATOM      2  O   UNL A   1      32.672  34.842  28.817  1.00  0.00    -0.462 OA
BRANCH   2   3
ATOM      3  C   UNL A   1      32.896  35.612  29.913  1.00  0.00     0.305 C 
ATOM      4  O   UNL A   1      32.145  36.467  30.358  1.00  0.00    -0.252 OA
BRANCH   3   5
ATOM      5  C   UNL A   1      34.201  35.207  30.542  1.00  0.00     0.123 C 
BRANCH   5   6
ATOM      6  C   UNL A   1      34.194  35.202  32.071  1.00  0.00     0.018 C 
BRANCH   6   7
ATOM      7  C   UNL A   1      33.989  33.840  32.768  1.00  0.00     0.071 C 
BRANCH   7   8
ATOM      8  C   UNL A   1      34.937  33.373  33.898  1.00  0.00     0.213 C 
BRANCH   8   9
ATOM      9  N   UNL A   1      34.969  34.514  34.849  1.00  0.00    -0.351 N 
ATOM     10  H   UNL A   1      35.894  34.942  34.835  1.00  0.00     0.345 HD
ATOM     11  H   UNL A   1      34.763  34.180  35.790  1.00  0.00     0.345 HD
ATOM     12  H   UNL A   1      34.270  35.205  34.574  1.00  0.00     0.345 HD
ENDBRANCH   8   9
BRANCH   8  13
ATOM     13  C   UNL A   1      36.381  32.895  33.640  1.00  0.00     0.028 A 
ATOM     14  C   UNL A   1      37.368  33.779  34.084  1.00  0.00     0.123 A 
ATOM     15  C   UNL A   1      36.683  32.205  32.473  1.00  0.00     0.023 A 
ATOM     16  N   UNL A   1      38.189  34.466  33.253  1.00  0.00    -0.238 NA
ATOM     17  C   UNL A   1      37.291  33.009  31.508  1.00  0.00     0.019 A 
ATOM     18  C   UNL A   1      37.985  34.120  31.965  1.00  0.00     0.137 A 
ATOM     19  C   UNL A   1      37.297  33.052  30.091  1.00  0.00     0.029 A 
ATOM     20  N   UNL A   1      38.342  34.859  30.873  1.00  0.00    -0.346 N 
ATOM     21  C   UNL A   1      37.864  34.259  29.733  1.00  0.00     0.085 A 
ATOM     22  H   UNL A   1      38.864  35.694  30.899  1.00  0.00     0.167 HD
ENDBRANCH   8  13
ENDBRANCH   7   8
ENDBRANCH   6   7
ENDBRANCH   5   6
ENDBRANCH   3   5
ENDBRANCH   2   3
ENDBRANCH   1   2
BRANCH   1  23
ATOM     23  C   UNL A   1      33.475  32.802  27.925  1.00  0.00     0.275 C 
BRANCH  23  24
ATOM     24  O   UNL A   1      34.495  31.931  28.456  1.00  0.00    -0.458 OA
BRANCH  24  25
ATOM     25  C   UNL A   1      34.788  30.828  27.728  1.00  0.00     0.338 C 
ATOM     26  O   UNL A   1      34.157  30.374  26.790  1.00  0.00    -0.246 OA
BRANCH  25  27
ATOM     27  C   UNL A   1      36.004  30.195  28.268  1.00  0.00     0.060 A 
ATOM     28  C   UNL A   1      36.015  29.578  29.524  1.00  0.00     0.016 A 
ATOM     29  C   UNL A   1      37.174  30.278  27.514  1.00  0.00     0.016 A 
ATOM     30  C   UNL A   1      37.208  29.066  30.040  1.00  0.00     0.010 A 
ATOM     31  C   UNL A   1      38.347  29.710  28.005  1.00  0.00     0.010 A 
ATOM     32  C   UNL A   1      38.383  29.112  29.278  1.00  0.00    -0.014 A 
BRANCH  32  33
ATOM     33  C   UNL A   1      39.670  28.546  29.763  1.00  0.00     0.031 A 
ATOM     34  C   UNL A   1      40.439  29.269  30.836  1.00  0.00     0.074 A 
ATOM     35  C   UNL A   1      40.206  27.470  29.157  1.00  0.00     0.049 A 
ATOM     36  N   UNL A   1      41.687  29.128  31.198  1.00  0.00    -0.248 NA
ATOM     37  C   UNL A   1      39.709  30.305  31.584  1.00  0.00     0.031 C 
ATOM     38  C   UNL A   1      39.564  26.680  28.106  1.00  0.00     0.029 A 
ATOM     39  N   UNL A   1      41.444  26.889  29.302  1.00  0.00    -0.354 N 
ATOM     40  C   UNL A   1      41.915  30.104  32.161  1.00  0.00     0.074 A 
ATOM     41  C   UNL A   1      40.669  30.822  32.338  1.00  0.00     0.031 C 
ATOM     42  C   UNL A   1      40.421  25.739  27.678  1.00  0.00     0.029 A 
ATOM     43  C   UNL A   1      41.692  25.901  28.376  1.00  0.00     0.049 A 
ATOM     44  H   UNL A   1      42.088  27.153  29.997  1.00  0.00     0.167 HD
ATOM     45  C   UNL A   1      43.057  30.376  32.837  1.00  0.00     0.034 A 
ATOM     46  C   UNL A   1      42.827  25.236  28.083  1.00  0.00     0.034 A 
ATOM     47  C   UNL A   1      44.274  29.621  32.696  1.00  0.00     0.049 A 
ATOM     48  C   UNL A   1      44.079  25.548  28.856  1.00  0.00     0.074 A 
ATOM     49  C   UNL A   1      45.467  29.776  33.381  1.00  0.00     0.029 A 
ATOM     50  N   UNL A   1      44.453  28.568  31.814  1.00  0.00    -0.354 N 
ATOM     51  N   UNL A   1      44.259  26.419  29.818  1.00  0.00    -0.248 NA
ATOM     52  C   UNL A   1      45.281  24.774  28.513  1.00  0.00     0.031 C 
ATOM     53  C   UNL A   1      46.371  28.823  32.902  1.00  0.00     0.029 A 
ATOM     54  C   UNL A   1      45.736  28.063  31.932  1.00  0.00     0.049 A 
ATOM     55  H   UNL A   1      43.768  28.228  31.194  1.00  0.00     0.167 HD
ATOM     56  C   UNL A   1      45.584  26.278  30.218  1.00  0.00     0.074 A 
ATOM     57  C   UNL A   1      46.154  25.222  29.407  1.00  0.00     0.031 C 
ATOM     58  C   UNL A   1      46.271  26.972  31.158  1.00  0.00     0.034 A 
BRANCH  45  59
ATOM     59  C   UNL A   1      43.041  31.521  33.817  1.00  0.00     0.023 A 
ATOM     60  C   UNL A   1      43.465  32.799  33.403  1.00  0.00     0.012 A 
ATOM     61  C   UNL A   1      42.549  31.345  35.125  1.00  0.00     0.148 A 
ATOM     62  C   UNL A   1      43.426  33.879  34.284  1.00  0.00     0.002 A 
ATOM     63  C   UNL A   1      42.475  32.435  35.986  1.00  0.00     0.091 A 
ATOM     64  F   UNL A   1      42.171  30.117  35.509  1.00  0.00    -0.205 F 
ATOM     65  C   UNL A   1      42.923  33.700  35.570  1.00  0.00     0.022 A 
BRANCH  63  66
ATOM     66  S   UNL A   1      41.772  32.321  37.635  1.00  0.00     0.127 S 
ATOM     67  O   UNL A   1      40.377  32.000  37.339  1.00  0.00    -0.237 OA
ATOM     68  O   UNL A   1      42.539  31.222  38.223  1.00  0.00    -0.237 OA
ATOM     69  O   UNL A   1      41.998  33.618  38.257  1.00  0.00    -0.744 OA
ENDBRANCH  63  66
ENDBRANCH  45  59
BRANCH  46  70
ATOM     70  C   UNL A   1      42.821  24.194  27.017  1.00  0.00     0.023 A 
ATOM     71  C   UNL A   1      43.477  24.453  25.798  1.00  0.00     0.012 A 
ATOM     72  C   UNL A   1      42.210  22.939  27.215  1.00  0.00     0.148 A 
ATOM     73  C   UNL A   1      43.507  23.492  24.788  1.00  0.00     0.002 A 
ATOM     74  C   UNL A   1      42.293  21.965  26.226  1.00  0.00     0.091 A 
ATOM     75  F   UNL A   1      41.573  22.717  28.373  1.00  0.00    -0.205 F 
ATOM     76  C   UNL A   1      42.928  22.244  25.006  1.00  0.00     0.022 A 
BRANCH  74  77
ATOM     77  S   UNL A   1      41.696  20.289  26.478  1.00  0.00     0.127 S 
ATOM     78  O   UNL A   1      42.283  19.954  27.772  1.00  0.00    -0.237 OA
ATOM     79  O   UNL A   1      40.245  20.481  26.491  1.00  0.00    -0.237 OA
ATOM     80  O   UNL A   1      42.187  19.525  25.338  1.00  0.00    -0.744 OA
ENDBRANCH  74  77
ENDBRANCH  46  70
BRANCH  58  81
ATOM     81  C   UNL A   1      47.708  26.593  31.392  1.00  0.00     0.023 A 
ATOM     82  C   UNL A   1      48.027  25.630  32.370  1.00  0.00     0.012 A 
ATOM     83  C   UNL A   1      48.734  27.131  30.590  1.00  0.00     0.148 A 
ATOM     84  C   UNL A   1      49.347  25.228  32.564  1.00  0.00     0.002 A 
ATOM     85  C   UNL A   1      50.043  26.693  30.760  1.00  0.00     0.091 A 
ATOM     86  F   UNL A   1      48.413  28.062  29.679  1.00  0.00    -0.205 F 
ATOM     87  C   UNL A   1      50.352  25.750  31.752  1.00  0.00     0.022 A 
BRANCH  85  88
ATOM     88  S   UNL A   1      51.384  27.242  29.698  1.00  0.00     0.127 S 
ATOM     89  O   UNL A   1      51.573  28.621  30.145  1.00  0.00    -0.237 OA
ATOM     90  O   UNL A   1      52.467  26.328  30.065  1.00  0.00    -0.237 OA
ATOM     91  O   UNL A   1      50.902  27.087  28.332  1.00  0.00    -0.744 OA
ENDBRANCH  85  88
ENDBRANCH  58  81
ENDBRANCH  32  33
ENDBRANCH  25  27
ENDBRANCH  24  25
ENDBRANCH  23  24
ENDBRANCH   1  23
TORSDOF 19
ENDMDL
