MODEL 1
REMARK VINA RESULT:     -11.8      0.000      0.000
REMARK SMILES CC(=O)N1[C@@H](c2c(F)cccc2Cl)SC[C@H]1C(=O)OCCOC(=O)c1ccc(-c2c3nc(c(-c4cccc(S(=O)(=O)[O-])c4F)c4ccc([nH]4)c(-c4cccc(S(=O)(=O)[O-])c4F)c4nc(c(-c5cccc(S(=O)(=O)[O-])c5F)c5ccc2[nH]5)C=C4)C=C3)cc1
REMARK SMILES IDX 21 1 20 2 19 3 17 4 18 5 16 6 4 7 5 8 14 9 15 10 2 11 1 12
REMARK SMILES IDX 3 13 6 14 7 15 12 16 8 17 9 18 11 19 13 20 10 21 22 22 23 23
REMARK SMILES IDX 24 24 25 25 26 26 87 27 27 28 86 29 28 30 29 31 30 32 80 33
REMARK SMILES IDX 31 34 85 35 79 36 81 37 32 38 84 39 78 40 77 41 33 43 65 44
REMARK SMILES IDX 45 45 64 46 46 47 49 48 63 49 82 50 47 51 48 52 62 54 83 55
REMARK SMILES IDX 50 56 34 57 35 58 43 59 36 60 38 61 44 62 37 63 39 64 40 65
REMARK SMILES IDX 41 66 42 67 66 68 67 69 75 70 68 71 70 72 76 73 69 74 71 75
REMARK SMILES IDX 72 76 73 77 74 78 51 79 52 80 60 81 53 82 55 83 61 84 54 85
REMARK SMILES IDX 56 86 57 87 58 88 59 89
REMARK H PARENT 81 42 49 53
REMARK Flexibility Score: inf
ROOT
ATOM      1  C   UNL A   1      37.161  21.172  24.504  1.00  0.00     0.275 C 
ENDROOT
BRANCH   1   2
ATOM      2  C   UNL A   1      35.703  21.592  24.363  1.00  0.00     0.274 C 
BRANCH   2   3
ATOM      3  O   UNL A   1      35.594  23.019  24.169  1.00  0.00    -0.461 OA
BRANCH   3   4
ATOM      4  C   UNL A   1      34.926  23.712  25.135  1.00  0.00     0.329 C 
ATOM      5  O   UNL A   1      35.279  23.780  26.308  1.00  0.00    -0.250 OA
BRANCH   4   6
ATOM      6  C   UNL A   1      33.671  24.434  24.613  1.00  0.00     0.206 C 
ATOM      7  N   UNL A   1      32.929  23.817  23.504  1.00  0.00    -0.312 N 
ATOM      8  C   UNL A   1      31.797  22.995  23.929  1.00  0.00     0.179 C 
ATOM      9  S   UNL A   1      31.126  23.882  25.379  1.00  0.00    -0.129 SA
ATOM     10  C   UNL A   1      32.687  24.756  25.741  1.00  0.00     0.109 C 
BRANCH   7  11
ATOM     11  C   UNL A   1      33.195  24.281  22.230  1.00  0.00     0.221 C 
ATOM     12  C   UNL A   1      33.008  25.739  21.922  1.00  0.00     0.114 C 
ATOM     13  O   UNL A   1      33.687  23.552  21.368  1.00  0.00    -0.275 OA
ENDBRANCH   7  11
BRANCH   8  14
ATOM     14  C   UNL A   1      32.138  21.536  24.212  1.00  0.00     0.039 A 
ATOM     15  C   UNL A   1      32.414  21.067  25.511  1.00  0.00     0.130 A 
ATOM     16  C   UNL A   1      32.218  20.565  23.194  1.00  0.00     0.050 A 
ATOM     17  F   UNL A   1      32.324  21.879  26.572  1.00  0.00    -0.207 F 
ATOM     18  C   UNL A   1      32.808  19.757  25.787  1.00  0.00     0.040 A 
ATOM     19  C   UNL A   1      32.631  19.247  23.462  1.00  0.00     0.021 A 
ATOM     20  Cl  UNL A   1      31.741  20.864  21.560  1.00  0.00    -0.084 Cl
ATOM     21  C   UNL A   1      32.938  18.844  24.755  1.00  0.00     0.005 A 
ENDBRANCH   8  14
ENDBRANCH   4   6
ENDBRANCH   3   4
ENDBRANCH   2   3
ENDBRANCH   1   2
BRANCH   1  22
ATOM     22  O   UNL A   1      37.610  21.472  25.830  1.00  0.00    -0.458 OA
BRANCH  22  23
ATOM     23  C   UNL A   1      38.920  21.214  26.058  1.00  0.00     0.338 C 
ATOM     24  O   UNL A   1      39.523  20.178  25.848  1.00  0.00    -0.246 OA
BRANCH  23  25
ATOM     25  C   UNL A   1      39.527  22.436  26.598  1.00  0.00     0.060 A 
ATOM     26  C   UNL A   1      39.056  23.674  26.163  1.00  0.00     0.016 A 
ATOM     27  C   UNL A   1      40.598  22.352  27.482  1.00  0.00     0.016 A 
ATOM     28  C   UNL A   1      39.697  24.843  26.554  1.00  0.00     0.010 A 
ATOM     29  C   UNL A   1      41.203  23.529  27.925  1.00  0.00     0.010 A 
ATOM     30  C   UNL A   1      40.777  24.780  27.439  1.00  0.00    -0.014 A 
BRANCH  30  31
ATOM     31  C   UNL A   1      41.501  26.014  27.829  1.00  0.00     0.031 A 
ATOM     32  C   UNL A   1      40.791  27.063  28.637  1.00  0.00     0.074 A 
ATOM     33  C   UNL A   1      42.772  26.204  27.427  1.00  0.00     0.049 A 
ATOM     34  N   UNL A   1      41.177  28.276  28.937  1.00  0.00    -0.248 NA
ATOM     35  C   UNL A   1      39.462  26.707  29.162  1.00  0.00     0.031 C 
ATOM     36  C   UNL A   1      43.568  25.246  26.658  1.00  0.00     0.029 A 
ATOM     37  N   UNL A   1      43.607  27.280  27.588  1.00  0.00    -0.354 N 
ATOM     38  C   UNL A   1      40.114  28.851  29.622  1.00  0.00     0.074 A 
ATOM     39  C   UNL A   1      39.070  27.853  29.703  1.00  0.00     0.031 C 
ATOM     40  C   UNL A   1      44.773  25.781  26.404  1.00  0.00     0.029 A 
ATOM     41  C   UNL A   1      44.812  27.137  26.941  1.00  0.00     0.049 A 
ATOM     42  H   UNL A   1      43.367  28.078  28.113  1.00  0.00     0.167 HD
ATOM     43  C   UNL A   1      40.023  30.097  30.144  1.00  0.00     0.034 A 
ATOM     44  C   UNL A   1      45.820  28.014  26.772  1.00  0.00     0.034 A 
ATOM     45  C   UNL A   1      41.094  31.058  30.116  1.00  0.00     0.049 A 
ATOM     46  C   UNL A   1      45.693  29.390  27.364  1.00  0.00     0.074 A 
ATOM     47  C   UNL A   1      41.128  32.324  30.672  1.00  0.00     0.029 A 
ATOM     48  N   UNL A   1      42.319  30.856  29.500  1.00  0.00    -0.354 N 
ATOM     49  N   UNL A   1      44.717  29.894  28.081  1.00  0.00    -0.248 NA
ATOM     50  C   UNL A   1      46.814  30.315  27.142  1.00  0.00     0.031 C 
ATOM     51  C   UNL A   1      42.371  32.895  30.378  1.00  0.00     0.029 A 
ATOM     52  C   UNL A   1      43.117  31.977  29.655  1.00  0.00     0.049 A 
ATOM     53  H   UNL A   1      42.584  30.037  29.024  1.00  0.00     0.167 HD
ATOM     54  C   UNL A   1      45.118  31.180  28.421  1.00  0.00     0.074 A 
ATOM     55  C   UNL A   1      46.435  31.371  27.849  1.00  0.00     0.031 C 
ATOM     56  C   UNL A   1      44.449  32.126  29.127  1.00  0.00     0.034 A 
BRANCH  43  57
ATOM     57  C   UNL A   1      38.728  30.487  30.808  1.00  0.00     0.023 A 
ATOM     58  C   UNL A   1      38.532  30.216  32.176  1.00  0.00     0.012 A 
ATOM     59  C   UNL A   1      37.726  31.165  30.086  1.00  0.00     0.148 A 
ATOM     60  C   UNL A   1      37.345  30.585  32.809  1.00  0.00     0.002 A 
ATOM     61  C   UNL A   1      36.563  31.565  30.733  1.00  0.00     0.091 A 
ATOM     62  F   UNL A   1      37.920  31.391  28.779  1.00  0.00    -0.205 F 
ATOM     63  C   UNL A   1      36.366  31.268  32.091  1.00  0.00     0.022 A 
BRANCH  61  64
ATOM     64  S   UNL A   1      35.280  32.517  29.910  1.00  0.00     0.127 S 
ATOM     65  O   UNL A   1      34.862  31.598  28.851  1.00  0.00    -0.237 OA
ATOM     66  O   UNL A   1      34.296  32.703  30.977  1.00  0.00    -0.237 OA
ATOM     67  O   UNL A   1      35.921  33.745  29.459  1.00  0.00    -0.744 OA
ENDBRANCH  61  64
ENDBRANCH  43  57
BRANCH  44  68
ATOM     68  C   UNL A   1      47.049  27.602  26.035  1.00  0.00     0.023 A 
ATOM     69  C   UNL A   1      48.063  26.910  26.725  1.00  0.00     0.012 A 
ATOM     70  C   UNL A   1      47.204  27.853  24.658  1.00  0.00     0.148 A 
ATOM     71  C   UNL A   1      49.218  26.496  26.063  1.00  0.00     0.002 A 
ATOM     72  C   UNL A   1      48.333  27.387  23.992  1.00  0.00     0.091 A 
ATOM     73  F   UNL A   1      46.239  28.530  24.021  1.00  0.00    -0.205 F 
ATOM     74  C   UNL A   1      49.349  26.722  24.696  1.00  0.00     0.022 A 
BRANCH  72  75
ATOM     75  S   UNL A   1      48.521  27.520  22.210  1.00  0.00     0.127 S 
ATOM     76  O   UNL A   1      47.267  28.161  21.823  1.00  0.00    -0.237 OA
ATOM     77  O   UNL A   1      49.709  28.368  22.091  1.00  0.00    -0.237 OA
ATOM     78  O   UNL A   1      48.711  26.157  21.734  1.00  0.00    -0.744 OA
ENDBRANCH  72  75
ENDBRANCH  44  68
BRANCH  56  79
ATOM     79  C   UNL A   1      45.142  33.443  29.352  1.00  0.00     0.023 A 
ATOM     80  C   UNL A   1      45.949  33.620  30.493  1.00  0.00     0.012 A 
ATOM     81  C   UNL A   1      45.053  34.475  28.398  1.00  0.00     0.148 A 
ATOM     82  C   UNL A   1      46.635  34.816  30.696  1.00  0.00     0.002 A 
ATOM     83  C   UNL A   1      45.777  35.648  28.584  1.00  0.00     0.091 A 
ATOM     84  F   UNL A   1      44.263  34.295  27.331  1.00  0.00    -0.205 F 
ATOM     85  C   UNL A   1      46.558  35.824  29.737  1.00  0.00     0.022 A 
BRANCH  83  86
ATOM     86  S   UNL A   1      45.811  36.958  27.355  1.00  0.00     0.127 S 
ATOM     87  O   UNL A   1      46.667  37.951  28.000  1.00  0.00    -0.237 OA
ATOM     88  O   UNL A   1      46.416  36.288  26.202  1.00  0.00    -0.237 OA
ATOM     89  O   UNL A   1      44.423  37.356  27.159  1.00  0.00    -0.744 OA
ENDBRANCH  83  86
ENDBRANCH  56  79
ENDBRANCH  30  31
ENDBRANCH  23  25
ENDBRANCH  22  23
ENDBRANCH   1  22
TORSDOF 16
ENDMDL
MODEL 2
REMARK VINA RESULT:     -11.7      5.620     10.462
REMARK SMILES CC(=O)N1[C@@H](c2c(F)cccc2Cl)SC[C@H]1C(=O)OCCOC(=O)c1ccc(-c2c3nc(c(-c4cccc(S(=O)(=O)[O-])c4F)c4ccc([nH]4)c(-c4cccc(S(=O)(=O)[O-])c4F)c4nc(c(-c5cccc(S(=O)(=O)[O-])c5F)c5ccc2[nH]5)C=C4)C=C3)cc1
REMARK SMILES IDX 21 1 20 2 19 3 17 4 18 5 16 6 4 7 5 8 14 9 15 10 2 11 1 12
REMARK SMILES IDX 3 13 6 14 7 15 12 16 8 17 9 18 11 19 13 20 10 21 22 22 23 23
REMARK SMILES IDX 24 24 25 25 26 26 87 27 27 28 86 29 28 30 29 31 30 32 80 33
REMARK SMILES IDX 31 34 85 35 79 36 81 37 32 38 84 39 78 40 77 41 33 43 65 44
REMARK SMILES IDX 45 45 64 46 46 47 49 48 63 49 82 50 47 51 48 52 62 54 83 55
REMARK SMILES IDX 50 56 34 57 35 58 43 59 36 60 38 61 44 62 37 63 39 64 40 65
REMARK SMILES IDX 41 66 42 67 66 68 67 69 75 70 68 71 70 72 76 73 69 74 71 75
REMARK SMILES IDX 72 76 73 77 74 78 51 79 52 80 60 81 53 82 55 83 61 84 54 85
REMARK SMILES IDX 56 86 57 87 58 88 59 89
REMARK H PARENT 81 42 49 53
REMARK Flexibility Score: inf
ROOT
ATOM      1  C   UNL A   1      31.779  29.916  26.990  1.00  0.00     0.275 C 
ENDROOT
BRANCH   1   2
ATOM      2  C   UNL A   1      31.503  28.690  26.129  1.00  0.00     0.274 C 
BRANCH   2   3
ATOM      3  O   UNL A   1      32.285  27.561  26.574  1.00  0.00    -0.461 OA
BRANCH   3   4
ATOM      4  C   UNL A   1      33.176  27.049  25.679  1.00  0.00     0.329 C 
ATOM      5  O   UNL A   1      34.194  27.626  25.309  1.00  0.00    -0.250 OA
BRANCH   4   6
ATOM      6  C   UNL A   1      32.796  25.647  25.169  1.00  0.00     0.206 C 
ATOM      7  N   UNL A   1      31.377  25.370  24.902  1.00  0.00    -0.312 N 
ATOM      8  C   UNL A   1      30.987  25.550  23.505  1.00  0.00     0.179 C 
ATOM      9  S   UNL A   1      32.444  24.980  22.561  1.00  0.00    -0.129 SA
ATOM     10  C   UNL A   1      33.613  25.246  23.938  1.00  0.00     0.109 C 
BRANCH   7  11
ATOM     11  C   UNL A   1      30.662  24.728  25.895  1.00  0.00     0.221 C 
ATOM     12  C   UNL A   1      31.086  23.358  26.343  1.00  0.00     0.114 C 
ATOM     13  O   UNL A   1      29.751  25.294  26.501  1.00  0.00    -0.275 OA
ENDBRANCH   7  11
BRANCH   8  14
ATOM     14  C   UNL A   1      30.543  26.964  23.144  1.00  0.00     0.039 A 
ATOM     15  C   UNL A   1      31.422  27.905  22.573  1.00  0.00     0.130 A 
ATOM     16  C   UNL A   1      29.233  27.428  23.373  1.00  0.00     0.050 A 
ATOM     17  F   UNL A   1      32.680  27.573  22.261  1.00  0.00    -0.207 F 
ATOM     18  C   UNL A   1      31.064  29.228  22.309  1.00  0.00     0.040 A 
ATOM     19  C   UNL A   1      28.870  28.765  23.126  1.00  0.00     0.021 A 
ATOM     20  Cl  UNL A   1      27.940  26.403  23.888  1.00  0.00    -0.084 Cl
ATOM     21  C   UNL A   1      29.787  29.669  22.605  1.00  0.00     0.005 A 
ENDBRANCH   8  14
ENDBRANCH   4   6
ENDBRANCH   3   4
ENDBRANCH   2   3
ENDBRANCH   1   2
BRANCH   1  22
ATOM     22  O   UNL A   1      32.841  30.675  26.400  1.00  0.00    -0.458 OA
BRANCH  22  23
ATOM     23  C   UNL A   1      33.259  31.734  27.135  1.00  0.00     0.338 C 
ATOM     24  O   UNL A   1      32.686  32.793  27.309  1.00  0.00    -0.246 OA
BRANCH  23  25
ATOM     25  C   UNL A   1      34.552  31.378  27.732  1.00  0.00     0.060 A 
ATOM     26  C   UNL A   1      34.794  30.049  28.079  1.00  0.00     0.016 A 
ATOM     27  C   UNL A   1      35.492  32.367  28.001  1.00  0.00     0.016 A 
ATOM     28  C   UNL A   1      35.952  29.706  28.764  1.00  0.00     0.010 A 
ATOM     29  C   UNL A   1      36.684  32.012  28.634  1.00  0.00     0.010 A 
ATOM     30  C   UNL A   1      36.908  30.686  29.047  1.00  0.00    -0.014 A 
BRANCH  30  31
ATOM     31  C   UNL A   1      38.128  30.343  29.819  1.00  0.00     0.031 A 
ATOM     32  C   UNL A   1      39.139  29.404  29.225  1.00  0.00     0.074 A 
ATOM     33  C   UNL A   1      38.303  30.844  31.056  1.00  0.00     0.049 A 
ATOM     34  N   UNL A   1      40.177  28.845  29.789  1.00  0.00    -0.248 NA
ATOM     35  C   UNL A   1      38.944  29.029  27.814  1.00  0.00     0.031 C 
ATOM     36  C   UNL A   1      37.400  31.782  31.726  1.00  0.00     0.029 A 
ATOM     37  N   UNL A   1      39.290  30.612  31.981  1.00  0.00    -0.354 N 
ATOM     38  C   UNL A   1      40.719  28.000  28.827  1.00  0.00     0.074 A 
ATOM     39  C   UNL A   1      39.900  28.126  27.641  1.00  0.00     0.031 C 
ATOM     40  C   UNL A   1      37.868  32.037  32.958  1.00  0.00     0.029 A 
ATOM     41  C   UNL A   1      39.068  31.240  33.184  1.00  0.00     0.049 A 
ATOM     42  H   UNL A   1      40.078  30.051  31.801  1.00  0.00     0.167 HD
ATOM     43  C   UNL A   1      41.806  27.199  28.926  1.00  0.00     0.034 A 
ATOM     44  C   UNL A   1      39.739  31.153  34.349  1.00  0.00     0.034 A 
ATOM     45  C   UNL A   1      42.651  27.134  30.088  1.00  0.00     0.049 A 
ATOM     46  C   UNL A   1      40.944  30.258  34.428  1.00  0.00     0.074 A 
ATOM     47  C   UNL A   1      43.813  26.405  30.267  1.00  0.00     0.029 A 
ATOM     48  N   UNL A   1      42.425  27.826  31.268  1.00  0.00    -0.354 N 
ATOM     49  N   UNL A   1      41.494  29.527  33.488  1.00  0.00    -0.248 NA
ATOM     50  C   UNL A   1      41.635  30.187  35.725  1.00  0.00     0.031 C 
ATOM     51  C   UNL A   1      44.282  26.645  31.563  1.00  0.00     0.029 A 
ATOM     52  C   UNL A   1      43.421  27.537  32.185  1.00  0.00     0.049 A 
ATOM     53  H   UNL A   1      41.669  28.434  31.430  1.00  0.00     0.167 HD
ATOM     54  C   UNL A   1      42.610  28.936  34.067  1.00  0.00     0.074 A 
ATOM     55  C   UNL A   1      42.670  29.410  35.435  1.00  0.00     0.031 C 
ATOM     56  C   UNL A   1      43.495  28.065  33.523  1.00  0.00     0.034 A 
BRANCH  43  57
ATOM     57  C   UNL A   1      42.156  26.343  27.737  1.00  0.00     0.023 A 
ATOM     58  C   UNL A   1      42.922  26.882  26.685  1.00  0.00     0.012 A 
ATOM     59  C   UNL A   1      41.765  24.990  27.685  1.00  0.00     0.148 A 
ATOM     60  C   UNL A   1      43.268  26.098  25.585  1.00  0.00     0.002 A 
ATOM     61  C   UNL A   1      42.148  24.204  26.605  1.00  0.00     0.091 A 
ATOM     62  F   UNL A   1      41.015  24.502  28.683  1.00  0.00    -0.205 F 
ATOM     63  C   UNL A   1      42.891  24.757  25.550  1.00  0.00     0.022 A 
BRANCH  61  64
ATOM     64  S   UNL A   1      41.774  22.449  26.509  1.00  0.00     0.127 S 
ATOM     65  O   UNL A   1      42.453  22.068  25.272  1.00  0.00    -0.237 OA
ATOM     66  O   UNL A   1      42.396  21.930  27.729  1.00  0.00    -0.237 OA
ATOM     67  O   UNL A   1      40.321  22.352  26.485  1.00  0.00    -0.744 OA
ENDBRANCH  61  64
ENDBRANCH  43  57
BRANCH  44  68
ATOM     68  C   UNL A   1      39.301  31.962  35.522  1.00  0.00     0.023 A 
ATOM     69  C   UNL A   1      39.600  33.338  35.556  1.00  0.00     0.012 A 
ATOM     70  C   UNL A   1      38.562  31.394  36.578  1.00  0.00     0.148 A 
ATOM     71  C   UNL A   1      39.191  34.128  36.630  1.00  0.00     0.002 A 
ATOM     72  C   UNL A   1      38.109  32.198  37.618  1.00  0.00     0.091 A 
ATOM     73  F   UNL A   1      38.303  30.080  36.539  1.00  0.00    -0.205 F 
ATOM     74  C   UNL A   1      38.436  33.563  37.654  1.00  0.00     0.022 A 
BRANCH  72  75
ATOM     75  S   UNL A   1      37.021  31.581  38.908  1.00  0.00     0.127 S 
ATOM     76  O   UNL A   1      37.873  31.677  40.089  1.00  0.00    -0.237 OA
ATOM     77  O   UNL A   1      35.918  32.543  38.863  1.00  0.00    -0.237 OA
ATOM     78  O   UNL A   1      36.654  30.232  38.497  1.00  0.00    -0.744 OA
ENDBRANCH  72  75
ENDBRANCH  44  68
BRANCH  56  79
ATOM     79  C   UNL A   1      44.628  27.591  34.395  1.00  0.00     0.023 A 
ATOM     80  C   UNL A   1      45.824  28.332  34.447  1.00  0.00     0.012 A 
ATOM     81  C   UNL A   1      44.478  26.457  35.216  1.00  0.00     0.148 A 
ATOM     82  C   UNL A   1      46.867  27.935  35.282  1.00  0.00     0.002 A 
ATOM     83  C   UNL A   1      45.504  26.093  36.081  1.00  0.00     0.091 A 
ATOM     84  F   UNL A   1      43.340  25.753  35.136  1.00  0.00    -0.205 F 
ATOM     85  C   UNL A   1      46.703  26.824  36.107  1.00  0.00     0.022 A 
BRANCH  83  86
ATOM     86  S   UNL A   1      45.340  24.734  37.244  1.00  0.00     0.127 S 
ATOM     87  O   UNL A   1      44.153  25.129  38.000  1.00  0.00    -0.237 OA
ATOM     88  O   UNL A   1      45.143  23.586  36.357  1.00  0.00    -0.237 OA
ATOM     89  O   UNL A   1      46.585  24.703  37.999  1.00  0.00    -0.744 OA
ENDBRANCH  83  86
ENDBRANCH  56  79
ENDBRANCH  30  31
ENDBRANCH  23  25
ENDBRANCH  22  23
ENDBRANCH   1  22
TORSDOF 16
ENDMDL
MODEL 3
REMARK VINA RESULT:     -11.7      1.328      1.574
REMARK SMILES CC(=O)N1[C@@H](c2c(F)cccc2Cl)SC[C@H]1C(=O)OCCOC(=O)c1ccc(-c2c3nc(c(-c4cccc(S(=O)(=O)[O-])c4F)c4ccc([nH]4)c(-c4cccc(S(=O)(=O)[O-])c4F)c4nc(c(-c5cccc(S(=O)(=O)[O-])c5F)c5ccc2[nH]5)C=C4)C=C3)cc1
REMARK SMILES IDX 21 1 20 2 19 3 17 4 18 5 16 6 4 7 5 8 14 9 15 10 2 11 1 12
REMARK SMILES IDX 3 13 6 14 7 15 12 16 8 17 9 18 11 19 13 20 10 21 22 22 23 23
REMARK SMILES IDX 24 24 25 25 26 26 87 27 27 28 86 29 28 30 29 31 30 32 80 33
REMARK SMILES IDX 31 34 85 35 79 36 81 37 32 38 84 39 78 40 77 41 33 43 65 44
REMARK SMILES IDX 45 45 64 46 46 47 49 48 63 49 82 50 47 51 48 52 62 54 83 55
REMARK SMILES IDX 50 56 34 57 35 58 43 59 36 60 38 61 44 62 37 63 39 64 40 65
REMARK SMILES IDX 41 66 42 67 66 68 67 69 75 70 68 71 70 72 76 73 69 74 71 75
REMARK SMILES IDX 72 76 73 77 74 78 51 79 52 80 60 81 53 82 55 83 61 84 54 85
REMARK SMILES IDX 56 86 57 87 58 88 59 89
REMARK H PARENT 81 42 49 53
REMARK Flexibility Score: inf
ROOT
ATOM      1  C   UNL A   1      37.021  21.180  24.404  1.00  0.00     0.275 C 
ENDROOT
BRANCH   1   2
ATOM      2  C   UNL A   1      36.500  22.467  23.777  1.00  0.00     0.274 C 
BRANCH   2   3
ATOM      3  O   UNL A   1      35.132  22.713  24.170  1.00  0.00    -0.461 OA
BRANCH   3   4
ATOM      4  C   UNL A   1      34.882  23.906  24.781  1.00  0.00     0.329 C 
ATOM      5  O   UNL A   1      35.630  24.436  25.597  1.00  0.00    -0.250 OA
BRANCH   4   6
ATOM      6  C   UNL A   1      33.558  24.555  24.340  1.00  0.00     0.206 C 
ATOM      7  N   UNL A   1      32.759  23.868  23.315  1.00  0.00    -0.312 N 
ATOM      8  C   UNL A   1      31.702  23.016  23.856  1.00  0.00     0.179 C 
ATOM      9  S   UNL A   1      31.109  23.924  25.327  1.00  0.00    -0.129 SA
ATOM     10  C   UNL A   1      32.654  24.875  25.533  1.00  0.00     0.109 C 
BRANCH   7  11
ATOM     11  C   UNL A   1      32.902  24.298  22.010  1.00  0.00     0.221 C 
ATOM     12  C   UNL A   1      32.388  25.654  21.619  1.00  0.00     0.114 C 
ATOM     13  O   UNL A   1      33.538  23.643  21.182  1.00  0.00    -0.275 OA
ENDBRANCH   7  11
BRANCH   8  14
ATOM     14  C   UNL A   1      32.129  21.583  24.158  1.00  0.00     0.039 A 
ATOM     15  C   UNL A   1      32.431  21.147  25.463  1.00  0.00     0.130 A 
ATOM     16  C   UNL A   1      32.268  20.606  23.152  1.00  0.00     0.050 A 
ATOM     17  F   UNL A   1      32.291  21.966  26.513  1.00  0.00    -0.207 F 
ATOM     18  C   UNL A   1      32.903  19.866  25.755  1.00  0.00     0.040 A 
ATOM     19  C   UNL A   1      32.760  19.319  23.437  1.00  0.00     0.021 A 
ATOM     20  Cl  UNL A   1      31.777  20.855  21.514  1.00  0.00    -0.084 Cl
ATOM     21  C   UNL A   1      33.089  18.950  24.735  1.00  0.00     0.005 A 
ENDBRANCH   8  14
ENDBRANCH   4   6
ENDBRANCH   3   4
ENDBRANCH   2   3
ENDBRANCH   1   2
BRANCH   1  22
ATOM     22  O   UNL A   1      37.450  21.449  25.744  1.00  0.00    -0.458 OA
BRANCH  22  23
ATOM     23  C   UNL A   1      38.751  21.165  25.993  1.00  0.00     0.338 C 
ATOM     24  O   UNL A   1      39.335  20.115  25.796  1.00  0.00    -0.246 OA
BRANCH  23  25
ATOM     25  C   UNL A   1      39.375  22.377  26.535  1.00  0.00     0.060 A 
ATOM     26  C   UNL A   1      38.916  23.623  26.109  1.00  0.00     0.016 A 
ATOM     27  C   UNL A   1      40.450  22.275  27.412  1.00  0.00     0.016 A 
ATOM     28  C   UNL A   1      39.573  24.782  26.503  1.00  0.00     0.010 A 
ATOM     29  C   UNL A   1      41.071  23.443  27.858  1.00  0.00     0.010 A 
ATOM     30  C   UNL A   1      40.658  24.701  27.381  1.00  0.00    -0.014 A 
BRANCH  30  31
ATOM     31  C   UNL A   1      41.398  25.925  27.773  1.00  0.00     0.031 A 
ATOM     32  C   UNL A   1      40.700  26.987  28.574  1.00  0.00     0.074 A 
ATOM     33  C   UNL A   1      42.674  26.093  27.380  1.00  0.00     0.049 A 
ATOM     34  N   UNL A   1      41.102  28.194  28.873  1.00  0.00    -0.248 NA
ATOM     35  C   UNL A   1      39.361  26.653  29.090  1.00  0.00     0.031 C 
ATOM     36  C   UNL A   1      43.461  25.121  26.618  1.00  0.00     0.029 A 
ATOM     37  N   UNL A   1      43.526  27.157  27.544  1.00  0.00    -0.354 N 
ATOM     38  C   UNL A   1      40.044  28.788  29.550  1.00  0.00     0.074 A 
ATOM     39  C   UNL A   1      38.984  27.806  29.626  1.00  0.00     0.031 C 
ATOM     40  C   UNL A   1      44.676  25.636  26.372  1.00  0.00     0.029 A 
ATOM     41  C   UNL A   1      44.733  26.993  26.906  1.00  0.00     0.049 A 
ATOM     42  H   UNL A   1      43.294  27.959  28.066  1.00  0.00     0.167 HD
ATOM     43  C   UNL A   1      39.968  30.036  30.068  1.00  0.00     0.034 A 
ATOM     44  C   UNL A   1      45.756  27.854  26.741  1.00  0.00     0.034 A 
ATOM     45  C   UNL A   1      41.055  30.980  30.046  1.00  0.00     0.049 A 
ATOM     46  C   UNL A   1      45.646  29.233  27.330  1.00  0.00     0.074 A 
ATOM     47  C   UNL A   1      41.105  32.246  30.599  1.00  0.00     0.029 A 
ATOM     48  N   UNL A   1      42.282  30.757  29.439  1.00  0.00    -0.354 N 
ATOM     49  N   UNL A   1      44.673  29.754  28.039  1.00  0.00    -0.248 NA
ATOM     50  C   UNL A   1      46.784  30.139  27.113  1.00  0.00     0.031 C 
ATOM     51  C   UNL A   1      42.359  32.797  30.313  1.00  0.00     0.029 A 
ATOM     52  C   UNL A   1      43.095  31.866  29.596  1.00  0.00     0.049 A 
ATOM     53  H   UNL A   1      42.536  29.933  28.967  1.00  0.00     0.167 HD
ATOM     54  C   UNL A   1      45.092  31.034  28.379  1.00  0.00     0.074 A 
ATOM     55  C   UNL A   1      46.416  31.203  27.815  1.00  0.00     0.031 C 
ATOM     56  C   UNL A   1      44.433  31.992  29.077  1.00  0.00     0.034 A 
BRANCH  43  57
ATOM     57  C   UNL A   1      38.676  30.448  30.722  1.00  0.00     0.023 A 
ATOM     58  C   UNL A   1      38.467  30.188  32.090  1.00  0.00     0.012 A 
ATOM     59  C   UNL A   1      37.687  31.136  29.990  1.00  0.00     0.148 A 
ATOM     60  C   UNL A   1      37.282  30.577  32.714  1.00  0.00     0.002 A 
ATOM     61  C   UNL A   1      36.526  31.556  30.628  1.00  0.00     0.091 A 
ATOM     62  F   UNL A   1      37.892  31.351  28.683  1.00  0.00    -0.205 F 
ATOM     63  C   UNL A   1      36.317  31.270  31.987  1.00  0.00     0.022 A 
BRANCH  61  64
ATOM     64  S   UNL A   1      35.262  32.521  29.791  1.00  0.00     0.127 S 
ATOM     65  O   UNL A   1      34.802  31.583  28.768  1.00  0.00    -0.237 OA
ATOM     66  O   UNL A   1      34.298  32.770  30.865  1.00  0.00    -0.237 OA
ATOM     67  O   UNL A   1      35.934  33.714  29.295  1.00  0.00    -0.744 OA
ENDBRANCH  61  64
ENDBRANCH  43  57
BRANCH  44  68
ATOM     68  C   UNL A   1      46.983  27.420  26.015  1.00  0.00     0.023 A 
ATOM     69  C   UNL A   1      47.111  27.720  24.645  1.00  0.00     0.012 A 
ATOM     70  C   UNL A   1      48.035  26.753  26.673  1.00  0.00     0.148 A 
ATOM     71  C   UNL A   1      48.253  27.343  23.938  1.00  0.00     0.002 A 
ATOM     72  C   UNL A   1      49.194  26.431  25.976  1.00  0.00     0.091 A 
ATOM     73  F   UNL A   1      47.888  26.458  27.972  1.00  0.00    -0.205 F 
ATOM     74  C   UNL A   1      49.299  26.711  24.604  1.00  0.00     0.022 A 
BRANCH  72  75
ATOM     75  S   UNL A   1      50.640  25.734  26.784  1.00  0.00     0.127 S 
ATOM     76  O   UNL A   1      50.127  24.454  27.264  1.00  0.00    -0.237 OA
ATOM     77  O   UNL A   1      51.593  25.641  25.677  1.00  0.00    -0.237 OA
ATOM     78  O   UNL A   1      51.013  26.696  27.813  1.00  0.00    -0.744 OA
ENDBRANCH  72  75
ENDBRANCH  44  68
BRANCH  56  79
ATOM     79  C   UNL A   1      45.146  33.299  29.304  1.00  0.00     0.023 A 
ATOM     80  C   UNL A   1      45.962  33.459  30.441  1.00  0.00     0.012 A 
ATOM     81  C   UNL A   1      45.065  34.336  28.356  1.00  0.00     0.148 A 
ATOM     82  C   UNL A   1      46.665  34.645  30.646  1.00  0.00     0.002 A 
ATOM     83  C   UNL A   1      45.806  35.498  28.543  1.00  0.00     0.091 A 
ATOM     84  F   UNL A   1      44.266  34.172  27.292  1.00  0.00    -0.205 F 
ATOM     85  C   UNL A   1      46.597  35.659  29.692  1.00  0.00     0.022 A 
BRANCH  83  86
ATOM     86  S   UNL A   1      45.850  36.813  27.319  1.00  0.00     0.127 S 
ATOM     87  O   UNL A   1      44.453  37.243  27.292  1.00  0.00    -0.237 OA
ATOM     88  O   UNL A   1      46.772  37.774  27.927  1.00  0.00    -0.237 OA
ATOM     89  O   UNL A   1      46.343  36.201  26.093  1.00  0.00    -0.744 OA
ENDBRANCH  83  86
ENDBRANCH  56  79
ENDBRANCH  30  31
ENDBRANCH  23  25
ENDBRANCH  22  23
ENDBRANCH   1  22
TORSDOF 16
ENDMDL
