MODEL 1
REMARK VINA RESULT:     -11.3      0.000      0.000
REMARK SMILES COc1ccc([C@@H](C)[C@H](NC(=O)OC(C)(C)C)C(=O)OCCOC(=O)c2ccc(-c3c4nc(c(-c5cccc(S(=O)(=O)[O-])c5F)c5ccc([nH]5)c(-c5cccc(S(=O)(=O)[O-])c5F)c5nc(c(-c6cccc(S(=O)(=O)[O-])c6F)c6ccc3[nH]6)C=C5)C=C4)cc2)cc1
REMARK SMILES IDX 21 1 20 2 18 3 19 4 9 5 7 6 8 7 6 8 3 9 4 10 90 11 5 12
REMARK SMILES IDX 89 13 2 14 1 15 10 16 11 17 12 19 13 20 14 21 15 22 16 23
REMARK SMILES IDX 17 24 22 25 23 26 24 27 25 28 26 29 27 30 88 31 28 32 87 33
REMARK SMILES IDX 29 34 30 35 31 36 81 37 32 38 86 39 80 40 82 41 33 42 85 43
REMARK SMILES IDX 79 44 78 45 34 47 66 48 46 49 65 50 47 51 50 52 64 53 83 54
REMARK SMILES IDX 48 55 49 56 63 58 84 59 51 60 35 61 36 62 44 63 37 64 39 65
REMARK SMILES IDX 45 66 38 67 40 68 41 69 42 70 43 71 67 72 68 73 76 74 69 75
REMARK SMILES IDX 71 76 77 77 70 78 72 79 73 80 74 81 75 82 52 83 53 84 61 85
REMARK SMILES IDX 54 86 56 87 62 88 55 89 57 90 58 91 59 92 60 93
REMARK H PARENT 10 18 82 46 50 57
REMARK Flexibility Score: inf
ROOT
ATOM      1  C   UNL A   1      36.830  22.482  23.674  1.00  0.00     0.274 C 
ENDROOT
BRANCH   1   2
ATOM      2  O   UNL A   1      35.431  22.788  23.547  1.00  0.00    -0.461 OA
BRANCH   2   3
ATOM      3  C   UNL A   1      34.928  23.714  24.387  1.00  0.00     0.329 C 
ATOM      4  O   UNL A   1      35.582  24.255  25.275  1.00  0.00    -0.250 OA
BRANCH   3   5
ATOM      5  C   UNL A   1      33.421  23.981  24.208  1.00  0.00     0.202 C 
BRANCH   5   6
ATOM      6  C   UNL A   1      32.492  22.958  24.931  1.00  0.00     0.050 C 
ATOM      7  C   UNL A   1      32.462  23.071  26.459  1.00  0.00     0.015 C 
BRANCH   6   8
ATOM      8  C   UNL A   1      32.695  21.525  24.486  1.00  0.00    -0.042 A 
ATOM      9  C   UNL A   1      32.814  18.802  23.865  1.00  0.00     0.118 A 
ATOM     10  C   UNL A   1      32.268  19.702  22.954  1.00  0.00     0.047 A 
ATOM     11  C   UNL A   1      33.394  19.268  25.043  1.00  0.00     0.047 A 
ATOM     12  C   UNL A   1      32.198  21.061  23.263  1.00  0.00     0.008 A 
ATOM     13  C   UNL A   1      33.331  20.623  25.352  1.00  0.00     0.008 A 
BRANCH   9  14
ATOM     14  O   UNL A   1      32.756  17.476  23.530  1.00  0.00    -0.497 OA
ATOM     15  C   UNL A   1      34.026  16.954  23.138  1.00  0.00     0.278 C 
ENDBRANCH   9  14
ENDBRANCH   6   8
ENDBRANCH   5   6
BRANCH   5  16
ATOM     16  N   UNL A   1      32.895  24.537  22.943  1.00  0.00    -0.307 N 
ATOM     17  C   UNL A   1      32.419  25.764  22.593  1.00  0.00     0.408 C 
ATOM     18  H   UNL A   1      32.889  23.888  22.202  1.00  0.00     0.168 HD
ATOM     19  O   UNL A   1      32.200  26.016  21.410  1.00  0.00    -0.225 OA
BRANCH  17  20
ATOM     20  O   UNL A   1      32.187  26.604  23.622  1.00  0.00    -0.444 OA
BRANCH  20  21
ATOM     21  C   UNL A   1      30.845  26.795  24.145  1.00  0.00     0.106 C 
ATOM     22  C   UNL A   1      30.220  28.092  23.624  1.00  0.00     0.056 C 
ATOM     23  C   UNL A   1      29.933  25.590  23.871  1.00  0.00     0.056 C 
ATOM     24  C   UNL A   1      31.022  26.923  25.668  1.00  0.00     0.056 C 
ENDBRANCH  20  21
ENDBRANCH  17  20
ENDBRANCH   5  16
ENDBRANCH   3   5
ENDBRANCH   2   3
ENDBRANCH   1   2
BRANCH   1  25
ATOM     25  C   UNL A   1      37.012  21.211  24.506  1.00  0.00     0.275 C 
BRANCH  25  26
ATOM     26  O   UNL A   1      37.499  21.522  25.823  1.00  0.00    -0.458 OA
BRANCH  26  27
ATOM     27  C   UNL A   1      38.793  21.209  26.061  1.00  0.00     0.338 C 
ATOM     28  O   UNL A   1      39.360  20.152  25.828  1.00  0.00    -0.246 OA
BRANCH  27  29
ATOM     29  C   UNL A   1      39.495  22.416  26.511  1.00  0.00     0.060 A 
ATOM     30  C   UNL A   1      39.023  23.658  26.080  1.00  0.00     0.016 A 
ATOM     31  C   UNL A   1      40.619  22.326  27.328  1.00  0.00     0.016 A 
ATOM     32  C   UNL A   1      39.657  24.826  26.476  1.00  0.00     0.010 A 
ATOM     33  C   UNL A   1      41.257  23.498  27.729  1.00  0.00     0.010 A 
ATOM     34  C   UNL A   1      40.781  24.751  27.302  1.00  0.00    -0.014 A 
BRANCH  34  35
ATOM     35  C   UNL A   1      41.488  25.989  27.686  1.00  0.00     0.031 A 
ATOM     36  C   UNL A   1      40.758  27.035  28.472  1.00  0.00     0.074 A 
ATOM     37  C   UNL A   1      42.766  26.168  27.306  1.00  0.00     0.049 A 
ATOM     38  N   UNL A   1      41.151  28.232  28.814  1.00  0.00    -0.248 NA
ATOM     39  C   UNL A   1      39.400  26.691  28.924  1.00  0.00     0.031 C 
ATOM     40  C   UNL A   1      43.568  25.200  26.557  1.00  0.00     0.029 A 
ATOM     41  N   UNL A   1      43.604  27.238  27.476  1.00  0.00    -0.354 N 
ATOM     42  C   UNL A   1      40.075  28.803  29.480  1.00  0.00     0.074 A 
ATOM     43  C   UNL A   1      39.011  27.823  29.492  1.00  0.00     0.031 C 
ATOM     44  C   UNL A   1      44.775  25.730  26.308  1.00  0.00     0.029 A 
ATOM     45  C   UNL A   1      44.813  27.089  26.838  1.00  0.00     0.049 A 
ATOM     46  H   UNL A   1      43.365  28.036  28.001  1.00  0.00     0.167 HD
ATOM     47  C   UNL A   1      39.988  30.036  30.032  1.00  0.00     0.034 A 
ATOM     48  C   UNL A   1      45.820  27.968  26.669  1.00  0.00     0.034 A 
ATOM     49  C   UNL A   1      41.065  30.989  30.026  1.00  0.00     0.049 A 
ATOM     50  C   UNL A   1      45.688  29.339  27.274  1.00  0.00     0.074 A 
ATOM     51  C   UNL A   1      41.102  32.250  30.590  1.00  0.00     0.029 A 
ATOM     52  N   UNL A   1      42.293  30.791  29.409  1.00  0.00    -0.354 N 
ATOM     53  N   UNL A   1      44.699  29.840  27.976  1.00  0.00    -0.248 NA
ATOM     54  C   UNL A   1      46.818  30.258  27.086  1.00  0.00     0.031 C 
ATOM     55  C   UNL A   1      42.339  32.828  30.286  1.00  0.00     0.029 A 
ATOM     56  C   UNL A   1      43.090  31.910  29.567  1.00  0.00     0.049 A 
ATOM     57  H   UNL A   1      42.557  29.972  28.929  1.00  0.00     0.167 HD
ATOM     58  C   UNL A   1      45.103  31.117  28.345  1.00  0.00     0.074 A 
ATOM     59  C   UNL A   1      46.434  31.305  27.803  1.00  0.00     0.031 C 
ATOM     60  C   UNL A   1      44.430  32.055  29.059  1.00  0.00     0.034 A 
BRANCH  47  61
ATOM     61  C   UNL A   1      38.688  30.418  30.687  1.00  0.00     0.023 A 
ATOM     62  C   UNL A   1      38.456  30.092  32.039  1.00  0.00     0.012 A 
ATOM     63  C   UNL A   1      37.707  31.132  29.971  1.00  0.00     0.148 A 
ATOM     64  C   UNL A   1      37.254  30.438  32.657  1.00  0.00     0.002 A 
ATOM     65  C   UNL A   1      36.532  31.515  30.606  1.00  0.00     0.091 A 
ATOM     66  F   UNL A   1      37.935  31.410  28.679  1.00  0.00    -0.205 F 
ATOM     67  C   UNL A   1      36.298  31.157  31.945  1.00  0.00     0.022 A 
BRANCH  65  68
ATOM     68  S   UNL A   1      35.273  32.509  29.799  1.00  0.00     0.127 S 
ATOM     69  O   UNL A   1      34.308  32.699  30.881  1.00  0.00    -0.237 OA
ATOM     70  O   UNL A   1      36.021  33.711  29.432  1.00  0.00    -0.237 OA
ATOM     71  O   UNL A   1      34.798  31.719  28.672  1.00  0.00    -0.744 OA
ENDBRANCH  65  68
ENDBRANCH  47  61
BRANCH  48  72
ATOM     72  C   UNL A   1      47.041  27.567  25.914  1.00  0.00     0.023 A 
ATOM     73  C   UNL A   1      48.075  26.883  26.581  1.00  0.00     0.012 A 
ATOM     74  C   UNL A   1      47.170  27.834  24.538  1.00  0.00     0.148 A 
ATOM     75  C   UNL A   1      49.229  26.499  25.897  1.00  0.00     0.002 A 
ATOM     76  C   UNL A   1      48.297  27.399  23.849  1.00  0.00     0.091 A 
ATOM     77  F   UNL A   1      46.180  28.497  23.924  1.00  0.00    -0.205 F 
ATOM     78  C   UNL A   1      49.336  26.747  24.531  1.00  0.00     0.022 A 
BRANCH  76  79
ATOM     79  S   UNL A   1      48.465  27.561  22.068  1.00  0.00     0.127 S 
ATOM     80  O   UNL A   1      47.203  28.201  21.707  1.00  0.00    -0.237 OA
ATOM     81  O   UNL A   1      49.646  28.417  21.955  1.00  0.00    -0.237 OA
ATOM     82  O   UNL A   1      48.652  26.207  21.564  1.00  0.00    -0.744 OA
ENDBRANCH  76  79
ENDBRANCH  48  72
BRANCH  60  83
ATOM     83  C   UNL A   1      45.139  33.355  29.336  1.00  0.00     0.023 A 
ATOM     84  C   UNL A   1      45.956  33.484  30.476  1.00  0.00     0.012 A 
ATOM     85  C   UNL A   1      45.046  34.424  28.424  1.00  0.00     0.148 A 
ATOM     86  C   UNL A   1      46.646  34.672  30.720  1.00  0.00     0.002 A 
ATOM     87  C   UNL A   1      45.779  35.583  28.645  1.00  0.00     0.091 A 
ATOM     88  F   UNL A   1      44.248  34.286  27.355  1.00  0.00    -0.205 F 
ATOM     89  C   UNL A   1      46.568  35.715  29.800  1.00  0.00     0.022 A 
BRANCH  87  90
ATOM     90  S   UNL A   1      45.821  36.936  27.465  1.00  0.00     0.127 S 
ATOM     91  O   UNL A   1      46.691  37.895  28.142  1.00  0.00    -0.237 OA
ATOM     92  O   UNL A   1      46.411  36.302  26.287  1.00  0.00    -0.237 OA
ATOM     93  O   UNL A   1      44.438  37.362  27.293  1.00  0.00    -0.744 OA
ENDBRANCH  87  90
ENDBRANCH  60  83
ENDBRANCH  34  35
ENDBRANCH  27  29
ENDBRANCH  26  27
ENDBRANCH  25  26
ENDBRANCH   1  25
TORSDOF 20
ENDMDL
MODEL 2
REMARK VINA RESULT:     -11.2      1.313      8.035
REMARK SMILES COc1ccc([C@@H](C)[C@H](NC(=O)OC(C)(C)C)C(=O)OCCOC(=O)c2ccc(-c3c4nc(c(-c5cccc(S(=O)(=O)[O-])c5F)c5ccc([nH]5)c(-c5cccc(S(=O)(=O)[O-])c5F)c5nc(c(-c6cccc(S(=O)(=O)[O-])c6F)c6ccc3[nH]6)C=C5)C=C4)cc2)cc1
REMARK SMILES IDX 21 1 20 2 18 3 19 4 9 5 7 6 8 7 6 8 3 9 4 10 90 11 5 12
REMARK SMILES IDX 89 13 2 14 1 15 10 16 11 17 12 19 13 20 14 21 15 22 16 23
REMARK SMILES IDX 17 24 22 25 23 26 24 27 25 28 26 29 27 30 88 31 28 32 87 33
REMARK SMILES IDX 29 34 30 35 31 36 81 37 32 38 86 39 80 40 82 41 33 42 85 43
REMARK SMILES IDX 79 44 78 45 34 47 66 48 46 49 65 50 47 51 50 52 64 53 83 54
REMARK SMILES IDX 48 55 49 56 63 58 84 59 51 60 35 61 36 62 44 63 37 64 39 65
REMARK SMILES IDX 45 66 38 67 40 68 41 69 42 70 43 71 67 72 68 73 76 74 69 75
REMARK SMILES IDX 71 76 77 77 70 78 72 79 73 80 74 81 75 82 52 83 53 84 61 85
REMARK SMILES IDX 54 86 56 87 62 88 55 89 57 90 58 91 59 92 60 93
REMARK H PARENT 10 18 82 46 50 57
REMARK Flexibility Score: inf
ROOT
ATOM      1  C   UNL A   1      37.957  20.143  24.895  1.00  0.00     0.274 C 
ENDROOT
BRANCH   1   2
ATOM      2  O   UNL A   1      37.351  21.159  25.712  1.00  0.00    -0.461 OA
BRANCH   2   3
ATOM      3  C   UNL A   1      36.629  22.106  25.078  1.00  0.00     0.329 C 
ATOM      4  O   UNL A   1      37.128  23.009  24.412  1.00  0.00    -0.250 OA
BRANCH   3   5
ATOM      5  C   UNL A   1      35.112  22.024  25.333  1.00  0.00     0.202 C 
BRANCH   5   6
ATOM      6  C   UNL A   1      34.625  22.800  26.595  1.00  0.00     0.050 C 
ATOM      7  C   UNL A   1      33.935  21.943  27.662  1.00  0.00     0.015 C 
BRANCH   6   8
ATOM      8  C   UNL A   1      33.820  24.042  26.277  1.00  0.00    -0.042 A 
ATOM      9  C   UNL A   1      32.297  26.209  25.382  1.00  0.00     0.118 A 
ATOM     10  C   UNL A   1      31.726  25.252  26.217  1.00  0.00     0.047 A 
ATOM     11  C   UNL A   1      33.653  26.144  25.073  1.00  0.00     0.047 A 
ATOM     12  C   UNL A   1      32.480  24.164  26.659  1.00  0.00     0.008 A 
ATOM     13  C   UNL A   1      34.410  25.064  25.517  1.00  0.00     0.008 A 
BRANCH   9  14
ATOM     14  O   UNL A   1      31.465  27.189  24.912  1.00  0.00    -0.497 OA
ATOM     15  C   UNL A   1      30.195  26.680  24.504  1.00  0.00     0.278 C 
ENDBRANCH   9  14
ENDBRANCH   6   8
ENDBRANCH   5   6
BRANCH   5  16
ATOM     16  N   UNL A   1      34.355  20.797  25.006  1.00  0.00    -0.307 N 
ATOM     17  C   UNL A   1      33.133  20.579  24.446  1.00  0.00     0.408 C 
ATOM     18  H   UNL A   1      34.831  19.968  25.242  1.00  0.00     0.168 HD
ATOM     19  O   UNL A   1      32.806  19.439  24.124  1.00  0.00    -0.225 OA
BRANCH  17  20
ATOM     20  O   UNL A   1      32.352  21.673  24.331  1.00  0.00    -0.444 OA
BRANCH  20  21
ATOM     21  C   UNL A   1      32.204  22.356  23.057  1.00  0.00     0.106 C 
ATOM     22  C   UNL A   1      31.060  23.372  23.095  1.00  0.00     0.056 C 
ATOM     23  C   UNL A   1      33.512  23.010  22.588  1.00  0.00     0.056 C 
ATOM     24  C   UNL A   1      31.835  21.253  22.050  1.00  0.00     0.056 C 
ENDBRANCH  20  21
ENDBRANCH  17  20
ENDBRANCH   5  16
ENDBRANCH   3   5
ENDBRANCH   2   3
ENDBRANCH   1   2
BRANCH   1  25
ATOM     25  C   UNL A   1      39.297  19.720  25.499  1.00  0.00     0.275 C 
BRANCH  25  26
ATOM     26  O   UNL A   1      39.519  20.364  26.766  1.00  0.00    -0.458 OA
BRANCH  26  27
ATOM     27  C   UNL A   1      40.808  20.443  27.167  1.00  0.00     0.338 C 
ATOM     28  O   UNL A   1      41.630  19.541  27.218  1.00  0.00    -0.246 OA
BRANCH  27  29
ATOM     29  C   UNL A   1      41.144  21.853  27.395  1.00  0.00     0.060 A 
ATOM     30  C   UNL A   1      40.672  22.803  26.487  1.00  0.00     0.016 A 
ATOM     31  C   UNL A   1      41.936  22.233  28.476  1.00  0.00     0.016 A 
ATOM     32  C   UNL A   1      40.968  24.147  26.659  1.00  0.00     0.010 A 
ATOM     33  C   UNL A   1      42.234  23.582  28.652  1.00  0.00     0.010 A 
ATOM     34  C   UNL A   1      41.754  24.543  27.743  1.00  0.00    -0.014 A 
BRANCH  34  35
ATOM     35  C   UNL A   1      42.114  25.967  27.902  1.00  0.00     0.031 A 
ATOM     36  C   UNL A   1      43.473  26.430  27.476  1.00  0.00     0.074 A 
ATOM     37  C   UNL A   1      41.225  26.819  28.445  1.00  0.00     0.049 A 
ATOM     38  N   UNL A   1      44.028  27.602  27.626  1.00  0.00    -0.248 NA
ATOM     39  C   UNL A   1      44.324  25.438  26.797  1.00  0.00     0.031 C 
ATOM     40  C   UNL A   1      39.871  26.467  28.873  1.00  0.00     0.029 A 
ATOM     41  N   UNL A   1      41.341  28.148  28.755  1.00  0.00    -0.354 N 
ATOM     42  C   UNL A   1      45.310  27.478  27.107  1.00  0.00     0.074 A 
ATOM     43  C   UNL A   1      45.451  26.116  26.638  1.00  0.00     0.031 C 
ATOM     44  C   UNL A   1      39.288  27.548  29.414  1.00  0.00     0.029 A 
ATOM     45  C   UNL A   1      40.244  28.650  29.414  1.00  0.00     0.049 A 
ATOM     46  H   UNL A   1      42.132  28.690  28.531  1.00  0.00     0.167 HD
ATOM     47  C   UNL A   1      46.279  28.420  27.028  1.00  0.00     0.034 A 
ATOM     48  C   UNL A   1      40.051  29.854  29.985  1.00  0.00     0.034 A 
ATOM     49  C   UNL A   1      46.111  29.774  27.483  1.00  0.00     0.049 A 
ATOM     50  C   UNL A   1      41.152  30.876  29.903  1.00  0.00     0.074 A 
ATOM     51  C   UNL A   1      47.010  30.822  27.415  1.00  0.00     0.029 A 
ATOM     52  N   UNL A   1      44.971  30.264  28.106  1.00  0.00    -0.354 N 
ATOM     53  N   UNL A   1      42.329  30.776  29.333  1.00  0.00    -0.248 NA
ATOM     54  C   UNL A   1      40.891  32.183  30.520  1.00  0.00     0.031 C 
ATOM     55  C   UNL A   1      46.426  31.937  28.027  1.00  0.00     0.029 A 
ATOM     56  C   UNL A   1      45.148  31.595  28.440  1.00  0.00     0.049 A 
ATOM     57  H   UNL A   1      44.157  29.739  28.284  1.00  0.00     0.167 HD
ATOM     58  C   UNL A   1      42.936  32.017  29.489  1.00  0.00     0.074 A 
ATOM     59  C   UNL A   1      41.985  32.857  30.191  1.00  0.00     0.031 C 
ATOM     60  C   UNL A   1      44.168  32.423  29.097  1.00  0.00     0.034 A 
BRANCH  47  61
ATOM     61  C   UNL A   1      47.599  28.017  26.428  1.00  0.00     0.023 A 
ATOM     62  C   UNL A   1      48.688  27.703  27.266  1.00  0.00     0.012 A 
ATOM     63  C   UNL A   1      47.751  27.914  25.031  1.00  0.00     0.148 A 
ATOM     64  C   UNL A   1      49.918  27.329  26.722  1.00  0.00     0.002 A 
ATOM     65  C   UNL A   1      48.964  27.496  24.498  1.00  0.00     0.091 A 
ATOM     66  F   UNL A   1      46.711  28.241  24.250  1.00  0.00    -0.205 F 
ATOM     67  C   UNL A   1      50.052  27.217  25.341  1.00  0.00     0.022 A 
BRANCH  65  68
ATOM     68  S   UNL A   1      49.214  27.245  22.738  1.00  0.00     0.127 S 
ATOM     69  O   UNL A   1      50.655  27.006  22.676  1.00  0.00    -0.237 OA
ATOM     70  O   UNL A   1      48.389  26.065  22.477  1.00  0.00    -0.237 OA
ATOM     71  O   UNL A   1      48.756  28.464  22.088  1.00  0.00    -0.744 OA
ENDBRANCH  65  68
ENDBRANCH  47  61
BRANCH  48  72
ATOM     72  C   UNL A   1      38.759  30.160  30.664  1.00  0.00     0.023 A 
ATOM     73  C   UNL A   1      38.540  29.700  31.977  1.00  0.00     0.012 A 
ATOM     74  C   UNL A   1      37.761  30.923  30.028  1.00  0.00     0.148 A 
ATOM     75  C   UNL A   1      37.339  29.972  32.633  1.00  0.00     0.002 A 
ATOM     76  C   UNL A   1      36.590  31.238  30.707  1.00  0.00     0.091 A 
ATOM     77  F   UNL A   1      37.983  31.340  28.774  1.00  0.00    -0.205 F 
ATOM     78  C   UNL A   1      36.369  30.748  32.003  1.00  0.00     0.022 A 
BRANCH  76  79
ATOM     79  S   UNL A   1      35.342  32.335  30.026  1.00  0.00     0.127 S 
ATOM     80  O   UNL A   1      34.417  32.468  31.149  1.00  0.00    -0.237 OA
ATOM     81  O   UNL A   1      36.126  33.533  29.727  1.00  0.00    -0.237 OA
ATOM     82  O   UNL A   1      34.813  31.652  28.853  1.00  0.00    -0.744 OA
ENDBRANCH  76  79
ENDBRANCH  48  72
BRANCH  60  83
ATOM     83  C   UNL A   1      44.549  33.853  29.376  1.00  0.00     0.023 A 
ATOM     84  C   UNL A   1      45.080  34.211  30.630  1.00  0.00     0.012 A 
ATOM     85  C   UNL A   1      44.444  34.828  28.363  1.00  0.00     0.148 A 
ATOM     86  C   UNL A   1      45.471  35.526  30.883  1.00  0.00     0.002 A 
ATOM     87  C   UNL A   1      44.886  36.122  28.605  1.00  0.00     0.091 A 
ATOM     88  F   UNL A   1      43.918  34.470  27.183  1.00  0.00    -0.205 F 
ATOM     89  C   UNL A   1      45.385  36.477  29.869  1.00  0.00     0.022 A 
BRANCH  87  90
ATOM     90  S   UNL A   1      44.910  37.385  27.329  1.00  0.00     0.127 S 
ATOM     91  O   UNL A   1      43.513  37.401  26.899  1.00  0.00    -0.237 OA
ATOM     92  O   UNL A   1      45.332  38.570  28.075  1.00  0.00    -0.237 OA
ATOM     93  O   UNL A   1      45.865  36.928  26.328  1.00  0.00    -0.744 OA
ENDBRANCH  87  90
ENDBRANCH  60  83
ENDBRANCH  34  35
ENDBRANCH  27  29
ENDBRANCH  26  27
ENDBRANCH  25  26
ENDBRANCH   1  25
TORSDOF 20
ENDMDL
MODEL 3
REMARK VINA RESULT:     -10.8      6.225     10.524
REMARK SMILES COc1ccc([C@@H](C)[C@H](NC(=O)OC(C)(C)C)C(=O)OCCOC(=O)c2ccc(-c3c4nc(c(-c5cccc(S(=O)(=O)[O-])c5F)c5ccc([nH]5)c(-c5cccc(S(=O)(=O)[O-])c5F)c5nc(c(-c6cccc(S(=O)(=O)[O-])c6F)c6ccc3[nH]6)C=C5)C=C4)cc2)cc1
REMARK SMILES IDX 21 1 20 2 18 3 19 4 9 5 7 6 8 7 6 8 3 9 4 10 90 11 5 12
REMARK SMILES IDX 89 13 2 14 1 15 10 16 11 17 12 19 13 20 14 21 15 22 16 23
REMARK SMILES IDX 17 24 22 25 23 26 24 27 25 28 26 29 27 30 88 31 28 32 87 33
REMARK SMILES IDX 29 34 30 35 31 36 81 37 32 38 86 39 80 40 82 41 33 42 85 43
REMARK SMILES IDX 79 44 78 45 34 47 66 48 46 49 65 50 47 51 50 52 64 53 83 54
REMARK SMILES IDX 48 55 49 56 63 58 84 59 51 60 35 61 36 62 44 63 37 64 39 65
REMARK SMILES IDX 45 66 38 67 40 68 41 69 42 70 43 71 67 72 68 73 76 74 69 75
REMARK SMILES IDX 71 76 77 77 70 78 72 79 73 80 74 81 75 82 52 83 53 84 61 85
REMARK SMILES IDX 54 86 56 87 62 88 55 89 57 90 58 91 59 92 60 93
REMARK H PARENT 10 18 82 46 50 57
REMARK Flexibility Score: inf
ROOT
ATOM      1  C   UNL A   1      35.866  33.570  28.296  1.00  0.00     0.274 C 
ENDROOT
BRANCH   1   2
ATOM      2  O   UNL A   1      36.115  34.269  29.528  1.00  0.00    -0.461 OA
BRANCH   2   3
ATOM      3  C   UNL A   1      36.757  33.589  30.500  1.00  0.00     0.329 C 
ATOM      4  O   UNL A   1      37.455  32.601  30.291  1.00  0.00    -0.250 OA
BRANCH   3   5
ATOM      5  C   UNL A   1      36.469  34.097  31.925  1.00  0.00     0.202 C 
BRANCH   5   6
ATOM      6  C   UNL A   1      37.742  34.407  32.772  1.00  0.00     0.050 C 
ATOM      7  C   UNL A   1      39.057  34.439  31.985  1.00  0.00     0.015 C 
BRANCH   6   8
ATOM      8  C   UNL A   1      37.866  33.564  34.023  1.00  0.00    -0.042 A 
ATOM      9  C   UNL A   1      37.761  32.005  36.341  1.00  0.00     0.118 A 
ATOM     10  C   UNL A   1      38.074  31.417  35.118  1.00  0.00     0.047 A 
ATOM     11  C   UNL A   1      37.599  33.386  36.430  1.00  0.00     0.047 A 
ATOM     12  C   UNL A   1      38.119  32.190  33.958  1.00  0.00     0.008 A 
ATOM     13  C   UNL A   1      37.649  34.160  35.274  1.00  0.00     0.008 A 
BRANCH   9  14
ATOM     14  O   UNL A   1      37.638  31.164  37.415  1.00  0.00    -0.497 OA
ATOM     15  C   UNL A   1      37.322  31.860  38.621  1.00  0.00     0.278 C 
ENDBRANCH   9  14
ENDBRANCH   6   8
ENDBRANCH   5   6
BRANCH   5  16
ATOM     16  N   UNL A   1      35.303  33.600  32.685  1.00  0.00    -0.307 N 
ATOM     17  C   UNL A   1      33.959  33.763  32.540  1.00  0.00     0.408 C 
ATOM     18  H   UNL A   1      35.548  33.034  33.453  1.00  0.00     0.168 HD
ATOM     19  O   UNL A   1      33.187  33.090  33.219  1.00  0.00    -0.225 OA
BRANCH  17  20
ATOM     20  O   UNL A   1      33.590  34.713  31.657  1.00  0.00    -0.444 OA
BRANCH  20  21
ATOM     21  C   UNL A   1      33.083  35.999  32.108  1.00  0.00     0.106 C 
ATOM     22  C   UNL A   1      33.223  37.069  31.023  1.00  0.00     0.056 C 
ATOM     23  C   UNL A   1      31.637  35.911  32.619  1.00  0.00     0.056 C 
ATOM     24  C   UNL A   1      33.984  36.392  33.292  1.00  0.00     0.056 C 
ENDBRANCH  20  21
ENDBRANCH  17  20
ENDBRANCH   5  16
ENDBRANCH   3   5
ENDBRANCH   2   3
ENDBRANCH   1   2
BRANCH   1  25
ATOM     25  C   UNL A   1      34.472  32.942  28.326  1.00  0.00     0.275 C 
BRANCH  25  26
ATOM     26  O   UNL A   1      34.515  31.616  28.880  1.00  0.00    -0.458 OA
BRANCH  26  27
ATOM     27  C   UNL A   1      34.826  30.626  28.013  1.00  0.00     0.338 C 
ATOM     28  O   UNL A   1      34.212  30.290  27.011  1.00  0.00    -0.246 OA
BRANCH  27  29
ATOM     29  C   UNL A   1      36.144  30.088  28.366  1.00  0.00     0.060 A 
ATOM     30  C   UNL A   1      36.293  29.455  29.603  1.00  0.00     0.016 A 
ATOM     31  C   UNL A   1      37.227  30.224  27.501  1.00  0.00     0.016 A 
ATOM     32  C   UNL A   1      37.522  28.935  29.981  1.00  0.00     0.010 A 
ATOM     33  C   UNL A   1      38.462  29.701  27.879  1.00  0.00     0.010 A 
ATOM     34  C   UNL A   1      38.615  29.058  29.121  1.00  0.00    -0.014 A 
BRANCH  34  35
ATOM     35  C   UNL A   1      39.936  28.550  29.542  1.00  0.00     0.031 A 
ATOM     36  C   UNL A   1      40.685  29.267  30.622  1.00  0.00     0.074 A 
ATOM     37  C   UNL A   1      40.454  27.466  28.936  1.00  0.00     0.049 A 
ATOM     38  N   UNL A   1      41.896  29.058  31.063  1.00  0.00    -0.248 NA
ATOM     39  C   UNL A   1      39.980  30.375  31.289  1.00  0.00     0.031 C 
ATOM     40  C   UNL A   1      39.792  26.688  27.887  1.00  0.00     0.029 A 
ATOM     41  N   UNL A   1      41.667  26.851  29.095  1.00  0.00    -0.354 N 
ATOM     42  C   UNL A   1      42.119  30.035  32.024  1.00  0.00     0.074 A 
ATOM     43  C   UNL A   1      40.918  30.839  32.101  1.00  0.00     0.031 C 
ATOM     44  C   UNL A   1      40.618  25.712  27.479  1.00  0.00     0.029 A 
ATOM     45  C   UNL A   1      41.880  25.828  28.201  1.00  0.00     0.049 A 
ATOM     46  H   UNL A   1      42.323  27.115  29.781  1.00  0.00     0.167 HD
ATOM     47  C   UNL A   1      43.227  30.238  32.774  1.00  0.00     0.034 A 
ATOM     48  C   UNL A   1      42.986  25.095  27.969  1.00  0.00     0.034 A 
ATOM     49  C   UNL A   1      44.404  29.414  32.695  1.00  0.00     0.049 A 
ATOM     50  C   UNL A   1      44.211  25.357  28.801  1.00  0.00     0.074 A 
ATOM     51  C   UNL A   1      45.567  29.503  33.436  1.00  0.00     0.029 A 
ATOM     52  N   UNL A   1      44.571  28.358  31.810  1.00  0.00    -0.354 N 
ATOM     53  N   UNL A   1      44.383  26.227  29.768  1.00  0.00    -0.248 NA
ATOM     54  C   UNL A   1      45.388  24.519  28.530  1.00  0.00     0.031 C 
ATOM     55  C   UNL A   1      46.452  28.522  32.975  1.00  0.00     0.029 A 
ATOM     56  C   UNL A   1      45.824  27.795  31.975  1.00  0.00     0.049 A 
ATOM     57  H   UNL A   1      43.897  28.055  31.159  1.00  0.00     0.167 HD
ATOM     58  C   UNL A   1      45.671  26.019  30.245  1.00  0.00     0.074 A 
ATOM     59  C   UNL A   1      46.228  24.926  29.472  1.00  0.00     0.031 C 
ATOM     60  C   UNL A   1      46.338  26.677  31.226  1.00  0.00     0.034 A 
BRANCH  47  61
ATOM     61  C   UNL A   1      43.214  31.391  33.741  1.00  0.00     0.023 A 
ATOM     62  C   UNL A   1      43.524  32.691  33.293  1.00  0.00     0.012 A 
ATOM     63  C   UNL A   1      42.861  31.192  35.090  1.00  0.00     0.148 A 
ATOM     64  C   UNL A   1      43.519  33.768  34.180  1.00  0.00     0.002 A 
ATOM     65  C   UNL A   1      42.811  32.276  35.957  1.00  0.00     0.091 A 
ATOM     66  F   UNL A   1      42.594  29.944  35.504  1.00  0.00    -0.205 F 
ATOM     67  C   UNL A   1      43.153  33.563  35.508  1.00  0.00     0.022 A 
BRANCH  65  68
ATOM     68  S   UNL A   1      42.277  32.129  37.665  1.00  0.00     0.127 S 
ATOM     69  O   UNL A   1      40.915  31.621  37.506  1.00  0.00    -0.237 OA
ATOM     70  O   UNL A   1      43.230  31.157  38.202  1.00  0.00    -0.237 OA
ATOM     71  O   UNL A   1      42.382  33.464  38.237  1.00  0.00    -0.744 OA
ENDBRANCH  65  68
ENDBRANCH  47  61
BRANCH  48  72
ATOM     72  C   UNL A   1      42.973  24.037  26.919  1.00  0.00     0.023 A 
ATOM     73  C   UNL A   1      43.645  24.260  25.702  1.00  0.00     0.012 A 
ATOM     74  C   UNL A   1      42.323  22.806  27.129  1.00  0.00     0.148 A 
ATOM     75  C   UNL A   1      43.646  23.287  24.703  1.00  0.00     0.002 A 
ATOM     76  C   UNL A   1      42.376  21.818  26.152  1.00  0.00     0.091 A 
ATOM     77  F   UNL A   1      41.678  22.618  28.289  1.00  0.00    -0.205 F 
ATOM     78  C   UNL A   1      43.022  22.063  24.931  1.00  0.00     0.022 A 
BRANCH  76  79
ATOM     79  S   UNL A   1      41.710  20.170  26.407  1.00  0.00     0.127 S 
ATOM     80  O   UNL A   1      42.230  19.839  27.731  1.00  0.00    -0.237 OA
ATOM     81  O   UNL A   1      40.269  20.416  26.353  1.00  0.00    -0.237 OA
ATOM     82  O   UNL A   1      42.224  19.362  25.308  1.00  0.00    -0.744 OA
ENDBRANCH  76  79
ENDBRANCH  48  72
BRANCH  60  83
ATOM     83  C   UNL A   1      47.730  26.205  31.555  1.00  0.00     0.023 A 
ATOM     84  C   UNL A   1      48.825  26.650  30.790  1.00  0.00     0.012 A 
ATOM     85  C   UNL A   1      47.955  25.375  32.671  1.00  0.00     0.148 A 
ATOM     86  C   UNL A   1      50.122  26.249  31.111  1.00  0.00     0.002 A 
ATOM     87  C   UNL A   1      49.253  25.025  33.018  1.00  0.00     0.091 A 
ATOM     88  F   UNL A   1      46.896  24.949  33.375  1.00  0.00    -0.205 F 
ATOM     89  C   UNL A   1      50.337  25.448  32.231  1.00  0.00     0.022 A 
BRANCH  87  90
ATOM     90  S   UNL A   1      49.634  24.084  34.499  1.00  0.00     0.127 S 
ATOM     91  O   UNL A   1      49.022  22.791  34.196  1.00  0.00    -0.237 OA
ATOM     92  O   UNL A   1      51.096  24.083  34.498  1.00  0.00    -0.237 OA
ATOM     93  O   UNL A   1      49.031  24.815  35.606  1.00  0.00    -0.744 OA
ENDBRANCH  87  90
ENDBRANCH  60  83
ENDBRANCH  34  35
ENDBRANCH  27  29
ENDBRANCH  26  27
ENDBRANCH  25  26
ENDBRANCH   1  25
TORSDOF 20
ENDMDL
