MODEL 1
REMARK VINA RESULT:     -12.3      0.000      0.000
REMARK SMILES O=C1C[C@H](c2cn[nH]c2C(=O)OCCOC(=O)c2ccc(-c3c4nc(c(-c5cccc(S(=O)(=O)[O-])c5F)c5ccc([nH]5)c(-c5cccc(S(=O)(=O)[O-])c5F)c5nc(c(-c6cccc(S(=O)(=O)[O-])c6F)c6ccc3[nH]6)C=C5)C=C4)cc2)c2c(-c3cccs3)n[nH]c2N1
REMARK SMILES IDX 14 1 13 2 12 3 10 4 11 5 9 6 5 7 6 8 7 9 8 10 4 12 1 13 2 14
REMARK SMILES IDX 3 15 91 16 90 17 81 19 89 20 82 21 88 22 83 24 84 25 87 26
REMARK SMILES IDX 85 27 86 28 15 29 16 30 17 31 18 32 19 33 80 34 20 35 79 36
REMARK SMILES IDX 21 37 22 38 23 39 73 40 24 41 78 42 72 43 74 44 25 45 77 46
REMARK SMILES IDX 71 47 70 48 26 50 58 51 38 52 57 53 39 54 42 55 56 56 75 57
REMARK SMILES IDX 40 58 41 59 55 61 76 62 43 63 27 64 28 65 36 66 29 67 31 68
REMARK SMILES IDX 37 69 30 70 32 71 33 72 34 73 35 74 59 75 60 76 68 77 61 78
REMARK SMILES IDX 63 79 69 80 62 81 64 82 65 83 66 84 67 85 44 86 45 87 53 88
REMARK SMILES IDX 46 89 48 90 54 91 47 92 49 93 50 94 51 95 52 96
REMARK H PARENT 8 11 91 18 89 23 74 49 42 60
REMARK Flexibility Score: inf
ROOT
ATOM      1  C   UNL A   1      32.969  31.018  26.969  1.00  0.00     0.275 C 
ENDROOT
BRANCH   1   2
ATOM      2  C   UNL A   1      32.903  30.042  25.814  1.00  0.00     0.275 C 
BRANCH   2   3
ATOM      3  O   UNL A   1      31.919  29.041  26.125  1.00  0.00    -0.457 OA
BRANCH   3   4
ATOM      4  C   UNL A   1      32.330  27.783  26.359  1.00  0.00     0.356 C 
ATOM      5  O   UNL A   1      33.401  27.487  26.880  1.00  0.00    -0.244 OA
BRANCH   4   6
ATOM      6  C   UNL A   1      31.354  26.808  25.940  1.00  0.00     0.147 A 
ATOM      7  C   UNL A   1      30.675  26.439  24.773  1.00  0.00     0.013 A 
ATOM      8  C   UNL A   1      29.898  25.316  25.200  1.00  0.00     0.140 A 
ATOM      9  N   UNL A   1      30.038  25.022  26.486  1.00  0.00    -0.183 NA
ATOM     10  N   UNL A   1      30.876  25.967  26.918  1.00  0.00    -0.271 N 
ATOM     11  H   UNL A   1      31.131  26.057  27.865  1.00  0.00     0.190 HD
BRANCH   7  12
ATOM     12  C   UNL A   1      30.630  26.898  23.323  1.00  0.00     0.069 C 
ATOM     13  O   UNL A   1      29.054  30.279  23.176  1.00  0.00    -0.275 OA
ATOM     14  C   UNL A   1      29.884  29.388  22.998  1.00  0.00     0.226 C 
ATOM     15  C   UNL A   1      29.489  27.915  23.060  1.00  0.00     0.114 C 
ATOM     16  N   UNL A   1      31.147  29.703  22.557  1.00  0.00    -0.311 N 
ATOM     17  C   UNL A   1      32.062  28.705  22.375  1.00  0.00     0.132 A 
ATOM     18  H   UNL A   1      31.390  30.639  22.376  1.00  0.00     0.171 HD
ATOM     19  C   UNL A   1      31.884  27.385  22.696  1.00  0.00     0.031 A 
ATOM     20  N   UNL A   1      33.339  28.841  21.932  1.00  0.00    -0.262 N 
ATOM     21  C   UNL A   1      33.137  26.780  22.415  1.00  0.00     0.108 A 
ATOM     22  N   UNL A   1      34.034  27.683  21.972  1.00  0.00    -0.173 NA
ATOM     23  H   UNL A   1      33.717  29.692  21.616  1.00  0.00     0.192 HD
BRANCH  21  24
ATOM     24  C   UNL A   1      33.515  25.379  22.784  1.00  0.00     0.055 A 
ATOM     25  C   UNL A   1      34.237  25.061  23.917  1.00  0.00     0.022 A 
ATOM     26  S   UNL A   1      32.994  23.986  21.950  1.00  0.00    -0.142 S 
ATOM     27  C   UNL A   1      34.276  23.654  24.149  1.00  0.00     0.012 A 
ATOM     28  C   UNL A   1      33.688  22.951  23.121  1.00  0.00     0.065 A 
ENDBRANCH  21  24
ENDBRANCH   7  12
ENDBRANCH   4   6
ENDBRANCH   3   4
ENDBRANCH   2   3
ENDBRANCH   1   2
BRANCH   1  29
ATOM     29  O   UNL A   1      34.091  30.688  27.773  1.00  0.00    -0.458 OA
BRANCH  29  30
ATOM     30  C   UNL A   1      34.993  31.663  28.011  1.00  0.00     0.338 C 
ATOM     31  O   UNL A   1      34.902  32.847  27.743  1.00  0.00    -0.246 OA
BRANCH  30  32
ATOM     32  C   UNL A   1      36.180  31.017  28.577  1.00  0.00     0.060 A 
ATOM     33  C   UNL A   1      37.197  31.822  29.095  1.00  0.00     0.016 A 
ATOM     34  C   UNL A   1      36.332  29.628  28.429  1.00  0.00     0.016 A 
ATOM     35  C   UNL A   1      38.425  31.243  29.345  1.00  0.00     0.010 A 
ATOM     36  C   UNL A   1      37.554  29.059  28.663  1.00  0.00     0.010 A 
ATOM     37  C   UNL A   1      38.599  29.886  29.060  1.00  0.00    -0.014 A 
BRANCH  37  38
ATOM     38  C   UNL A   1      39.909  29.300  29.206  1.00  0.00     0.031 A 
ATOM     39  C   UNL A   1      40.356  29.129  30.600  1.00  0.00     0.074 A 
ATOM     40  C   UNL A   1      40.567  28.776  28.157  1.00  0.00     0.049 A 
ATOM     41  N   UNL A   1      41.336  29.730  31.186  1.00  0.00    -0.248 NA
ATOM     42  C   UNL A   1      39.547  28.276  31.483  1.00  0.00     0.031 C 
ATOM     43  C   UNL A   1      40.059  28.552  26.800  1.00  0.00     0.029 A 
ATOM     44  N   UNL A   1      41.787  28.183  28.143  1.00  0.00    -0.354 N 
ATOM     45  C   UNL A   1      41.406  29.163  32.452  1.00  0.00     0.074 A 
ATOM     46  C   UNL A   1      40.184  28.425  32.644  1.00  0.00     0.031 C 
ATOM     47  C   UNL A   1      40.861  27.661  26.178  1.00  0.00     0.029 A 
ATOM     48  C   UNL A   1      41.995  27.370  27.040  1.00  0.00     0.049 A 
ATOM     49  H   UNL A   1      42.460  28.317  28.849  1.00  0.00     0.167 HD
ATOM     50  C   UNL A   1      42.568  29.135  33.155  1.00  0.00     0.034 A 
ATOM     51  C   UNL A   1      42.988  26.463  26.898  1.00  0.00     0.034 A 
ATOM     52  C   UNL A   1      43.563  30.007  32.590  1.00  0.00     0.049 A 
ATOM     53  C   UNL A   1      44.055  26.817  27.866  1.00  0.00     0.074 A 
ATOM     54  C   UNL A   1      43.644  31.359  32.325  1.00  0.00     0.029 A 
ATOM     55  N   UNL A   1      44.562  29.411  31.859  1.00  0.00    -0.354 N 
ATOM     56  N   UNL A   1      44.783  27.895  27.784  1.00  0.00    -0.248 NA
ATOM     57  C   UNL A   1      44.070  26.155  29.160  1.00  0.00     0.031 C 
ATOM     58  C   UNL A   1      44.395  31.454  31.117  1.00  0.00     0.029 A 
ATOM     59  C   UNL A   1      44.754  30.161  30.729  1.00  0.00     0.049 A 
ATOM     60  H   UNL A   1      45.052  28.593  32.104  1.00  0.00     0.167 HD
ATOM     61  C   UNL A   1      44.981  28.286  29.103  1.00  0.00     0.074 A 
ATOM     62  C   UNL A   1      44.649  27.108  29.896  1.00  0.00     0.031 C 
ATOM     63  C   UNL A   1      45.109  29.606  29.438  1.00  0.00     0.034 A 
BRANCH  50  64
ATOM     64  C   UNL A   1      42.930  28.068  34.151  1.00  0.00     0.023 A 
ATOM     65  C   UNL A   1      43.052  28.450  35.503  1.00  0.00     0.012 A 
ATOM     66  C   UNL A   1      43.395  26.781  33.798  1.00  0.00     0.148 A 
ATOM     67  C   UNL A   1      43.627  27.599  36.452  1.00  0.00     0.002 A 
ATOM     68  C   UNL A   1      43.875  25.905  34.761  1.00  0.00     0.091 A 
ATOM     69  F   UNL A   1      43.508  26.441  32.509  1.00  0.00    -0.205 F 
ATOM     70  C   UNL A   1      44.021  26.318  36.086  1.00  0.00     0.022 A 
BRANCH  68  71
ATOM     71  S   UNL A   1      44.313  24.216  34.336  1.00  0.00     0.127 S 
ATOM     72  O   UNL A   1      43.014  23.653  33.984  1.00  0.00    -0.237 OA
ATOM     73  O   UNL A   1      45.231  24.412  33.212  1.00  0.00    -0.237 OA
ATOM     74  O   UNL A   1      44.951  23.682  35.534  1.00  0.00    -0.744 OA
ENDBRANCH  68  71
ENDBRANCH  50  64
BRANCH  51  75
ATOM     75  C   UNL A   1      42.988  25.191  26.146  1.00  0.00     0.023 A 
ATOM     76  C   UNL A   1      43.975  24.968  25.167  1.00  0.00     0.012 A 
ATOM     77  C   UNL A   1      42.187  24.098  26.550  1.00  0.00     0.148 A 
ATOM     78  C   UNL A   1      44.180  23.692  24.631  1.00  0.00     0.002 A 
ATOM     79  C   UNL A   1      42.386  22.834  26.004  1.00  0.00     0.091 A 
ATOM     80  F   UNL A   1      41.296  24.277  27.535  1.00  0.00    -0.205 F 
ATOM     81  C   UNL A   1      43.391  22.624  25.053  1.00  0.00     0.022 A 
BRANCH  79  82
ATOM     82  S   UNL A   1      41.408  21.411  26.508  1.00  0.00     0.127 S 
ATOM     83  O   UNL A   1      41.678  21.348  27.945  1.00  0.00    -0.237 OA
ATOM     84  O   UNL A   1      40.055  21.833  26.157  1.00  0.00    -0.237 OA
ATOM     85  O   UNL A   1      41.937  20.281  25.754  1.00  0.00    -0.744 OA
ENDBRANCH  79  82
ENDBRANCH  51  75
BRANCH  63  86
ATOM     86  C   UNL A   1      45.335  30.605  28.326  1.00  0.00     0.023 A 
ATOM     87  C   UNL A   1      44.263  31.243  27.668  1.00  0.00     0.012 A 
ATOM     88  C   UNL A   1      46.646  31.040  28.061  1.00  0.00     0.148 A 
ATOM     89  C   UNL A   1      44.493  32.268  26.746  1.00  0.00     0.002 A 
ATOM     90  C   UNL A   1      46.867  32.093  27.180  1.00  0.00     0.091 A 
ATOM     91  F   UNL A   1      47.659  30.434  28.699  1.00  0.00    -0.205 F 
ATOM     92  C   UNL A   1      45.793  32.701  26.512  1.00  0.00     0.022 A 
BRANCH  90  93
ATOM     93  S   UNL A   1      48.507  32.785  26.941  1.00  0.00     0.127 S 
ATOM     94  O   UNL A   1      48.837  33.262  28.282  1.00  0.00    -0.237 OA
ATOM     95  O   UNL A   1      49.282  31.624  26.499  1.00  0.00    -0.237 OA
ATOM     96  O   UNL A   1      48.356  33.816  25.922  1.00  0.00    -0.744 OA
ENDBRANCH  90  93
ENDBRANCH  63  86
ENDBRANCH  37  38
ENDBRANCH  30  32
ENDBRANCH  29  30
ENDBRANCH   1  29
TORSDOF 16
ENDMDL
MODEL 2
REMARK VINA RESULT:     -12.2      1.817      2.314
REMARK SMILES O=C1C[C@H](c2cn[nH]c2C(=O)OCCOC(=O)c2ccc(-c3c4nc(c(-c5cccc(S(=O)(=O)[O-])c5F)c5ccc([nH]5)c(-c5cccc(S(=O)(=O)[O-])c5F)c5nc(c(-c6cccc(S(=O)(=O)[O-])c6F)c6ccc3[nH]6)C=C5)C=C4)cc2)c2c(-c3cccs3)n[nH]c2N1
REMARK SMILES IDX 14 1 13 2 12 3 10 4 11 5 9 6 5 7 6 8 7 9 8 10 4 12 1 13 2 14
REMARK SMILES IDX 3 15 91 16 90 17 81 19 89 20 82 21 88 22 83 24 84 25 87 26
REMARK SMILES IDX 85 27 86 28 15 29 16 30 17 31 18 32 19 33 80 34 20 35 79 36
REMARK SMILES IDX 21 37 22 38 23 39 73 40 24 41 78 42 72 43 74 44 25 45 77 46
REMARK SMILES IDX 71 47 70 48 26 50 58 51 38 52 57 53 39 54 42 55 56 56 75 57
REMARK SMILES IDX 40 58 41 59 55 61 76 62 43 63 27 64 28 65 36 66 29 67 31 68
REMARK SMILES IDX 37 69 30 70 32 71 33 72 34 73 35 74 59 75 60 76 68 77 61 78
REMARK SMILES IDX 63 79 69 80 62 81 64 82 65 83 66 84 67 85 44 86 45 87 53 88
REMARK SMILES IDX 46 89 48 90 54 91 47 92 49 93 50 94 51 95 52 96
REMARK H PARENT 8 11 91 18 89 23 74 49 42 60
REMARK Flexibility Score: inf
ROOT
ATOM      1  C   UNL A   1      32.490  30.357  26.548  1.00  0.00     0.275 C 
ENDROOT
BRANCH   1   2
ATOM      2  C   UNL A   1      32.970  29.483  25.409  1.00  0.00     0.275 C 
BRANCH   2   3
ATOM      3  O   UNL A   1      32.208  28.263  25.424  1.00  0.00    -0.457 OA
BRANCH   3   4
ATOM      4  C   UNL A   1      32.808  27.133  25.836  1.00  0.00     0.356 C 
ATOM      5  O   UNL A   1      33.998  27.041  26.120  1.00  0.00    -0.244 OA
BRANCH   4   6
ATOM      6  C   UNL A   1      31.884  26.030  25.922  1.00  0.00     0.147 A 
ATOM      7  C   UNL A   1      30.977  25.355  25.097  1.00  0.00     0.013 A 
ATOM      8  C   UNL A   1      30.479  24.321  25.951  1.00  0.00     0.140 A 
ATOM      9  N   UNL A   1      30.981  24.349  27.179  1.00  0.00    -0.183 NA
ATOM     10  N   UNL A   1      31.780  25.418  27.149  1.00  0.00    -0.271 N 
ATOM     11  H   UNL A   1      32.258  25.745  27.946  1.00  0.00     0.190 HD
BRANCH   7  12
ATOM     12  C   UNL A   1      30.504  25.453  23.653  1.00  0.00     0.069 C 
ATOM     13  O   UNL A   1      29.502  28.981  22.950  1.00  0.00    -0.275 OA
ATOM     14  C   UNL A   1      30.075  27.899  22.819  1.00  0.00     0.226 C 
ATOM     15  C   UNL A   1      29.509  26.623  23.437  1.00  0.00     0.114 C 
ATOM     16  N   UNL A   1      31.140  27.786  21.958  1.00  0.00    -0.311 N 
ATOM     17  C   UNL A   1      31.775  26.583  21.831  1.00  0.00     0.132 A 
ATOM     18  H   UNL A   1      31.443  28.565  21.439  1.00  0.00     0.171 HD
ATOM     19  C   UNL A   1      31.522  25.460  22.574  1.00  0.00     0.031 A 
ATOM     20  N   UNL A   1      32.825  26.298  21.018  1.00  0.00    -0.262 N 
ATOM     21  C   UNL A   1      32.495  24.522  22.139  1.00  0.00     0.108 A 
ATOM     22  N   UNL A   1      33.309  25.050  21.204  1.00  0.00    -0.173 NA
ATOM     23  H   UNL A   1      33.195  26.932  20.363  1.00  0.00     0.192 HD
BRANCH  21  24
ATOM     24  C   UNL A   1      32.761  23.200  22.791  1.00  0.00     0.055 A 
ATOM     25  C   UNL A   1      31.891  22.131  22.723  1.00  0.00     0.022 A 
ATOM     26  S   UNL A   1      34.217  22.786  23.576  1.00  0.00    -0.142 S 
ATOM     27  C   UNL A   1      32.472  20.935  23.237  1.00  0.00     0.012 A 
ATOM     28  C   UNL A   1      33.714  21.166  23.786  1.00  0.00     0.065 A 
ENDBRANCH  21  24
ENDBRANCH   7  12
ENDBRANCH   4   6
ENDBRANCH   3   4
ENDBRANCH   2   3
ENDBRANCH   1   2
BRANCH   1  29
ATOM     29  O   UNL A   1      33.449  30.301  27.591  1.00  0.00    -0.458 OA
BRANCH  29  30
ATOM     30  C   UNL A   1      34.135  31.430  27.866  1.00  0.00     0.338 C 
ATOM     31  O   UNL A   1      33.699  32.561  27.974  1.00  0.00    -0.246 OA
BRANCH  30  32
ATOM     32  C   UNL A   1      35.554  31.066  27.915  1.00  0.00     0.060 A 
ATOM     33  C   UNL A   1      35.910  29.732  27.701  1.00  0.00     0.016 A 
ATOM     34  C   UNL A   1      36.486  32.027  28.337  1.00  0.00     0.016 A 
ATOM     35  C   UNL A   1      37.187  29.335  28.042  1.00  0.00     0.010 A 
ATOM     36  C   UNL A   1      37.747  31.629  28.688  1.00  0.00     0.010 A 
ATOM     37  C   UNL A   1      38.060  30.278  28.592  1.00  0.00    -0.014 A 
BRANCH  37  38
ATOM     38  C   UNL A   1      39.354  29.847  29.060  1.00  0.00     0.031 A 
ATOM     39  C   UNL A   1      39.632  30.149  30.476  1.00  0.00     0.074 A 
ATOM     40  C   UNL A   1      40.147  29.060  28.311  1.00  0.00     0.049 A 
ATOM     41  N   UNL A   1      40.519  30.961  30.943  1.00  0.00    -0.248 NA
ATOM     42  C   UNL A   1      38.739  29.570  31.491  1.00  0.00     0.031 C 
ATOM     43  C   UNL A   1      39.814  28.391  27.050  1.00  0.00     0.029 A 
ATOM     44  N   UNL A   1      41.373  28.566  28.620  1.00  0.00    -0.354 N 
ATOM     45  C   UNL A   1      40.446  30.825  32.323  1.00  0.00     0.074 A 
ATOM     46  C   UNL A   1      39.226  30.113  32.606  1.00  0.00     0.031 C 
ATOM     47  C   UNL A   1      40.705  27.399  26.835  1.00  0.00     0.029 A 
ATOM     48  C   UNL A   1      41.731  27.461  27.863  1.00  0.00     0.049 A 
ATOM     49  H   UNL A   1      41.951  28.954  29.315  1.00  0.00     0.167 HD
ATOM     50  C   UNL A   1      41.514  31.088  33.121  1.00  0.00     0.034 A 
ATOM     51  C   UNL A   1      42.753  26.616  28.127  1.00  0.00     0.034 A 
ATOM     52  C   UNL A   1      42.552  31.796  32.419  1.00  0.00     0.049 A 
ATOM     53  C   UNL A   1      43.686  27.318  29.042  1.00  0.00     0.074 A 
ATOM     54  C   UNL A   1      42.635  32.998  31.747  1.00  0.00     0.029 A 
ATOM     55  N   UNL A   1      43.645  31.061  32.030  1.00  0.00    -0.354 N 
ATOM     56  N   UNL A   1      44.395  28.358  28.700  1.00  0.00    -0.248 NA
ATOM     57  C   UNL A   1      43.557  27.099  30.473  1.00  0.00     0.031 C 
ATOM     58  C   UNL A   1      43.526  32.753  30.661  1.00  0.00     0.029 A 
ATOM     59  C   UNL A   1      43.957  31.428  30.748  1.00  0.00     0.049 A 
ATOM     60  H   UNL A   1      44.119  30.391  32.575  1.00  0.00     0.167 HD
ATOM     61  C   UNL A   1      44.422  29.154  29.839  1.00  0.00     0.074 A 
ATOM     62  C   UNL A   1      44.021  28.267  30.925  1.00  0.00     0.031 C 
ATOM     63  C   UNL A   1      44.480  30.517  29.748  1.00  0.00     0.034 A 
BRANCH  50  64
ATOM     64  C   UNL A   1      41.774  30.412  34.438  1.00  0.00     0.023 A 
ATOM     65  C   UNL A   1      42.168  31.222  35.522  1.00  0.00     0.012 A 
ATOM     66  C   UNL A   1      41.893  29.012  34.599  1.00  0.00     0.148 A 
ATOM     67  C   UNL A   1      42.675  30.666  36.701  1.00  0.00     0.002 A 
ATOM     68  C   UNL A   1      42.305  28.463  35.805  1.00  0.00     0.091 A 
ATOM     69  F   UNL A   1      41.744  28.202  33.544  1.00  0.00    -0.205 F 
ATOM     70  C   UNL A   1      42.725  29.286  36.852  1.00  0.00     0.022 A 
BRANCH  68  71
ATOM     71  S   UNL A   1      42.300  26.686  36.060  1.00  0.00     0.127 S 
ATOM     72  O   UNL A   1      43.523  26.285  35.373  1.00  0.00    -0.237 OA
ATOM     73  O   UNL A   1      42.347  26.587  37.520  1.00  0.00    -0.237 OA
ATOM     74  O   UNL A   1      41.045  26.227  35.477  1.00  0.00    -0.744 OA
ENDBRANCH  68  71
ENDBRANCH  50  64
BRANCH  51  75
ATOM     75  C   UNL A   1      42.872  25.174  27.825  1.00  0.00     0.023 A 
ATOM     76  C   UNL A   1      41.884  24.287  28.293  1.00  0.00     0.012 A 
ATOM     77  C   UNL A   1      43.805  24.697  26.877  1.00  0.00     0.148 A 
ATOM     78  C   UNL A   1      41.808  22.977  27.809  1.00  0.00     0.002 A 
ATOM     79  C   UNL A   1      43.734  23.389  26.408  1.00  0.00     0.091 A 
ATOM     80  F   UNL A   1      44.703  25.550  26.365  1.00  0.00    -0.205 F 
ATOM     81  C   UNL A   1      42.727  22.529  26.863  1.00  0.00     0.022 A 
BRANCH  79  82
ATOM     82  S   UNL A   1      44.884  22.748  25.183  1.00  0.00     0.127 S 
ATOM     83  O   UNL A   1      44.971  23.860  24.235  1.00  0.00    -0.237 OA
ATOM     84  O   UNL A   1      46.086  22.529  25.981  1.00  0.00    -0.237 OA
ATOM     85  O   UNL A   1      44.254  21.551  24.638  1.00  0.00    -0.744 OA
ENDBRANCH  79  82
ENDBRANCH  51  75
BRANCH  63  86
ATOM     86  C   UNL A   1      44.818  31.128  28.407  1.00  0.00     0.023 A 
ATOM     87  C   UNL A   1      43.828  31.397  27.439  1.00  0.00     0.012 A 
ATOM     88  C   UNL A   1      46.124  31.601  28.188  1.00  0.00     0.148 A 
ATOM     89  C   UNL A   1      44.138  32.093  26.268  1.00  0.00     0.002 A 
ATOM     90  C   UNL A   1      46.418  32.336  27.044  1.00  0.00     0.091 A 
ATOM     91  F   UNL A   1      47.057  31.350  29.118  1.00  0.00    -0.205 F 
ATOM     92  C   UNL A   1      45.430  32.574  26.076  1.00  0.00     0.022 A 
BRANCH  90  93
ATOM     93  S   UNL A   1      48.027  33.096  26.807  1.00  0.00     0.127 S 
ATOM     94  O   UNL A   1      48.878  31.938  26.545  1.00  0.00    -0.237 OA
ATOM     95  O   UNL A   1      47.803  33.963  25.648  1.00  0.00    -0.237 OA
ATOM     96  O   UNL A   1      48.307  33.820  28.040  1.00  0.00    -0.744 OA
ENDBRANCH  90  93
ENDBRANCH  63  86
ENDBRANCH  37  38
ENDBRANCH  30  32
ENDBRANCH  29  30
ENDBRANCH   1  29
TORSDOF 16
ENDMDL
MODEL 3
REMARK VINA RESULT:     -12.2      1.638      3.236
REMARK SMILES O=C1C[C@H](c2cn[nH]c2C(=O)OCCOC(=O)c2ccc(-c3c4nc(c(-c5cccc(S(=O)(=O)[O-])c5F)c5ccc([nH]5)c(-c5cccc(S(=O)(=O)[O-])c5F)c5nc(c(-c6cccc(S(=O)(=O)[O-])c6F)c6ccc3[nH]6)C=C5)C=C4)cc2)c2c(-c3cccs3)n[nH]c2N1
REMARK SMILES IDX 14 1 13 2 12 3 10 4 11 5 9 6 5 7 6 8 7 9 8 10 4 12 1 13 2 14
REMARK SMILES IDX 3 15 91 16 90 17 81 19 89 20 82 21 88 22 83 24 84 25 87 26
REMARK SMILES IDX 85 27 86 28 15 29 16 30 17 31 18 32 19 33 80 34 20 35 79 36
REMARK SMILES IDX 21 37 22 38 23 39 73 40 24 41 78 42 72 43 74 44 25 45 77 46
REMARK SMILES IDX 71 47 70 48 26 50 58 51 38 52 57 53 39 54 42 55 56 56 75 57
REMARK SMILES IDX 40 58 41 59 55 61 76 62 43 63 27 64 28 65 36 66 29 67 31 68
REMARK SMILES IDX 37 69 30 70 32 71 33 72 34 73 35 74 59 75 60 76 68 77 61 78
REMARK SMILES IDX 63 79 69 80 62 81 64 82 65 83 66 84 67 85 44 86 45 87 53 88
REMARK SMILES IDX 46 89 48 90 54 91 47 92 49 93 50 94 51 95 52 96
REMARK H PARENT 8 11 91 18 89 23 74 49 42 60
REMARK Flexibility Score: inf
ROOT
ATOM      1  C   UNL A   1      33.939  31.368  27.385  1.00  0.00     0.275 C 
ENDROOT
BRANCH   1   2
ATOM      2  C   UNL A   1      33.012  30.233  27.006  1.00  0.00     0.275 C 
BRANCH   2   3
ATOM      3  O   UNL A   1      33.393  29.756  25.704  1.00  0.00    -0.457 OA
BRANCH   3   4
ATOM      4  C   UNL A   1      33.842  28.494  25.584  1.00  0.00     0.356 C 
ATOM      5  O   UNL A   1      34.212  27.796  26.524  1.00  0.00    -0.244 OA
BRANCH   4   6
ATOM      6  C   UNL A   1      33.825  28.041  24.216  1.00  0.00     0.147 A 
ATOM      7  C   UNL A   1      33.455  26.900  23.494  1.00  0.00     0.013 A 
ATOM      8  C   UNL A   1      33.717  27.282  22.141  1.00  0.00     0.140 A 
ATOM      9  N   UNL A   1      34.221  28.503  22.014  1.00  0.00    -0.183 NA
ATOM     10  N   UNL A   1      34.326  28.915  23.280  1.00  0.00    -0.271 N 
ATOM     11  H   UNL A   1      34.732  29.778  23.525  1.00  0.00     0.190 HD
BRANCH   7  12
ATOM     12  C   UNL A   1      32.868  25.530  23.806  1.00  0.00     0.069 C 
ATOM     13  O   UNL A   1      35.440  23.492  25.585  1.00  0.00    -0.275 OA
ATOM     14  C   UNL A   1      34.362  24.040  25.357  1.00  0.00     0.226 C 
ATOM     15  C   UNL A   1      33.959  24.437  23.940  1.00  0.00     0.114 C 
ATOM     16  N   UNL A   1      33.419  24.140  26.352  1.00  0.00    -0.311 N 
ATOM     17  C   UNL A   1      32.231  24.761  26.089  1.00  0.00     0.132 A 
ATOM     18  H   UNL A   1      33.599  23.768  27.245  1.00  0.00     0.171 HD
ATOM     19  C   UNL A   1      31.905  25.414  24.929  1.00  0.00     0.031 A 
ATOM     20  N   UNL A   1      31.192  24.929  26.948  1.00  0.00    -0.262 N 
ATOM     21  C   UNL A   1      30.623  25.967  25.182  1.00  0.00     0.108 A 
ATOM     22  N   UNL A   1      30.202  25.689  26.432  1.00  0.00    -0.173 NA
ATOM     23  H   UNL A   1      31.163  24.539  27.851  1.00  0.00     0.192 HD
BRANCH  21  24
ATOM     24  C   UNL A   1      29.918  26.939  24.288  1.00  0.00     0.055 A 
ATOM     25  C   UNL A   1      28.656  26.719  23.772  1.00  0.00     0.022 A 
ATOM     26  S   UNL A   1      30.502  28.493  23.900  1.00  0.00    -0.142 S 
ATOM     27  C   UNL A   1      28.129  27.881  23.135  1.00  0.00     0.012 A 
ATOM     28  C   UNL A   1      29.056  28.899  23.083  1.00  0.00     0.065 A 
ENDBRANCH  21  24
ENDBRANCH   7  12
ENDBRANCH   4   6
ENDBRANCH   3   4
ENDBRANCH   2   3
ENDBRANCH   1   2
BRANCH   1  29
ATOM     29  O   UNL A   1      34.846  30.898  28.369  1.00  0.00    -0.458 OA
BRANCH  29  30
ATOM     30  C   UNL A   1      35.690  31.798  28.916  1.00  0.00     0.338 C 
ATOM     31  O   UNL A   1      35.420  32.895  29.369  1.00  0.00    -0.246 OA
BRANCH  30  32
ATOM     32  C   UNL A   1      37.043  31.253  28.779  1.00  0.00     0.060 A 
ATOM     33  C   UNL A   1      37.210  30.038  28.110  1.00  0.00     0.016 A 
ATOM     34  C   UNL A   1      38.099  31.878  29.462  1.00  0.00     0.016 A 
ATOM     35  C   UNL A   1      38.417  29.381  28.240  1.00  0.00     0.010 A 
ATOM     36  C   UNL A   1      39.289  31.219  29.603  1.00  0.00     0.010 A 
ATOM     37  C   UNL A   1      39.410  29.953  29.041  1.00  0.00    -0.014 A 
BRANCH  37  38
ATOM     38  C   UNL A   1      40.628  29.219  29.279  1.00  0.00     0.031 A 
ATOM     39  C   UNL A   1      40.890  28.898  30.694  1.00  0.00     0.074 A 
ATOM     40  C   UNL A   1      41.349  28.704  28.267  1.00  0.00     0.049 A 
ATOM     41  N   UNL A   1      41.849  29.345  31.432  1.00  0.00    -0.248 NA
ATOM     42  C   UNL A   1      39.902  28.077  31.408  1.00  0.00     0.031 C 
ATOM     43  C   UNL A   1      40.984  28.636  26.849  1.00  0.00     0.029 A 
ATOM     44  N   UNL A   1      42.497  27.984  28.335  1.00  0.00    -0.354 N 
ATOM     45  C   UNL A   1      41.714  28.683  32.645  1.00  0.00     0.074 A 
ATOM     46  C   UNL A   1      40.410  28.070  32.640  1.00  0.00     0.031 C 
ATOM     47  C   UNL A   1      41.760  27.711  26.244  1.00  0.00     0.029 A 
ATOM     48  C   UNL A   1      42.750  27.236  27.196  1.00  0.00     0.049 A 
ATOM     49  H   UNL A   1      43.093  27.991  29.119  1.00  0.00     0.167 HD
ATOM     50  C   UNL A   1      42.777  28.477  33.465  1.00  0.00     0.034 A 
ATOM     51  C   UNL A   1      43.656  26.239  27.087  1.00  0.00     0.034 A 
ATOM     52  C   UNL A   1      43.914  29.274  33.088  1.00  0.00     0.049 A 
ATOM     53  C   UNL A   1      44.633  26.402  28.191  1.00  0.00     0.074 A 
ATOM     54  C   UNL A   1      44.160  30.624  32.948  1.00  0.00     0.029 A 
ATOM     55  N   UNL A   1      44.927  28.627  32.422  1.00  0.00    -0.354 N 
ATOM     56  N   UNL A   1      45.470  27.398  28.280  1.00  0.00    -0.248 NA
ATOM     57  C   UNL A   1      44.430  25.650  29.418  1.00  0.00     0.031 C 
ATOM     58  C   UNL A   1      45.053  30.725  31.841  1.00  0.00     0.029 A 
ATOM     59  C   UNL A   1      45.324  29.432  31.387  1.00  0.00     0.049 A 
ATOM     60  H   UNL A   1      45.300  27.745  32.648  1.00  0.00     0.167 HD
ATOM     61  C   UNL A   1      45.551  27.668  29.642  1.00  0.00     0.074 A 
ATOM     62  C   UNL A   1      45.012  26.478  30.291  1.00  0.00     0.031 C 
ATOM     63  C   UNL A   1      45.770  28.937  30.100  1.00  0.00     0.034 A 
BRANCH  50  64
ATOM     64  C   UNL A   1      42.911  27.307  34.400  1.00  0.00     0.023 A 
ATOM     65  C   UNL A   1      42.707  27.543  35.775  1.00  0.00     0.012 A 
ATOM     66  C   UNL A   1      43.465  26.060  34.032  1.00  0.00     0.148 A 
ATOM     67  C   UNL A   1      43.056  26.591  36.738  1.00  0.00     0.002 A 
ATOM     68  C   UNL A   1      43.719  25.081  34.984  1.00  0.00     0.091 A 
ATOM     69  F   UNL A   1      43.882  25.856  32.778  1.00  0.00    -0.205 F 
ATOM     70  C   UNL A   1      43.545  25.351  36.342  1.00  0.00     0.022 A 
BRANCH  68  71
ATOM     71  S   UNL A   1      44.269  23.443  34.499  1.00  0.00     0.127 S 
ATOM     72  O   UNL A   1      44.402  22.781  35.792  1.00  0.00    -0.237 OA
ATOM     73  O   UNL A   1      43.151  22.977  33.675  1.00  0.00    -0.237 OA
ATOM     74  O   UNL A   1      45.501  23.666  33.751  1.00  0.00    -0.744 OA
ENDBRANCH  68  71
ENDBRANCH  50  64
BRANCH  51  75
ATOM     75  C   UNL A   1      43.617  25.032  26.234  1.00  0.00     0.023 A 
ATOM     76  C   UNL A   1      44.580  24.872  25.220  1.00  0.00     0.012 A 
ATOM     77  C   UNL A   1      42.803  23.925  26.564  1.00  0.00     0.148 A 
ATOM     78  C   UNL A   1      44.750  23.641  24.577  1.00  0.00     0.002 A 
ATOM     79  C   UNL A   1      42.966  22.706  25.913  1.00  0.00     0.091 A 
ATOM     80  F   UNL A   1      41.935  24.039  27.579  1.00  0.00    -0.205 F 
ATOM     81  C   UNL A   1      43.949  22.557  24.927  1.00  0.00     0.022 A 
BRANCH  79  82
ATOM     82  S   UNL A   1      41.971  21.264  26.321  1.00  0.00     0.127 S 
ATOM     83  O   UNL A   1      40.620  21.723  25.994  1.00  0.00    -0.237 OA
ATOM     84  O   UNL A   1      42.511  20.257  25.413  1.00  0.00    -0.237 OA
ATOM     85  O   UNL A   1      42.189  21.022  27.742  1.00  0.00    -0.744 OA
ENDBRANCH  79  82
ENDBRANCH  51  75
BRANCH  63  86
ATOM     86  C   UNL A   1      46.224  29.984  29.108  1.00  0.00     0.023 A 
ATOM     87  C   UNL A   1      47.579  30.133  28.748  1.00  0.00     0.012 A 
ATOM     88  C   UNL A   1      45.252  30.709  28.395  1.00  0.00     0.148 A 
ATOM     89  C   UNL A   1      47.961  31.005  27.726  1.00  0.00     0.002 A 
ATOM     90  C   UNL A   1      45.631  31.539  27.345  1.00  0.00     0.091 A 
ATOM     91  F   UNL A   1      43.964  30.554  28.736  1.00  0.00    -0.205 F 
ATOM     92  C   UNL A   1      46.986  31.698  27.015  1.00  0.00     0.022 A 
BRANCH  90  93
ATOM     93  S   UNL A   1      44.412  32.351  26.307  1.00  0.00     0.127 S 
ATOM     94  O   UNL A   1      45.224  32.809  25.181  1.00  0.00    -0.237 OA
ATOM     95  O   UNL A   1      43.487  31.262  25.989  1.00  0.00    -0.237 OA
ATOM     96  O   UNL A   1      43.827  33.401  27.132  1.00  0.00    -0.744 OA
ENDBRANCH  90  93
ENDBRANCH  63  86
ENDBRANCH  37  38
ENDBRANCH  30  32
ENDBRANCH  29  30
ENDBRANCH   1  29
TORSDOF 16
ENDMDL
