MODEL 1
REMARK VINA RESULT:     -12.5      0.000      0.000
REMARK SMILES C#Cc1cc(Cl)c2c(c1)C=C(C(=O)OCCOC(=O)c1ccc(-c3c4nc(c(-c5cccc(S(=O)(=O)[O-])c5F)c5ccc([nH]5)c(-c5cccc(S(=O)(=O)[O-])c5F)c5nc(c(-c6cccc(S(=O)(=O)[O-])c6F)c6ccc3[nH]6)C=C5)C=C4)cc1)[C@@H](C(F)(F)F)O2
REMARK SMILES IDX 16 1 15 2 14 3 12 4 13 5 11 6 3 7 4 8 9 9 5 10 8 11 6 12
REMARK SMILES IDX 7 13 10 14 88 15 83 16 2 17 1 18 84 19 85 20 86 21 87 22
REMARK SMILES IDX 17 23 18 24 19 25 20 26 21 27 82 28 22 29 81 30 23 31 24 32
REMARK SMILES IDX 25 33 75 34 26 35 80 36 74 37 76 38 27 39 79 40 73 41 72 42
REMARK SMILES IDX 28 44 60 45 40 46 59 47 41 48 44 49 58 50 77 51 42 52 43 53
REMARK SMILES IDX 57 55 78 56 45 57 29 58 30 59 38 60 31 61 33 62 39 63 32 64
REMARK SMILES IDX 34 65 35 66 36 67 37 68 61 69 62 70 70 71 63 72 65 73 71 74
REMARK SMILES IDX 64 75 66 76 67 77 68 78 69 79 46 80 47 81 55 82 48 83 50 84
REMARK SMILES IDX 56 85 49 86 51 87 52 88 53 89 54 90
REMARK H PARENT 76 43 44 54
REMARK Flexibility Score: inf
ROOT
ATOM      1  C   UNL A   1      37.250  20.071  24.646  1.00  0.00     0.275 C 
ENDROOT
BRANCH   1   2
ATOM      2  C   UNL A   1      35.783  20.159  25.072  1.00  0.00     0.275 C 
BRANCH   2   3
ATOM      3  O   UNL A   1      35.579  21.184  26.070  1.00  0.00    -0.459 OA
BRANCH   3   4
ATOM      4  C   UNL A   1      34.334  21.715  26.111  1.00  0.00     0.338 C 
ATOM      5  O   UNL A   1      33.382  21.282  26.739  1.00  0.00    -0.246 OA
BRANCH   4   6
ATOM      6  C   UNL A   1      34.248  22.924  25.269  1.00  0.00     0.087 C 
ATOM      7  C   UNL A   1      33.566  27.691  25.036  1.00  0.00     0.027 A 
ATOM      8  C   UNL A   1      33.324  27.599  23.666  1.00  0.00     0.041 A 
ATOM      9  C   UNL A   1      33.910  26.545  25.752  1.00  0.00     0.029 A 
ATOM     10  C   UNL A   1      33.431  26.362  23.018  1.00  0.00     0.084 A 
ATOM     11  C   UNL A   1      33.994  25.305  25.102  1.00  0.00     0.020 A 
ATOM     12  Cl  UNL A   1      33.116  26.301  21.320  1.00  0.00    -0.080 Cl
ATOM     13  C   UNL A   1      33.760  25.202  23.732  1.00  0.00     0.146 A 
ATOM     14  C   UNL A   1      34.273  24.115  25.875  1.00  0.00     0.027 C 
ATOM     15  O   UNL A   1      33.854  24.011  23.058  1.00  0.00    -0.474 OA
ATOM     16  C   UNL A   1      33.959  22.766  23.808  1.00  0.00     0.316 C 
BRANCH   7  17
ATOM     17  C   UNL A   1      33.443  28.939  25.723  1.00  0.00    -0.070 C 
ATOM     18  C   UNL A   1      33.307  29.973  26.321  1.00  0.00     0.010 C 
ENDBRANCH   7  17
BRANCH  16  19
ATOM     19  C   UNL A   1      32.685  21.935  23.584  1.00  0.00     0.430 C 
ATOM     20  F   UNL A   1      32.200  22.102  22.330  1.00  0.00    -0.167 F 
ATOM     21  F   UNL A   1      32.921  20.607  23.727  1.00  0.00    -0.167 F 
ATOM     22  F   UNL A   1      31.699  22.266  24.448  1.00  0.00    -0.167 F 
ENDBRANCH  16  19
ENDBRANCH   4   6
ENDBRANCH   3   4
ENDBRANCH   2   3
ENDBRANCH   1   2
BRANCH   1  23
ATOM     23  O   UNL A   1      37.985  21.223  25.095  1.00  0.00    -0.458 OA
BRANCH  23  24
ATOM     24  C   UNL A   1      39.077  20.937  25.836  1.00  0.00     0.338 C 
ATOM     25  O   UNL A   1      39.722  19.900  25.831  1.00  0.00    -0.246 OA
BRANCH  24  26
ATOM     26  C   UNL A   1      39.506  22.114  26.601  1.00  0.00     0.060 A 
ATOM     27  C   UNL A   1      38.979  23.342  26.234  1.00  0.00     0.016 A 
ATOM     28  C   UNL A   1      40.587  22.050  27.472  1.00  0.00     0.016 A 
ATOM     29  C   UNL A   1      39.658  24.510  26.550  1.00  0.00     0.010 A 
ATOM     30  C   UNL A   1      41.149  23.242  27.948  1.00  0.00     0.010 A 
ATOM     31  C   UNL A   1      40.735  24.488  27.442  1.00  0.00    -0.014 A 
BRANCH  31  32
ATOM     32  C   UNL A   1      41.410  25.761  27.829  1.00  0.00     0.031 A 
ATOM     33  C   UNL A   1      40.675  26.804  28.637  1.00  0.00     0.074 A 
ATOM     34  C   UNL A   1      42.689  25.984  27.458  1.00  0.00     0.049 A 
ATOM     35  N   UNL A   1      41.032  28.032  28.914  1.00  0.00    -0.248 NA
ATOM     36  C   UNL A   1      39.363  26.428  29.197  1.00  0.00     0.031 C 
ATOM     37  C   UNL A   1      43.530  25.048  26.704  1.00  0.00     0.029 A 
ATOM     38  N   UNL A   1      43.512  27.066  27.657  1.00  0.00    -0.354 N 
ATOM     39  C   UNL A   1      39.967  28.595  29.610  1.00  0.00     0.074 A 
ATOM     40  C   UNL A   1      38.947  27.575  29.716  1.00  0.00     0.031 C 
ATOM     41  C   UNL A   1      44.751  25.574  26.541  1.00  0.00     0.029 A 
ATOM     42  C   UNL A   1      44.750  26.930  27.064  1.00  0.00     0.049 A 
ATOM     43  H   UNL A   1      43.244  27.861  28.171  1.00  0.00     0.167 HD
ATOM     44  C   UNL A   1      39.858  29.843  30.121  1.00  0.00     0.034 A 
ATOM     45  C   UNL A   1      45.755  27.812  26.899  1.00  0.00     0.034 A 
ATOM     46  C   UNL A   1      40.906  30.827  30.064  1.00  0.00     0.049 A 
ATOM     47  C   UNL A   1      45.587  29.201  27.442  1.00  0.00     0.074 A 
ATOM     48  C   UNL A   1      40.904  32.110  30.583  1.00  0.00     0.029 A 
ATOM     49  N   UNL A   1      42.141  30.641  29.463  1.00  0.00    -0.354 N 
ATOM     50  N   UNL A   1      44.587  29.701  28.127  1.00  0.00    -0.248 NA
ATOM     51  C   UNL A   1      46.686  30.144  27.203  1.00  0.00     0.031 C 
ATOM     52  C   UNL A   1      42.121  32.713  30.261  1.00  0.00     0.029 A 
ATOM     53  C   UNL A   1      42.903  31.790  29.585  1.00  0.00     0.049 A 
ATOM     54  H   UNL A   1      42.433  29.814  29.015  1.00  0.00     0.167 HD
ATOM     55  C   UNL A   1      44.949  31.009  28.424  1.00  0.00     0.074 A 
ATOM     56  C   UNL A   1      46.273  31.212  27.873  1.00  0.00     0.031 C 
ATOM     57  C   UNL A   1      44.240  31.960  29.078  1.00  0.00     0.034 A 
BRANCH  44  58
ATOM     58  C   UNL A   1      38.576  30.231  30.817  1.00  0.00     0.023 A 
ATOM     59  C   UNL A   1      38.423  29.991  32.196  1.00  0.00     0.012 A 
ATOM     60  C   UNL A   1      37.578  30.951  30.126  1.00  0.00     0.148 A 
ATOM     61  C   UNL A   1      37.291  30.446  32.874  1.00  0.00     0.002 A 
ATOM     62  C   UNL A   1      36.479  31.447  30.819  1.00  0.00     0.091 A 
ATOM     63  F   UNL A   1      37.735  31.156  28.811  1.00  0.00    -0.205 F 
ATOM     64  C   UNL A   1      36.330  31.186  32.190  1.00  0.00     0.022 A 
BRANCH  62  65
ATOM     65  S   UNL A   1      35.234  32.492  30.053  1.00  0.00     0.127 S 
ATOM     66  O   UNL A   1      34.307  32.708  31.163  1.00  0.00    -0.237 OA
ATOM     67  O   UNL A   1      36.017  33.668  29.675  1.00  0.00    -0.237 OA
ATOM     68  O   UNL A   1      34.694  31.728  28.938  1.00  0.00    -0.744 OA
ENDBRANCH  62  65
ENDBRANCH  44  58
BRANCH  45  69
ATOM     69  C   UNL A   1      47.000  27.402  26.186  1.00  0.00     0.023 A 
ATOM     70  C   UNL A   1      47.960  26.625  26.863  1.00  0.00     0.012 A 
ATOM     71  C   UNL A   1      47.224  27.742  24.836  1.00  0.00     0.148 A 
ATOM     72  C   UNL A   1      49.129  26.218  26.218  1.00  0.00     0.002 A 
ATOM     73  C   UNL A   1      48.357  27.275  24.180  1.00  0.00     0.091 A 
ATOM     74  F   UNL A   1      46.308  28.494  24.210  1.00  0.00    -0.205 F 
ATOM     75  C   UNL A   1      49.321  26.531  24.875  1.00  0.00     0.022 A 
BRANCH  73  76
ATOM     76  S   UNL A   1      48.615  27.502  22.417  1.00  0.00     0.127 S 
ATOM     77  O   UNL A   1      49.880  28.232  22.391  1.00  0.00    -0.237 OA
ATOM     78  O   UNL A   1      48.690  26.119  21.945  1.00  0.00    -0.237 OA
ATOM     79  O   UNL A   1      47.452  28.238  21.937  1.00  0.00    -0.744 OA
ENDBRANCH  73  76
ENDBRANCH  45  69
BRANCH  57  80
ATOM     80  C   UNL A   1      44.886  33.306  29.274  1.00  0.00     0.023 A 
ATOM     81  C   UNL A   1      45.664  33.550  30.424  1.00  0.00     0.012 A 
ATOM     82  C   UNL A   1      44.812  34.287  28.267  1.00  0.00     0.148 A 
ATOM     83  C   UNL A   1      46.334  34.762  30.579  1.00  0.00     0.002 A 
ATOM     84  C   UNL A   1      45.530  35.467  28.400  1.00  0.00     0.091 A 
ATOM     85  F   UNL A   1      44.054  34.038  27.188  1.00  0.00    -0.205 F 
ATOM     86  C   UNL A   1      46.281  35.713  29.561  1.00  0.00     0.022 A 
BRANCH  84  87
ATOM     87  S   UNL A   1      45.616  36.700  27.097  1.00  0.00     0.127 S 
ATOM     88  O   UNL A   1      44.219  37.115  26.988  1.00  0.00    -0.237 OA
ATOM     89  O   UNL A   1      46.508  37.702  27.681  1.00  0.00    -0.237 OA
ATOM     90  O   UNL A   1      46.151  36.016  25.927  1.00  0.00    -0.744 OA
ENDBRANCH  84  87
ENDBRANCH  57  80
ENDBRANCH  31  32
ENDBRANCH  24  26
ENDBRANCH  23  24
ENDBRANCH   1  23
TORSDOF 16
ENDMDL
MODEL 2
REMARK VINA RESULT:     -12.3      5.224     10.270
REMARK SMILES C#Cc1cc(Cl)c2c(c1)C=C(C(=O)OCCOC(=O)c1ccc(-c3c4nc(c(-c5cccc(S(=O)(=O)[O-])c5F)c5ccc([nH]5)c(-c5cccc(S(=O)(=O)[O-])c5F)c5nc(c(-c6cccc(S(=O)(=O)[O-])c6F)c6ccc3[nH]6)C=C5)C=C4)cc1)[C@@H](C(F)(F)F)O2
REMARK SMILES IDX 16 1 15 2 14 3 12 4 13 5 11 6 3 7 4 8 9 9 5 10 8 11 6 12
REMARK SMILES IDX 7 13 10 14 88 15 83 16 2 17 1 18 84 19 85 20 86 21 87 22
REMARK SMILES IDX 17 23 18 24 19 25 20 26 21 27 82 28 22 29 81 30 23 31 24 32
REMARK SMILES IDX 25 33 75 34 26 35 80 36 74 37 76 38 27 39 79 40 73 41 72 42
REMARK SMILES IDX 28 44 60 45 40 46 59 47 41 48 44 49 58 50 77 51 42 52 43 53
REMARK SMILES IDX 57 55 78 56 45 57 29 58 30 59 38 60 31 61 33 62 39 63 32 64
REMARK SMILES IDX 34 65 35 66 36 67 37 68 61 69 62 70 70 71 63 72 65 73 71 74
REMARK SMILES IDX 64 75 66 76 67 77 68 78 69 79 46 80 47 81 55 82 48 83 50 84
REMARK SMILES IDX 56 85 49 86 51 87 52 88 53 89 54 90
REMARK H PARENT 76 43 44 54
REMARK Flexibility Score: inf
ROOT
ATOM      1  C   UNL A   1      31.538  30.893  26.046  1.00  0.00     0.275 C 
ENDROOT
BRANCH   1   2
ATOM      2  C   UNL A   1      31.385  29.744  25.046  1.00  0.00     0.275 C 
BRANCH   2   3
ATOM      3  O   UNL A   1      31.995  28.528  25.536  1.00  0.00    -0.459 OA
BRANCH   3   4
ATOM      4  C   UNL A   1      33.072  28.098  24.837  1.00  0.00     0.338 C 
ATOM      5  O   UNL A   1      33.988  28.788  24.421  1.00  0.00    -0.246 OA
BRANCH   4   6
ATOM      6  C   UNL A   1      33.011  26.639  24.618  1.00  0.00     0.087 C 
ATOM      7  C   UNL A   1      35.329  22.413  24.641  1.00  0.00     0.027 A 
ATOM      8  C   UNL A   1      34.313  21.841  23.876  1.00  0.00     0.041 A 
ATOM      9  C   UNL A   1      35.214  23.739  25.055  1.00  0.00     0.029 A 
ATOM     10  C   UNL A   1      33.186  22.597  23.531  1.00  0.00     0.084 A 
ATOM     11  C   UNL A   1      34.093  24.498  24.689  1.00  0.00     0.020 A 
ATOM     12  Cl  UNL A   1      31.958  21.843  22.576  1.00  0.00    -0.080 Cl
ATOM     13  C   UNL A   1      33.069  23.936  23.929  1.00  0.00     0.146 A 
ATOM     14  C   UNL A   1      34.029  25.895  25.059  1.00  0.00     0.027 C 
ATOM     15  O   UNL A   1      31.948  24.640  23.569  1.00  0.00    -0.474 OA
ATOM     16  C   UNL A   1      31.913  26.084  23.765  1.00  0.00     0.316 C 
BRANCH   7  17
ATOM     17  C   UNL A   1      36.498  21.666  24.987  1.00  0.00    -0.070 C 
ATOM     18  C   UNL A   1      37.485  21.027  25.238  1.00  0.00     0.010 C 
ENDBRANCH   7  17
BRANCH  16  19
ATOM     19  C   UNL A   1      31.877  26.776  22.392  1.00  0.00     0.430 C 
ATOM     20  F   UNL A   1      33.115  27.155  21.997  1.00  0.00    -0.167 F 
ATOM     21  F   UNL A   1      31.405  25.949  21.427  1.00  0.00    -0.167 F 
ATOM     22  F   UNL A   1      31.095  27.880  22.395  1.00  0.00    -0.167 F 
ENDBRANCH  16  19
ENDBRANCH   4   6
ENDBRANCH   3   4
ENDBRANCH   2   3
ENDBRANCH   1   2
BRANCH   1  23
ATOM     23  O   UNL A   1      32.601  30.625  26.978  1.00  0.00    -0.458 OA
BRANCH  23  24
ATOM     24  C   UNL A   1      33.282  31.719  27.380  1.00  0.00     0.338 C 
ATOM     25  O   UNL A   1      32.831  32.834  27.590  1.00  0.00    -0.246 OA
BRANCH  24  26
ATOM     26  C   UNL A   1      34.679  31.379  27.675  1.00  0.00     0.060 A 
ATOM     27  C   UNL A   1      34.978  30.045  27.907  1.00  0.00     0.016 A 
ATOM     28  C   UNL A   1      35.611  32.366  27.975  1.00  0.00     0.016 A 
ATOM     29  C   UNL A   1      36.106  29.705  28.640  1.00  0.00     0.010 A 
ATOM     30  C   UNL A   1      36.839  31.994  28.539  1.00  0.00     0.010 A 
ATOM     31  C   UNL A   1      37.077  30.666  28.939  1.00  0.00    -0.014 A 
BRANCH  31  32
ATOM     32  C   UNL A   1      38.319  30.271  29.665  1.00  0.00     0.031 A 
ATOM     33  C   UNL A   1      39.306  29.319  29.034  1.00  0.00     0.074 A 
ATOM     34  C   UNL A   1      38.567  30.771  30.895  1.00  0.00     0.049 A 
ATOM     35  N   UNL A   1      40.340  28.728  29.575  1.00  0.00    -0.248 NA
ATOM     36  C   UNL A   1      39.101  28.970  27.616  1.00  0.00     0.031 C 
ATOM     37  C   UNL A   1      37.716  31.727  31.612  1.00  0.00     0.029 A 
ATOM     38  N   UNL A   1      39.603  30.545  31.770  1.00  0.00    -0.354 N 
ATOM     39  C   UNL A   1      40.861  27.889  28.595  1.00  0.00     0.074 A 
ATOM     40  C   UNL A   1      40.031  28.045  27.422  1.00  0.00     0.031 C 
ATOM     41  C   UNL A   1      38.278  32.035  32.787  1.00  0.00     0.029 A 
ATOM     42  C   UNL A   1      39.462  31.211  32.969  1.00  0.00     0.049 A 
ATOM     43  H   UNL A   1      40.369  29.965  31.561  1.00  0.00     0.167 HD
ATOM     44  C   UNL A   1      41.940  27.074  28.667  1.00  0.00     0.034 A 
ATOM     45  C   UNL A   1      40.164  31.128  34.116  1.00  0.00     0.034 A 
ATOM     46  C   UNL A   1      42.796  26.977  29.820  1.00  0.00     0.049 A 
ATOM     47  C   UNL A   1      41.329  30.185  34.177  1.00  0.00     0.074 A 
ATOM     48  C   UNL A   1      43.933  26.205  29.978  1.00  0.00     0.029 A 
ATOM     49  N   UNL A   1      42.619  27.675  31.004  1.00  0.00    -0.354 N 
ATOM     50  N   UNL A   1      41.825  29.427  33.229  1.00  0.00    -0.248 NA
ATOM     51  C   UNL A   1      42.041  30.092  35.458  1.00  0.00     0.031 C 
ATOM     52  C   UNL A   1      44.420  26.404  31.271  1.00  0.00     0.029 A 
ATOM     53  C   UNL A   1      43.617  27.340  31.902  1.00  0.00     0.049 A 
ATOM     54  H   UNL A   1      41.890  28.314  31.180  1.00  0.00     0.167 HD
ATOM     55  C   UNL A   1      42.923  28.788  33.790  1.00  0.00     0.074 A 
ATOM     56  C   UNL A   1      43.038  29.273  35.151  1.00  0.00     0.031 C 
ATOM     57  C   UNL A   1      43.749  27.871  33.235  1.00  0.00     0.034 A 
BRANCH  44  58
ATOM     58  C   UNL A   1      42.291  26.230  27.466  1.00  0.00     0.023 A 
ATOM     59  C   UNL A   1      43.105  26.761  26.446  1.00  0.00     0.012 A 
ATOM     60  C   UNL A   1      41.919  24.870  27.415  1.00  0.00     0.148 A 
ATOM     61  C   UNL A   1      43.530  25.957  25.388  1.00  0.00     0.002 A 
ATOM     62  C   UNL A   1      42.390  24.063  26.386  1.00  0.00     0.091 A 
ATOM     63  F   UNL A   1      41.131  24.388  28.387  1.00  0.00    -0.205 F 
ATOM     64  C   UNL A   1      43.187  24.608  25.367  1.00  0.00     0.022 A 
BRANCH  62  65
ATOM     65  S   UNL A   1      42.086  22.293  26.318  1.00  0.00     0.127 S 
ATOM     66  O   UNL A   1      40.626  22.248  26.228  1.00  0.00    -0.237 OA
ATOM     67  O   UNL A   1      42.784  21.912  25.091  1.00  0.00    -0.237 OA
ATOM     68  O   UNL A   1      42.645  21.738  27.542  1.00  0.00    -0.744 OA
ENDBRANCH  62  65
ENDBRANCH  44  58
BRANCH  45  69
ATOM     69  C   UNL A   1      39.775  31.960  35.293  1.00  0.00     0.023 A 
ATOM     70  C   UNL A   1      40.201  33.301  35.361  1.00  0.00     0.012 A 
ATOM     71  C   UNL A   1      38.959  31.448  36.322  1.00  0.00     0.148 A 
ATOM     72  C   UNL A   1      39.844  34.106  36.444  1.00  0.00     0.002 A 
ATOM     73  C   UNL A   1      38.551  32.275  37.361  1.00  0.00     0.091 A 
ATOM     74  F   UNL A   1      38.574  30.167  36.249  1.00  0.00    -0.205 F 
ATOM     75  C   UNL A   1      39.009  33.598  37.436  1.00  0.00     0.022 A 
BRANCH  73  76
ATOM     76  S   UNL A   1      37.358  31.753  38.600  1.00  0.00     0.127 S 
ATOM     77  O   UNL A   1      38.108  31.949  39.838  1.00  0.00    -0.237 OA
ATOM     78  O   UNL A   1      36.266  32.701  38.383  1.00  0.00    -0.237 OA
ATOM     79  O   UNL A   1      37.028  30.371  38.275  1.00  0.00    -0.744 OA
ENDBRANCH  73  76
ENDBRANCH  45  69
BRANCH  57  80
ATOM     80  C   UNL A   1      44.882  27.345  34.076  1.00  0.00     0.023 A 
ATOM     81  C   UNL A   1      46.099  28.052  34.137  1.00  0.00     0.012 A 
ATOM     82  C   UNL A   1      44.699  26.210  34.891  1.00  0.00     0.148 A 
ATOM     83  C   UNL A   1      47.126  27.622  34.974  1.00  0.00     0.002 A 
ATOM     84  C   UNL A   1      45.703  25.823  35.768  1.00  0.00     0.091 A 
ATOM     85  F   UNL A   1      43.538  25.544  34.807  1.00  0.00    -0.205 F 
ATOM     86  C   UNL A   1      46.923  26.519  35.801  1.00  0.00     0.022 A 
BRANCH  84  87
ATOM     87  S   UNL A   1      45.493  24.488  36.950  1.00  0.00     0.127 S 
ATOM     88  O   UNL A   1      46.792  24.477  37.621  1.00  0.00    -0.237 OA
ATOM     89  O   UNL A   1      44.385  24.977  37.772  1.00  0.00    -0.237 OA
ATOM     90  O   UNL A   1      45.191  23.297  36.167  1.00  0.00    -0.744 OA
ENDBRANCH  84  87
ENDBRANCH  57  80
ENDBRANCH  31  32
ENDBRANCH  24  26
ENDBRANCH  23  24
ENDBRANCH   1  23
TORSDOF 16
ENDMDL
MODEL 3
REMARK VINA RESULT:     -12.2      5.186     10.138
REMARK SMILES C#Cc1cc(Cl)c2c(c1)C=C(C(=O)OCCOC(=O)c1ccc(-c3c4nc(c(-c5cccc(S(=O)(=O)[O-])c5F)c5ccc([nH]5)c(-c5cccc(S(=O)(=O)[O-])c5F)c5nc(c(-c6cccc(S(=O)(=O)[O-])c6F)c6ccc3[nH]6)C=C5)C=C4)cc1)[C@@H](C(F)(F)F)O2
REMARK SMILES IDX 16 1 15 2 14 3 12 4 13 5 11 6 3 7 4 8 9 9 5 10 8 11 6 12
REMARK SMILES IDX 7 13 10 14 88 15 83 16 2 17 1 18 84 19 85 20 86 21 87 22
REMARK SMILES IDX 17 23 18 24 19 25 20 26 21 27 82 28 22 29 81 30 23 31 24 32
REMARK SMILES IDX 25 33 75 34 26 35 80 36 74 37 76 38 27 39 79 40 73 41 72 42
REMARK SMILES IDX 28 44 60 45 40 46 59 47 41 48 44 49 58 50 77 51 42 52 43 53
REMARK SMILES IDX 57 55 78 56 45 57 29 58 30 59 38 60 31 61 33 62 39 63 32 64
REMARK SMILES IDX 34 65 35 66 36 67 37 68 61 69 62 70 70 71 63 72 65 73 71 74
REMARK SMILES IDX 64 75 66 76 67 77 68 78 69 79 46 80 47 81 55 82 48 83 50 84
REMARK SMILES IDX 56 85 49 86 51 87 52 88 53 89 54 90
REMARK H PARENT 76 43 44 54
REMARK Flexibility Score: inf
ROOT
ATOM      1  C   UNL A   1      31.453  30.467  25.961  1.00  0.00     0.275 C 
ENDROOT
BRANCH   1   2
ATOM      2  C   UNL A   1      31.908  29.509  24.858  1.00  0.00     0.275 C 
BRANCH   2   3
ATOM      3  O   UNL A   1      32.539  28.329  25.405  1.00  0.00    -0.459 OA
BRANCH   3   4
ATOM      4  C   UNL A   1      33.305  27.626  24.538  1.00  0.00     0.338 C 
ATOM      5  O   UNL A   1      33.958  28.082  23.614  1.00  0.00    -0.246 OA
BRANCH   4   6
ATOM      6  C   UNL A   1      33.255  26.182  24.841  1.00  0.00     0.087 C 
ATOM      7  C   UNL A   1      35.607  21.980  25.066  1.00  0.00     0.027 A 
ATOM      8  C   UNL A   1      34.395  21.292  25.101  1.00  0.00     0.041 A 
ATOM      9  C   UNL A   1      35.607  23.374  25.049  1.00  0.00     0.029 A 
ATOM     10  C   UNL A   1      33.188  22.002  25.121  1.00  0.00     0.084 A 
ATOM     11  C   UNL A   1      34.395  24.079  25.048  1.00  0.00     0.020 A 
ATOM     12  Cl  UNL A   1      31.713  21.103  25.159  1.00  0.00    -0.080 Cl
ATOM     13  C   UNL A   1      33.177  23.404  25.088  1.00  0.00     0.146 A 
ATOM     14  C   UNL A   1      34.413  25.522  24.948  1.00  0.00     0.027 C 
ATOM     15  O   UNL A   1      31.972  24.059  25.109  1.00  0.00    -0.474 OA
ATOM     16  C   UNL A   1      31.927  25.490  24.837  1.00  0.00     0.316 C 
BRANCH   7  17
ATOM     17  C   UNL A   1      36.851  21.276  25.024  1.00  0.00    -0.070 C 
ATOM     18  C   UNL A   1      37.904  20.700  24.951  1.00  0.00     0.010 C 
ENDBRANCH   7  17
BRANCH  16  19
ATOM     19  C   UNL A   1      31.184  25.727  23.512  1.00  0.00     0.430 C 
ATOM     20  F   UNL A   1      30.331  24.712  23.235  1.00  0.00    -0.167 F 
ATOM     21  F   UNL A   1      30.434  26.855  23.553  1.00  0.00    -0.167 F 
ATOM     22  F   UNL A   1      32.031  25.843  22.464  1.00  0.00    -0.167 F 
ENDBRANCH  16  19
ENDBRANCH   4   6
ENDBRANCH   3   4
ENDBRANCH   2   3
ENDBRANCH   1   2
BRANCH   1  23
ATOM     23  O   UNL A   1      32.359  30.431  27.079  1.00  0.00    -0.458 OA
BRANCH  23  24
ATOM     24  C   UNL A   1      33.069  31.565  27.260  1.00  0.00     0.338 C 
ATOM     25  O   UNL A   1      32.645  32.710  27.269  1.00  0.00    -0.246 OA
BRANCH  24  26
ATOM     26  C   UNL A   1      34.466  31.253  27.588  1.00  0.00     0.060 A 
ATOM     27  C   UNL A   1      34.771  29.937  27.901  1.00  0.00     0.016 A 
ATOM     28  C   UNL A   1      35.388  32.262  27.839  1.00  0.00     0.016 A 
ATOM     29  C   UNL A   1      35.893  29.648  28.663  1.00  0.00     0.010 A 
ATOM     30  C   UNL A   1      36.612  31.932  28.435  1.00  0.00     0.010 A 
ATOM     31  C   UNL A   1      36.855  30.632  28.915  1.00  0.00    -0.014 A 
BRANCH  31  32
ATOM     32  C   UNL A   1      38.092  30.289  29.675  1.00  0.00     0.031 A 
ATOM     33  C   UNL A   1      39.141  29.389  29.066  1.00  0.00     0.074 A 
ATOM     34  C   UNL A   1      38.280  30.788  30.916  1.00  0.00     0.049 A 
ATOM     35  N   UNL A   1      40.186  28.843  29.634  1.00  0.00    -0.248 NA
ATOM     36  C   UNL A   1      38.995  29.044  27.640  1.00  0.00     0.031 C 
ATOM     37  C   UNL A   1      37.364  31.697  31.614  1.00  0.00     0.029 A 
ATOM     38  N   UNL A   1      39.299  30.604  31.820  1.00  0.00    -0.354 N 
ATOM     39  C   UNL A   1      40.774  28.038  28.664  1.00  0.00     0.074 A 
ATOM     40  C   UNL A   1      39.972  28.165  27.468  1.00  0.00     0.031 C 
ATOM     41  C   UNL A   1      37.876  32.020  32.808  1.00  0.00     0.029 A 
ATOM     42  C   UNL A   1      39.091  31.251  33.019  1.00  0.00     0.049 A 
ATOM     43  H   UNL A   1      40.098  30.062  31.629  1.00  0.00     0.167 HD
ATOM     44  C   UNL A   1      41.887  27.273  28.762  1.00  0.00     0.034 A 
ATOM     45  C   UNL A   1      39.762  31.191  34.186  1.00  0.00     0.034 A 
ATOM     46  C   UNL A   1      42.712  27.207  29.939  1.00  0.00     0.049 A 
ATOM     47  C   UNL A   1      40.968  30.302  34.275  1.00  0.00     0.074 A 
ATOM     48  C   UNL A   1      43.879  26.486  30.125  1.00  0.00     0.029 A 
ATOM     49  N   UNL A   1      42.468  27.884  31.123  1.00  0.00    -0.354 N 
ATOM     50  N   UNL A   1      41.527  29.577  33.337  1.00  0.00    -0.248 NA
ATOM     51  C   UNL A   1      41.646  30.231  35.576  1.00  0.00     0.031 C 
ATOM     52  C   UNL A   1      44.318  26.697  31.434  1.00  0.00     0.029 A 
ATOM     53  C   UNL A   1      43.453  27.589  32.048  1.00  0.00     0.049 A 
ATOM     54  H   UNL A   1      41.705  28.487  31.282  1.00  0.00     0.167 HD
ATOM     55  C   UNL A   1      42.637  28.985  33.926  1.00  0.00     0.074 A 
ATOM     56  C   UNL A   1      42.688  29.463  35.293  1.00  0.00     0.031 C 
ATOM     57  C   UNL A   1      43.521  28.112  33.388  1.00  0.00     0.034 A 
BRANCH  44  58
ATOM     58  C   UNL A   1      42.313  26.458  27.566  1.00  0.00     0.023 A 
ATOM     59  C   UNL A   1      43.214  27.000  26.628  1.00  0.00     0.012 A 
ATOM     60  C   UNL A   1      41.919  25.109  27.444  1.00  0.00     0.148 A 
ATOM     61  C   UNL A   1      43.703  26.219  25.581  1.00  0.00     0.002 A 
ATOM     62  C   UNL A   1      42.452  24.322  26.429  1.00  0.00     0.091 A 
ATOM     63  F   UNL A   1      41.050  24.615  28.337  1.00  0.00    -0.205 F 
ATOM     64  C   UNL A   1      43.336  24.879  25.491  1.00  0.00     0.022 A 
BRANCH  62  65
ATOM     65  S   UNL A   1      42.119  22.562  26.283  1.00  0.00     0.127 S 
ATOM     66  O   UNL A   1      42.779  22.241  25.017  1.00  0.00    -0.237 OA
ATOM     67  O   UNL A   1      42.785  22.027  27.470  1.00  0.00    -0.237 OA
ATOM     68  O   UNL A   1      40.670  22.423  26.275  1.00  0.00    -0.744 OA
ENDBRANCH  62  65
ENDBRANCH  44  58
BRANCH  45  69
ATOM     69  C   UNL A   1      39.300  31.993  35.357  1.00  0.00     0.023 A 
ATOM     70  C   UNL A   1      38.434  31.406  36.299  1.00  0.00     0.012 A 
ATOM     71  C   UNL A   1      39.741  33.317  35.564  1.00  0.00     0.148 A 
ATOM     72  C   UNL A   1      37.995  32.129  37.409  1.00  0.00     0.002 A 
ATOM     73  C   UNL A   1      39.354  34.006  36.707  1.00  0.00     0.091 A 
ATOM     74  F   UNL A   1      40.554  33.866  34.652  1.00  0.00    -0.205 F 
ATOM     75  C   UNL A   1      38.465  33.422  37.620  1.00  0.00     0.022 A 
BRANCH  73  76
ATOM     76  S   UNL A   1      40.026  35.616  37.138  1.00  0.00     0.127 S 
ATOM     77  O   UNL A   1      39.614  36.427  35.995  1.00  0.00    -0.237 OA
ATOM     78  O   UNL A   1      39.325  35.909  38.388  1.00  0.00    -0.237 OA
ATOM     79  O   UNL A   1      41.462  35.420  37.286  1.00  0.00    -0.744 OA
ENDBRANCH  73  76
ENDBRANCH  45  69
BRANCH  57  80
ATOM     80  C   UNL A   1      44.652  27.633  34.259  1.00  0.00     0.023 A 
ATOM     81  C   UNL A   1      45.829  28.400  34.368  1.00  0.00     0.012 A 
ATOM     82  C   UNL A   1      44.501  26.479  35.053  1.00  0.00     0.148 A 
ATOM     83  C   UNL A   1      46.849  28.010  35.233  1.00  0.00     0.002 A 
ATOM     84  C   UNL A   1      45.495  26.130  35.956  1.00  0.00     0.091 A 
ATOM     85  F   UNL A   1      43.379  25.755  34.922  1.00  0.00    -0.205 F 
ATOM     86  C   UNL A   1      46.676  26.886  36.039  1.00  0.00     0.022 A 
BRANCH  84  87
ATOM     87  S   UNL A   1      45.316  24.768  37.114  1.00  0.00     0.127 S 
ATOM     88  O   UNL A   1      46.622  24.764  37.772  1.00  0.00    -0.237 OA
ATOM     89  O   UNL A   1      44.210  25.225  37.955  1.00  0.00    -0.237 OA
ATOM     90  O   UNL A   1      45.024  23.589  36.310  1.00  0.00    -0.744 OA
ENDBRANCH  84  87
ENDBRANCH  57  80
ENDBRANCH  31  32
ENDBRANCH  24  26
ENDBRANCH  23  24
ENDBRANCH   1  23
TORSDOF 16
ENDMDL
