MODEL 1
REMARK VINA RESULT:     -11.7      0.000      0.000
REMARK SMILES O=C(N[C@H]1C=C[C@@H](C(=O)OCCOC(=O)c2ccc(-c3c4nc(c(-c5cccc(S(=O)(=O)[O-])c5F)c5ccc([nH]5)c(-c5cccc(S(=O)(=O)[O-])c5F)c5nc(c(-c6cccc(S(=O)(=O)[O-])c6F)c6ccc3[nH]6)C=C5)C=C4)cc2)C1)c1ccc(Br)cc1
REMARK SMILES IDX 12 1 11 2 10 3 8 4 9 5 7 6 4 7 5 8 79 9 6 10 3 11 1 12 2 13
REMARK SMILES IDX 80 15 81 16 86 17 82 18 85 19 83 20 84 21 13 22 14 23 15 24
REMARK SMILES IDX 16 25 17 26 78 27 18 28 77 29 19 30 20 31 21 32 71 33 22 34
REMARK SMILES IDX 76 35 70 36 72 37 23 38 75 39 69 40 68 41 24 43 56 44 36 45
REMARK SMILES IDX 55 46 37 47 40 48 54 49 73 50 38 51 39 52 53 54 74 55 41 56
REMARK SMILES IDX 25 57 26 58 34 59 27 60 29 61 35 62 28 63 30 64 31 65 32 66
REMARK SMILES IDX 33 67 57 68 58 69 66 70 59 71 61 72 67 73 60 74 62 75 63 76
REMARK SMILES IDX 64 77 65 78 42 79 43 80 51 81 44 82 46 83 52 84 45 85 47 86
REMARK SMILES IDX 48 87 49 88 50 89
REMARK H PARENT 3 14 72 42 40 53
REMARK Flexibility Score: inf
ROOT
ATOM      1  C   UNL A   1      37.541  20.453  24.740  1.00  0.00     0.275 C 
ENDROOT
BRANCH   1   2
ATOM      2  C   UNL A   1      36.089  20.028  24.977  1.00  0.00     0.274 C 
BRANCH   2   3
ATOM      3  O   UNL A   1      35.223  21.145  24.708  1.00  0.00    -0.462 OA
BRANCH   3   4
ATOM      4  C   UNL A   1      34.273  21.448  25.628  1.00  0.00     0.312 C 
ATOM      5  O   UNL A   1      34.446  21.424  26.840  1.00  0.00    -0.252 OA
BRANCH   4   6
ATOM      6  C   UNL A   1      32.940  21.842  24.988  1.00  0.00     0.124 C 
ATOM      7  C   UNL A   1      32.100  23.318  23.191  1.00  0.00     0.106 C 
ATOM      8  C   UNL A   1      32.171  21.881  22.772  1.00  0.00    -0.006 C 
ATOM      9  C   UNL A   1      32.814  23.304  24.543  1.00  0.00     0.048 C 
ATOM     10  C   UNL A   1      32.649  21.083  23.733  1.00  0.00    -0.014 C 
BRANCH   7  11
ATOM     11  N   UNL A   1      32.779  24.109  22.183  1.00  0.00    -0.346 N 
ATOM     12  O   UNL A   1      33.382  25.978  21.079  1.00  0.00    -0.269 OA
ATOM     13  C   UNL A   1      32.981  25.465  22.121  1.00  0.00     0.251 C 
ATOM     14  H   UNL A   1      33.151  23.597  21.429  1.00  0.00     0.164 HD
BRANCH  13  15
ATOM     15  C   UNL A   1      32.709  26.332  23.285  1.00  0.00     0.039 A 
ATOM     16  C   UNL A   1      31.398  26.619  23.672  1.00  0.00     0.015 A 
ATOM     17  C   UNL A   1      33.776  26.746  24.088  1.00  0.00     0.015 A 
ATOM     18  C   UNL A   1      31.150  27.400  24.803  1.00  0.00     0.016 A 
ATOM     19  C   UNL A   1      33.530  27.505  25.238  1.00  0.00     0.016 A 
ATOM     20  C   UNL A   1      32.219  27.841  25.580  1.00  0.00     0.018 A 
ATOM     21  Br  UNL A   1      31.886  28.872  27.128  1.00  0.00    -0.051 Br
ENDBRANCH  13  15
ENDBRANCH   7  11
ENDBRANCH   4   6
ENDBRANCH   3   4
ENDBRANCH   2   3
ENDBRANCH   1   2
BRANCH   1  22
ATOM     22  O   UNL A   1      37.979  21.370  25.763  1.00  0.00    -0.458 OA
BRANCH  22  23
ATOM     23  C   UNL A   1      39.237  21.171  26.220  1.00  0.00     0.338 C 
ATOM     24  O   UNL A   1      39.893  20.145  26.159  1.00  0.00    -0.246 OA
BRANCH  23  25
ATOM     25  C   UNL A   1      39.791  22.437  26.723  1.00  0.00     0.060 A 
ATOM     26  C   UNL A   1      39.321  23.630  26.170  1.00  0.00     0.016 A 
ATOM     27  C   UNL A   1      40.821  22.446  27.663  1.00  0.00     0.016 A 
ATOM     28  C   UNL A   1      39.884  24.845  26.551  1.00  0.00     0.010 A 
ATOM     29  C   UNL A   1      41.382  23.668  28.049  1.00  0.00     0.010 A 
ATOM     30  C   UNL A   1      40.925  24.873  27.489  1.00  0.00    -0.014 A 
BRANCH  30  31
ATOM     31  C   UNL A   1      41.547  26.166  27.864  1.00  0.00     0.031 A 
ATOM     32  C   UNL A   1      40.734  27.218  28.566  1.00  0.00     0.074 A 
ATOM     33  C   UNL A   1      42.843  26.389  27.575  1.00  0.00     0.049 A 
ATOM     34  N   UNL A   1      41.081  28.428  28.917  1.00  0.00    -0.248 NA
ATOM     35  C   UNL A   1      39.350  26.860  28.920  1.00  0.00     0.031 C 
ATOM     36  C   UNL A   1      43.734  25.439  26.908  1.00  0.00     0.029 A 
ATOM     37  N   UNL A   1      43.630  27.492  27.788  1.00  0.00    -0.354 N 
ATOM     38  C   UNL A   1      39.956  28.988  29.512  1.00  0.00     0.074 A 
ATOM     39  C   UNL A   1      38.911  27.987  29.467  1.00  0.00     0.031 C 
ATOM     40  C   UNL A   1      44.942  26.005  26.751  1.00  0.00     0.029 A 
ATOM     41  C   UNL A   1      44.902  27.367  27.276  1.00  0.00     0.049 A 
ATOM     42  H   UNL A   1      43.317  28.296  28.260  1.00  0.00     0.167 HD
ATOM     43  C   UNL A   1      39.814  30.216  30.064  1.00  0.00     0.034 A 
ATOM     44  C   UNL A   1      45.910  28.258  27.218  1.00  0.00     0.034 A 
ATOM     45  C   UNL A   1      40.863  31.201  30.130  1.00  0.00     0.049 A 
ATOM     46  C   UNL A   1      45.713  29.626  27.817  1.00  0.00     0.074 A 
ATOM     47  C   UNL A   1      40.815  32.474  30.670  1.00  0.00     0.029 A 
ATOM     48  N   UNL A   1      42.149  31.019  29.646  1.00  0.00    -0.354 N 
ATOM     49  N   UNL A   1      44.669  30.108  28.446  1.00  0.00    -0.248 NA
ATOM     50  C   UNL A   1      46.842  30.562  27.721  1.00  0.00     0.031 C 
ATOM     51  C   UNL A   1      42.073  33.064  30.509  1.00  0.00     0.029 A 
ATOM     52  C   UNL A   1      42.906  32.154  29.879  1.00  0.00     0.049 A 
ATOM     53  H   UNL A   1      42.475  30.204  29.201  1.00  0.00     0.167 HD
ATOM     54  C   UNL A   1      45.027  31.389  28.850  1.00  0.00     0.074 A 
ATOM     55  C   UNL A   1      46.393  31.599  28.415  1.00  0.00     0.031 C 
ATOM     56  C   UNL A   1      44.286  32.319  29.501  1.00  0.00     0.034 A 
BRANCH  43  57
ATOM     57  C   UNL A   1      38.489  30.555  30.692  1.00  0.00     0.023 A 
ATOM     58  C   UNL A   1      38.254  30.195  32.035  1.00  0.00     0.012 A 
ATOM     59  C   UNL A   1      37.513  31.288  29.989  1.00  0.00     0.148 A 
ATOM     60  C   UNL A   1      37.059  30.543  32.664  1.00  0.00     0.002 A 
ATOM     61  C   UNL A   1      36.339  31.662  30.635  1.00  0.00     0.091 A 
ATOM     62  F   UNL A   1      37.749  31.602  28.709  1.00  0.00    -0.205 F 
ATOM     63  C   UNL A   1      36.108  31.284  31.968  1.00  0.00     0.022 A 
BRANCH  61  64
ATOM     64  S   UNL A   1      35.078  32.671  29.848  1.00  0.00     0.127 S 
ATOM     65  O   UNL A   1      34.171  32.934  30.964  1.00  0.00    -0.237 OA
ATOM     66  O   UNL A   1      35.848  33.834  29.402  1.00  0.00    -0.237 OA
ATOM     67  O   UNL A   1      34.525  31.860  28.773  1.00  0.00    -0.744 OA
ENDBRANCH  61  64
ENDBRANCH  43  57
BRANCH  44  68
ATOM     68  C   UNL A   1      47.214  27.877  26.605  1.00  0.00     0.023 A 
ATOM     69  C   UNL A   1      48.287  27.503  27.437  1.00  0.00     0.012 A 
ATOM     70  C   UNL A   1      47.398  27.878  25.209  1.00  0.00     0.148 A 
ATOM     71  C   UNL A   1      49.528  27.169  26.892  1.00  0.00     0.002 A 
ATOM     72  C   UNL A   1      48.620  27.492  24.670  1.00  0.00     0.091 A 
ATOM     73  F   UNL A   1      46.377  28.263  24.429  1.00  0.00    -0.205 F 
ATOM     74  C   UNL A   1      49.692  27.153  25.509  1.00  0.00     0.022 A 
BRANCH  72  75
ATOM     75  S   UNL A   1      48.853  27.322  22.897  1.00  0.00     0.127 S 
ATOM     76  O   UNL A   1      48.272  26.008  22.641  1.00  0.00    -0.237 OA
ATOM     77  O   UNL A   1      48.083  28.449  22.369  1.00  0.00    -0.237 OA
ATOM     78  O   UNL A   1      50.292  27.441  22.694  1.00  0.00    -0.744 OA
ENDBRANCH  72  75
ENDBRANCH  44  68
BRANCH  56  79
ATOM     79  C   UNL A   1      44.944  33.635  29.819  1.00  0.00     0.023 A 
ATOM     80  C   UNL A   1      45.656  33.783  31.024  1.00  0.00     0.012 A 
ATOM     81  C   UNL A   1      44.917  34.698  28.894  1.00  0.00     0.148 A 
ATOM     82  C   UNL A   1      46.307  34.979  31.320  1.00  0.00     0.002 A 
ATOM     83  C   UNL A   1      45.604  35.872  29.176  1.00  0.00     0.091 A 
ATOM     84  F   UNL A   1      44.215  34.544  27.762  1.00  0.00    -0.205 F 
ATOM     85  C   UNL A   1      46.292  36.018  30.392  1.00  0.00     0.022 A 
BRANCH  83  86
ATOM     86  S   UNL A   1      45.707  37.227  28.002  1.00  0.00     0.127 S 
ATOM     87  O   UNL A   1      46.552  38.181  28.719  1.00  0.00    -0.237 OA
ATOM     88  O   UNL A   1      46.345  36.594  26.847  1.00  0.00    -0.237 OA
ATOM     89  O   UNL A   1      44.333  37.655  27.769  1.00  0.00    -0.744 OA
ENDBRANCH  83  86
ENDBRANCH  56  79
ENDBRANCH  30  31
ENDBRANCH  23  25
ENDBRANCH  22  23
ENDBRANCH   1  22
TORSDOF 16
ENDMDL
MODEL 2
REMARK VINA RESULT:     -11.7      0.621      7.661
REMARK SMILES O=C(N[C@H]1C=C[C@@H](C(=O)OCCOC(=O)c2ccc(-c3c4nc(c(-c5cccc(S(=O)(=O)[O-])c5F)c5ccc([nH]5)c(-c5cccc(S(=O)(=O)[O-])c5F)c5nc(c(-c6cccc(S(=O)(=O)[O-])c6F)c6ccc3[nH]6)C=C5)C=C4)cc2)C1)c1ccc(Br)cc1
REMARK SMILES IDX 12 1 11 2 10 3 8 4 9 5 7 6 4 7 5 8 79 9 6 10 3 11 1 12 2 13
REMARK SMILES IDX 80 15 81 16 86 17 82 18 85 19 83 20 84 21 13 22 14 23 15 24
REMARK SMILES IDX 16 25 17 26 78 27 18 28 77 29 19 30 20 31 21 32 71 33 22 34
REMARK SMILES IDX 76 35 70 36 72 37 23 38 75 39 69 40 68 41 24 43 56 44 36 45
REMARK SMILES IDX 55 46 37 47 40 48 54 49 73 50 38 51 39 52 53 54 74 55 41 56
REMARK SMILES IDX 25 57 26 58 34 59 27 60 29 61 35 62 28 63 30 64 31 65 32 66
REMARK SMILES IDX 33 67 57 68 58 69 66 70 59 71 61 72 67 73 60 74 62 75 63 76
REMARK SMILES IDX 64 77 65 78 42 79 43 80 51 81 44 82 46 83 52 84 45 85 47 86
REMARK SMILES IDX 48 87 49 88 50 89
REMARK H PARENT 3 14 72 42 40 53
REMARK Flexibility Score: inf
ROOT
ATOM      1  C   UNL A   1      37.436  20.023  24.807  1.00  0.00     0.275 C 
ENDROOT
BRANCH   1   2
ATOM      2  C   UNL A   1      35.918  19.885  24.948  1.00  0.00     0.274 C 
BRANCH   2   3
ATOM      3  O   UNL A   1      35.306  21.165  24.709  1.00  0.00    -0.462 OA
BRANCH   3   4
ATOM      4  C   UNL A   1      34.476  21.660  25.660  1.00  0.00     0.312 C 
ATOM      5  O   UNL A   1      34.775  21.803  26.838  1.00  0.00    -0.252 OA
BRANCH   4   6
ATOM      6  C   UNL A   1      33.102  22.039  25.102  1.00  0.00     0.124 C 
ATOM      7  C   UNL A   1      32.144  23.197  23.139  1.00  0.00     0.106 C 
ATOM      8  C   UNL A   1      32.064  21.705  23.024  1.00  0.00    -0.006 C 
ATOM      9  C   UNL A   1      33.021  23.388  24.377  1.00  0.00     0.048 C 
ATOM     10  C   UNL A   1      32.605  21.075  24.073  1.00  0.00    -0.014 C 
BRANCH   7  11
ATOM     11  N   UNL A   1      32.742  23.705  21.919  1.00  0.00    -0.346 N 
ATOM     12  O   UNL A   1      33.188  25.212  20.305  1.00  0.00    -0.269 OA
ATOM     13  C   UNL A   1      32.848  24.996  21.465  1.00  0.00     0.251 C 
ATOM     14  H   UNL A   1      33.131  23.021  21.327  1.00  0.00     0.164 HD
BRANCH  13  15
ATOM     15  C   UNL A   1      32.544  26.142  22.344  1.00  0.00     0.039 A 
ATOM     16  C   UNL A   1      31.228  26.576  22.526  1.00  0.00     0.015 A 
ATOM     17  C   UNL A   1      33.570  26.701  23.112  1.00  0.00     0.015 A 
ATOM     18  C   UNL A   1      30.946  27.629  23.398  1.00  0.00     0.016 A 
ATOM     19  C   UNL A   1      33.286  27.738  24.008  1.00  0.00     0.016 A 
ATOM     20  C   UNL A   1      31.977  28.207  24.133  1.00  0.00     0.018 A 
ATOM     21  Br  UNL A   1      31.593  29.613  25.336  1.00  0.00    -0.051 Br
ENDBRANCH  13  15
ENDBRANCH   7  11
ENDBRANCH   4   6
ENDBRANCH   3   4
ENDBRANCH   2   3
ENDBRANCH   1   2
BRANCH   1  22
ATOM     22  O   UNL A   1      37.931  21.095  25.634  1.00  0.00    -0.458 OA
BRANCH  22  23
ATOM     23  C   UNL A   1      39.176  20.915  26.133  1.00  0.00     0.338 C 
ATOM     24  O   UNL A   1      39.833  19.888  26.131  1.00  0.00    -0.246 OA
BRANCH  23  25
ATOM     25  C   UNL A   1      39.718  22.201  26.598  1.00  0.00     0.060 A 
ATOM     26  C   UNL A   1      39.070  23.373  26.202  1.00  0.00     0.016 A 
ATOM     27  C   UNL A   1      40.896  22.255  27.342  1.00  0.00     0.016 A 
ATOM     28  C   UNL A   1      39.602  24.614  26.544  1.00  0.00     0.010 A 
ATOM     29  C   UNL A   1      41.427  23.502  27.690  1.00  0.00     0.010 A 
ATOM     30  C   UNL A   1      40.789  24.688  27.284  1.00  0.00    -0.014 A 
BRANCH  30  31
ATOM     31  C   UNL A   1      41.372  26.011  27.615  1.00  0.00     0.031 A 
ATOM     32  C   UNL A   1      42.784  26.334  27.211  1.00  0.00     0.074 A 
ATOM     33  C   UNL A   1      40.630  26.919  28.277  1.00  0.00     0.049 A 
ATOM     34  N   UNL A   1      43.487  27.407  27.463  1.00  0.00    -0.248 NA
ATOM     35  C   UNL A   1      43.496  25.319  26.418  1.00  0.00     0.031 C 
ATOM     36  C   UNL A   1      39.246  26.722  28.709  1.00  0.00     0.029 A 
ATOM     37  N   UNL A   1      40.941  28.181  28.716  1.00  0.00    -0.354 N 
ATOM     38  C   UNL A   1      44.732  27.190  26.883  1.00  0.00     0.074 A 
ATOM     39  C   UNL A   1      44.690  25.878  26.272  1.00  0.00     0.031 C 
ATOM     40  C   UNL A   1      38.831  27.818  29.367  1.00  0.00     0.029 A 
ATOM     41  C   UNL A   1      39.929  28.779  29.431  1.00  0.00     0.049 A 
ATOM     42  H   UNL A   1      41.806  28.616  28.539  1.00  0.00     0.167 HD
ATOM     43  C   UNL A   1      45.803  28.017  26.845  1.00  0.00     0.034 A 
ATOM     44  C   UNL A   1      39.899  29.958  30.081  1.00  0.00     0.034 A 
ATOM     45  C   UNL A   1      45.833  29.331  27.433  1.00  0.00     0.049 A 
ATOM     46  C   UNL A   1      41.116  30.845  30.044  1.00  0.00     0.074 A 
ATOM     47  C   UNL A   1      46.872  30.244  27.447  1.00  0.00     0.029 A 
ATOM     48  N   UNL A   1      44.773  29.921  28.104  1.00  0.00    -0.354 N 
ATOM     49  N   UNL A   1      42.255  30.657  29.422  1.00  0.00    -0.248 NA
ATOM     50  C   UNL A   1      41.034  32.117  30.775  1.00  0.00     0.031 C 
ATOM     51  C   UNL A   1      46.442  31.387  28.130  1.00  0.00     0.029 A 
ATOM     52  C   UNL A   1      45.131  31.188  28.532  1.00  0.00     0.049 A 
ATOM     53  H   UNL A   1      43.897  29.501  28.255  1.00  0.00     0.167 HD
ATOM     54  C   UNL A   1      43.010  31.800  29.659  1.00  0.00     0.074 A 
ATOM     55  C   UNL A   1      42.190  32.685  30.460  1.00  0.00     0.031 C 
ATOM     56  C   UNL A   1      44.277  32.083  29.268  1.00  0.00     0.034 A 
BRANCH  43  57
ATOM     57  C   UNL A   1      47.024  27.551  26.099  1.00  0.00     0.023 A 
ATOM     58  C   UNL A   1      47.974  26.754  26.768  1.00  0.00     0.012 A 
ATOM     59  C   UNL A   1      47.196  27.833  24.730  1.00  0.00     0.148 A 
ATOM     60  C   UNL A   1      49.088  26.258  26.090  1.00  0.00     0.002 A 
ATOM     61  C   UNL A   1      48.291  27.307  24.052  1.00  0.00     0.091 A 
ATOM     62  F   UNL A   1      46.290  28.609  24.119  1.00  0.00    -0.205 F 
ATOM     63  C   UNL A   1      49.240  26.525  24.733  1.00  0.00     0.022 A 
BRANCH  61  64
ATOM     64  S   UNL A   1      48.545  27.538  22.289  1.00  0.00     0.127 S 
ATOM     65  O   UNL A   1      49.791  28.303  22.268  1.00  0.00    -0.237 OA
ATOM     66  O   UNL A   1      48.668  26.160  21.812  1.00  0.00    -0.237 OA
ATOM     67  O   UNL A   1      47.370  28.247  21.803  1.00  0.00    -0.744 OA
ENDBRANCH  61  64
ENDBRANCH  43  57
BRANCH  44  68
ATOM     68  C   UNL A   1      38.663  30.393  30.792  1.00  0.00     0.023 A 
ATOM     69  C   UNL A   1      38.509  30.091  32.159  1.00  0.00     0.012 A 
ATOM     70  C   UNL A   1      37.644  31.102  30.129  1.00  0.00     0.148 A 
ATOM     71  C   UNL A   1      37.350  30.461  32.844  1.00  0.00     0.002 A 
ATOM     72  C   UNL A   1      36.516  31.514  30.830  1.00  0.00     0.091 A 
ATOM     73  F   UNL A   1      37.791  31.358  28.820  1.00  0.00    -0.205 F 
ATOM     74  C   UNL A   1      36.359  31.180  32.182  1.00  0.00     0.022 A 
BRANCH  72  75
ATOM     75  S   UNL A   1      35.268  32.559  30.069  1.00  0.00     0.127 S 
ATOM     76  O   UNL A   1      34.338  32.770  31.174  1.00  0.00    -0.237 OA
ATOM     77  O   UNL A   1      36.040  33.740  29.681  1.00  0.00    -0.237 OA
ATOM     78  O   UNL A   1      34.766  31.784  28.942  1.00  0.00    -0.744 OA
ENDBRANCH  72  75
ENDBRANCH  44  68
BRANCH  56  79
ATOM     79  C   UNL A   1      44.845  33.418  29.669  1.00  0.00     0.023 A 
ATOM     80  C   UNL A   1      45.589  33.528  30.859  1.00  0.00     0.012 A 
ATOM     81  C   UNL A   1      44.704  34.544  28.833  1.00  0.00     0.148 A 
ATOM     82  C   UNL A   1      46.159  34.746  31.229  1.00  0.00     0.002 A 
ATOM     83  C   UNL A   1      45.310  35.743  29.186  1.00  0.00     0.091 A 
ATOM     84  F   UNL A   1      43.974  34.423  27.715  1.00  0.00    -0.205 F 
ATOM     85  C   UNL A   1      46.030  35.848  30.388  1.00  0.00     0.022 A 
BRANCH  83  86
ATOM     86  S   UNL A   1      45.266  37.188  28.121  1.00  0.00     0.127 S 
ATOM     87  O   UNL A   1      46.315  36.878  27.151  1.00  0.00    -0.237 OA
ATOM     88  O   UNL A   1      43.905  37.141  27.585  1.00  0.00    -0.237 OA
ATOM     89  O   UNL A   1      45.530  38.329  28.990  1.00  0.00    -0.744 OA
ENDBRANCH  83  86
ENDBRANCH  56  79
ENDBRANCH  30  31
ENDBRANCH  23  25
ENDBRANCH  22  23
ENDBRANCH   1  22
TORSDOF 16
ENDMDL
MODEL 3
REMARK VINA RESULT:     -11.6      5.439     10.287
REMARK SMILES O=C(N[C@H]1C=C[C@@H](C(=O)OCCOC(=O)c2ccc(-c3c4nc(c(-c5cccc(S(=O)(=O)[O-])c5F)c5ccc([nH]5)c(-c5cccc(S(=O)(=O)[O-])c5F)c5nc(c(-c6cccc(S(=O)(=O)[O-])c6F)c6ccc3[nH]6)C=C5)C=C4)cc2)C1)c1ccc(Br)cc1
REMARK SMILES IDX 12 1 11 2 10 3 8 4 9 5 7 6 4 7 5 8 79 9 6 10 3 11 1 12 2 13
REMARK SMILES IDX 80 15 81 16 86 17 82 18 85 19 83 20 84 21 13 22 14 23 15 24
REMARK SMILES IDX 16 25 17 26 78 27 18 28 77 29 19 30 20 31 21 32 71 33 22 34
REMARK SMILES IDX 76 35 70 36 72 37 23 38 75 39 69 40 68 41 24 43 56 44 36 45
REMARK SMILES IDX 55 46 37 47 40 48 54 49 73 50 38 51 39 52 53 54 74 55 41 56
REMARK SMILES IDX 25 57 26 58 34 59 27 60 29 61 35 62 28 63 30 64 31 65 32 66
REMARK SMILES IDX 33 67 57 68 58 69 66 70 59 71 61 72 67 73 60 74 62 75 63 76
REMARK SMILES IDX 64 77 65 78 42 79 43 80 51 81 44 82 46 83 52 84 45 85 47 86
REMARK SMILES IDX 48 87 49 88 50 89
REMARK H PARENT 3 14 72 42 40 53
REMARK Flexibility Score: inf
ROOT
ATOM      1  C   UNL A   1      32.119  30.181  26.813  1.00  0.00     0.275 C 
ENDROOT
BRANCH   1   2
ATOM      2  C   UNL A   1      31.246  30.608  25.631  1.00  0.00     0.274 C 
BRANCH   2   3
ATOM      3  O   UNL A   1      31.292  29.586  24.620  1.00  0.00    -0.462 OA
BRANCH   3   4
ATOM      4  C   UNL A   1      30.228  29.467  23.786  1.00  0.00     0.312 C 
ATOM      5  O   UNL A   1      29.495  30.392  23.459  1.00  0.00    -0.252 OA
BRANCH   4   6
ATOM      6  C   UNL A   1      30.036  28.037  23.279  1.00  0.00     0.124 C 
ATOM      7  C   UNL A   1      29.919  25.739  24.185  1.00  0.00     0.106 C 
ATOM      8  C   UNL A   1      28.568  26.305  23.871  1.00  0.00    -0.006 C 
ATOM      9  C   UNL A   1      30.835  26.951  24.012  1.00  0.00     0.048 C 
ATOM     10  C   UNL A   1      28.626  27.557  23.404  1.00  0.00    -0.014 C 
BRANCH   7  11
ATOM     11  N   UNL A   1      29.882  25.226  25.541  1.00  0.00    -0.346 N 
ATOM     12  O   UNL A   1      30.411  23.860  27.252  1.00  0.00    -0.269 OA
ATOM     13  C   UNL A   1      30.728  24.349  26.171  1.00  0.00     0.251 C 
ATOM     14  H   UNL A   1      29.138  25.558  26.093  1.00  0.00     0.164 HD
BRANCH  13  15
ATOM     15  C   UNL A   1      32.019  23.965  25.566  1.00  0.00     0.039 A 
ATOM     16  C   UNL A   1      32.075  23.021  24.537  1.00  0.00     0.015 A 
ATOM     17  C   UNL A   1      33.175  24.662  25.929  1.00  0.00     0.015 A 
ATOM     18  C   UNL A   1      33.294  22.700  23.938  1.00  0.00     0.016 A 
ATOM     19  C   UNL A   1      34.394  24.364  25.311  1.00  0.00     0.016 A 
ATOM     20  C   UNL A   1      34.449  23.373  24.329  1.00  0.00     0.018 A 
ATOM     21  Br  UNL A   1      36.096  22.962  23.499  1.00  0.00    -0.051 Br
ENDBRANCH  13  15
ENDBRANCH   7  11
ENDBRANCH   4   6
ENDBRANCH   3   4
ENDBRANCH   2   3
ENDBRANCH   1   2
BRANCH   1  22
ATOM     22  O   UNL A   1      33.499  30.529  26.582  1.00  0.00    -0.458 OA
BRANCH  22  23
ATOM     23  C   UNL A   1      33.990  31.512  27.372  1.00  0.00     0.338 C 
ATOM     24  O   UNL A   1      33.452  32.567  27.662  1.00  0.00    -0.246 OA
BRANCH  23  25
ATOM     25  C   UNL A   1      35.267  31.086  27.964  1.00  0.00     0.060 A 
ATOM     26  C   UNL A   1      35.360  29.787  28.469  1.00  0.00     0.016 A 
ATOM     27  C   UNL A   1      36.329  31.980  28.099  1.00  0.00     0.016 A 
ATOM     28  C   UNL A   1      36.520  29.373  29.119  1.00  0.00     0.010 A 
ATOM     29  C   UNL A   1      37.495  31.561  28.748  1.00  0.00     0.010 A 
ATOM     30  C   UNL A   1      37.594  30.259  29.271  1.00  0.00    -0.014 A 
BRANCH  30  31
ATOM     31  C   UNL A   1      38.812  29.827  29.998  1.00  0.00     0.031 A 
ATOM     32  C   UNL A   1      39.718  28.787  29.398  1.00  0.00     0.074 A 
ATOM     33  C   UNL A   1      39.102  30.372  31.195  1.00  0.00     0.049 A 
ATOM     34  N   UNL A   1      40.790  28.237  29.906  1.00  0.00    -0.248 NA
ATOM     35  C   UNL A   1      39.374  28.306  28.050  1.00  0.00     0.031 C 
ATOM     36  C   UNL A   1      38.304  31.396  31.869  1.00  0.00     0.029 A 
ATOM     37  N   UNL A   1      40.135  30.127  32.063  1.00  0.00    -0.354 N 
ATOM     38  C   UNL A   1      41.237  27.328  28.955  1.00  0.00     0.074 A 
ATOM     39  C   UNL A   1      40.315  27.394  27.841  1.00  0.00     0.031 C 
ATOM     40  C   UNL A   1      38.869  31.682  33.055  1.00  0.00     0.029 A 
ATOM     41  C   UNL A   1      40.047  30.838  33.237  1.00  0.00     0.049 A 
ATOM     42  H   UNL A   1      40.869  29.502  31.866  1.00  0.00     0.167 HD
ATOM     43  C   UNL A   1      42.328  26.527  28.997  1.00  0.00     0.034 A 
ATOM     44  C   UNL A   1      40.815  30.798  34.343  1.00  0.00     0.034 A 
ATOM     45  C   UNL A   1      43.257  26.482  30.096  1.00  0.00     0.049 A 
ATOM     46  C   UNL A   1      42.007  29.876  34.370  1.00  0.00     0.074 A 
ATOM     47  C   UNL A   1      44.392  25.703  30.232  1.00  0.00     0.029 A 
ATOM     48  N   UNL A   1      43.161  27.252  31.245  1.00  0.00    -0.354 N 
ATOM     49  N   UNL A   1      42.459  29.083  33.429  1.00  0.00    -0.248 NA
ATOM     50  C   UNL A   1      42.809  29.864  35.603  1.00  0.00     0.031 C 
ATOM     51  C   UNL A   1      44.982  26.000  31.465  1.00  0.00     0.029 A 
ATOM     52  C   UNL A   1      44.219  26.971  32.092  1.00  0.00     0.049 A 
ATOM     53  H   UNL A   1      42.445  27.901  31.431  1.00  0.00     0.167 HD
ATOM     54  C   UNL A   1      43.615  28.506  33.942  1.00  0.00     0.074 A 
ATOM     55  C   UNL A   1      43.807  29.058  35.267  1.00  0.00     0.031 C 
ATOM     56  C   UNL A   1      44.432  27.583  33.378  1.00  0.00     0.034 A 
BRANCH  43  57
ATOM     57  C   UNL A   1      42.613  25.665  27.797  1.00  0.00     0.023 A 
ATOM     58  C   UNL A   1      43.462  26.156  26.785  1.00  0.00     0.012 A 
ATOM     59  C   UNL A   1      42.110  24.353  27.704  1.00  0.00     0.148 A 
ATOM     60  C   UNL A   1      43.792  25.361  25.688  1.00  0.00     0.002 A 
ATOM     61  C   UNL A   1      42.471  23.554  26.624  1.00  0.00     0.091 A 
ATOM     62  F   UNL A   1      41.289  23.913  28.667  1.00  0.00    -0.205 F 
ATOM     63  C   UNL A   1      43.306  24.059  25.613  1.00  0.00     0.022 A 
BRANCH  61  64
ATOM     64  S   UNL A   1      41.951  21.842  26.465  1.00  0.00     0.127 S 
ATOM     65  O   UNL A   1      40.533  21.992  26.141  1.00  0.00    -0.237 OA
ATOM     66  O   UNL A   1      42.783  21.368  25.358  1.00  0.00    -0.237 OA
ATOM     67  O   UNL A   1      42.234  21.214  27.749  1.00  0.00    -0.744 OA
ENDBRANCH  61  64
ENDBRANCH  43  57
BRANCH  44  68
ATOM     68  C   UNL A   1      40.510  31.682  35.503  1.00  0.00     0.023 A 
ATOM     69  C   UNL A   1      41.405  32.717  35.838  1.00  0.00     0.012 A 
ATOM     70  C   UNL A   1      39.344  31.509  36.272  1.00  0.00     0.148 A 
ATOM     71  C   UNL A   1      41.159  33.543  36.936  1.00  0.00     0.002 A 
ATOM     72  C   UNL A   1      39.079  32.370  37.331  1.00  0.00     0.091 A 
ATOM     73  F   UNL A   1      38.515  30.503  35.959  1.00  0.00    -0.205 F 
ATOM     74  C   UNL A   1      39.992  33.376  37.677  1.00  0.00     0.022 A 
BRANCH  72  75
ATOM     75  S   UNL A   1      37.529  32.292  38.239  1.00  0.00     0.127 S 
ATOM     76  O   UNL A   1      36.637  33.063  37.378  1.00  0.00    -0.237 OA
ATOM     77  O   UNL A   1      37.258  30.855  38.276  1.00  0.00    -0.237 OA
ATOM     78  O   UNL A   1      37.828  32.872  39.542  1.00  0.00    -0.744 OA
ENDBRANCH  72  75
ENDBRANCH  44  68
BRANCH  56  79
ATOM     79  C   UNL A   1      45.630  27.137  34.172  1.00  0.00     0.023 A 
ATOM     80  C   UNL A   1      46.836  27.859  34.076  1.00  0.00     0.012 A 
ATOM     81  C   UNL A   1      45.542  26.050  35.064  1.00  0.00     0.148 A 
ATOM     82  C   UNL A   1      47.946  27.488  34.834  1.00  0.00     0.002 A 
ATOM     83  C   UNL A   1      46.639  25.713  35.848  1.00  0.00     0.091 A 
ATOM     84  F   UNL A   1      44.392  25.364  35.125  1.00  0.00    -0.205 F 
ATOM     85  C   UNL A   1      47.844  26.425  35.727  1.00  0.00     0.022 A 
BRANCH  83  86
ATOM     86  S   UNL A   1      46.569  24.412  37.085  1.00  0.00     0.127 S 
ATOM     87  O   UNL A   1      45.941  23.324  36.338  1.00  0.00    -0.237 OA
ATOM     88  O   UNL A   1      47.983  24.201  37.398  1.00  0.00    -0.237 OA
ATOM     89  O   UNL A   1      45.785  24.955  38.187  1.00  0.00    -0.744 OA
ENDBRANCH  83  86
ENDBRANCH  56  79
ENDBRANCH  30  31
ENDBRANCH  23  25
ENDBRANCH  22  23
ENDBRANCH   1  22
TORSDOF 16
ENDMDL
