MODEL 1
REMARK VINA RESULT:     -12.3      0.000      0.000
REMARK SMILES CC(C)c1ccc([C@]2(C(=O)OCCOC(=O)c3ccc(-c4c5nc(c(-c6cccc(S(=O)(=O)[O-])c6F)c6ccc([nH]6)c(-c6cccc(S(=O)(=O)[O-])c6F)c6nc(c(-c7cccc(S(=O)(=O)[O-])c7F)c7ccc4[nH]7)C=C6)C=C5)cc3)CCC[C@@H]2C)cc1
REMARK SMILES IDX 13 1 12 2 11 3 9 4 10 5 8 6 80 7 83 8 81 9 82 10 84 11 7 12
REMARK SMILES IDX 4 13 5 14 86 15 6 16 85 17 2 18 1 19 3 20 14 21 15 22 16 23
REMARK SMILES IDX 17 24 18 25 79 26 19 27 78 28 20 29 21 30 22 31 72 32 23 33
REMARK SMILES IDX 77 34 71 35 73 36 24 37 76 38 70 39 69 40 25 42 57 43 37 44
REMARK SMILES IDX 56 45 38 46 41 47 55 48 74 49 39 50 40 51 54 53 75 54 42 55
REMARK SMILES IDX 26 56 27 57 35 58 28 59 30 60 36 61 29 62 31 63 32 64 33 65
REMARK SMILES IDX 34 66 58 67 59 68 67 69 60 70 62 71 68 72 61 73 63 74 64 75
REMARK SMILES IDX 65 76 66 77 43 78 44 79 52 80 45 81 47 82 53 83 46 84 48 85
REMARK SMILES IDX 49 86 50 87 51 88
REMARK H PARENT 73 41 41 52
REMARK Flexibility Score: inf
ROOT
ATOM      1  C   UNL A   1      36.921  21.451  24.159  1.00  0.00     0.275 C 
ENDROOT
BRANCH   1   2
ATOM      2  C   UNL A   1      36.668  22.757  23.416  1.00  0.00     0.274 C 
BRANCH   2   3
ATOM      3  O   UNL A   1      35.783  23.595  24.187  1.00  0.00    -0.461 OA
BRANCH   3   4
ATOM      4  C   UNL A   1      34.556  23.860  23.657  1.00  0.00     0.316 C 
ATOM      5  O   UNL A   1      34.388  24.422  22.579  1.00  0.00    -0.251 OA
BRANCH   4   6
ATOM      6  C   UNL A   1      33.390  23.472  24.617  1.00  0.00     0.095 C 
ATOM      7  C   UNL A   1      33.631  23.960  26.069  1.00  0.00     0.024 C 
ATOM      8  C   UNL A   1      32.168  24.360  24.207  1.00  0.00     0.008 C 
ATOM      9  C   UNL A   1      33.249  25.444  26.102  1.00  0.00     0.002 C 
ATOM     10  C   UNL A   1      32.531  25.734  24.788  1.00  0.00     0.005 C 
ATOM     11  C   UNL A   1      30.806  23.916  24.763  1.00  0.00     0.009 C 
BRANCH   6  12
ATOM     12  C   UNL A   1      33.149  21.957  24.511  1.00  0.00    -0.030 A 
ATOM     13  C   UNL A   1      32.736  19.140  24.242  1.00  0.00    -0.045 A 
ATOM     14  C   UNL A   1      32.381  20.021  23.216  1.00  0.00     0.004 A 
ATOM     15  C   UNL A   1      33.293  19.686  25.407  1.00  0.00     0.004 A 
ATOM     16  C   UNL A   1      32.601  21.399  23.342  1.00  0.00     0.005 A 
ATOM     17  C   UNL A   1      33.506  21.067  25.536  1.00  0.00     0.005 A 
BRANCH  13  18
ATOM     18  C   UNL A   1      32.569  17.631  24.130  1.00  0.00     0.013 C 
ATOM     19  C   UNL A   1      33.738  17.018  23.358  1.00  0.00     0.012 C 
ATOM     20  C   UNL A   1      32.396  16.910  25.472  1.00  0.00     0.012 C 
ENDBRANCH  13  18
ENDBRANCH   6  12
ENDBRANCH   4   6
ENDBRANCH   3   4
ENDBRANCH   2   3
ENDBRANCH   1   2
BRANCH   1  21
ATOM     21  O   UNL A   1      37.255  21.754  25.521  1.00  0.00    -0.458 OA
BRANCH  21  22
ATOM     22  C   UNL A   1      38.522  21.484  25.899  1.00  0.00     0.338 C 
ATOM     23  O   UNL A   1      39.134  20.432  25.753  1.00  0.00    -0.246 OA
BRANCH  22  24
ATOM     24  C   UNL A   1      39.106  22.681  26.519  1.00  0.00     0.060 A 
ATOM     25  C   UNL A   1      38.529  23.927  26.283  1.00  0.00     0.016 A 
ATOM     26  C   UNL A   1      40.291  22.581  27.246  1.00  0.00     0.016 A 
ATOM     27  C   UNL A   1      39.193  25.080  26.695  1.00  0.00     0.010 A 
ATOM     28  C   UNL A   1      40.907  23.741  27.731  1.00  0.00     0.010 A 
ATOM     29  C   UNL A   1      40.396  25.012  27.415  1.00  0.00    -0.014 A 
BRANCH  29  30
ATOM     30  C   UNL A   1      41.144  26.260  27.759  1.00  0.00     0.031 A 
ATOM     31  C   UNL A   1      40.543  27.275  28.702  1.00  0.00     0.074 A 
ATOM     32  C   UNL A   1      42.384  26.481  27.274  1.00  0.00     0.049 A 
ATOM     33  N   UNL A   1      40.970  28.475  29.003  1.00  0.00    -0.248 NA
ATOM     34  C   UNL A   1      39.290  26.906  29.383  1.00  0.00     0.031 C 
ATOM     35  C   UNL A   1      43.114  25.584  26.380  1.00  0.00     0.029 A 
ATOM     36  N   UNL A   1      43.266  27.512  27.496  1.00  0.00    -0.354 N 
ATOM     37  C   UNL A   1      39.983  29.045  29.800  1.00  0.00     0.074 A 
ATOM     38  C   UNL A   1      38.958  28.041  29.981  1.00  0.00     0.031 C 
ATOM     39  C   UNL A   1      44.360  26.048  26.209  1.00  0.00     0.029 A 
ATOM     40  C   UNL A   1      44.493  27.328  26.899  1.00  0.00     0.049 A 
ATOM     41  H   UNL A   1      43.041  28.308  28.032  1.00  0.00     0.167 HD
ATOM     42  C   UNL A   1      39.932  30.291  30.325  1.00  0.00     0.034 A 
ATOM     43  C   UNL A   1      45.597  28.103  26.894  1.00  0.00     0.034 A 
ATOM     44  C   UNL A   1      41.002  31.251  30.247  1.00  0.00     0.049 A 
ATOM     45  C   UNL A   1      45.558  29.440  27.580  1.00  0.00     0.074 A 
ATOM     46  C   UNL A   1      41.038  32.543  30.743  1.00  0.00     0.029 A 
ATOM     47  N   UNL A   1      42.239  31.009  29.672  1.00  0.00    -0.354 N 
ATOM     48  N   UNL A   1      44.601  29.972  28.300  1.00  0.00    -0.248 NA
ATOM     49  C   UNL A   1      46.748  30.293  27.440  1.00  0.00     0.031 C 
ATOM     50  C   UNL A   1      42.303  33.079  30.479  1.00  0.00     0.029 A 
ATOM     51  C   UNL A   1      43.053  32.119  29.818  1.00  0.00     0.049 A 
ATOM     52  H   UNL A   1      42.501  30.171  29.226  1.00  0.00     0.167 HD
ATOM     53  C   UNL A   1      45.062  31.228  28.678  1.00  0.00     0.074 A 
ATOM     54  C   UNL A   1      46.411  31.352  28.164  1.00  0.00     0.031 C 
ATOM     55  C   UNL A   1      44.408  32.212  29.344  1.00  0.00     0.034 A 
BRANCH  42  56
ATOM     56  C   UNL A   1      38.675  30.701  31.045  1.00  0.00     0.023 A 
ATOM     57  C   UNL A   1      38.559  30.495  32.432  1.00  0.00     0.012 A 
ATOM     58  C   UNL A   1      37.637  31.356  30.352  1.00  0.00     0.148 A 
ATOM     59  C   UNL A   1      37.419  30.918  33.117  1.00  0.00     0.002 A 
ATOM     60  C   UNL A   1      36.521  31.809  31.046  1.00  0.00     0.091 A 
ATOM     61  F   UNL A   1      37.754  31.517  29.026  1.00  0.00    -0.205 F 
ATOM     62  C   UNL A   1      36.408  31.585  32.427  1.00  0.00     0.022 A 
BRANCH  60  63
ATOM     63  S   UNL A   1      35.213  32.745  30.246  1.00  0.00     0.127 S 
ATOM     64  O   UNL A   1      35.942  33.912  29.753  1.00  0.00    -0.237 OA
ATOM     65  O   UNL A   1      34.760  31.824  29.201  1.00  0.00    -0.237 OA
ATOM     66  O   UNL A   1      34.225  33.007  31.284  1.00  0.00    -0.744 OA
ENDBRANCH  60  63
ENDBRANCH  42  56
BRANCH  43  67
ATOM     67  C   UNL A   1      46.850  27.607  26.253  1.00  0.00     0.023 A 
ATOM     68  C   UNL A   1      47.687  26.734  26.974  1.00  0.00     0.012 A 
ATOM     69  C   UNL A   1      47.185  27.929  24.924  1.00  0.00     0.148 A 
ATOM     70  C   UNL A   1      48.834  26.197  26.386  1.00  0.00     0.002 A 
ATOM     71  C   UNL A   1      48.287  27.331  24.321  1.00  0.00     0.091 A 
ATOM     72  F   UNL A   1      46.410  28.796  24.257  1.00  0.00    -0.205 F 
ATOM     73  C   UNL A   1      49.123  26.478  25.053  1.00  0.00     0.022 A 
BRANCH  71  74
ATOM     74  S   UNL A   1      48.575  27.512  22.557  1.00  0.00     0.127 S 
ATOM     75  O   UNL A   1      47.407  28.273  22.131  1.00  0.00    -0.237 OA
ATOM     76  O   UNL A   1      49.840  28.248  22.511  1.00  0.00    -0.237 OA
ATOM     77  O   UNL A   1      48.674  26.142  22.065  1.00  0.00    -0.744 OA
ENDBRANCH  71  74
ENDBRANCH  43  67
BRANCH  55  78
ATOM     78  C   UNL A   1      45.127  33.521  29.530  1.00  0.00     0.023 A 
ATOM     79  C   UNL A   1      45.897  33.716  30.694  1.00  0.00     0.012 A 
ATOM     80  C   UNL A   1      45.109  34.518  28.537  1.00  0.00     0.148 A 
ATOM     81  C   UNL A   1      46.618  34.893  30.879  1.00  0.00     0.002 A 
ATOM     82  C   UNL A   1      45.858  35.677  28.712  1.00  0.00     0.091 A 
ATOM     83  F   UNL A   1      44.353  34.324  27.445  1.00  0.00    -0.205 F 
ATOM     84  C   UNL A   1      46.607  35.870  29.885  1.00  0.00     0.022 A 
BRANCH  82  85
ATOM     85  S   UNL A   1      45.959  36.950  27.448  1.00  0.00     0.127 S 
ATOM     86  O   UNL A   1      46.390  36.180  26.283  1.00  0.00    -0.237 OA
ATOM     87  O   UNL A   1      44.581  37.439  27.380  1.00  0.00    -0.237 OA
ATOM     88  O   UNL A   1      46.917  37.927  27.949  1.00  0.00    -0.744 OA
ENDBRANCH  82  85
ENDBRANCH  55  78
ENDBRANCH  29  30
ENDBRANCH  22  24
ENDBRANCH  21  22
ENDBRANCH   1  21
TORSDOF 16
ENDMDL
MODEL 2
REMARK VINA RESULT:     -12.2      1.697      3.478
REMARK SMILES CC(C)c1ccc([C@]2(C(=O)OCCOC(=O)c3ccc(-c4c5nc(c(-c6cccc(S(=O)(=O)[O-])c6F)c6ccc([nH]6)c(-c6cccc(S(=O)(=O)[O-])c6F)c6nc(c(-c7cccc(S(=O)(=O)[O-])c7F)c7ccc4[nH]7)C=C6)C=C5)cc3)CCC[C@@H]2C)cc1
REMARK SMILES IDX 13 1 12 2 11 3 9 4 10 5 8 6 80 7 83 8 81 9 82 10 84 11 7 12
REMARK SMILES IDX 4 13 5 14 86 15 6 16 85 17 2 18 1 19 3 20 14 21 15 22 16 23
REMARK SMILES IDX 17 24 18 25 79 26 19 27 78 28 20 29 21 30 22 31 72 32 23 33
REMARK SMILES IDX 77 34 71 35 73 36 24 37 76 38 70 39 69 40 25 42 57 43 37 44
REMARK SMILES IDX 56 45 38 46 41 47 55 48 74 49 39 50 40 51 54 53 75 54 42 55
REMARK SMILES IDX 26 56 27 57 35 58 28 59 30 60 36 61 29 62 31 63 32 64 33 65
REMARK SMILES IDX 34 66 58 67 59 68 67 69 60 70 62 71 68 72 61 73 63 74 64 75
REMARK SMILES IDX 65 76 66 77 43 78 44 79 52 80 45 81 47 82 53 83 46 84 48 85
REMARK SMILES IDX 49 86 50 87 51 88
REMARK H PARENT 73 41 41 52
REMARK Flexibility Score: inf
ROOT
ATOM      1  C   UNL A   1      36.128  20.407  24.990  1.00  0.00     0.275 C 
ENDROOT
BRANCH   1   2
ATOM      2  C   UNL A   1      34.666  20.729  25.272  1.00  0.00     0.274 C 
BRANCH   2   3
ATOM      3  O   UNL A   1      34.481  22.158  25.329  1.00  0.00    -0.461 OA
BRANCH   3   4
ATOM      4  C   UNL A   1      33.204  22.617  25.467  1.00  0.00     0.316 C 
ATOM      5  O   UNL A   1      32.420  22.197  26.312  1.00  0.00    -0.251 OA
BRANCH   4   6
ATOM      6  C   UNL A   1      32.815  23.651  24.367  1.00  0.00     0.095 C 
ATOM      7  C   UNL A   1      33.513  23.366  23.011  1.00  0.00     0.024 C 
ATOM      8  C   UNL A   1      31.322  23.357  23.996  1.00  0.00     0.008 C 
ATOM      9  C   UNL A   1      32.715  22.247  22.334  1.00  0.00     0.002 C 
ATOM     10  C   UNL A   1      31.424  22.091  23.133  1.00  0.00     0.005 C 
ATOM     11  C   UNL A   1      30.605  24.459  23.201  1.00  0.00     0.009 C 
BRANCH   6  12
ATOM     12  C   UNL A   1      33.077  25.066  24.907  1.00  0.00    -0.030 A 
ATOM     13  C   UNL A   1      33.542  27.728  25.840  1.00  0.00    -0.045 A 
ATOM     14  C   UNL A   1      34.050  27.298  24.611  1.00  0.00     0.004 A 
ATOM     15  C   UNL A   1      32.804  26.809  26.600  1.00  0.00     0.004 A 
ATOM     16  C   UNL A   1      33.806  25.999  24.147  1.00  0.00     0.005 A 
ATOM     17  C   UNL A   1      32.567  25.506  26.138  1.00  0.00     0.005 A 
BRANCH  13  18
ATOM     18  C   UNL A   1      33.732  29.147  26.362  1.00  0.00     0.013 C 
ATOM     19  C   UNL A   1      32.513  29.587  27.173  1.00  0.00     0.012 C 
ATOM     20  C   UNL A   1      35.009  29.354  27.185  1.00  0.00     0.012 C 
ENDBRANCH  13  18
ENDBRANCH   6  12
ENDBRANCH   4   6
ENDBRANCH   3   4
ENDBRANCH   2   3
ENDBRANCH   1   2
BRANCH   1  21
ATOM     21  O   UNL A   1      36.932  21.521  25.404  1.00  0.00    -0.458 OA
BRANCH  21  22
ATOM     22  C   UNL A   1      38.216  21.247  25.712  1.00  0.00     0.338 C 
ATOM     23  O   UNL A   1      38.822  20.199  25.515  1.00  0.00    -0.246 OA
BRANCH  22  24
ATOM     24  C   UNL A   1      38.829  22.433  26.325  1.00  0.00     0.060 A 
ATOM     25  C   UNL A   1      38.250  23.684  26.128  1.00  0.00     0.016 A 
ATOM     26  C   UNL A   1      40.042  22.318  27.005  1.00  0.00     0.016 A 
ATOM     27  C   UNL A   1      38.935  24.829  26.531  1.00  0.00     0.010 A 
ATOM     28  C   UNL A   1      40.681  23.469  27.481  1.00  0.00     0.010 A 
ATOM     29  C   UNL A   1      40.164  24.747  27.202  1.00  0.00    -0.014 A 
BRANCH  29  30
ATOM     30  C   UNL A   1      40.931  25.987  27.534  1.00  0.00     0.031 A 
ATOM     31  C   UNL A   1      40.362  27.001  28.498  1.00  0.00     0.074 A 
ATOM     32  C   UNL A   1      42.159  26.200  27.019  1.00  0.00     0.049 A 
ATOM     33  N   UNL A   1      40.806  28.196  28.794  1.00  0.00    -0.248 NA
ATOM     34  C   UNL A   1      39.124  26.638  29.208  1.00  0.00     0.031 C 
ATOM     35  C   UNL A   1      42.859  25.302  26.102  1.00  0.00     0.029 A 
ATOM     36  N   UNL A   1      43.055  27.223  27.225  1.00  0.00    -0.354 N 
ATOM     37  C   UNL A   1      39.844  28.769  29.619  1.00  0.00     0.074 A 
ATOM     38  C   UNL A   1      38.816  27.772  29.820  1.00  0.00     0.031 C 
ATOM     39  C   UNL A   1      44.104  25.758  25.902  1.00  0.00     0.029 A 
ATOM     40  C   UNL A   1      44.265  27.033  26.595  1.00  0.00     0.049 A 
ATOM     41  H   UNL A   1      42.851  28.017  27.770  1.00  0.00     0.167 HD
ATOM     42  C   UNL A   1      39.816  30.013  30.152  1.00  0.00     0.034 A 
ATOM     43  C   UNL A   1      45.375  27.799  26.567  1.00  0.00     0.034 A 
ATOM     44  C   UNL A   1      40.891  30.964  30.052  1.00  0.00     0.049 A 
ATOM     45  C   UNL A   1      45.365  29.133  27.261  1.00  0.00     0.074 A 
ATOM     46  C   UNL A   1      40.951  32.253  30.554  1.00  0.00     0.029 A 
ATOM     47  N   UNL A   1      42.112  30.716  29.444  1.00  0.00    -0.354 N 
ATOM     48  N   UNL A   1      44.430  29.668  28.008  1.00  0.00    -0.248 NA
ATOM     49  C   UNL A   1      46.558  29.977  27.095  1.00  0.00     0.031 C 
ATOM     50  C   UNL A   1      42.214  32.780  30.261  1.00  0.00     0.029 A 
ATOM     51  C   UNL A   1      42.939  31.819  29.576  1.00  0.00     0.049 A 
ATOM     52  H   UNL A   1      42.355  29.879  28.987  1.00  0.00     0.167 HD
ATOM     53  C   UNL A   1      44.911  30.918  28.380  1.00  0.00     0.074 A 
ATOM     54  C   UNL A   1      46.247  31.035  27.833  1.00  0.00     0.031 C 
ATOM     55  C   UNL A   1      44.282  31.903  29.068  1.00  0.00     0.034 A 
BRANCH  42  56
ATOM     56  C   UNL A   1      38.582  30.428  30.906  1.00  0.00     0.023 A 
ATOM     57  C   UNL A   1      38.455  30.123  32.274  1.00  0.00     0.012 A 
ATOM     58  C   UNL A   1      37.578  31.186  30.269  1.00  0.00     0.148 A 
ATOM     59  C   UNL A   1      37.338  30.548  32.993  1.00  0.00     0.002 A 
ATOM     60  C   UNL A   1      36.486  31.639  31.000  1.00  0.00     0.091 A 
ATOM     61  F   UNL A   1      37.702  31.442  28.959  1.00  0.00    -0.205 F 
ATOM     62  C   UNL A   1      36.361  31.316  32.360  1.00  0.00     0.022 A 
BRANCH  60  63
ATOM     63  S   UNL A   1      35.226  32.698  30.278  1.00  0.00     0.127 S 
ATOM     64  O   UNL A   1      34.717  31.859  29.196  1.00  0.00    -0.237 OA
ATOM     65  O   UNL A   1      34.296  32.885  31.394  1.00  0.00    -0.237 OA
ATOM     66  O   UNL A   1      35.920  33.911  29.867  1.00  0.00    -0.744 OA
ENDBRANCH  60  63
ENDBRANCH  42  56
BRANCH  43  67
ATOM     67  C   UNL A   1      46.607  27.297  25.891  1.00  0.00     0.023 A 
ATOM     68  C   UNL A   1      46.811  27.597  24.530  1.00  0.00     0.012 A 
ATOM     69  C   UNL A   1      47.605  26.590  26.589  1.00  0.00     0.148 A 
ATOM     70  C   UNL A   1      47.980  27.200  23.879  1.00  0.00     0.002 A 
ATOM     71  C   UNL A   1      48.799  26.266  25.954  1.00  0.00     0.091 A 
ATOM     72  F   UNL A   1      47.387  26.267  27.871  1.00  0.00    -0.205 F 
ATOM     73  C   UNL A   1      48.984  26.554  24.595  1.00  0.00     0.022 A 
BRANCH  71  74
ATOM     74  S   UNL A   1      50.187  25.614  26.891  1.00  0.00     0.127 S 
ATOM     75  O   UNL A   1      51.217  25.488  25.866  1.00  0.00    -0.237 OA
ATOM     76  O   UNL A   1      50.428  26.665  27.881  1.00  0.00    -0.237 OA
ATOM     77  O   UNL A   1      49.684  24.370  27.464  1.00  0.00    -0.744 OA
ENDBRANCH  71  74
ENDBRANCH  43  67
BRANCH  55  78
ATOM     78  C   UNL A   1      45.016  33.206  29.243  1.00  0.00     0.023 A 
ATOM     79  C   UNL A   1      45.824  33.384  30.383  1.00  0.00     0.012 A 
ATOM     80  C   UNL A   1      44.972  34.213  28.260  1.00  0.00     0.148 A 
ATOM     81  C   UNL A   1      46.560  34.555  30.556  1.00  0.00     0.002 A 
ATOM     82  C   UNL A   1      45.736  35.364  28.422  1.00  0.00     0.091 A 
ATOM     83  F   UNL A   1      44.181  34.034  27.192  1.00  0.00    -0.205 F 
ATOM     84  C   UNL A   1      46.524  35.540  29.572  1.00  0.00     0.022 A 
BRANCH  82  85
ATOM     85  S   UNL A   1      45.804  36.649  27.168  1.00  0.00     0.127 S 
ATOM     86  O   UNL A   1      46.721  37.612  27.776  1.00  0.00    -0.237 OA
ATOM     87  O   UNL A   1      46.348  35.935  26.012  1.00  0.00    -0.237 OA
ATOM     88  O   UNL A   1      44.431  37.106  26.998  1.00  0.00    -0.744 OA
ENDBRANCH  82  85
ENDBRANCH  55  78
ENDBRANCH  29  30
ENDBRANCH  22  24
ENDBRANCH  21  22
ENDBRANCH   1  21
TORSDOF 16
ENDMDL
MODEL 3
REMARK VINA RESULT:     -12.1      5.166      9.937
REMARK SMILES CC(C)c1ccc([C@]2(C(=O)OCCOC(=O)c3ccc(-c4c5nc(c(-c6cccc(S(=O)(=O)[O-])c6F)c6ccc([nH]6)c(-c6cccc(S(=O)(=O)[O-])c6F)c6nc(c(-c7cccc(S(=O)(=O)[O-])c7F)c7ccc4[nH]7)C=C6)C=C5)cc3)CCC[C@@H]2C)cc1
REMARK SMILES IDX 13 1 12 2 11 3 9 4 10 5 8 6 80 7 83 8 81 9 82 10 84 11 7 12
REMARK SMILES IDX 4 13 5 14 86 15 6 16 85 17 2 18 1 19 3 20 14 21 15 22 16 23
REMARK SMILES IDX 17 24 18 25 79 26 19 27 78 28 20 29 21 30 22 31 72 32 23 33
REMARK SMILES IDX 77 34 71 35 73 36 24 37 76 38 70 39 69 40 25 42 57 43 37 44
REMARK SMILES IDX 56 45 38 46 41 47 55 48 74 49 39 50 40 51 54 53 75 54 42 55
REMARK SMILES IDX 26 56 27 57 35 58 28 59 30 60 36 61 29 62 31 63 32 64 33 65
REMARK SMILES IDX 34 66 58 67 59 68 67 69 60 70 62 71 68 72 61 73 63 74 64 75
REMARK SMILES IDX 65 76 66 77 43 78 44 79 52 80 45 81 47 82 53 83 46 84 48 85
REMARK SMILES IDX 49 86 50 87 51 88
REMARK H PARENT 73 41 41 52
REMARK Flexibility Score: inf
ROOT
ATOM      1  C   UNL A   1      31.321  30.473  25.534  1.00  0.00     0.275 C 
ENDROOT
BRANCH   1   2
ATOM      2  C   UNL A   1      31.115  29.384  24.489  1.00  0.00     0.274 C 
BRANCH   2   3
ATOM      3  O   UNL A   1      31.982  28.266  24.769  1.00  0.00    -0.461 OA
BRANCH   3   4
ATOM      4  C   UNL A   1      32.109  27.317  23.799  1.00  0.00     0.316 C 
ATOM      5  O   UNL A   1      32.312  27.577  22.617  1.00  0.00    -0.251 OA
BRANCH   4   6
ATOM      6  C   UNL A   1      31.859  25.874  24.333  1.00  0.00     0.095 C 
ATOM      7  C   UNL A   1      31.045  25.863  25.653  1.00  0.00     0.024 C 
ATOM      8  C   UNL A   1      30.836  25.211  23.351  1.00  0.00     0.008 C 
ATOM      9  C   UNL A   1      29.574  26.042  25.262  1.00  0.00     0.002 C 
ATOM     10  C   UNL A   1      29.505  25.865  23.748  1.00  0.00     0.005 C 
ATOM     11  C   UNL A   1      30.705  23.685  23.456  1.00  0.00     0.009 C 
BRANCH   6  12
ATOM     12  C   UNL A   1      33.211  25.148  24.440  1.00  0.00    -0.030 A 
ATOM     13  C   UNL A   1      35.747  23.833  24.571  1.00  0.00    -0.045 A 
ATOM     14  C   UNL A   1      34.985  23.814  23.399  1.00  0.00     0.004 A 
ATOM     15  C   UNL A   1      35.221  24.513  25.680  1.00  0.00     0.004 A 
ATOM     16  C   UNL A   1      33.752  24.473  23.331  1.00  0.00     0.005 A 
ATOM     17  C   UNL A   1      33.982  25.167  25.613  1.00  0.00     0.005 A 
BRANCH  13  18
ATOM     18  C   UNL A   1      37.118  23.180  24.677  1.00  0.00     0.013 C 
ATOM     19  C   UNL A   1      37.747  23.470  26.040  1.00  0.00     0.012 C 
ATOM     20  C   UNL A   1      37.123  21.670  24.412  1.00  0.00     0.012 C 
ENDBRANCH  13  18
ENDBRANCH   6  12
ENDBRANCH   4   6
ENDBRANCH   3   4
ENDBRANCH   2   3
ENDBRANCH   1   2
BRANCH   1  21
ATOM     21  O   UNL A   1      32.642  30.343  26.079  1.00  0.00    -0.458 OA
BRANCH  21  22
ATOM     22  C   UNL A   1      33.045  31.329  26.908  1.00  0.00     0.338 C 
ATOM     23  O   UNL A   1      32.428  32.344  27.211  1.00  0.00    -0.246 OA
BRANCH  22  24
ATOM     24  C   UNL A   1      34.374  31.000  27.439  1.00  0.00     0.060 A 
ATOM     25  C   UNL A   1      34.737  29.665  27.603  1.00  0.00     0.016 A 
ATOM     26  C   UNL A   1      35.221  32.017  27.879  1.00  0.00     0.016 A 
ATOM     27  C   UNL A   1      35.905  29.350  28.293  1.00  0.00     0.010 A 
ATOM     28  C   UNL A   1      36.434  31.691  28.496  1.00  0.00     0.010 A 
ATOM     29  C   UNL A   1      36.769  30.352  28.762  1.00  0.00    -0.014 A 
BRANCH  29  30
ATOM     30  C   UNL A   1      37.963  29.997  29.588  1.00  0.00     0.031 A 
ATOM     31  C   UNL A   1      39.117  29.237  28.976  1.00  0.00     0.074 A 
ATOM     32  C   UNL A   1      38.055  30.387  30.876  1.00  0.00     0.049 A 
ATOM     33  N   UNL A   1      40.163  28.714  29.563  1.00  0.00    -0.248 NA
ATOM     34  C   UNL A   1      39.083  29.017  27.520  1.00  0.00     0.031 C 
ATOM     35  C   UNL A   1      37.044  31.153  31.602  1.00  0.00     0.029 A 
ATOM     36  N   UNL A   1      39.066  30.225  31.795  1.00  0.00    -0.354 N 
ATOM     37  C   UNL A   1      40.839  28.003  28.578  1.00  0.00     0.074 A 
ATOM     38  C   UNL A   1      40.115  28.204  27.342  1.00  0.00     0.031 C 
ATOM     39  C   UNL A   1      37.521  31.480  32.812  1.00  0.00     0.029 A 
ATOM     40  C   UNL A   1      38.832  30.865  32.991  1.00  0.00     0.049 A 
ATOM     41  H   UNL A   1      39.881  29.702  31.614  1.00  0.00     0.167 HD
ATOM     42  C   UNL A   1      41.956  27.247  28.693  1.00  0.00     0.034 A 
ATOM     43  C   UNL A   1      39.580  30.940  34.112  1.00  0.00     0.034 A 
ATOM     44  C   UNL A   1      42.745  27.141  29.892  1.00  0.00     0.049 A 
ATOM     45  C   UNL A   1      40.875  30.181  34.183  1.00  0.00     0.074 A 
ATOM     46  C   UNL A   1      43.890  26.393  30.106  1.00  0.00     0.029 A 
ATOM     47  N   UNL A   1      42.498  27.837  31.065  1.00  0.00    -0.354 N 
ATOM     48  N   UNL A   1      41.479  29.488  33.249  1.00  0.00    -0.248 NA
ATOM     49  C   UNL A   1      41.588  30.201  35.470  1.00  0.00     0.031 C 
ATOM     50  C   UNL A   1      44.343  26.645  31.406  1.00  0.00     0.029 A 
ATOM     51  C   UNL A   1      43.479  27.551  31.999  1.00  0.00     0.049 A 
ATOM     52  H   UNL A   1      41.738  28.444  31.211  1.00  0.00     0.167 HD
ATOM     53  C   UNL A   1      42.627  28.972  33.840  1.00  0.00     0.074 A 
ATOM     54  C   UNL A   1      42.670  29.486  35.194  1.00  0.00     0.031 C 
ATOM     55  C   UNL A   1      43.535  28.106  33.326  1.00  0.00     0.034 A 
BRANCH  42  56
ATOM     56  C   UNL A   1      42.408  26.469  27.486  1.00  0.00     0.023 A 
ATOM     57  C   UNL A   1      43.196  27.092  26.501  1.00  0.00     0.012 A 
ATOM     58  C   UNL A   1      42.107  25.097  27.369  1.00  0.00     0.148 A 
ATOM     59  C   UNL A   1      43.662  26.365  25.405  1.00  0.00     0.002 A 
ATOM     60  C   UNL A   1      42.606  24.370  26.295  1.00  0.00     0.091 A 
ATOM     61  F   UNL A   1      41.330  24.528  28.303  1.00  0.00    -0.205 F 
ATOM     62  C   UNL A   1      43.378  25.004  25.308  1.00  0.00     0.022 A 
BRANCH  60  63
ATOM     63  S   UNL A   1      42.351  22.598  26.139  1.00  0.00     0.127 S 
ATOM     64  O   UNL A   1      43.020  22.312  24.872  1.00  0.00    -0.237 OA
ATOM     65  O   UNL A   1      43.039  22.076  27.322  1.00  0.00    -0.237 OA
ATOM     66  O   UNL A   1      40.908  22.405  26.152  1.00  0.00    -0.744 OA
ENDBRANCH  60  63
ENDBRANCH  42  56
BRANCH  43  67
ATOM     67  C   UNL A   1      39.136  31.807  35.243  1.00  0.00     0.023 A 
ATOM     68  C   UNL A   1      38.338  31.249  36.260  1.00  0.00     0.012 A 
ATOM     69  C   UNL A   1      39.548  33.147  35.361  1.00  0.00     0.148 A 
ATOM     70  C   UNL A   1      37.956  32.009  37.367  1.00  0.00     0.002 A 
ATOM     71  C   UNL A   1      39.229  33.876  36.502  1.00  0.00     0.091 A 
ATOM     72  F   UNL A   1      40.271  33.688  34.369  1.00  0.00    -0.205 F 
ATOM     73  C   UNL A   1      38.419  33.316  37.500  1.00  0.00     0.022 A 
BRANCH  71  74
ATOM     74  S   UNL A   1      39.969  35.485  36.800  1.00  0.00     0.127 S 
ATOM     75  O   UNL A   1      39.460  36.268  35.680  1.00  0.00    -0.237 OA
ATOM     76  O   UNL A   1      39.423  35.854  38.107  1.00  0.00    -0.237 OA
ATOM     77  O   UNL A   1      41.404  35.226  36.813  1.00  0.00    -0.744 OA
ENDBRANCH  71  74
ENDBRANCH  43  67
BRANCH  55  78
ATOM     78  C   UNL A   1      44.636  27.633  34.236  1.00  0.00     0.023 A 
ATOM     79  C   UNL A   1      45.792  28.427  34.376  1.00  0.00     0.012 A 
ATOM     80  C   UNL A   1      44.504  26.461  35.004  1.00  0.00     0.148 A 
ATOM     81  C   UNL A   1      46.811  28.050  35.248  1.00  0.00     0.002 A 
ATOM     82  C   UNL A   1      45.510  26.108  35.898  1.00  0.00     0.091 A 
ATOM     83  F   UNL A   1      43.407  25.707  34.841  1.00  0.00    -0.205 F 
ATOM     84  C   UNL A   1      46.666  26.896  36.016  1.00  0.00     0.022 A 
BRANCH  82  85
ATOM     85  S   UNL A   1      45.369  24.679  36.978  1.00  0.00     0.127 S 
ATOM     86  O   UNL A   1      44.383  25.139  37.955  1.00  0.00    -0.237 OA
ATOM     87  O   UNL A   1      44.886  23.640  36.068  1.00  0.00    -0.237 OA
ATOM     88  O   UNL A   1      46.710  24.445  37.498  1.00  0.00    -0.744 OA
ENDBRANCH  82  85
ENDBRANCH  55  78
ENDBRANCH  29  30
ENDBRANCH  22  24
ENDBRANCH  21  22
ENDBRANCH   1  21
TORSDOF 16
ENDMDL
