MODEL 1
REMARK VINA RESULT:     -11.6      0.000      0.000
REMARK SMILES O=C(CCCc1nc(-c2cccc(Cl)c2)no1)OCCOC(=O)c1ccc(-c2c3nc(c(-c4cccc(S(=O)(=O)[O-])c4F)c4ccc([nH]4)c(-c4cccc(S(=O)(=O)[O-])c4F)c4nc(c(-c5cccc(S(=O)(=O)[O-])c5F)c5ccc2[nH]5)C=C4)C=C3)cc1
REMARK SMILES IDX 19 1 18 2 2 3 1 4 3 5 4 6 5 7 6 8 7 9 17 10 8 11 16 12 9 13
REMARK SMILES IDX 10 14 15 15 11 16 13 17 12 18 14 19 20 20 21 21 22 22 23 23
REMARK SMILES IDX 24 24 25 25 86 26 26 27 85 28 27 29 28 30 29 31 79 32 30 33
REMARK SMILES IDX 84 34 78 35 80 36 31 37 83 38 77 39 76 40 32 42 64 43 44 44
REMARK SMILES IDX 63 45 45 46 48 47 62 48 81 49 46 50 47 51 61 53 82 54 49 55
REMARK SMILES IDX 33 56 34 57 42 58 35 59 37 60 43 61 36 62 38 63 39 64 40 65
REMARK SMILES IDX 41 66 65 67 66 68 74 69 67 70 69 71 75 72 68 73 70 74 71 75
REMARK SMILES IDX 72 76 73 77 50 78 51 79 59 80 52 81 54 82 60 83 53 84 55 85
REMARK SMILES IDX 56 86 57 87 58 88
REMARK H PARENT 80 41 48 52
REMARK Flexibility Score: inf
ROOT
ATOM      1  C   UNL A   1      35.149  21.303  25.041  1.00  0.00     0.274 C 
ENDROOT
BRANCH   1   2
ATOM      2  O   UNL A   1      34.175  20.395  25.592  1.00  0.00    -0.462 OA
BRANCH   2   3
ATOM      3  C   UNL A   1      33.036  20.073  24.928  1.00  0.00     0.305 C 
ATOM      4  O   UNL A   1      32.149  19.429  25.480  1.00  0.00    -0.252 OA
BRANCH   3   5
ATOM      5  C   UNL A   1      32.959  20.419  23.458  1.00  0.00     0.123 C 
BRANCH   5   6
ATOM      6  C   UNL A   1      32.313  21.771  23.137  1.00  0.00     0.022 C 
BRANCH   6   7
ATOM      7  C   UNL A   1      33.194  22.824  22.446  1.00  0.00     0.101 C 
BRANCH   7   8
ATOM      8  C   UNL A   1      33.180  24.181  23.068  1.00  0.00     0.226 A 
ATOM      9  N   UNL A   1      32.991  24.542  24.320  1.00  0.00    -0.191 NA
ATOM     10  O   UNL A   1      33.494  25.231  22.264  1.00  0.00    -0.339 OA
ATOM     11  C   UNL A   1      33.157  25.915  24.262  1.00  0.00     0.202 A 
ATOM     12  N   UNL A   1      33.510  26.362  23.048  1.00  0.00    -0.057 NA
BRANCH  11  13
ATOM     13  C   UNL A   1      32.956  26.813  25.392  1.00  0.00     0.024 A 
ATOM     14  C   UNL A   1      31.690  26.985  25.966  1.00  0.00     0.012 A 
ATOM     15  C   UNL A   1      34.041  27.542  25.907  1.00  0.00     0.032 A 
ATOM     16  C   UNL A   1      31.511  27.877  27.029  1.00  0.00     0.002 A 
ATOM     17  C   UNL A   1      33.856  28.432  26.962  1.00  0.00     0.041 A 
ATOM     18  C   UNL A   1      32.594  28.604  27.524  1.00  0.00     0.020 A 
ATOM     19  Cl  UNL A   1      35.194  29.327  27.568  1.00  0.00    -0.084 Cl
ENDBRANCH  11  13
ENDBRANCH   7   8
ENDBRANCH   6   7
ENDBRANCH   5   6
ENDBRANCH   3   5
ENDBRANCH   2   3
ENDBRANCH   1   2
BRANCH   1  20
ATOM     20  C   UNL A   1      36.558  20.715  24.999  1.00  0.00     0.275 C 
BRANCH  20  21
ATOM     21  O   UNL A   1      37.541  21.754  25.128  1.00  0.00    -0.458 OA
BRANCH  21  22
ATOM     22  C   UNL A   1      38.669  21.397  25.786  1.00  0.00     0.338 C 
ATOM     23  O   UNL A   1      39.237  20.320  25.707  1.00  0.00    -0.246 OA
BRANCH  22  24
ATOM     24  C   UNL A   1      39.225  22.556  26.525  1.00  0.00     0.060 A 
ATOM     25  C   UNL A   1      38.636  23.804  26.285  1.00  0.00     0.016 A 
ATOM     26  C   UNL A   1      40.290  22.450  27.428  1.00  0.00     0.016 A 
ATOM     27  C   UNL A   1      39.154  24.950  26.887  1.00  0.00     0.010 A 
ATOM     28  C   UNL A   1      40.801  23.602  28.040  1.00  0.00     0.010 A 
ATOM     29  C   UNL A   1      40.266  24.864  27.735  1.00  0.00    -0.014 A 
BRANCH  29  30
ATOM     30  C   UNL A   1      40.935  26.120  28.157  1.00  0.00     0.031 A 
ATOM     31  C   UNL A   1      42.335  26.400  27.680  1.00  0.00     0.074 A 
ATOM     32  C   UNL A   1      40.285  27.040  28.894  1.00  0.00     0.049 A 
ATOM     33  N   UNL A   1      43.031  27.504  27.765  1.00  0.00    -0.248 NA
ATOM     34  C   UNL A   1      43.042  25.294  27.014  1.00  0.00     0.031 C 
ATOM     35  C   UNL A   1      38.940  26.891  29.442  1.00  0.00     0.029 A 
ATOM     36  N   UNL A   1      40.680  28.292  29.301  1.00  0.00    -0.354 N 
ATOM     37  C   UNL A   1      44.254  27.227  27.167  1.00  0.00     0.074 A 
ATOM     38  C   UNL A   1      44.220  25.841  26.756  1.00  0.00     0.031 C 
ATOM     39  C   UNL A   1      38.618  28.010  30.116  1.00  0.00     0.029 A 
ATOM     40  C   UNL A   1      39.730  28.956  30.040  1.00  0.00     0.049 A 
ATOM     41  H   UNL A   1      41.559  28.677  29.083  1.00  0.00     0.167 HD
ATOM     42  C   UNL A   1      45.300  28.058  26.945  1.00  0.00     0.034 A 
ATOM     43  C   UNL A   1      39.750  30.193  30.578  1.00  0.00     0.034 A 
ATOM     44  C   UNL A   1      45.336  29.440  27.335  1.00  0.00     0.049 A 
ATOM     45  C   UNL A   1      40.935  31.092  30.332  1.00  0.00     0.074 A 
ATOM     46  C   UNL A   1      46.326  30.377  27.095  1.00  0.00     0.029 A 
ATOM     47  N   UNL A   1      44.348  30.081  28.064  1.00  0.00    -0.354 N 
ATOM     48  N   UNL A   1      42.002  30.877  29.601  1.00  0.00    -0.248 NA
ATOM     49  C   UNL A   1      40.895  32.428  30.949  1.00  0.00     0.031 C 
ATOM     50  C   UNL A   1      45.946  31.580  27.700  1.00  0.00     0.029 A 
ATOM     51  C   UNL A   1      44.711  31.396  28.301  1.00  0.00     0.049 A 
ATOM     52  H   UNL A   1      43.510  29.663  28.369  1.00  0.00     0.167 HD
ATOM     53  C   UNL A   1      42.734  32.060  29.634  1.00  0.00     0.074 A 
ATOM     54  C   UNL A   1      41.982  32.995  30.444  1.00  0.00     0.031 C 
ATOM     55  C   UNL A   1      43.928  32.342  29.054  1.00  0.00     0.034 A 
BRANCH  42  56
ATOM     56  C   UNL A   1      46.481  27.498  26.200  1.00  0.00     0.023 A 
ATOM     57  C   UNL A   1      46.559  27.666  24.802  1.00  0.00     0.012 A 
ATOM     58  C   UNL A   1      47.528  26.846  26.878  1.00  0.00     0.148 A 
ATOM     59  C   UNL A   1      47.645  27.167  24.087  1.00  0.00     0.002 A 
ATOM     60  C   UNL A   1      48.627  26.386  26.163  1.00  0.00     0.091 A 
ATOM     61  F   UNL A   1      47.422  26.671  28.204  1.00  0.00    -0.205 F 
ATOM     62  C   UNL A   1      48.683  26.536  24.768  1.00  0.00     0.022 A 
BRANCH  60  63
ATOM     63  S   UNL A   1      50.042  25.624  26.964  1.00  0.00     0.127 S 
ATOM     64  O   UNL A   1      49.462  24.383  27.473  1.00  0.00    -0.237 OA
ATOM     65  O   UNL A   1      50.974  25.448  25.849  1.00  0.00    -0.237 OA
ATOM     66  O   UNL A   1      50.486  26.574  27.974  1.00  0.00    -0.744 OA
ENDBRANCH  60  63
ENDBRANCH  42  56
BRANCH  43  67
ATOM     67  C   UNL A   1      38.570  30.695  31.339  1.00  0.00     0.023 A 
ATOM     68  C   UNL A   1      38.519  30.514  32.735  1.00  0.00     0.012 A 
ATOM     69  C   UNL A   1      37.503  31.346  30.690  1.00  0.00     0.148 A 
ATOM     70  C   UNL A   1      37.411  30.942  33.467  1.00  0.00     0.002 A 
ATOM     71  C   UNL A   1      36.425  31.814  31.432  1.00  0.00     0.091 A 
ATOM     72  F   UNL A   1      37.564  31.492  29.358  1.00  0.00    -0.205 F 
ATOM     73  C   UNL A   1      36.369  31.598  32.817  1.00  0.00     0.022 A 
BRANCH  71  74
ATOM     74  S   UNL A   1      35.093  32.768  30.697  1.00  0.00     0.127 S 
ATOM     75  O   UNL A   1      34.742  31.950  29.538  1.00  0.00    -0.237 OA
ATOM     76  O   UNL A   1      34.098  32.777  31.770  1.00  0.00    -0.237 OA
ATOM     77  O   UNL A   1      35.665  34.074  30.400  1.00  0.00    -0.744 OA
ENDBRANCH  71  74
ENDBRANCH  43  67
BRANCH  55  78
ATOM     78  C   UNL A   1      44.494  33.727  29.240  1.00  0.00     0.023 A 
ATOM     79  C   UNL A   1      45.509  33.946  30.193  1.00  0.00     0.012 A 
ATOM     80  C   UNL A   1      44.080  34.795  28.417  1.00  0.00     0.148 A 
ATOM     81  C   UNL A   1      46.080  35.210  30.346  1.00  0.00     0.002 A 
ATOM     82  C   UNL A   1      44.686  36.041  28.544  1.00  0.00     0.091 A 
ATOM     83  F   UNL A   1      43.100  34.576  27.529  1.00  0.00    -0.205 F 
ATOM     84  C   UNL A   1      45.677  36.253  29.515  1.00  0.00     0.022 A 
BRANCH  82  85
ATOM     85  S   UNL A   1      44.297  37.410  27.447  1.00  0.00     0.127 S 
ATOM     86  O   UNL A   1      44.014  38.483  28.397  1.00  0.00    -0.237 OA
ATOM     87  O   UNL A   1      45.542  37.574  26.695  1.00  0.00    -0.237 OA
ATOM     88  O   UNL A   1      43.166  36.964  26.642  1.00  0.00    -0.744 OA
ENDBRANCH  82  85
ENDBRANCH  55  78
ENDBRANCH  29  30
ENDBRANCH  22  24
ENDBRANCH  21  22
ENDBRANCH  20  21
ENDBRANCH   1  20
TORSDOF 18
ENDMDL
MODEL 2
REMARK VINA RESULT:     -11.2      5.742     11.973
REMARK SMILES O=C(CCCc1nc(-c2cccc(Cl)c2)no1)OCCOC(=O)c1ccc(-c2c3nc(c(-c4cccc(S(=O)(=O)[O-])c4F)c4ccc([nH]4)c(-c4cccc(S(=O)(=O)[O-])c4F)c4nc(c(-c5cccc(S(=O)(=O)[O-])c5F)c5ccc2[nH]5)C=C4)C=C3)cc1
REMARK SMILES IDX 19 1 18 2 2 3 1 4 3 5 4 6 5 7 6 8 7 9 17 10 8 11 16 12 9 13
REMARK SMILES IDX 10 14 15 15 11 16 13 17 12 18 14 19 20 20 21 21 22 22 23 23
REMARK SMILES IDX 24 24 25 25 86 26 26 27 85 28 27 29 28 30 29 31 79 32 30 33
REMARK SMILES IDX 84 34 78 35 80 36 31 37 83 38 77 39 76 40 32 42 64 43 44 44
REMARK SMILES IDX 63 45 45 46 48 47 62 48 81 49 46 50 47 51 61 53 82 54 49 55
REMARK SMILES IDX 33 56 34 57 42 58 35 59 37 60 43 61 36 62 38 63 39 64 40 65
REMARK SMILES IDX 41 66 65 67 66 68 74 69 67 70 69 71 75 72 68 73 70 74 71 75
REMARK SMILES IDX 72 76 73 77 50 78 51 79 59 80 52 81 54 82 60 83 53 84 55 85
REMARK SMILES IDX 56 86 57 87 58 88
REMARK H PARENT 80 41 48 52
REMARK Flexibility Score: inf
ROOT
ATOM      1  C   UNL A   1      33.900  34.679  28.854  1.00  0.00     0.274 C 
ENDROOT
BRANCH   1   2
ATOM      2  O   UNL A   1      32.768  34.997  29.687  1.00  0.00    -0.462 OA
BRANCH   2   3
ATOM      3  C   UNL A   1      32.693  36.157  30.386  1.00  0.00     0.305 C 
ATOM      4  O   UNL A   1      33.069  37.214  29.888  1.00  0.00    -0.252 OA
BRANCH   3   5
ATOM      5  C   UNL A   1      32.258  36.081  31.832  1.00  0.00     0.123 C 
BRANCH   5   6
ATOM      6  C   UNL A   1      33.397  35.990  32.854  1.00  0.00     0.022 C 
BRANCH   6   7
ATOM      7  C   UNL A   1      34.089  34.628  33.016  1.00  0.00     0.101 C 
BRANCH   7   8
ATOM      8  C   UNL A   1      35.577  34.645  32.894  1.00  0.00     0.226 A 
ATOM      9  N   UNL A   1      36.345  34.553  31.828  1.00  0.00    -0.191 NA
ATOM     10  O   UNL A   1      36.287  34.877  34.029  1.00  0.00    -0.339 OA
ATOM     11  C   UNL A   1      37.614  34.693  32.363  1.00  0.00     0.202 A 
ATOM     12  N   UNL A   1      37.616  34.939  33.681  1.00  0.00    -0.057 NA
BRANCH  11  13
ATOM     13  C   UNL A   1      38.845  34.572  31.592  1.00  0.00     0.024 A 
ATOM     14  C   UNL A   1      38.818  34.466  30.195  1.00  0.00     0.012 A 
ATOM     15  C   UNL A   1      40.084  34.534  32.254  1.00  0.00     0.032 A 
ATOM     16  C   UNL A   1      40.009  34.316  29.475  1.00  0.00     0.002 A 
ATOM     17  C   UNL A   1      41.264  34.379  31.532  1.00  0.00     0.041 A 
ATOM     18  C   UNL A   1      41.232  34.267  30.145  1.00  0.00     0.020 A 
ATOM     19  Cl  UNL A   1      42.770  34.320  32.363  1.00  0.00    -0.084 Cl
ENDBRANCH  11  13
ENDBRANCH   7   8
ENDBRANCH   6   7
ENDBRANCH   5   6
ENDBRANCH   3   5
ENDBRANCH   2   3
ENDBRANCH   1   2
BRANCH   1  20
ATOM     20  C   UNL A   1      33.679  33.437  27.993  1.00  0.00     0.275 C 
BRANCH  20  21
ATOM     21  O   UNL A   1      34.101  32.257  28.693  1.00  0.00    -0.458 OA
BRANCH  21  22
ATOM     22  C   UNL A   1      34.399  31.198  27.904  1.00  0.00     0.338 C 
ATOM     23  O   UNL A   1      33.746  30.804  26.951  1.00  0.00    -0.246 OA
BRANCH  22  24
ATOM     24  C   UNL A   1      35.729  30.647  28.261  1.00  0.00     0.060 A 
ATOM     25  C   UNL A   1      35.747  29.490  29.049  1.00  0.00     0.016 A 
ATOM     26  C   UNL A   1      36.935  31.228  27.849  1.00  0.00     0.016 A 
ATOM     27  C   UNL A   1      36.959  28.957  29.486  1.00  0.00     0.010 A 
ATOM     28  C   UNL A   1      38.152  30.684  28.280  1.00  0.00     0.010 A 
ATOM     29  C   UNL A   1      38.168  29.574  29.140  1.00  0.00    -0.014 A 
BRANCH  29  30
ATOM     30  C   UNL A   1      39.411  29.129  29.818  1.00  0.00     0.031 A 
ATOM     31  C   UNL A   1      39.798  29.763  31.128  1.00  0.00     0.074 A 
ATOM     32  C   UNL A   1      40.152  28.121  29.321  1.00  0.00     0.049 A 
ATOM     33  N   UNL A   1      40.724  29.402  31.978  1.00  0.00    -0.248 NA
ATOM     34  C   UNL A   1      39.040  30.957  31.536  1.00  0.00     0.031 C 
ATOM     35  C   UNL A   1      39.909  27.435  28.055  1.00  0.00     0.029 A 
ATOM     36  N   UNL A   1      41.264  27.499  29.835  1.00  0.00    -0.354 N 
ATOM     37  C   UNL A   1      40.660  30.320  33.019  1.00  0.00     0.074 A 
ATOM     38  C   UNL A   1      39.631  31.277  32.677  1.00  0.00     0.031 C 
ATOM     39  C   UNL A   1      40.844  26.483  27.889  1.00  0.00     0.029 A 
ATOM     40  C   UNL A   1      41.747  26.488  29.039  1.00  0.00     0.049 A 
ATOM     41  H   UNL A   1      41.675  27.752  30.692  1.00  0.00     0.167 HD
ATOM     42  C   UNL A   1      41.368  30.349  34.173  1.00  0.00     0.034 A 
ATOM     43  C   UNL A   1      42.789  25.651  29.226  1.00  0.00     0.034 A 
ATOM     44  C   UNL A   1      42.380  29.393  34.528  1.00  0.00     0.049 A 
ATOM     45  C   UNL A   1      43.573  25.715  30.513  1.00  0.00     0.074 A 
ATOM     46  C   UNL A   1      43.103  29.302  35.705  1.00  0.00     0.029 A 
ATOM     47  N   UNL A   1      42.827  28.373  33.705  1.00  0.00    -0.354 N 
ATOM     48  N   UNL A   1      43.375  26.468  31.568  1.00  0.00    -0.248 NA
ATOM     49  C   UNL A   1      44.698  24.776  30.653  1.00  0.00     0.031 C 
ATOM     50  C   UNL A   1      44.006  28.241  35.583  1.00  0.00     0.029 A 
ATOM     51  C   UNL A   1      43.831  27.659  34.338  1.00  0.00     0.049 A 
ATOM     52  H   UNL A   1      42.482  28.183  32.803  1.00  0.00     0.167 HD
ATOM     53  C   UNL A   1      44.317  26.064  32.509  1.00  0.00     0.074 A 
ATOM     54  C   UNL A   1      45.076  24.988  31.906  1.00  0.00     0.031 C 
ATOM     55  C   UNL A   1      44.540  26.548  33.756  1.00  0.00     0.034 A 
BRANCH  42  56
ATOM     56  C   UNL A   1      41.032  31.431  35.162  1.00  0.00     0.023 A 
ATOM     57  C   UNL A   1      41.933  32.499  35.352  1.00  0.00     0.012 A 
ATOM     58  C   UNL A   1      39.816  31.418  35.870  1.00  0.00     0.148 A 
ATOM     59  C   UNL A   1      41.644  33.521  36.254  1.00  0.00     0.002 A 
ATOM     60  C   UNL A   1      39.515  32.461  36.738  1.00  0.00     0.091 A 
ATOM     61  F   UNL A   1      38.984  30.380  35.697  1.00  0.00    -0.205 F 
ATOM     62  C   UNL A   1      40.431  33.507  36.939  1.00  0.00     0.022 A 
BRANCH  60  63
ATOM     63  S   UNL A   1      37.949  32.564  37.611  1.00  0.00     0.127 S 
ATOM     64  O   UNL A   1      37.026  32.889  36.525  1.00  0.00    -0.237 OA
ATOM     65  O   UNL A   1      37.803  31.211  38.150  1.00  0.00    -0.237 OA
ATOM     66  O   UNL A   1      38.125  33.599  38.621  1.00  0.00    -0.744 OA
ENDBRANCH  60  63
ENDBRANCH  42  56
BRANCH  43  67
ATOM     67  C   UNL A   1      43.107  24.615  28.203  1.00  0.00     0.023 A 
ATOM     68  C   UNL A   1      42.374  23.412  28.185  1.00  0.00     0.012 A 
ATOM     69  C   UNL A   1      44.129  24.812  27.254  1.00  0.00     0.148 A 
ATOM     70  C   UNL A   1      42.675  22.410  27.262  1.00  0.00     0.002 A 
ATOM     71  C   UNL A   1      44.391  23.829  26.306  1.00  0.00     0.091 A 
ATOM     72  F   UNL A   1      44.827  25.956  27.301  1.00  0.00    -0.205 F 
ATOM     73  C   UNL A   1      43.677  22.622  26.318  1.00  0.00     0.022 A 
BRANCH  71  74
ATOM     74  S   UNL A   1      45.585  24.062  24.984  1.00  0.00     0.127 S 
ATOM     75  O   UNL A   1      45.593  25.517  24.841  1.00  0.00    -0.237 OA
ATOM     76  O   UNL A   1      46.799  23.492  25.569  1.00  0.00    -0.237 OA
ATOM     77  O   UNL A   1      45.061  23.318  23.847  1.00  0.00    -0.744 OA
ENDBRANCH  71  74
ENDBRANCH  43  67
BRANCH  55  78
ATOM     78  C   UNL A   1      45.629  25.907  34.579  1.00  0.00     0.023 A 
ATOM     79  C   UNL A   1      46.909  26.492  34.624  1.00  0.00     0.012 A 
ATOM     80  C   UNL A   1      45.363  24.771  35.372  1.00  0.00     0.148 A 
ATOM     81  C   UNL A   1      47.916  25.941  35.417  1.00  0.00     0.002 A 
ATOM     82  C   UNL A   1      46.358  24.255  36.196  1.00  0.00     0.091 A 
ATOM     83  F   UNL A   1      44.146  24.213  35.304  1.00  0.00    -0.205 F 
ATOM     84  C   UNL A   1      47.637  24.831  36.211  1.00  0.00     0.022 A 
BRANCH  82  85
ATOM     85  S   UNL A   1      46.053  22.888  37.324  1.00  0.00     0.127 S 
ATOM     86  O   UNL A   1      45.349  21.941  36.461  1.00  0.00    -0.237 OA
ATOM     87  O   UNL A   1      47.409  22.481  37.698  1.00  0.00    -0.237 OA
ATOM     88  O   UNL A   1      45.271  23.446  38.420  1.00  0.00    -0.744 OA
ENDBRANCH  82  85
ENDBRANCH  55  78
ENDBRANCH  29  30
ENDBRANCH  22  24
ENDBRANCH  21  22
ENDBRANCH  20  21
ENDBRANCH   1  20
TORSDOF 18
ENDMDL
MODEL 3
REMARK VINA RESULT:     -11.2      4.874     10.348
REMARK SMILES O=C(CCCc1nc(-c2cccc(Cl)c2)no1)OCCOC(=O)c1ccc(-c2c3nc(c(-c4cccc(S(=O)(=O)[O-])c4F)c4ccc([nH]4)c(-c4cccc(S(=O)(=O)[O-])c4F)c4nc(c(-c5cccc(S(=O)(=O)[O-])c5F)c5ccc2[nH]5)C=C4)C=C3)cc1
REMARK SMILES IDX 19 1 18 2 2 3 1 4 3 5 4 6 5 7 6 8 7 9 17 10 8 11 16 12 9 13
REMARK SMILES IDX 10 14 15 15 11 16 13 17 12 18 14 19 20 20 21 21 22 22 23 23
REMARK SMILES IDX 24 24 25 25 86 26 26 27 85 28 27 29 28 30 29 31 79 32 30 33
REMARK SMILES IDX 84 34 78 35 80 36 31 37 83 38 77 39 76 40 32 42 64 43 44 44
REMARK SMILES IDX 63 45 45 46 48 47 62 48 81 49 46 50 47 51 61 53 82 54 49 55
REMARK SMILES IDX 33 56 34 57 42 58 35 59 37 60 43 61 36 62 38 63 39 64 40 65
REMARK SMILES IDX 41 66 65 67 66 68 74 69 67 70 69 71 75 72 68 73 70 74 71 75
REMARK SMILES IDX 72 76 73 77 50 78 51 79 59 80 52 81 54 82 60 83 53 84 55 85
REMARK SMILES IDX 56 86 57 87 58 88
REMARK H PARENT 80 41 48 52
REMARK Flexibility Score: inf
ROOT
ATOM      1  C   UNL A   1      31.776  29.105  26.779  1.00  0.00     0.274 C 
ENDROOT
BRANCH   1   2
ATOM      2  O   UNL A   1      31.249  28.622  25.527  1.00  0.00    -0.462 OA
BRANCH   2   3
ATOM      3  C   UNL A   1      31.797  27.564  24.877  1.00  0.00     0.305 C 
ATOM      4  O   UNL A   1      32.970  27.253  25.063  1.00  0.00    -0.252 OA
BRANCH   3   5
ATOM      5  C   UNL A   1      30.957  26.872  23.829  1.00  0.00     0.123 C 
BRANCH   5   6
ATOM      6  C   UNL A   1      29.786  26.044  24.369  1.00  0.00     0.022 C 
BRANCH   6   7
ATOM      7  C   UNL A   1      29.874  25.572  25.829  1.00  0.00     0.101 C 
BRANCH   7   8
ATOM      8  C   UNL A   1      30.775  24.407  26.073  1.00  0.00     0.226 A 
ATOM      9  N   UNL A   1      31.424  23.639  25.223  1.00  0.00    -0.191 NA
ATOM     10  O   UNL A   1      31.067  24.113  27.368  1.00  0.00    -0.339 OA
ATOM     11  C   UNL A   1      32.123  22.789  26.063  1.00  0.00     0.202 A 
ATOM     12  N   UNL A   1      31.971  23.076  27.363  1.00  0.00    -0.057 NA
BRANCH  11  13
ATOM     13  C   UNL A   1      32.938  21.672  25.603  1.00  0.00     0.024 A 
ATOM     14  C   UNL A   1      34.336  21.762  25.564  1.00  0.00     0.012 A 
ATOM     15  C   UNL A   1      32.320  20.489  25.164  1.00  0.00     0.032 A 
ATOM     16  C   UNL A   1      35.100  20.691  25.087  1.00  0.00     0.002 A 
ATOM     17  C   UNL A   1      33.085  19.429  24.686  1.00  0.00     0.041 A 
ATOM     18  C   UNL A   1      34.473  19.526  24.643  1.00  0.00     0.020 A 
ATOM     19  Cl  UNL A   1      32.309  17.994  24.140  1.00  0.00    -0.084 Cl
ENDBRANCH  11  13
ENDBRANCH   7   8
ENDBRANCH   6   7
ENDBRANCH   5   6
ENDBRANCH   3   5
ENDBRANCH   2   3
ENDBRANCH   1   2
BRANCH   1  20
ATOM     20  C   UNL A   1      31.765  30.629  26.884  1.00  0.00     0.275 C 
BRANCH  20  21
ATOM     21  O   UNL A   1      33.047  31.167  26.526  1.00  0.00    -0.458 OA
BRANCH  21  22
ATOM     22  C   UNL A   1      33.543  32.086  27.388  1.00  0.00     0.338 C 
ATOM     23  O   UNL A   1      32.933  33.030  27.862  1.00  0.00    -0.246 OA
BRANCH  22  24
ATOM     24  C   UNL A   1      34.916  31.711  27.808  1.00  0.00     0.060 A 
ATOM     25  C   UNL A   1      35.160  30.353  28.041  1.00  0.00     0.016 A 
ATOM     26  C   UNL A   1      35.946  32.645  27.977  1.00  0.00     0.016 A 
ATOM     27  C   UNL A   1      36.405  29.935  28.510  1.00  0.00     0.010 A 
ATOM     28  C   UNL A   1      37.200  32.221  28.438  1.00  0.00     0.010 A 
ATOM     29  C   UNL A   1      37.420  30.870  28.753  1.00  0.00    -0.014 A 
BRANCH  29  30
ATOM     30  C   UNL A   1      38.636  30.424  29.478  1.00  0.00     0.031 A 
ATOM     31  C   UNL A   1      38.829  30.844  30.911  1.00  0.00     0.074 A 
ATOM     32  C   UNL A   1      39.525  29.595  28.901  1.00  0.00     0.049 A 
ATOM     33  N   UNL A   1      39.706  30.421  31.784  1.00  0.00    -0.248 NA
ATOM     34  C   UNL A   1      37.910  31.870  31.430  1.00  0.00     0.031 C 
ATOM     35  C   UNL A   1      39.476  29.129  27.517  1.00  0.00     0.029 A 
ATOM     36  N   UNL A   1      40.646  28.994  29.420  1.00  0.00    -0.354 N 
ATOM     37  C   UNL A   1      39.447  31.127  32.952  1.00  0.00     0.074 A 
ATOM     38  C   UNL A   1      38.356  32.032  32.667  1.00  0.00     0.031 C 
ATOM     39  C   UNL A   1      40.521  28.312  27.295  1.00  0.00     0.029 A 
ATOM     40  C   UNL A   1      41.308  28.192  28.522  1.00  0.00     0.049 A 
ATOM     41  H   UNL A   1      40.946  29.124  30.348  1.00  0.00     0.167 HD
ATOM     42  C   UNL A   1      40.038  31.011  34.165  1.00  0.00     0.034 A 
ATOM     43  C   UNL A   1      42.413  27.433  28.677  1.00  0.00     0.034 A 
ATOM     44  C   UNL A   1      41.111  30.103  34.462  1.00  0.00     0.049 A 
ATOM     45  C   UNL A   1      43.063  27.335  30.034  1.00  0.00     0.074 A 
ATOM     46  C   UNL A   1      41.728  29.867  35.678  1.00  0.00     0.029 A 
ATOM     47  N   UNL A   1      41.741  29.293  33.531  1.00  0.00    -0.354 N 
ATOM     48  N   UNL A   1      42.688  27.863  31.174  1.00  0.00    -0.248 NA
ATOM     49  C   UNL A   1      44.266  26.492  30.135  1.00  0.00     0.031 C 
ATOM     50  C   UNL A   1      42.749  28.932  35.477  1.00  0.00     0.029 A 
ATOM     51  C   UNL A   1      42.754  28.571  34.139  1.00  0.00     0.049 A 
ATOM     52  H   UNL A   1      41.503  29.239  32.577  1.00  0.00     0.167 HD
ATOM     53  C   UNL A   1      43.577  27.383  32.130  1.00  0.00     0.074 A 
ATOM     54  C   UNL A   1      44.502  26.508  31.440  1.00  0.00     0.031 C 
ATOM     55  C   UNL A   1      43.631  27.652  33.458  1.00  0.00     0.034 A 
BRANCH  42  56
ATOM     56  C   UNL A   1      39.496  31.861  35.281  1.00  0.00     0.023 A 
ATOM     57  C   UNL A   1      38.542  31.316  36.166  1.00  0.00     0.012 A 
ATOM     58  C   UNL A   1      39.954  33.176  35.483  1.00  0.00     0.148 A 
ATOM     59  C   UNL A   1      38.030  32.076  37.215  1.00  0.00     0.002 A 
ATOM     60  C   UNL A   1      39.469  33.915  36.555  1.00  0.00     0.091 A 
ATOM     61  F   UNL A   1      40.840  33.687  34.615  1.00  0.00    -0.205 F 
ATOM     62  C   UNL A   1      38.501  33.372  37.415  1.00  0.00     0.022 A 
BRANCH  60  63
ATOM     63  S   UNL A   1      40.067  35.566  36.933  1.00  0.00     0.127 S 
ATOM     64  O   UNL A   1      39.390  35.844  38.198  1.00  0.00    -0.237 OA
ATOM     65  O   UNL A   1      41.511  35.356  37.047  1.00  0.00    -0.237 OA
ATOM     66  O   UNL A   1      39.667  36.400  35.807  1.00  0.00    -0.744 OA
ENDBRANCH  60  63
ENDBRANCH  42  56
BRANCH  43  67
ATOM     67  C   UNL A   1      42.935  26.632  27.533  1.00  0.00     0.023 A 
ATOM     68  C   UNL A   1      43.861  27.215  26.646  1.00  0.00     0.012 A 
ATOM     69  C   UNL A   1      42.520  25.304  27.319  1.00  0.00     0.148 A 
ATOM     70  C   UNL A   1      44.339  26.501  25.547  1.00  0.00     0.002 A 
ATOM     71  C   UNL A   1      43.038  24.582  26.250  1.00  0.00     0.091 A 
ATOM     72  F   UNL A   1      41.624  24.774  28.165  1.00  0.00    -0.205 F 
ATOM     73  C   UNL A   1      43.934  25.183  25.354  1.00  0.00     0.022 A 
BRANCH  71  74
ATOM     74  S   UNL A   1      42.660  22.845  25.990  1.00  0.00     0.127 S 
ATOM     75  O   UNL A   1      43.326  22.219  27.130  1.00  0.00    -0.237 OA
ATOM     76  O   UNL A   1      41.198  22.841  26.051  1.00  0.00    -0.237 OA
ATOM     77  O   UNL A   1      43.205  22.517  24.680  1.00  0.00    -0.744 OA
ENDBRANCH  71  74
ENDBRANCH  43  67
BRANCH  55  78
ATOM     78  C   UNL A   1      44.702  26.975  34.275  1.00  0.00     0.023 A 
ATOM     79  C   UNL A   1      45.874  27.679  34.613  1.00  0.00     0.012 A 
ATOM     80  C   UNL A   1      44.514  25.670  34.775  1.00  0.00     0.148 A 
ATOM     81  C   UNL A   1      46.856  27.087  35.408  1.00  0.00     0.002 A 
ATOM     82  C   UNL A   1      45.476  25.102  35.606  1.00  0.00     0.091 A 
ATOM     83  F   UNL A   1      43.403  25.005  34.429  1.00  0.00    -0.205 F 
ATOM     84  C   UNL A   1      46.651  25.804  35.913  1.00  0.00     0.022 A 
BRANCH  82  85
ATOM     85  S   UNL A   1      45.245  23.496  36.378  1.00  0.00     0.127 S 
ATOM     86  O   UNL A   1      44.989  23.867  37.768  1.00  0.00    -0.237 OA
ATOM     87  O   UNL A   1      44.081  22.968  35.664  1.00  0.00    -0.237 OA
ATOM     88  O   UNL A   1      46.479  22.760  36.138  1.00  0.00    -0.744 OA
ENDBRANCH  82  85
ENDBRANCH  55  78
ENDBRANCH  29  30
ENDBRANCH  22  24
ENDBRANCH  21  22
ENDBRANCH  20  21
ENDBRANCH   1  20
TORSDOF 18
ENDMDL
