MODEL 1
REMARK VINA RESULT:     -12.2      0.000      0.000
REMARK SMILES C[C@H]1CCC[C@H](C)N1C(=O)[C@H]1[C@@H](C(=O)OCCOC(=O)c2ccc(-c3c4nc(c(-c5cccc(S(=O)(=O)[O-])c5F)c5ccc([nH]5)c(-c5cccc(S(=O)(=O)[O-])c5F)c5nc(c(-c6cccc(S(=O)(=O)[O-])c6F)c6ccc3[nH]6)C=C5)C=C4)cc2)[C@H]2CC[C@@H]1O2
REMARK SMILES IDX 17 1 16 2 15 3 13 4 14 5 12 6 11 7 87 8 84 9 86 10 88 11
REMARK SMILES IDX 85 12 9 13 1 14 2 15 3 16 8 17 4 18 6 19 5 20 7 21 10 22
REMARK SMILES IDX 18 23 19 24 20 25 21 26 22 27 83 28 23 29 82 30 24 31 25 32
REMARK SMILES IDX 26 33 76 34 27 35 81 36 75 37 77 38 28 39 80 40 74 41 73 42
REMARK SMILES IDX 29 44 61 45 41 46 60 47 42 48 45 49 59 50 78 51 43 52 44 53
REMARK SMILES IDX 58 55 79 56 46 57 30 58 31 59 39 60 32 61 34 62 40 63 33 64
REMARK SMILES IDX 35 65 36 66 37 67 38 68 62 69 63 70 71 71 64 72 66 73 72 74
REMARK SMILES IDX 65 75 67 76 68 77 69 78 70 79 47 80 48 81 56 82 49 83 51 84
REMARK SMILES IDX 57 85 50 86 52 87 53 88 54 89 55 90
REMARK H PARENT 77 43 45 54
REMARK Flexibility Score: inf
ROOT
ATOM      1  C   UNL A   1      31.944  31.020  26.416  1.00  0.00     0.275 C 
ENDROOT
BRANCH   1   2
ATOM      2  C   UNL A   1      32.146  29.883  25.383  1.00  0.00     0.274 C 
BRANCH   2   3
ATOM      3  O   UNL A   1      31.608  28.588  25.768  1.00  0.00    -0.462 OA
BRANCH   3   4
ATOM      4  C   UNL A   1      32.548  27.665  26.133  1.00  0.00     0.312 C 
ATOM      5  O   UNL A   1      33.752  27.919  26.113  1.00  0.00    -0.252 OA
BRANCH   4   6
ATOM      6  C   UNL A   1      31.982  26.257  26.392  1.00  0.00     0.143 C 
ATOM      7  C   UNL A   1      32.655  24.870  26.143  1.00  0.00     0.124 C 
ATOM      8  C   UNL A   1      31.437  24.065  25.626  1.00  0.00     0.132 C 
ATOM      9  C   UNL A   1      30.545  26.128  25.669  1.00  0.00     0.133 C 
ATOM     10  C   UNL A   1      30.925  24.232  24.202  1.00  0.00     0.035 C 
ATOM     11  O   UNL A   1      30.397  24.811  26.307  1.00  0.00    -0.373 OA
ATOM     12  C   UNL A   1      30.015  25.438  24.354  1.00  0.00     0.036 C 
BRANCH   7  13
ATOM     13  C   UNL A   1      33.927  24.546  25.339  1.00  0.00     0.229 C 
ATOM     14  C   UNL A   1      33.621  22.325  27.584  1.00  0.00     0.031 C 
ATOM     15  C   UNL A   1      34.825  22.476  26.663  1.00  0.00     0.082 C 
ATOM     16  C   UNL A   1      34.976  21.149  25.873  1.00  0.00     0.025 C 
ATOM     17  N   UNL A   1      34.905  23.621  25.726  1.00  0.00    -0.337 N 
ATOM     18  C   UNL A   1      36.175  21.117  24.926  1.00  0.00     0.004 C 
ATOM     19  C   UNL A   1      36.164  23.626  24.904  1.00  0.00     0.082 C 
ATOM     20  C   UNL A   1      36.205  22.360  24.044  1.00  0.00     0.025 C 
ATOM     21  C   UNL A   1      37.478  23.747  25.703  1.00  0.00     0.031 C 
ATOM     22  O   UNL A   1      34.047  25.096  24.235  1.00  0.00    -0.274 OA
ENDBRANCH   7  13
ENDBRANCH   4   6
ENDBRANCH   3   4
ENDBRANCH   2   3
ENDBRANCH   1   2
BRANCH   1  23
ATOM     23  O   UNL A   1      32.727  30.944  27.633  1.00  0.00    -0.458 OA
BRANCH  23  24
ATOM     24  C   UNL A   1      33.739  31.831  27.620  1.00  0.00     0.338 C 
ATOM     25  O   UNL A   1      33.597  33.003  27.317  1.00  0.00    -0.246 OA
BRANCH  24  26
ATOM     26  C   UNL A   1      35.111  31.385  27.859  1.00  0.00     0.060 A 
ATOM     27  C   UNL A   1      35.215  30.082  28.360  1.00  0.00     0.016 A 
ATOM     28  C   UNL A   1      36.163  32.288  28.012  1.00  0.00     0.016 A 
ATOM     29  C   UNL A   1      36.319  29.704  29.104  1.00  0.00     0.010 A 
ATOM     30  C   UNL A   1      37.314  31.880  28.701  1.00  0.00     0.010 A 
ATOM     31  C   UNL A   1      37.387  30.595  29.270  1.00  0.00    -0.014 A 
BRANCH  31  32
ATOM     32  C   UNL A   1      38.631  30.073  29.873  1.00  0.00     0.031 A 
ATOM     33  C   UNL A   1      39.498  29.054  29.201  1.00  0.00     0.074 A 
ATOM     34  C   UNL A   1      38.980  30.603  31.060  1.00  0.00     0.049 A 
ATOM     35  N   UNL A   1      40.602  28.508  29.641  1.00  0.00    -0.248 NA
ATOM     36  C   UNL A   1      39.087  28.588  27.867  1.00  0.00     0.031 C 
ATOM     37  C   UNL A   1      38.204  31.625  31.769  1.00  0.00     0.029 A 
ATOM     38  N   UNL A   1      40.056  30.374  31.872  1.00  0.00    -0.354 N 
ATOM     39  C   UNL A   1      41.009  27.616  28.659  1.00  0.00     0.074 A 
ATOM     40  C   UNL A   1      40.034  27.696  27.590  1.00  0.00     0.031 C 
ATOM     41  C   UNL A   1      38.828  31.935  32.911  1.00  0.00     0.029 A 
ATOM     42  C   UNL A   1      40.012  31.094  33.040  1.00  0.00     0.049 A 
ATOM     43  H   UNL A   1      40.786  29.755  31.643  1.00  0.00     0.167 HD
ATOM     44  C   UNL A   1      42.106  26.817  28.657  1.00  0.00     0.034 A 
ATOM     45  C   UNL A   1      40.814  31.063  34.119  1.00  0.00     0.034 A 
ATOM     46  C   UNL A   1      43.082  26.784  29.719  1.00  0.00     0.049 A 
ATOM     47  C   UNL A   1      42.006  30.163  34.091  1.00  0.00     0.074 A 
ATOM     48  C   UNL A   1      44.242  26.032  29.799  1.00  0.00     0.029 A 
ATOM     49  N   UNL A   1      43.015  27.536  30.884  1.00  0.00    -0.354 N 
ATOM     50  N   UNL A   1      42.410  29.370  33.128  1.00  0.00    -0.248 NA
ATOM     51  C   UNL A   1      42.866  30.162  35.280  1.00  0.00     0.031 C 
ATOM     52  C   UNL A   1      44.873  26.324  31.015  1.00  0.00     0.029 A 
ATOM     53  C   UNL A   1      44.107  27.259  31.693  1.00  0.00     0.049 A 
ATOM     54  H   UNL A   1      42.297  28.172  31.103  1.00  0.00     0.167 HD
ATOM     55  C   UNL A   1      43.574  28.775  33.590  1.00  0.00     0.074 A 
ATOM     56  C   UNL A   1      43.827  29.327  34.908  1.00  0.00     0.031 C 
ATOM     57  C   UNL A   1      44.350  27.840  32.989  1.00  0.00     0.034 A 
BRANCH  44  58
ATOM     58  C   UNL A   1      42.348  25.936  27.458  1.00  0.00     0.023 A 
ATOM     59  C   UNL A   1      43.089  26.440  26.372  1.00  0.00     0.012 A 
ATOM     60  C   UNL A   1      41.945  24.586  27.452  1.00  0.00     0.148 A 
ATOM     61  C   UNL A   1      43.422  25.615  25.295  1.00  0.00     0.002 A 
ATOM     62  C   UNL A   1      42.303  23.763  26.388  1.00  0.00     0.091 A 
ATOM     63  F   UNL A   1      41.217  24.129  28.482  1.00  0.00    -0.205 F 
ATOM     64  C   UNL A   1      43.040  24.275  25.310  1.00  0.00     0.022 A 
BRANCH  62  65
ATOM     65  S   UNL A   1      41.907  22.009  26.359  1.00  0.00     0.127 S 
ATOM     66  O   UNL A   1      42.729  21.538  25.245  1.00  0.00    -0.237 OA
ATOM     67  O   UNL A   1      42.356  21.560  27.677  1.00  0.00    -0.237 OA
ATOM     68  O   UNL A   1      40.466  21.934  26.158  1.00  0.00    -0.744 OA
ENDBRANCH  62  65
ENDBRANCH  44  58
BRANCH  45  69
ATOM     69  C   UNL A   1      40.492  31.950  35.267  1.00  0.00     0.023 A 
ATOM     70  C   UNL A   1      41.054  33.237  35.329  1.00  0.00     0.012 A 
ATOM     71  C   UNL A   1      39.503  31.584  36.203  1.00  0.00     0.148 A 
ATOM     72  C   UNL A   1      40.630  34.146  36.298  1.00  0.00     0.002 A 
ATOM     73  C   UNL A   1      39.037  32.517  37.119  1.00  0.00     0.091 A 
ATOM     74  F   UNL A   1      38.992  30.344  36.144  1.00  0.00    -0.205 F 
ATOM     75  C   UNL A   1      39.607  33.796  37.178  1.00  0.00     0.022 A 
BRANCH  73  76
ATOM     76  S   UNL A   1      37.588  32.173  38.128  1.00  0.00     0.127 S 
ATOM     77  O   UNL A   1      38.033  32.592  39.453  1.00  0.00    -0.237 OA
ATOM     78  O   UNL A   1      36.566  33.029  37.522  1.00  0.00    -0.237 OA
ATOM     79  O   UNL A   1      37.343  30.746  37.946  1.00  0.00    -0.744 OA
ENDBRANCH  73  76
ENDBRANCH  45  69
BRANCH  57  80
ATOM     80  C   UNL A   1      45.529  27.341  33.775  1.00  0.00     0.023 A 
ATOM     81  C   UNL A   1      46.761  28.013  33.657  1.00  0.00     0.012 A 
ATOM     82  C   UNL A   1      45.418  26.238  34.640  1.00  0.00     0.148 A 
ATOM     83  C   UNL A   1      47.876  27.576  34.369  1.00  0.00     0.002 A 
ATOM     84  C   UNL A   1      46.527  25.827  35.373  1.00  0.00     0.091 A 
ATOM     85  F   UNL A   1      44.244  25.594  34.718  1.00  0.00    -0.205 F 
ATOM     86  C   UNL A   1      47.757  26.490  35.233  1.00  0.00     0.022 A 
BRANCH  84  87
ATOM     87  S   UNL A   1      46.427  24.476  36.550  1.00  0.00     0.127 S 
ATOM     88  O   UNL A   1      46.110  23.344  35.683  1.00  0.00    -0.237 OA
ATOM     89  O   UNL A   1      47.775  24.446  37.121  1.00  0.00    -0.237 OA
ATOM     90  O   UNL A   1      45.389  24.865  37.496  1.00  0.00    -0.744 OA
ENDBRANCH  84  87
ENDBRANCH  57  80
ENDBRANCH  31  32
ENDBRANCH  24  26
ENDBRANCH  23  24
ENDBRANCH   1  23
TORSDOF 15
ENDMDL
MODEL 2
REMARK VINA RESULT:     -12.2      0.634      7.583
REMARK SMILES C[C@H]1CCC[C@H](C)N1C(=O)[C@H]1[C@@H](C(=O)OCCOC(=O)c2ccc(-c3c4nc(c(-c5cccc(S(=O)(=O)[O-])c5F)c5ccc([nH]5)c(-c5cccc(S(=O)(=O)[O-])c5F)c5nc(c(-c6cccc(S(=O)(=O)[O-])c6F)c6ccc3[nH]6)C=C5)C=C4)cc2)[C@H]2CC[C@@H]1O2
REMARK SMILES IDX 17 1 16 2 15 3 13 4 14 5 12 6 11 7 87 8 84 9 86 10 88 11
REMARK SMILES IDX 85 12 9 13 1 14 2 15 3 16 8 17 4 18 6 19 5 20 7 21 10 22
REMARK SMILES IDX 18 23 19 24 20 25 21 26 22 27 83 28 23 29 82 30 24 31 25 32
REMARK SMILES IDX 26 33 76 34 27 35 81 36 75 37 77 38 28 39 80 40 74 41 73 42
REMARK SMILES IDX 29 44 61 45 41 46 60 47 42 48 45 49 59 50 78 51 43 52 44 53
REMARK SMILES IDX 58 55 79 56 46 57 30 58 31 59 39 60 32 61 34 62 40 63 33 64
REMARK SMILES IDX 35 65 36 66 37 67 38 68 62 69 63 70 71 71 64 72 66 73 72 74
REMARK SMILES IDX 65 75 67 76 68 77 69 78 70 79 47 80 48 81 56 82 49 83 51 84
REMARK SMILES IDX 57 85 50 86 52 87 53 88 54 89 55 90
REMARK H PARENT 77 43 45 54
REMARK Flexibility Score: inf
ROOT
ATOM      1  C   UNL A   1      31.773  30.217  26.758  1.00  0.00     0.275 C 
ENDROOT
BRANCH   1   2
ATOM      2  C   UNL A   1      31.679  28.843  27.467  1.00  0.00     0.274 C 
BRANCH   2   3
ATOM      3  O   UNL A   1      31.355  27.717  26.605  1.00  0.00    -0.462 OA
BRANCH   3   4
ATOM      4  C   UNL A   1      32.387  26.846  26.393  1.00  0.00     0.312 C 
ATOM      5  O   UNL A   1      33.543  27.233  26.230  1.00  0.00    -0.252 OA
BRANCH   4   6
ATOM      6  C   UNL A   1      31.947  25.382  26.202  1.00  0.00     0.143 C 
ATOM      7  C   UNL A   1      32.797  24.157  25.739  1.00  0.00     0.124 C 
ATOM      8  C   UNL A   1      31.761  23.430  24.846  1.00  0.00     0.132 C 
ATOM      9  C   UNL A   1      30.651  25.344  25.242  1.00  0.00     0.133 C 
ATOM     10  C   UNL A   1      31.443  23.923  23.440  1.00  0.00     0.035 C 
ATOM     11  O   UNL A   1      30.558  23.900  25.505  1.00  0.00    -0.373 OA
ATOM     12  C   UNL A   1      30.395  24.982  23.728  1.00  0.00     0.036 C 
BRANCH   7  13
ATOM     13  C   UNL A   1      34.198  24.141  25.103  1.00  0.00     0.229 C 
ATOM     14  C   UNL A   1      33.996  21.637  27.041  1.00  0.00     0.031 C 
ATOM     15  C   UNL A   1      35.265  22.090  26.328  1.00  0.00     0.082 C 
ATOM     16  C   UNL A   1      35.745  20.913  25.439  1.00  0.00     0.025 C 
ATOM     17  N   UNL A   1      35.264  23.342  25.535  1.00  0.00    -0.337 N 
ATOM     18  C   UNL A   1      37.043  21.190  24.681  1.00  0.00     0.004 C 
ATOM     19  C   UNL A   1      36.598  23.649  24.913  1.00  0.00     0.082 C 
ATOM     20  C   UNL A   1      36.970  22.522  23.945  1.00  0.00     0.025 C 
ATOM     21  C   UNL A   1      37.757  23.875  25.906  1.00  0.00     0.031 C 
ATOM     22  O   UNL A   1      34.362  24.837  24.090  1.00  0.00    -0.274 OA
ENDBRANCH   7  13
ENDBRANCH   4   6
ENDBRANCH   3   4
ENDBRANCH   2   3
ENDBRANCH   1   2
BRANCH   1  23
ATOM     23  O   UNL A   1      33.087  30.626  26.300  1.00  0.00    -0.458 OA
BRANCH  23  24
ATOM     24  C   UNL A   1      33.740  31.322  27.248  1.00  0.00     0.338 C 
ATOM     25  O   UNL A   1      33.281  32.316  27.784  1.00  0.00    -0.246 OA
BRANCH  24  26
ATOM     26  C   UNL A   1      35.117  30.974  27.600  1.00  0.00     0.060 A 
ATOM     27  C   UNL A   1      35.277  29.667  28.075  1.00  0.00     0.016 A 
ATOM     28  C   UNL A   1      36.077  31.948  27.870  1.00  0.00     0.016 A 
ATOM     29  C   UNL A   1      36.337  29.350  28.906  1.00  0.00     0.010 A 
ATOM     30  C   UNL A   1      37.191  31.606  28.651  1.00  0.00     0.010 A 
ATOM     31  C   UNL A   1      37.313  30.313  29.191  1.00  0.00    -0.014 A 
BRANCH  31  32
ATOM     32  C   UNL A   1      38.535  29.867  29.891  1.00  0.00     0.031 A 
ATOM     33  C   UNL A   1      38.930  30.370  31.245  1.00  0.00     0.074 A 
ATOM     34  C   UNL A   1      39.269  28.931  29.260  1.00  0.00     0.049 A 
ATOM     35  N   UNL A   1      39.989  30.065  31.949  1.00  0.00    -0.248 NA
ATOM     36  C   UNL A   1      38.028  31.330  31.901  1.00  0.00     0.031 C 
ATOM     37  C   UNL A   1      38.937  28.366  27.949  1.00  0.00     0.029 A 
ATOM     38  N   UNL A   1      40.423  28.292  29.620  1.00  0.00    -0.354 N 
ATOM     39  C   UNL A   1      39.903  30.808  33.118  1.00  0.00     0.074 A 
ATOM     40  C   UNL A   1      38.679  31.580  33.034  1.00  0.00     0.031 C 
ATOM     41  C   UNL A   1      39.865  27.463  27.613  1.00  0.00     0.029 A 
ATOM     42  C   UNL A   1      40.884  27.431  28.655  1.00  0.00     0.049 A 
ATOM     43  H   UNL A   1      40.876  28.435  30.481  1.00  0.00     0.167 HD
ATOM     44  C   UNL A   1      40.768  30.827  34.163  1.00  0.00     0.034 A 
ATOM     45  C   UNL A   1      42.020  26.714  28.592  1.00  0.00     0.034 A 
ATOM     46  C   UNL A   1      41.961  30.020  34.238  1.00  0.00     0.049 A 
ATOM     47  C   UNL A   1      42.958  26.766  29.754  1.00  0.00     0.074 A 
ATOM     48  C   UNL A   1      42.887  29.944  35.265  1.00  0.00     0.029 A 
ATOM     49  N   UNL A   1      42.395  29.147  33.249  1.00  0.00    -0.354 N 
ATOM     50  N   UNL A   1      42.832  27.428  30.878  1.00  0.00    -0.248 NA
ATOM     51  C   UNL A   1      44.183  25.964  29.655  1.00  0.00     0.031 C 
ATOM     52  C   UNL A   1      43.883  29.031  34.894  1.00  0.00     0.029 A 
ATOM     53  C   UNL A   1      43.578  28.537  33.636  1.00  0.00     0.049 A 
ATOM     54  H   UNL A   1      41.929  28.986  32.397  1.00  0.00     0.167 HD
ATOM     55  C   UNL A   1      43.957  27.122  31.627  1.00  0.00     0.074 A 
ATOM     56  C   UNL A   1      44.738  26.188  30.839  1.00  0.00     0.031 C 
ATOM     57  C   UNL A   1      44.323  27.591  32.845  1.00  0.00     0.034 A 
BRANCH  44  58
ATOM     58  C   UNL A   1      40.449  31.713  35.340  1.00  0.00     0.023 A 
ATOM     59  C   UNL A   1      41.147  32.925  35.500  1.00  0.00     0.012 A 
ATOM     60  C   UNL A   1      39.390  31.406  36.217  1.00  0.00     0.148 A 
ATOM     61  C   UNL A   1      40.801  33.817  36.517  1.00  0.00     0.002 A 
ATOM     62  C   UNL A   1      39.032  32.312  37.213  1.00  0.00     0.091 A 
ATOM     63  F   UNL A   1      38.751  30.236  36.068  1.00  0.00    -0.205 F 
ATOM     64  C   UNL A   1      39.737  33.516  37.364  1.00  0.00     0.022 A 
BRANCH  62  65
ATOM     65  S   UNL A   1      37.633  32.031  38.306  1.00  0.00     0.127 S 
ATOM     66  O   UNL A   1      38.215  32.324  39.614  1.00  0.00    -0.237 OA
ATOM     67  O   UNL A   1      36.661  33.021  37.838  1.00  0.00    -0.237 OA
ATOM     68  O   UNL A   1      37.233  30.648  38.086  1.00  0.00    -0.744 OA
ENDBRANCH  62  65
ENDBRANCH  44  58
BRANCH  45  69
ATOM     69  C   UNL A   1      42.266  25.881  27.385  1.00  0.00     0.023 A 
ATOM     70  C   UNL A   1      43.072  26.383  26.349  1.00  0.00     0.012 A 
ATOM     71  C   UNL A   1      41.843  24.537  27.341  1.00  0.00     0.148 A 
ATOM     72  C   UNL A   1      43.460  25.557  25.293  1.00  0.00     0.002 A 
ATOM     73  C   UNL A   1      42.291  23.703  26.325  1.00  0.00     0.091 A 
ATOM     74  F   UNL A   1      41.057  24.079  28.327  1.00  0.00    -0.205 F 
ATOM     75  C   UNL A   1      43.089  24.213  25.292  1.00  0.00     0.022 A 
BRANCH  73  76
ATOM     76  S   UNL A   1      42.005  21.929  26.397  1.00  0.00     0.127 S 
ATOM     77  O   UNL A   1      40.571  21.841  26.143  1.00  0.00    -0.237 OA
ATOM     78  O   UNL A   1      42.854  21.424  25.315  1.00  0.00    -0.237 OA
ATOM     79  O   UNL A   1      42.454  21.536  27.728  1.00  0.00    -0.744 OA
ENDBRANCH  73  76
ENDBRANCH  45  69
BRANCH  57  80
ATOM     80  C   UNL A   1      45.644  27.112  33.379  1.00  0.00     0.023 A 
ATOM     81  C   UNL A   1      46.797  27.883  33.135  1.00  0.00     0.012 A 
ATOM     82  C   UNL A   1      45.743  25.930  34.133  1.00  0.00     0.148 A 
ATOM     83  C   UNL A   1      48.039  27.468  33.613  1.00  0.00     0.002 A 
ATOM     84  C   UNL A   1      46.981  25.538  34.634  1.00  0.00     0.091 A 
ATOM     85  F   UNL A   1      44.638  25.195  34.330  1.00  0.00    -0.205 F 
ATOM     86  C   UNL A   1      48.129  26.302  34.369  1.00  0.00     0.022 A 
BRANCH  84  87
ATOM     87  S   UNL A   1      47.158  24.081  35.667  1.00  0.00     0.127 S 
ATOM     88  O   UNL A   1      48.583  24.109  35.985  1.00  0.00    -0.237 OA
ATOM     89  O   UNL A   1      46.277  24.380  36.798  1.00  0.00    -0.237 OA
ATOM     90  O   UNL A   1      46.710  22.967  34.842  1.00  0.00    -0.744 OA
ENDBRANCH  84  87
ENDBRANCH  57  80
ENDBRANCH  31  32
ENDBRANCH  24  26
ENDBRANCH  23  24
ENDBRANCH   1  23
TORSDOF 15
ENDMDL
MODEL 3
REMARK VINA RESULT:     -12.0      5.037      9.977
REMARK SMILES C[C@H]1CCC[C@H](C)N1C(=O)[C@H]1[C@@H](C(=O)OCCOC(=O)c2ccc(-c3c4nc(c(-c5cccc(S(=O)(=O)[O-])c5F)c5ccc([nH]5)c(-c5cccc(S(=O)(=O)[O-])c5F)c5nc(c(-c6cccc(S(=O)(=O)[O-])c6F)c6ccc3[nH]6)C=C5)C=C4)cc2)[C@H]2CC[C@@H]1O2
REMARK SMILES IDX 17 1 16 2 15 3 13 4 14 5 12 6 11 7 87 8 84 9 86 10 88 11
REMARK SMILES IDX 85 12 9 13 1 14 2 15 3 16 8 17 4 18 6 19 5 20 7 21 10 22
REMARK SMILES IDX 18 23 19 24 20 25 21 26 22 27 83 28 23 29 82 30 24 31 25 32
REMARK SMILES IDX 26 33 76 34 27 35 81 36 75 37 77 38 28 39 80 40 74 41 73 42
REMARK SMILES IDX 29 44 61 45 41 46 60 47 42 48 45 49 59 50 78 51 43 52 44 53
REMARK SMILES IDX 58 55 79 56 46 57 30 58 31 59 39 60 32 61 34 62 40 63 33 64
REMARK SMILES IDX 35 65 36 66 37 67 38 68 62 69 63 70 71 71 64 72 66 73 72 74
REMARK SMILES IDX 65 75 67 76 68 77 69 78 70 79 47 80 48 81 56 82 49 83 51 84
REMARK SMILES IDX 57 85 50 86 52 87 53 88 54 89 55 90
REMARK H PARENT 77 43 45 54
REMARK Flexibility Score: inf
ROOT
ATOM      1  C   UNL A   1      36.572  20.611  25.355  1.00  0.00     0.275 C 
ENDROOT
BRANCH   1   2
ATOM      2  C   UNL A   1      35.238  21.332  25.039  1.00  0.00     0.274 C 
BRANCH   2   3
ATOM      3  O   UNL A   1      35.272  22.239  23.903  1.00  0.00    -0.462 OA
BRANCH   3   4
ATOM      4  C   UNL A   1      35.187  23.563  24.227  1.00  0.00     0.312 C 
ATOM      5  O   UNL A   1      35.757  24.031  25.212  1.00  0.00    -0.252 OA
BRANCH   4   6
ATOM      6  C   UNL A   1      34.190  24.360  23.365  1.00  0.00     0.143 C 
ATOM      7  C   UNL A   1      33.395  25.654  23.732  1.00  0.00     0.124 C 
ATOM      8  C   UNL A   1      32.040  25.342  23.051  1.00  0.00     0.132 C 
ATOM      9  C   UNL A   1      33.061  23.355  22.803  1.00  0.00     0.133 C 
ATOM     10  C   UNL A   1      31.042  24.378  23.679  1.00  0.00     0.035 C 
ATOM     11  O   UNL A   1      32.534  24.471  22.003  1.00  0.00    -0.373 OA
ATOM     12  C   UNL A   1      31.559  23.044  23.173  1.00  0.00     0.036 C 
BRANCH   7  13
ATOM     13  C   UNL A   1      33.196  26.304  25.113  1.00  0.00     0.229 C 
ATOM     14  C   UNL A   1      33.235  28.630  22.955  1.00  0.00     0.031 C 
ATOM     15  C   UNL A   1      33.216  28.839  24.464  1.00  0.00     0.082 C 
ATOM     16  C   UNL A   1      31.945  29.660  24.804  1.00  0.00     0.025 C 
ATOM     17  N   UNL A   1      33.312  27.675  25.376  1.00  0.00    -0.337 N 
ATOM     18  C   UNL A   1      31.795  29.997  26.287  1.00  0.00     0.004 C 
ATOM     19  C   UNL A   1      33.294  28.059  26.830  1.00  0.00     0.082 C 
ATOM     20  C   UNL A   1      31.966  28.751  27.148  1.00  0.00     0.025 C 
ATOM     21  C   UNL A   1      34.462  28.953  27.294  1.00  0.00     0.031 C 
ATOM     22  O   UNL A   1      32.836  25.559  26.036  1.00  0.00    -0.274 OA
ENDBRANCH   7  13
ENDBRANCH   4   6
ENDBRANCH   3   4
ENDBRANCH   2   3
ENDBRANCH   1   2
BRANCH   1  23
ATOM     23  O   UNL A   1      37.785  21.239  24.870  1.00  0.00    -0.458 OA
BRANCH  23  24
ATOM     24  C   UNL A   1      38.790  21.113  25.757  1.00  0.00     0.338 C 
ATOM     25  O   UNL A   1      39.275  20.040  26.068  1.00  0.00    -0.246 OA
BRANCH  24  26
ATOM     26  C   UNL A   1      39.272  22.281  26.493  1.00  0.00     0.060 A 
ATOM     27  C   UNL A   1      38.817  23.507  25.992  1.00  0.00     0.016 A 
ATOM     28  C   UNL A   1      40.405  22.225  27.304  1.00  0.00     0.016 A 
ATOM     29  C   UNL A   1      39.545  24.664  26.208  1.00  0.00     0.010 A 
ATOM     30  C   UNL A   1      41.099  23.410  27.584  1.00  0.00     0.010 A 
ATOM     31  C   UNL A   1      40.686  24.630  27.018  1.00  0.00    -0.014 A 
BRANCH  31  32
ATOM     32  C   UNL A   1      41.295  25.920  27.403  1.00  0.00     0.031 A 
ATOM     33  C   UNL A   1      40.572  26.956  28.207  1.00  0.00     0.074 A 
ATOM     34  C   UNL A   1      42.575  26.104  27.029  1.00  0.00     0.049 A 
ATOM     35  N   UNL A   1      40.997  28.132  28.588  1.00  0.00    -0.248 NA
ATOM     36  C   UNL A   1      39.203  26.640  28.646  1.00  0.00     0.031 C 
ATOM     37  C   UNL A   1      43.362  25.130  26.268  1.00  0.00     0.029 A 
ATOM     38  N   UNL A   1      43.435  27.147  27.231  1.00  0.00    -0.354 N 
ATOM     39  C   UNL A   1      39.949  28.714  29.289  1.00  0.00     0.074 A 
ATOM     40  C   UNL A   1      38.862  27.755  29.287  1.00  0.00     0.031 C 
ATOM     41  C   UNL A   1      44.590  25.620  26.067  1.00  0.00     0.029 A 
ATOM     42  C   UNL A   1      44.656  26.962  26.631  1.00  0.00     0.049 A 
ATOM     43  H   UNL A   1      43.202  27.950  27.751  1.00  0.00     0.167 HD
ATOM     44  C   UNL A   1      39.915  29.931  29.885  1.00  0.00     0.034 A 
ATOM     45  C   UNL A   1      45.709  27.790  26.515  1.00  0.00     0.034 A 
ATOM     46  C   UNL A   1      41.025  30.852  29.904  1.00  0.00     0.049 A 
ATOM     47  C   UNL A   1      45.635  29.130  27.170  1.00  0.00     0.074 A 
ATOM     48  C   UNL A   1      41.102  32.098  30.505  1.00  0.00     0.029 A 
ATOM     49  N   UNL A   1      42.254  30.629  29.298  1.00  0.00    -0.354 N 
ATOM     50  N   UNL A   1      44.658  29.640  27.881  1.00  0.00    -0.248 NA
ATOM     51  C   UNL A   1      46.806  30.004  27.031  1.00  0.00     0.031 C 
ATOM     52  C   UNL A   1      42.373  32.630  30.256  1.00  0.00     0.029 A 
ATOM     53  C   UNL A   1      43.091  31.716  29.502  1.00  0.00     0.049 A 
ATOM     54  H   UNL A   1      42.495  29.817  28.796  1.00  0.00     0.167 HD
ATOM     55  C   UNL A   1      45.094  30.894  28.281  1.00  0.00     0.074 A 
ATOM     56  C   UNL A   1      46.438  31.051  27.758  1.00  0.00     0.031 C 
ATOM     57  C   UNL A   1      44.433  31.839  28.993  1.00  0.00     0.034 A 
BRANCH  44  58
ATOM     58  C   UNL A   1      38.657  30.340  30.607  1.00  0.00     0.023 A 
ATOM     59  C   UNL A   1      38.510  30.019  31.971  1.00  0.00     0.012 A 
ATOM     60  C   UNL A   1      37.677  31.132  29.976  1.00  0.00     0.148 A 
ATOM     61  C   UNL A   1      37.407  30.476  32.695  1.00  0.00     0.002 A 
ATOM     62  C   UNL A   1      36.594  31.607  30.710  1.00  0.00     0.091 A 
ATOM     63  F   UNL A   1      37.818  31.407  28.671  1.00  0.00    -0.205 F 
ATOM     64  C   UNL A   1      36.457  31.279  32.068  1.00  0.00     0.022 A 
BRANCH  62  65
ATOM     65  S   UNL A   1      35.358  32.700  29.995  1.00  0.00     0.127 S 
ATOM     66  O   UNL A   1      34.864  31.898  28.877  1.00  0.00    -0.237 OA
ATOM     67  O   UNL A   1      34.405  32.864  31.094  1.00  0.00    -0.237 OA
ATOM     68  O   UNL A   1      36.072  33.918  29.634  1.00  0.00    -0.744 OA
ENDBRANCH  62  65
ENDBRANCH  44  58
BRANCH  45  69
ATOM     69  C   UNL A   1      46.904  27.316  25.768  1.00  0.00     0.023 A 
ATOM     70  C   UNL A   1      47.113  27.747  24.447  1.00  0.00     0.012 A 
ATOM     71  C   UNL A   1      47.913  26.579  26.420  1.00  0.00     0.148 A 
ATOM     72  C   UNL A   1      48.310  27.458  23.790  1.00  0.00     0.002 A 
ATOM     73  C   UNL A   1      49.129  26.356  25.786  1.00  0.00     0.091 A 
ATOM     74  F   UNL A   1      47.690  26.156  27.674  1.00  0.00    -0.205 F 
ATOM     75  C   UNL A   1      49.326  26.784  24.466  1.00  0.00     0.022 A 
BRANCH  73  76
ATOM     76  S   UNL A   1      50.527  25.675  26.689  1.00  0.00     0.127 S 
ATOM     77  O   UNL A   1      49.961  24.453  27.251  1.00  0.00    -0.237 OA
ATOM     78  O   UNL A   1      51.518  25.464  25.632  1.00  0.00    -0.237 OA
ATOM     79  O   UNL A   1      50.896  26.717  27.640  1.00  0.00    -0.744 OA
ENDBRANCH  73  76
ENDBRANCH  45  69
BRANCH  57  80
ATOM     80  C   UNL A   1      45.157  33.136  29.219  1.00  0.00     0.023 A 
ATOM     81  C   UNL A   1      45.959  33.278  30.368  1.00  0.00     0.012 A 
ATOM     82  C   UNL A   1      45.067  34.194  28.298  1.00  0.00     0.148 A 
ATOM     83  C   UNL A   1      46.642  34.468  30.611  1.00  0.00     0.002 A 
ATOM     84  C   UNL A   1      45.778  35.367  28.530  1.00  0.00     0.091 A 
ATOM     85  F   UNL A   1      44.276  34.050  27.224  1.00  0.00    -0.205 F 
ATOM     86  C   UNL A   1      46.559  35.508  29.688  1.00  0.00     0.022 A 
BRANCH  84  87
ATOM     87  S   UNL A   1      45.765  36.722  27.353  1.00  0.00     0.127 S 
ATOM     88  O   UNL A   1      46.372  36.104  26.176  1.00  0.00    -0.237 OA
ATOM     89  O   UNL A   1      44.338  37.017  27.217  1.00  0.00    -0.237 OA
ATOM     90  O   UNL A   1      46.535  37.788  27.982  1.00  0.00    -0.744 OA
ENDBRANCH  84  87
ENDBRANCH  57  80
ENDBRANCH  31  32
ENDBRANCH  24  26
ENDBRANCH  23  24
ENDBRANCH   1  23
TORSDOF 15
ENDMDL
