MODEL 1
REMARK VINA RESULT:     -11.7      0.000      0.000
REMARK SMILES CC[C@@H](C)[C@H](NC(=O)NCc1ccc(C)cc1)C(=O)OCCOC(=O)c1ccc(-c2c3nc(c(-c4cccc(S(=O)(=O)[O-])c4F)c4ccc([nH]4)c(-c4cccc(S(=O)(=O)[O-])c4F)c4nc(c(-c5cccc(S(=O)(=O)[O-])c5F)c5ccc2[nH]5)C=C4)C=C3)cc1
REMARK SMILES IDX 21 1 20 2 18 3 19 4 5 5 3 6 4 7 2 8 1 9 6 10 7 11 8 13 9 14
REMARK SMILES IDX 10 16 11 17 12 18 17 19 13 20 16 21 14 22 15 23 22 24 23 25
REMARK SMILES IDX 24 26 25 27 26 28 27 29 88 30 28 31 87 32 29 33 30 34 31 35
REMARK SMILES IDX 81 36 32 37 86 38 80 39 82 40 33 41 85 42 79 43 78 44 34 46
REMARK SMILES IDX 66 47 46 48 65 49 47 50 50 51 64 52 83 53 48 54 49 55 63 57
REMARK SMILES IDX 84 58 51 59 35 60 36 61 44 62 37 63 39 64 45 65 38 66 40 67
REMARK SMILES IDX 41 68 42 69 43 70 67 71 68 72 76 73 69 74 71 75 77 76 70 77
REMARK SMILES IDX 72 78 73 79 74 80 75 81 52 82 53 83 61 84 54 85 56 86 62 87
REMARK SMILES IDX 55 88 57 89 58 90 59 91 60 92
REMARK H PARENT 6 12 9 15 82 45 50 56
REMARK Flexibility Score: inf
ROOT
ATOM      1  C   UNL A   1      33.502  28.215  25.978  1.00  0.00     0.274 C 
ENDROOT
BRANCH   1   2
ATOM      2  O   UNL A   1      32.973  26.902  26.224  1.00  0.00    -0.461 OA
BRANCH   2   3
ATOM      3  C   UNL A   1      31.643  26.811  26.473  1.00  0.00     0.329 C 
ATOM      4  O   UNL A   1      31.111  27.331  27.449  1.00  0.00    -0.250 OA
BRANCH   3   5
ATOM      5  C   UNL A   1      30.909  25.941  25.417  1.00  0.00     0.196 C 
BRANCH   5   6
ATOM      6  C   UNL A   1      30.053  26.740  24.400  1.00  0.00     0.019 C 
ATOM      7  C   UNL A   1      28.616  26.214  24.297  1.00  0.00     0.010 C 
BRANCH   6   8
ATOM      8  C   UNL A   1      30.745  26.783  23.017  1.00  0.00     0.002 C 
ATOM      9  C   UNL A   1      31.195  28.170  22.572  1.00  0.00     0.004 C 
ENDBRANCH   6   8
ENDBRANCH   5   6
BRANCH   5  10
ATOM     10  N   UNL A   1      30.104  24.984  26.175  1.00  0.00    -0.324 N 
ATOM     11  C   UNL A   1      30.248  23.710  26.522  1.00  0.00     0.315 C 
ATOM     12  H   UNL A   1      29.261  25.374  26.503  1.00  0.00     0.166 HD
ATOM     13  O   UNL A   1      29.572  23.308  27.476  1.00  0.00    -0.249 OA
ATOM     14  N   UNL A   1      31.033  22.819  25.926  1.00  0.00    -0.334 N 
ATOM     15  H   UNL A   1      31.085  21.985  26.446  1.00  0.00     0.165 HD
BRANCH  14  16
ATOM     16  C   UNL A   1      31.840  22.736  24.713  1.00  0.00     0.153 C 
BRANCH  16  17
ATOM     17  C   UNL A   1      33.336  22.797  24.991  1.00  0.00    -0.029 A 
ATOM     18  C   UNL A   1      34.144  21.733  24.565  1.00  0.00     0.006 A 
ATOM     19  C   UNL A   1      33.976  23.876  25.621  1.00  0.00     0.006 A 
ATOM     20  C   UNL A   1      35.530  21.740  24.746  1.00  0.00     0.004 A 
ATOM     21  C   UNL A   1      35.360  23.871  25.839  1.00  0.00     0.004 A 
ATOM     22  C   UNL A   1      36.149  22.803  25.402  1.00  0.00    -0.051 A 
ATOM     23  C   UNL A   1      37.633  22.800  25.599  1.00  0.00     0.044 C 
ENDBRANCH  16  17
ENDBRANCH  14  16
ENDBRANCH   5  10
ENDBRANCH   3   5
ENDBRANCH   2   3
ENDBRANCH   1   2
BRANCH   1  24
ATOM     24  C   UNL A   1      34.177  28.903  27.188  1.00  0.00     0.275 C 
BRANCH  24  25
ATOM     25  O   UNL A   1      34.421  30.341  27.281  1.00  0.00    -0.458 OA
BRANCH  25  26
ATOM     26  C   UNL A   1      34.940  30.986  28.365  1.00  0.00     0.338 C 
ATOM     27  O   UNL A   1      34.478  31.989  28.852  1.00  0.00    -0.246 OA
BRANCH  26  28
ATOM     28  C   UNL A   1      36.261  30.448  28.728  1.00  0.00     0.060 A 
ATOM     29  C   UNL A   1      36.455  29.774  29.940  1.00  0.00     0.016 A 
ATOM     30  C   UNL A   1      37.232  30.467  27.736  1.00  0.00     0.016 A 
ATOM     31  C   UNL A   1      37.568  28.945  30.085  1.00  0.00     0.010 A 
ATOM     32  C   UNL A   1      38.259  29.569  27.830  1.00  0.00     0.010 A 
ATOM     33  C   UNL A   1      38.435  28.811  29.003  1.00  0.00    -0.014 A 
BRANCH  33  34
ATOM     34  C   UNL A   1      39.758  28.212  29.072  1.00  0.00     0.031 A 
ATOM     35  C   UNL A   1      40.095  26.841  28.670  1.00  0.00     0.074 A 
ATOM     36  C   UNL A   1      40.683  29.182  29.226  1.00  0.00     0.049 A 
ATOM     37  N   UNL A   1      41.164  26.243  29.069  1.00  0.00    -0.248 NA
ATOM     38  C   UNL A   1      39.261  26.014  27.806  1.00  0.00     0.031 C 
ATOM     39  C   UNL A   1      42.064  29.244  28.812  1.00  0.00     0.029 A 
ATOM     40  N   UNL A   1      40.457  30.406  29.869  1.00  0.00    -0.354 N 
ATOM     41  C   UNL A   1      41.298  25.090  28.320  1.00  0.00     0.074 A 
ATOM     42  C   UNL A   1      40.026  24.922  27.657  1.00  0.00     0.031 C 
ATOM     43  C   UNL A   1      42.627  30.322  29.394  1.00  0.00     0.029 A 
ATOM     44  C   UNL A   1      41.671  30.841  30.375  1.00  0.00     0.049 A 
ATOM     45  H   UNL A   1      39.593  30.872  29.948  1.00  0.00     0.167 HD
ATOM     46  C   UNL A   1      42.535  24.531  28.168  1.00  0.00     0.034 A 
ATOM     47  C   UNL A   1      41.867  30.980  31.722  1.00  0.00     0.034 A 
ATOM     48  C   UNL A   1      43.549  25.413  28.767  1.00  0.00     0.049 A 
ATOM     49  C   UNL A   1      42.961  30.037  32.182  1.00  0.00     0.074 A 
ATOM     50  C   UNL A   1      44.303  26.426  28.196  1.00  0.00     0.029 A 
ATOM     51  N   UNL A   1      43.667  25.554  30.144  1.00  0.00    -0.354 N 
ATOM     52  N   UNL A   1      43.366  29.006  31.499  1.00  0.00    -0.248 NA
ATOM     53  C   UNL A   1      43.629  30.155  33.472  1.00  0.00     0.031 C 
ATOM     54  C   UNL A   1      44.816  27.231  29.241  1.00  0.00     0.029 A 
ATOM     55  C   UNL A   1      44.410  26.688  30.448  1.00  0.00     0.049 A 
ATOM     56  H   UNL A   1      43.280  24.939  30.808  1.00  0.00     0.167 HD
ATOM     57  C   UNL A   1      44.238  28.272  32.248  1.00  0.00     0.074 A 
ATOM     58  C   UNL A   1      44.416  29.067  33.453  1.00  0.00     0.031 C 
ATOM     59  C   UNL A   1      44.690  27.050  31.833  1.00  0.00     0.034 A 
BRANCH  46  60
ATOM     60  C   UNL A   1      42.924  23.447  27.166  1.00  0.00     0.023 A 
ATOM     61  C   UNL A   1      43.703  23.855  26.054  1.00  0.00     0.012 A 
ATOM     62  C   UNL A   1      42.572  22.077  27.199  1.00  0.00     0.148 A 
ATOM     63  C   UNL A   1      44.011  23.007  24.986  1.00  0.00     0.002 A 
ATOM     64  C   UNL A   1      42.840  21.236  26.108  1.00  0.00     0.091 A 
ATOM     65  F   UNL A   1      42.032  21.562  28.308  1.00  0.00    -0.205 F 
ATOM     66  C   UNL A   1      43.551  21.703  24.997  1.00  0.00     0.022 A 
BRANCH  64  67
ATOM     67  S   UNL A   1      42.253  19.533  26.005  1.00  0.00     0.127 S 
ATOM     68  O   UNL A   1      43.018  19.016  24.868  1.00  0.00    -0.237 OA
ATOM     69  O   UNL A   1      42.648  18.982  27.300  1.00  0.00    -0.237 OA
ATOM     70  O   UNL A   1      40.817  19.612  25.775  1.00  0.00    -0.744 OA
ENDBRANCH  64  67
ENDBRANCH  46  60
BRANCH  47  71
ATOM     71  C   UNL A   1      40.600  31.200  32.519  1.00  0.00     0.023 A 
ATOM     72  C   UNL A   1      40.102  30.146  33.330  1.00  0.00     0.012 A 
ATOM     73  C   UNL A   1      40.175  32.508  32.801  1.00  0.00     0.148 A 
ATOM     74  C   UNL A   1      39.334  30.414  34.471  1.00  0.00     0.002 A 
ATOM     75  C   UNL A   1      39.460  32.773  33.964  1.00  0.00     0.091 A 
ATOM     76  F   UNL A   1      40.523  33.498  31.970  1.00  0.00    -0.205 F 
ATOM     77  C   UNL A   1      39.046  31.733  34.810  1.00  0.00     0.022 A 
BRANCH  75  78
ATOM     78  S   UNL A   1      39.283  34.466  34.544  1.00  0.00     0.127 S 
ATOM     79  O   UNL A   1      38.838  34.271  35.924  1.00  0.00    -0.237 OA
ATOM     80  O   UNL A   1      40.613  35.045  34.441  1.00  0.00    -0.237 OA
ATOM     81  O   UNL A   1      38.272  34.989  33.631  1.00  0.00    -0.744 OA
ENDBRANCH  75  78
ENDBRANCH  47  71
BRANCH  59  82
ATOM     82  C   UNL A   1      45.475  26.092  32.694  1.00  0.00     0.023 A 
ATOM     83  C   UNL A   1      46.878  26.127  32.758  1.00  0.00     0.012 A 
ATOM     84  C   UNL A   1      44.811  25.209  33.582  1.00  0.00     0.148 A 
ATOM     85  C   UNL A   1      47.599  25.266  33.590  1.00  0.00     0.002 A 
ATOM     86  C   UNL A   1      45.527  24.446  34.497  1.00  0.00     0.091 A 
ATOM     87  F   UNL A   1      43.476  25.085  33.534  1.00  0.00    -0.205 F 
ATOM     88  C   UNL A   1      46.922  24.440  34.476  1.00  0.00     0.022 A 
BRANCH  86  89
ATOM     89  S   UNL A   1      44.683  23.579  35.824  1.00  0.00     0.127 S 
ATOM     90  O   UNL A   1      45.781  22.861  36.467  1.00  0.00    -0.237 OA
ATOM     91  O   UNL A   1      44.127  24.677  36.617  1.00  0.00    -0.237 OA
ATOM     92  O   UNL A   1      43.679  22.759  35.159  1.00  0.00    -0.744 OA
ENDBRANCH  86  89
ENDBRANCH  59  82
ENDBRANCH  33  34
ENDBRANCH  26  28
ENDBRANCH  25  26
ENDBRANCH  24  25
ENDBRANCH   1  24
TORSDOF 19
ENDMDL
MODEL 2
REMARK VINA RESULT:     -11.7      3.788      9.746
REMARK SMILES CC[C@@H](C)[C@H](NC(=O)NCc1ccc(C)cc1)C(=O)OCCOC(=O)c1ccc(-c2c3nc(c(-c4cccc(S(=O)(=O)[O-])c4F)c4ccc([nH]4)c(-c4cccc(S(=O)(=O)[O-])c4F)c4nc(c(-c5cccc(S(=O)(=O)[O-])c5F)c5ccc2[nH]5)C=C4)C=C3)cc1
REMARK SMILES IDX 21 1 20 2 18 3 19 4 5 5 3 6 4 7 2 8 1 9 6 10 7 11 8 13 9 14
REMARK SMILES IDX 10 16 11 17 12 18 17 19 13 20 16 21 14 22 15 23 22 24 23 25
REMARK SMILES IDX 24 26 25 27 26 28 27 29 88 30 28 31 87 32 29 33 30 34 31 35
REMARK SMILES IDX 81 36 32 37 86 38 80 39 82 40 33 41 85 42 79 43 78 44 34 46
REMARK SMILES IDX 66 47 46 48 65 49 47 50 50 51 64 52 83 53 48 54 49 55 63 57
REMARK SMILES IDX 84 58 51 59 35 60 36 61 44 62 37 63 39 64 45 65 38 66 40 67
REMARK SMILES IDX 41 68 42 69 43 70 67 71 68 72 76 73 69 74 71 75 77 76 70 77
REMARK SMILES IDX 72 78 73 79 74 80 75 81 52 82 53 83 61 84 54 85 56 86 62 87
REMARK SMILES IDX 55 88 57 89 58 90 59 91 60 92
REMARK H PARENT 6 12 9 15 82 45 50 56
REMARK Flexibility Score: inf
ROOT
ATOM      1  C   UNL A   1      35.853  24.212  26.006  1.00  0.00     0.274 C 
ENDROOT
BRANCH   1   2
ATOM      2  O   UNL A   1      34.587  24.081  25.339  1.00  0.00    -0.461 OA
BRANCH   2   3
ATOM      3  C   UNL A   1      33.474  24.255  26.093  1.00  0.00     0.329 C 
ATOM      4  O   UNL A   1      33.156  23.490  26.998  1.00  0.00    -0.250 OA
BRANCH   3   5
ATOM      5  C   UNL A   1      32.647  25.488  25.638  1.00  0.00     0.196 C 
BRANCH   5   6
ATOM      6  C   UNL A   1      33.357  26.853  25.832  1.00  0.00     0.019 C 
ATOM      7  C   UNL A   1      32.468  27.884  26.538  1.00  0.00     0.010 C 
BRANCH   6   8
ATOM      8  C   UNL A   1      33.892  27.388  24.483  1.00  0.00     0.002 C 
ATOM      9  C   UNL A   1      33.567  28.852  24.204  1.00  0.00     0.004 C 
ENDBRANCH   6   8
ENDBRANCH   5   6
BRANCH   5  10
ATOM     10  N   UNL A   1      31.385  25.419  26.375  1.00  0.00    -0.324 N 
ATOM     11  C   UNL A   1      30.106  25.320  26.030  1.00  0.00     0.315 C 
ATOM     12  H   UNL A   1      31.514  25.455  27.351  1.00  0.00     0.166 HD
ATOM     13  O   UNL A   1      29.323  24.907  26.893  1.00  0.00    -0.249 OA
ATOM     14  N   UNL A   1      29.584  25.645  24.853  1.00  0.00    -0.334 N 
ATOM     15  H   UNL A   1      28.647  25.350  24.784  1.00  0.00     0.165 HD
BRANCH  14  16
ATOM     16  C   UNL A   1      30.015  26.320  23.634  1.00  0.00     0.153 C 
BRANCH  16  17
ATOM     17  C   UNL A   1      29.456  27.731  23.506  1.00  0.00    -0.029 A 
ATOM     18  C   UNL A   1      28.084  27.891  23.265  1.00  0.00     0.006 A 
ATOM     19  C   UNL A   1      30.223  28.897  23.649  1.00  0.00     0.006 A 
ATOM     20  C   UNL A   1      27.493  29.155  23.180  1.00  0.00     0.004 A 
ATOM     21  C   UNL A   1      29.643  30.166  23.527  1.00  0.00     0.004 A 
ATOM     22  C   UNL A   1      28.272  30.306  23.292  1.00  0.00    -0.051 A 
ATOM     23  C   UNL A   1      27.633  31.656  23.191  1.00  0.00     0.044 C 
ENDBRANCH  16  17
ENDBRANCH  14  16
ENDBRANCH   5  10
ENDBRANCH   3   5
ENDBRANCH   2   3
ENDBRANCH   1   2
BRANCH   1  24
ATOM     24  C   UNL A   1      36.886  23.099  25.707  1.00  0.00     0.275 C 
BRANCH  24  25
ATOM     25  O   UNL A   1      38.311  23.340  25.497  1.00  0.00    -0.458 OA
BRANCH  25  26
ATOM     26  C   UNL A   1      39.291  23.152  26.429  1.00  0.00     0.338 C 
ATOM     27  O   UNL A   1      39.655  22.075  26.832  1.00  0.00    -0.246 OA
BRANCH  26  28
ATOM     28  C   UNL A   1      39.689  24.423  27.052  1.00  0.00     0.060 A 
ATOM     29  C   UNL A   1      40.377  25.400  26.321  1.00  0.00     0.016 A 
ATOM     30  C   UNL A   1      39.180  24.680  28.319  1.00  0.00     0.016 A 
ATOM     31  C   UNL A   1      40.390  26.714  26.788  1.00  0.00     0.010 A 
ATOM     32  C   UNL A   1      39.091  25.983  28.719  1.00  0.00     0.010 A 
ATOM     33  C   UNL A   1      39.699  27.003  27.963  1.00  0.00    -0.014 A 
BRANCH  33  34
ATOM     34  C   UNL A   1      39.829  28.239  28.718  1.00  0.00     0.031 A 
ATOM     35  C   UNL A   1      38.857  29.338  28.727  1.00  0.00     0.074 A 
ATOM     36  C   UNL A   1      40.783  28.090  29.661  1.00  0.00     0.049 A 
ATOM     37  N   UNL A   1      39.162  30.531  29.107  1.00  0.00    -0.248 NA
ATOM     38  C   UNL A   1      37.469  29.206  28.300  1.00  0.00     0.031 C 
ATOM     39  C   UNL A   1      40.933  28.709  30.956  1.00  0.00     0.029 A 
ATOM     40  N   UNL A   1      41.892  27.242  29.549  1.00  0.00    -0.354 N 
ATOM     41  C   UNL A   1      37.981  31.240  29.233  1.00  0.00     0.074 A 
ATOM     42  C   UNL A   1      36.981  30.423  28.586  1.00  0.00     0.031 C 
ATOM     43  C   UNL A   1      42.161  28.406  31.424  1.00  0.00     0.029 A 
ATOM     44  C   UNL A   1      42.904  27.776  30.330  1.00  0.00     0.049 A 
ATOM     45  H   UNL A   1      41.944  26.418  29.012  1.00  0.00     0.167 HD
ATOM     46  C   UNL A   1      37.939  32.326  30.060  1.00  0.00     0.034 A 
ATOM     47  C   UNL A   1      44.075  28.210  29.771  1.00  0.00     0.034 A 
ATOM     48  C   UNL A   1      39.211  32.436  30.791  1.00  0.00     0.049 A 
ATOM     49  C   UNL A   1      44.239  29.697  30.016  1.00  0.00     0.074 A 
ATOM     50  C   UNL A   1      39.579  31.927  32.026  1.00  0.00     0.029 A 
ATOM     51  N   UNL A   1      40.381  32.834  30.157  1.00  0.00    -0.354 N 
ATOM     52  N   UNL A   1      43.264  30.491  30.351  1.00  0.00    -0.248 NA
ATOM     53  C   UNL A   1      45.502  30.402  29.838  1.00  0.00     0.031 C 
ATOM     54  C   UNL A   1      40.993  31.948  32.104  1.00  0.00     0.029 A 
ATOM     55  C   UNL A   1      41.484  32.505  30.935  1.00  0.00     0.049 A 
ATOM     56  H   UNL A   1      40.423  33.285  29.283  1.00  0.00     0.167 HD
ATOM     57  C   UNL A   1      43.698  31.784  30.340  1.00  0.00     0.074 A 
ATOM     58  C   UNL A   1      45.123  31.669  30.071  1.00  0.00     0.031 C 
ATOM     59  C   UNL A   1      42.835  32.833  30.495  1.00  0.00     0.034 A 
BRANCH  46  60
ATOM     60  C   UNL A   1      36.684  33.049  30.544  1.00  0.00     0.023 A 
ATOM     61  C   UNL A   1      36.356  32.908  31.915  1.00  0.00     0.012 A 
ATOM     62  C   UNL A   1      35.787  33.825  29.774  1.00  0.00     0.148 A 
ATOM     63  C   UNL A   1      35.166  33.391  32.468  1.00  0.00     0.002 A 
ATOM     64  C   UNL A   1      34.571  34.271  30.314  1.00  0.00     0.091 A 
ATOM     65  F   UNL A   1      36.128  34.192  28.535  1.00  0.00    -0.205 F 
ATOM     66  C   UNL A   1      34.255  34.045  31.659  1.00  0.00     0.022 A 
BRANCH  64  67
ATOM     67  S   UNL A   1      33.300  35.100  29.338  1.00  0.00     0.127 S 
ATOM     68  O   UNL A   1      32.905  34.049  28.398  1.00  0.00    -0.237 OA
ATOM     69  O   UNL A   1      32.288  35.424  30.343  1.00  0.00    -0.237 OA
ATOM     70  O   UNL A   1      33.948  36.248  28.717  1.00  0.00    -0.744 OA
ENDBRANCH  64  67
ENDBRANCH  46  60
BRANCH  47  71
ATOM     71  C   UNL A   1      44.411  27.567  28.444  1.00  0.00     0.023 A 
ATOM     72  C   UNL A   1      44.176  28.291  27.245  1.00  0.00     0.012 A 
ATOM     73  C   UNL A   1      45.318  26.495  28.402  1.00  0.00     0.148 A 
ATOM     74  C   UNL A   1      44.935  28.046  26.093  1.00  0.00     0.002 A 
ATOM     75  C   UNL A   1      46.107  26.295  27.274  1.00  0.00     0.091 A 
ATOM     76  F   UNL A   1      45.455  25.717  29.482  1.00  0.00    -0.205 F 
ATOM     77  C   UNL A   1      45.930  27.074  26.121  1.00  0.00     0.022 A 
BRANCH  75  78
ATOM     78  S   UNL A   1      47.544  25.217  27.364  1.00  0.00     0.127 S 
ATOM     79  O   UNL A   1      46.933  23.889  27.304  1.00  0.00    -0.237 OA
ATOM     80  O   UNL A   1      48.339  25.542  26.191  1.00  0.00    -0.237 OA
ATOM     81  O   UNL A   1      48.110  25.584  28.658  1.00  0.00    -0.744 OA
ENDBRANCH  75  78
ENDBRANCH  47  71
BRANCH  59  82
ATOM     82  C   UNL A   1      43.202  34.280  30.277  1.00  0.00     0.023 A 
ATOM     83  C   UNL A   1      43.607  35.112  31.334  1.00  0.00     0.012 A 
ATOM     84  C   UNL A   1      43.286  34.814  28.967  1.00  0.00     0.148 A 
ATOM     85  C   UNL A   1      43.987  36.440  31.121  1.00  0.00     0.002 A 
ATOM     86  C   UNL A   1      43.784  36.093  28.749  1.00  0.00     0.091 A 
ATOM     87  F   UNL A   1      42.862  34.093  27.918  1.00  0.00    -0.205 F 
ATOM     88  C   UNL A   1      44.096  36.925  29.825  1.00  0.00     0.022 A 
BRANCH  86  89
ATOM     89  S   UNL A   1      44.188  36.647  27.089  1.00  0.00     0.127 S 
ATOM     90  O   UNL A   1      45.034  35.560  26.601  1.00  0.00    -0.237 OA
ATOM     91  O   UNL A   1      42.872  36.726  26.453  1.00  0.00    -0.237 OA
ATOM     92  O   UNL A   1      44.839  37.938  27.271  1.00  0.00    -0.744 OA
ENDBRANCH  86  89
ENDBRANCH  59  82
ENDBRANCH  33  34
ENDBRANCH  26  28
ENDBRANCH  25  26
ENDBRANCH  24  25
ENDBRANCH   1  24
TORSDOF 19
ENDMDL
MODEL 3
REMARK VINA RESULT:     -11.7      1.660      2.133
REMARK SMILES CC[C@@H](C)[C@H](NC(=O)NCc1ccc(C)cc1)C(=O)OCCOC(=O)c1ccc(-c2c3nc(c(-c4cccc(S(=O)(=O)[O-])c4F)c4ccc([nH]4)c(-c4cccc(S(=O)(=O)[O-])c4F)c4nc(c(-c5cccc(S(=O)(=O)[O-])c5F)c5ccc2[nH]5)C=C4)C=C3)cc1
REMARK SMILES IDX 21 1 20 2 18 3 19 4 5 5 3 6 4 7 2 8 1 9 6 10 7 11 8 13 9 14
REMARK SMILES IDX 10 16 11 17 12 18 17 19 13 20 16 21 14 22 15 23 22 24 23 25
REMARK SMILES IDX 24 26 25 27 26 28 27 29 88 30 28 31 87 32 29 33 30 34 31 35
REMARK SMILES IDX 81 36 32 37 86 38 80 39 82 40 33 41 85 42 79 43 78 44 34 46
REMARK SMILES IDX 66 47 46 48 65 49 47 50 50 51 64 52 83 53 48 54 49 55 63 57
REMARK SMILES IDX 84 58 51 59 35 60 36 61 44 62 37 63 39 64 45 65 38 66 40 67
REMARK SMILES IDX 41 68 42 69 43 70 67 71 68 72 76 73 69 74 71 75 77 76 70 77
REMARK SMILES IDX 72 78 73 79 74 80 75 81 52 82 53 83 61 84 54 85 56 86 62 87
REMARK SMILES IDX 55 88 57 89 58 90 59 91 60 92
REMARK H PARENT 6 12 9 15 82 45 50 56
REMARK Flexibility Score: inf
ROOT
ATOM      1  C   UNL A   1      33.538  28.447  27.243  1.00  0.00     0.274 C 
ENDROOT
BRANCH   1   2
ATOM      2  O   UNL A   1      32.836  27.804  26.166  1.00  0.00    -0.461 OA
BRANCH   2   3
ATOM      3  C   UNL A   1      31.747  27.068  26.495  1.00  0.00     0.329 C 
ATOM      4  O   UNL A   1      30.979  27.380  27.400  1.00  0.00    -0.250 OA
BRANCH   3   5
ATOM      5  C   UNL A   1      31.629  25.782  25.632  1.00  0.00     0.196 C 
BRANCH   5   6
ATOM      6  C   UNL A   1      31.127  26.015  24.183  1.00  0.00     0.019 C 
ATOM      7  C   UNL A   1      32.276  26.212  23.187  1.00  0.00     0.010 C 
BRANCH   6   8
ATOM      8  C   UNL A   1      30.122  27.191  24.135  1.00  0.00     0.002 C 
ATOM      9  C   UNL A   1      30.450  28.267  23.106  1.00  0.00     0.004 C 
ENDBRANCH   6   8
ENDBRANCH   5   6
BRANCH   5  10
ATOM     10  N   UNL A   1      30.749  24.879  26.375  1.00  0.00    -0.324 N 
ATOM     11  C   UNL A   1      30.683  23.562  26.536  1.00  0.00     0.315 C 
ATOM     12  H   UNL A   1      30.045  25.358  26.869  1.00  0.00     0.166 HD
ATOM     13  O   UNL A   1      30.061  23.148  27.521  1.00  0.00    -0.249 OA
ATOM     14  N   UNL A   1      31.201  22.646  25.726  1.00  0.00    -0.334 N 
ATOM     15  H   UNL A   1      31.151  21.748  26.125  1.00  0.00     0.165 HD
BRANCH  14  16
ATOM     16  C   UNL A   1      31.824  22.604  24.408  1.00  0.00     0.153 C 
BRANCH  16  17
ATOM     17  C   UNL A   1      33.328  22.372  24.469  1.00  0.00    -0.029 A 
ATOM     18  C   UNL A   1      33.845  21.582  25.507  1.00  0.00     0.006 A 
ATOM     19  C   UNL A   1      34.240  22.871  23.528  1.00  0.00     0.006 A 
ATOM     20  C   UNL A   1      35.208  21.290  25.603  1.00  0.00     0.004 A 
ATOM     21  C   UNL A   1      35.613  22.613  23.640  1.00  0.00     0.004 A 
ATOM     22  C   UNL A   1      36.109  21.819  24.678  1.00  0.00    -0.051 A 
ATOM     23  C   UNL A   1      37.569  21.507  24.793  1.00  0.00     0.044 C 
ENDBRANCH  16  17
ENDBRANCH  14  16
ENDBRANCH   5  10
ENDBRANCH   3   5
ENDBRANCH   2   3
ENDBRANCH   1   2
BRANCH   1  24
ATOM     24  C   UNL A   1      33.378  29.983  27.325  1.00  0.00     0.275 C 
BRANCH  24  25
ATOM     25  O   UNL A   1      34.487  30.912  27.530  1.00  0.00    -0.458 OA
BRANCH  25  26
ATOM     26  C   UNL A   1      35.285  30.958  28.637  1.00  0.00     0.338 C 
ATOM     27  O   UNL A   1      35.157  31.746  29.541  1.00  0.00    -0.246 OA
BRANCH  26  28
ATOM     28  C   UNL A   1      36.460  30.085  28.487  1.00  0.00     0.060 A 
ATOM     29  C   UNL A   1      37.211  30.087  27.305  1.00  0.00     0.016 A 
ATOM     30  C   UNL A   1      36.892  29.424  29.630  1.00  0.00     0.016 A 
ATOM     31  C   UNL A   1      38.510  29.576  27.326  1.00  0.00     0.010 A 
ATOM     32  C   UNL A   1      38.199  29.030  29.683  1.00  0.00     0.010 A 
ATOM     33  C   UNL A   1      39.011  29.097  28.535  1.00  0.00    -0.014 A 
BRANCH  33  34
ATOM     34  C   UNL A   1      40.220  28.302  28.673  1.00  0.00     0.031 A 
ATOM     35  C   UNL A   1      40.311  26.850  28.483  1.00  0.00     0.074 A 
ATOM     36  C   UNL A   1      41.296  29.116  28.662  1.00  0.00     0.049 A 
ATOM     37  N   UNL A   1      41.285  26.148  28.951  1.00  0.00    -0.248 NA
ATOM     38  C   UNL A   1      39.319  26.055  27.769  1.00  0.00     0.031 C 
ATOM     39  C   UNL A   1      42.650  28.883  28.221  1.00  0.00     0.029 A 
ATOM     40  N   UNL A   1      41.300  30.442  29.112  1.00  0.00    -0.354 N 
ATOM     41  C   UNL A   1      41.198  24.890  28.386  1.00  0.00     0.074 A 
ATOM     42  C   UNL A   1      39.888  24.840  27.778  1.00  0.00     0.031 C 
ATOM     43  C   UNL A   1      43.405  29.926  28.621  1.00  0.00     0.029 A 
ATOM     44  C   UNL A   1      42.588  30.738  29.526  1.00  0.00     0.049 A 
ATOM     45  H   UNL A   1      40.527  31.053  29.133  1.00  0.00     0.167 HD
ATOM     46  C   UNL A   1      42.320  24.115  28.303  1.00  0.00     0.034 A 
ATOM     47  C   UNL A   1      42.859  31.042  30.832  1.00  0.00     0.034 A 
ATOM     48  C   UNL A   1      43.487  24.894  28.743  1.00  0.00     0.049 A 
ATOM     49  C   UNL A   1      43.803  30.008  31.414  1.00  0.00     0.074 A 
ATOM     50  C   UNL A   1      44.372  25.670  28.011  1.00  0.00     0.029 A 
ATOM     51  N   UNL A   1      43.684  25.217  30.079  1.00  0.00    -0.354 N 
ATOM     52  N   UNL A   1      44.006  28.834  30.892  1.00  0.00    -0.248 NA
ATOM     53  C   UNL A   1      44.534  30.204  32.659  1.00  0.00     0.031 C 
ATOM     54  C   UNL A   1      45.053  26.525  28.911  1.00  0.00     0.029 A 
ATOM     55  C   UNL A   1      44.613  26.243  30.193  1.00  0.00     0.049 A 
ATOM     56  H   UNL A   1      43.230  24.782  30.837  1.00  0.00     0.167 HD
ATOM     57  C   UNL A   1      44.777  28.084  31.730  1.00  0.00     0.074 A 
ATOM     58  C   UNL A   1      45.132  29.009  32.796  1.00  0.00     0.031 C 
ATOM     59  C   UNL A   1      45.006  26.756  31.501  1.00  0.00     0.034 A 
BRANCH  46  60
ATOM     60  C   UNL A   1      42.484  22.844  27.473  1.00  0.00     0.023 A 
ATOM     61  C   UNL A   1      41.641  21.753  27.803  1.00  0.00     0.012 A 
ATOM     62  C   UNL A   1      43.404  22.613  26.424  1.00  0.00     0.148 A 
ATOM     63  C   UNL A   1      41.775  20.485  27.229  1.00  0.00     0.002 A 
ATOM     64  C   UNL A   1      43.572  21.331  25.879  1.00  0.00     0.091 A 
ATOM     65  F   UNL A   1      44.080  23.642  25.902  1.00  0.00    -0.205 F 
ATOM     66  C   UNL A   1      42.764  20.264  26.288  1.00  0.00     0.022 A 
BRANCH  64  67
ATOM     67  S   UNL A   1      44.855  20.928  24.676  1.00  0.00     0.127 S 
ATOM     68  O   UNL A   1      44.653  19.490  24.486  1.00  0.00    -0.237 OA
ATOM     69  O   UNL A   1      44.481  21.748  23.525  1.00  0.00    -0.237 OA
ATOM     70  O   UNL A   1      46.123  21.278  25.303  1.00  0.00    -0.744 OA
ENDBRANCH  64  67
ENDBRANCH  46  60
BRANCH  47  71
ATOM     71  C   UNL A   1      41.679  31.587  31.606  1.00  0.00     0.023 A 
ATOM     72  C   UNL A   1      41.029  32.760  31.140  1.00  0.00     0.012 A 
ATOM     73  C   UNL A   1      40.976  30.746  32.484  1.00  0.00     0.148 A 
ATOM     74  C   UNL A   1      39.676  32.996  31.421  1.00  0.00     0.002 A 
ATOM     75  C   UNL A   1      39.620  30.956  32.713  1.00  0.00     0.091 A 
ATOM     76  F   UNL A   1      41.613  29.709  33.040  1.00  0.00    -0.205 F 
ATOM     77  C   UNL A   1      38.961  32.071  32.176  1.00  0.00     0.022 A 
BRANCH  75  78
ATOM     78  S   UNL A   1      38.629  29.664  33.478  1.00  0.00     0.127 S 
ATOM     79  O   UNL A   1      37.282  29.999  33.014  1.00  0.00    -0.237 OA
ATOM     80  O   UNL A   1      39.136  28.418  32.928  1.00  0.00    -0.237 OA
ATOM     81  O   UNL A   1      38.876  29.900  34.897  1.00  0.00    -0.744 OA
ENDBRANCH  75  78
ENDBRANCH  47  71
BRANCH  59  82
ATOM     82  C   UNL A   1      45.659  25.819  32.487  1.00  0.00     0.023 A 
ATOM     83  C   UNL A   1      47.056  25.712  32.599  1.00  0.00     0.012 A 
ATOM     84  C   UNL A   1      44.880  25.114  33.438  1.00  0.00     0.148 A 
ATOM     85  C   UNL A   1      47.656  24.875  33.543  1.00  0.00     0.002 A 
ATOM     86  C   UNL A   1      45.485  24.383  34.454  1.00  0.00     0.091 A 
ATOM     87  F   UNL A   1      43.541  25.127  33.354  1.00  0.00    -0.205 F 
ATOM     88  C   UNL A   1      46.871  24.226  34.485  1.00  0.00     0.022 A 
BRANCH  86  89
ATOM     89  S   UNL A   1      44.518  23.760  35.833  1.00  0.00     0.127 S 
ATOM     90  O   UNL A   1      45.516  23.011  36.593  1.00  0.00    -0.237 OA
ATOM     91  O   UNL A   1      44.058  24.990  36.479  1.00  0.00    -0.237 OA
ATOM     92  O   UNL A   1      43.452  22.977  35.222  1.00  0.00    -0.744 OA
ENDBRANCH  86  89
ENDBRANCH  59  82
ENDBRANCH  33  34
ENDBRANCH  26  28
ENDBRANCH  25  26
ENDBRANCH  24  25
ENDBRANCH   1  24
TORSDOF 19
ENDMDL
