MODEL 1
REMARK VINA RESULT:     -11.5      0.000      0.000
REMARK SMILES Cc1ccc(S(=O)(=O)N[C@@H](C)C(=O)Oc2csc(C(=O)OCCOC(=O)c3ccc(-c4c5nc(c(-c6cccc(S(=O)(=O)[O-])c6F)c6ccc([nH]6)c(-c6cccc(S(=O)(=O)[O-])c6F)c6nc(c(-c7cccc(S(=O)(=O)[O-])c7F)c7ccc4[nH]7)C=C6)C=C5)cc3)c2C)cc1
REMARK SMILES IDX 21 1 19 2 20 3 18 4 15 5 16 6 90 7 17 8 91 9 14 10 12 11
REMARK SMILES IDX 13 12 10 13 11 14 9 15 6 17 7 18 8 19 5 20 1 21 2 22 3 23
REMARK SMILES IDX 93 24 4 25 92 26 22 27 23 28 24 29 25 30 26 31 27 32 28 33
REMARK SMILES IDX 89 34 29 35 88 36 30 37 31 38 32 39 82 40 33 41 87 42 81 43
REMARK SMILES IDX 83 44 34 45 86 46 80 47 79 48 35 50 67 51 47 52 66 53 48 54
REMARK SMILES IDX 51 55 65 56 84 57 49 58 50 59 64 61 85 62 52 63 36 64 37 65
REMARK SMILES IDX 45 66 38 67 40 68 46 69 39 70 41 71 42 72 43 73 44 74 68 75
REMARK SMILES IDX 69 76 77 77 70 78 72 79 78 80 71 81 73 82 74 83 75 84 76 85
REMARK SMILES IDX 53 86 54 87 62 88 55 89 57 90 63 91 56 92 58 93 59 94 60 95
REMARK SMILES IDX 61 96
REMARK H PARENT 9 16 83 49 51 60
REMARK Flexibility Score: inf
ROOT
ATOM      1  O   UNL A   1      35.449  21.630  26.290  1.00  0.00    -0.458 OA
ENDROOT
BRANCH   1   2
ATOM      2  C   UNL A   1      35.284  20.923  25.138  1.00  0.00     0.348 C 
ATOM      3  O   UNL A   1      35.762  19.827  24.943  1.00  0.00    -0.245 OA
BRANCH   2   4
ATOM      4  C   UNL A   1      34.493  21.723  24.213  1.00  0.00     0.119 A 
ATOM      5  C   UNL A   1      33.727  23.158  22.546  1.00  0.00     0.145 A 
ATOM      6  C   UNL A   1      32.554  22.607  23.012  1.00  0.00     0.113 A 
ATOM      7  C   UNL A   1      34.893  22.608  23.207  1.00  0.00     0.017 A 
ATOM      8  S   UNL A   1      32.793  21.594  24.351  1.00  0.00    -0.133 S 
ATOM      9  C   UNL A   1      36.335  22.938  22.966  1.00  0.00     0.050 C 
BRANCH   5  10
ATOM     10  O   UNL A   1      33.584  24.181  21.669  1.00  0.00    -0.424 OA
BRANCH  10  11
ATOM     11  C   UNL A   1      33.122  25.395  22.057  1.00  0.00     0.329 C 
ATOM     12  O   UNL A   1      33.672  26.135  22.862  1.00  0.00    -0.250 OA
BRANCH  11  13
ATOM     13  C   UNL A   1      31.906  25.799  21.217  1.00  0.00     0.177 C 
ATOM     14  C   UNL A   1      32.205  25.634  19.730  1.00  0.00     0.038 C 
BRANCH  13  15
ATOM     15  N   UNL A   1      31.521  27.178  21.559  1.00  0.00    -0.197 NA
ATOM     16  H   UNL A   1      32.388  27.658  21.798  1.00  0.00     0.142 HD
BRANCH  15  17
ATOM     17  S   UNL A   1      30.441  27.563  22.767  1.00  0.00     0.241 S 
ATOM     18  O   UNL A   1      29.756  26.345  23.146  1.00  0.00    -0.207 OA
ATOM     19  O   UNL A   1      29.700  28.712  22.297  1.00  0.00    -0.207 OA
BRANCH  17  20
ATOM     20  C   UNL A   1      31.388  28.088  24.170  1.00  0.00     0.082 A 
ATOM     21  C   UNL A   1      33.906  29.012  27.531  1.00  0.00     0.044 C 
ATOM     22  C   UNL A   1      33.009  28.703  26.366  1.00  0.00    -0.051 A 
ATOM     23  C   UNL A   1      32.152  27.596  26.412  1.00  0.00     0.005 A 
ATOM     24  C   UNL A   1      33.012  29.523  25.230  1.00  0.00     0.005 A 
ATOM     25  C   UNL A   1      31.354  27.280  25.313  1.00  0.00     0.022 A 
ATOM     26  C   UNL A   1      32.189  29.230  24.139  1.00  0.00     0.022 A 
ENDBRANCH  17  20
ENDBRANCH  15  17
ENDBRANCH  13  15
ENDBRANCH  11  13
ENDBRANCH  10  11
ENDBRANCH   5  10
ENDBRANCH   2   4
ENDBRANCH   1   2
BRANCH   1  27
ATOM     27  C   UNL A   1      36.536  22.548  26.358  1.00  0.00     0.275 C 
BRANCH  27  28
ATOM     28  C   UNL A   1      37.966  22.012  26.138  1.00  0.00     0.275 C 
BRANCH  28  29
ATOM     29  O   UNL A   1      39.105  22.866  25.817  1.00  0.00    -0.458 OA
BRANCH  29  30
ATOM     30  C   UNL A   1      40.177  23.317  26.510  1.00  0.00     0.338 C 
ATOM     31  O   UNL A   1      41.156  22.612  26.713  1.00  0.00    -0.246 OA
BRANCH  30  32
ATOM     32  C   UNL A   1      40.129  24.690  27.008  1.00  0.00     0.060 A 
ATOM     33  C   UNL A   1      40.688  25.743  26.264  1.00  0.00     0.016 A 
ATOM     34  C   UNL A   1      39.472  24.919  28.208  1.00  0.00     0.016 A 
ATOM     35  C   UNL A   1      40.546  27.053  26.709  1.00  0.00     0.010 A 
ATOM     36  C   UNL A   1      39.180  26.208  28.555  1.00  0.00     0.010 A 
ATOM     37  C   UNL A   1      39.810  27.262  27.870  1.00  0.00    -0.014 A 
BRANCH  37  38
ATOM     38  C   UNL A   1      39.959  28.441  28.707  1.00  0.00     0.031 A 
ATOM     39  C   UNL A   1      39.016  29.556  28.693  1.00  0.00     0.074 A 
ATOM     40  C   UNL A   1      40.930  28.268  29.633  1.00  0.00     0.049 A 
ATOM     41  N   UNL A   1      39.286  30.708  29.194  1.00  0.00    -0.248 NA
ATOM     42  C   UNL A   1      37.699  29.483  28.080  1.00  0.00     0.031 C 
ATOM     43  C   UNL A   1      41.128  28.873  30.930  1.00  0.00     0.029 A 
ATOM     44  N   UNL A   1      42.038  27.419  29.479  1.00  0.00    -0.354 N 
ATOM     45  C   UNL A   1      38.104  31.416  29.251  1.00  0.00     0.074 A 
ATOM     46  C   UNL A   1      37.182  30.668  28.430  1.00  0.00     0.031 C 
ATOM     47  C   UNL A   1      42.372  28.569  31.354  1.00  0.00     0.029 A 
ATOM     48  C   UNL A   1      43.078  27.937  30.241  1.00  0.00     0.049 A 
ATOM     49  H   UNL A   1      42.072  26.603  28.930  1.00  0.00     0.167 HD
ATOM     50  C   UNL A   1      38.010  32.437  30.150  1.00  0.00     0.034 A 
ATOM     51  C   UNL A   1      44.234  28.360  29.646  1.00  0.00     0.034 A 
ATOM     52  C   UNL A   1      39.301  32.601  30.848  1.00  0.00     0.049 A 
ATOM     53  C   UNL A   1      44.374  29.867  29.801  1.00  0.00     0.074 A 
ATOM     54  C   UNL A   1      39.773  32.080  32.044  1.00  0.00     0.029 A 
ATOM     55  N   UNL A   1      40.421  33.042  30.149  1.00  0.00    -0.354 N 
ATOM     56  N   UNL A   1      43.435  30.649  30.260  1.00  0.00    -0.248 NA
ATOM     57  C   UNL A   1      45.563  30.607  29.394  1.00  0.00     0.031 C 
ATOM     58  C   UNL A   1      41.195  32.106  32.004  1.00  0.00     0.029 A 
ATOM     59  C   UNL A   1      41.592  32.676  30.806  1.00  0.00     0.049 A 
ATOM     60  H   UNL A   1      40.390  33.545  29.303  1.00  0.00     0.167 HD
ATOM     61  C   UNL A   1      43.785  31.954  30.064  1.00  0.00     0.074 A 
ATOM     62  C   UNL A   1      45.164  31.874  29.603  1.00  0.00     0.031 C 
ATOM     63  C   UNL A   1      42.896  32.984  30.215  1.00  0.00     0.034 A 
BRANCH  50  64
ATOM     64  C   UNL A   1      36.707  33.030  30.675  1.00  0.00     0.023 A 
ATOM     65  C   UNL A   1      36.340  32.684  31.997  1.00  0.00     0.012 A 
ATOM     66  C   UNL A   1      35.782  33.845  29.977  1.00  0.00     0.148 A 
ATOM     67  C   UNL A   1      35.107  33.033  32.562  1.00  0.00     0.002 A 
ATOM     68  C   UNL A   1      34.529  34.159  30.522  1.00  0.00     0.091 A 
ATOM     69  F   UNL A   1      36.124  34.381  28.803  1.00  0.00    -0.205 F 
ATOM     70  C   UNL A   1      34.187  33.747  31.814  1.00  0.00     0.022 A 
BRANCH  68  71
ATOM     71  S   UNL A   1      33.256  35.060  29.612  1.00  0.00     0.127 S 
ATOM     72  O   UNL A   1      32.855  34.084  28.596  1.00  0.00    -0.237 OA
ATOM     73  O   UNL A   1      32.249  35.311  30.642  1.00  0.00    -0.237 OA
ATOM     74  O   UNL A   1      33.901  36.252  29.075  1.00  0.00    -0.744 OA
ENDBRANCH  68  71
ENDBRANCH  50  64
BRANCH  51  75
ATOM     75  C   UNL A   1      44.573  27.612  28.374  1.00  0.00     0.023 A 
ATOM     76  C   UNL A   1      44.314  28.247  27.130  1.00  0.00     0.012 A 
ATOM     77  C   UNL A   1      45.484  26.544  28.388  1.00  0.00     0.148 A 
ATOM     78  C   UNL A   1      45.059  27.930  25.986  1.00  0.00     0.002 A 
ATOM     79  C   UNL A   1      46.241  26.253  27.251  1.00  0.00     0.091 A 
ATOM     80  F   UNL A   1      45.676  25.861  29.523  1.00  0.00    -0.205 F 
ATOM     81  C   UNL A   1      46.051  26.958  26.056  1.00  0.00     0.022 A 
BRANCH  79  82
ATOM     82  S   UNL A   1      47.621  25.111  27.401  1.00  0.00     0.127 S 
ATOM     83  O   UNL A   1      48.406  25.371  26.193  1.00  0.00    -0.237 OA
ATOM     84  O   UNL A   1      48.278  25.537  28.630  1.00  0.00    -0.237 OA
ATOM     85  O   UNL A   1      46.945  23.819  27.429  1.00  0.00    -0.744 OA
ENDBRANCH  79  82
ENDBRANCH  51  75
BRANCH  63  86
ATOM     86  C   UNL A   1      43.192  34.405  29.803  1.00  0.00     0.023 A 
ATOM     87  C   UNL A   1      42.790  34.923  28.557  1.00  0.00     0.012 A 
ATOM     88  C   UNL A   1      43.764  35.314  30.725  1.00  0.00     0.148 A 
ATOM     89  C   UNL A   1      43.040  36.251  28.200  1.00  0.00     0.002 A 
ATOM     90  C   UNL A   1      43.883  36.663  30.414  1.00  0.00     0.091 A 
ATOM     91  F   UNL A   1      44.212  34.872  31.910  1.00  0.00    -0.205 F 
ATOM     92  C   UNL A   1      43.569  37.128  29.136  1.00  0.00     0.022 A 
BRANCH  90  93
ATOM     93  S   UNL A   1      44.278  37.860  31.695  1.00  0.00     0.127 S 
ATOM     94  O   UNL A   1      45.702  37.617  31.913  1.00  0.00    -0.237 OA
ATOM     95  O   UNL A   1      43.970  39.134  31.042  1.00  0.00    -0.237 OA
ATOM     96  O   UNL A   1      43.389  37.530  32.802  1.00  0.00    -0.744 OA
ENDBRANCH  90  93
ENDBRANCH  63  86
ENDBRANCH  37  38
ENDBRANCH  30  32
ENDBRANCH  29  30
ENDBRANCH  28  29
ENDBRANCH  27  28
ENDBRANCH   1  27
TORSDOF 20
ENDMDL
MODEL 2
REMARK VINA RESULT:     -11.0      3.575     10.057
REMARK SMILES Cc1ccc(S(=O)(=O)N[C@@H](C)C(=O)Oc2csc(C(=O)OCCOC(=O)c3ccc(-c4c5nc(c(-c6cccc(S(=O)(=O)[O-])c6F)c6ccc([nH]6)c(-c6cccc(S(=O)(=O)[O-])c6F)c6nc(c(-c7cccc(S(=O)(=O)[O-])c7F)c7ccc4[nH]7)C=C6)C=C5)cc3)c2C)cc1
REMARK SMILES IDX 21 1 19 2 20 3 18 4 15 5 16 6 90 7 17 8 91 9 14 10 12 11
REMARK SMILES IDX 13 12 10 13 11 14 9 15 6 17 7 18 8 19 5 20 1 21 2 22 3 23
REMARK SMILES IDX 93 24 4 25 92 26 22 27 23 28 24 29 25 30 26 31 27 32 28 33
REMARK SMILES IDX 89 34 29 35 88 36 30 37 31 38 32 39 82 40 33 41 87 42 81 43
REMARK SMILES IDX 83 44 34 45 86 46 80 47 79 48 35 50 67 51 47 52 66 53 48 54
REMARK SMILES IDX 51 55 65 56 84 57 49 58 50 59 64 61 85 62 52 63 36 64 37 65
REMARK SMILES IDX 45 66 38 67 40 68 46 69 39 70 41 71 42 72 43 73 44 74 68 75
REMARK SMILES IDX 69 76 77 77 70 78 72 79 78 80 71 81 73 82 74 83 75 84 76 85
REMARK SMILES IDX 53 86 54 87 62 88 55 89 57 90 63 91 56 92 58 93 59 94 60 95
REMARK SMILES IDX 61 96
REMARK H PARENT 9 16 83 49 51 60
REMARK Flexibility Score: inf
ROOT
ATOM      1  O   UNL A   1      32.295  29.908  25.548  1.00  0.00    -0.458 OA
ENDROOT
BRANCH   1   2
ATOM      2  C   UNL A   1      32.670  29.034  24.574  1.00  0.00     0.348 C 
ATOM      3  O   UNL A   1      33.652  29.176  23.878  1.00  0.00    -0.245 OA
BRANCH   2   4
ATOM      4  C   UNL A   1      31.684  27.964  24.506  1.00  0.00     0.119 A 
ATOM      5  C   UNL A   1      30.466  25.991  24.733  1.00  0.00     0.145 A 
ATOM      6  C   UNL A   1      29.605  26.778  24.001  1.00  0.00     0.113 A 
ATOM      7  C   UNL A   1      31.682  26.693  25.090  1.00  0.00     0.017 A 
ATOM      8  S   UNL A   1      30.290  28.266  23.562  1.00  0.00    -0.133 S 
ATOM      9  C   UNL A   1      32.843  26.185  25.891  1.00  0.00     0.050 C 
BRANCH   5  10
ATOM     10  O   UNL A   1      30.095  24.696  24.878  1.00  0.00    -0.424 OA
BRANCH  10  11
ATOM     11  C   UNL A   1      30.812  23.682  24.333  1.00  0.00     0.329 C 
ATOM     12  O   UNL A   1      31.334  23.703  23.227  1.00  0.00    -0.250 OA
BRANCH  11  13
ATOM     13  C   UNL A   1      31.031  22.568  25.362  1.00  0.00     0.177 C 
ATOM     14  C   UNL A   1      30.293  22.885  26.658  1.00  0.00     0.038 C 
BRANCH  13  15
ATOM     15  N   UNL A   1      32.477  22.386  25.574  1.00  0.00    -0.197 NA
ATOM     16  H   UNL A   1      32.934  23.098  25.003  1.00  0.00     0.142 HD
BRANCH  15  17
ATOM     17  S   UNL A   1      33.285  20.965  25.256  1.00  0.00     0.241 S 
ATOM     18  O   UNL A   1      32.974  20.579  23.896  1.00  0.00    -0.207 OA
ATOM     19  O   UNL A   1      32.993  20.078  26.361  1.00  0.00    -0.207 OA
BRANCH  17  20
ATOM     20  C   UNL A   1      35.020  21.322  25.315  1.00  0.00     0.082 A 
ATOM     21  C   UNL A   1      39.198  22.169  25.875  1.00  0.00     0.044 C 
ATOM     22  C   UNL A   1      37.739  21.884  25.658  1.00  0.00    -0.051 A 
ATOM     23  C   UNL A   1      36.771  22.794  26.102  1.00  0.00     0.005 A 
ATOM     24  C   UNL A   1      37.333  20.715  25.001  1.00  0.00     0.005 A 
ATOM     25  C   UNL A   1      35.414  22.508  25.944  1.00  0.00     0.022 A 
ATOM     26  C   UNL A   1      35.976  20.440  24.811  1.00  0.00     0.022 A 
ENDBRANCH  17  20
ENDBRANCH  15  17
ENDBRANCH  13  15
ENDBRANCH  11  13
ENDBRANCH  10  11
ENDBRANCH   5  10
ENDBRANCH   2   4
ENDBRANCH   1   2
BRANCH   1  27
ATOM     27  C   UNL A   1      32.850  29.732  26.848  1.00  0.00     0.275 C 
BRANCH  27  28
ATOM     28  C   UNL A   1      34.155  30.478  27.198  1.00  0.00     0.275 C 
BRANCH  28  29
ATOM     29  O   UNL A   1      35.211  29.906  28.026  1.00  0.00    -0.458 OA
BRANCH  29  30
ATOM     30  C   UNL A   1      36.132  30.419  28.876  1.00  0.00     0.338 C 
ATOM     31  O   UNL A   1      35.865  31.341  29.633  1.00  0.00    -0.246 OA
BRANCH  30  32
ATOM     32  C   UNL A   1      37.466  29.824  28.863  1.00  0.00     0.060 A 
ATOM     33  C   UNL A   1      38.185  29.702  27.660  1.00  0.00     0.016 A 
ATOM     34  C   UNL A   1      38.013  29.436  30.077  1.00  0.00     0.016 A 
ATOM     35  C   UNL A   1      39.490  29.223  27.683  1.00  0.00     0.010 A 
ATOM     36  C   UNL A   1      39.345  29.134  30.124  1.00  0.00     0.010 A 
ATOM     37  C   UNL A   1      40.043  28.921  28.922  1.00  0.00    -0.014 A 
BRANCH  37  38
ATOM     38  C   UNL A   1      41.156  28.001  29.096  1.00  0.00     0.031 A 
ATOM     39  C   UNL A   1      41.067  26.573  28.803  1.00  0.00     0.074 A 
ATOM     40  C   UNL A   1      42.309  28.665  29.341  1.00  0.00     0.049 A 
ATOM     41  N   UNL A   1      41.927  25.717  29.224  1.00  0.00    -0.248 NA
ATOM     42  C   UNL A   1      39.980  25.979  28.039  1.00  0.00     0.031 C 
ATOM     43  C   UNL A   1      43.687  28.298  29.107  1.00  0.00     0.029 A 
ATOM     44  N   UNL A   1      42.390  29.928  29.949  1.00  0.00    -0.354 N 
ATOM     45  C   UNL A   1      41.692  24.538  28.550  1.00  0.00     0.074 A 
ATOM     46  C   UNL A   1      40.400  24.713  27.931  1.00  0.00     0.031 C 
ATOM     47  C   UNL A   1      44.475  29.179  29.757  1.00  0.00     0.029 A 
ATOM     48  C   UNL A   1      43.616  30.008  30.598  1.00  0.00     0.049 A 
ATOM     49  H   UNL A   1      41.702  30.631  29.921  1.00  0.00     0.167 HD
ATOM     50  C   UNL A   1      42.718  23.645  28.443  1.00  0.00     0.034 A 
ATOM     51  C   UNL A   1      43.676  30.152  31.957  1.00  0.00     0.034 A 
ATOM     52  C   UNL A   1      43.893  24.151  29.180  1.00  0.00     0.049 A 
ATOM     53  C   UNL A   1      44.278  28.903  32.583  1.00  0.00     0.074 A 
ATOM     54  C   UNL A   1      44.986  24.898  28.767  1.00  0.00     0.029 A 
ATOM     55  N   UNL A   1      43.854  24.257  30.568  1.00  0.00    -0.354 N 
ATOM     56  N   UNL A   1      44.514  27.796  31.934  1.00  0.00    -0.248 NA
ATOM     57  C   UNL A   1      44.603  28.794  34.000  1.00  0.00     0.031 C 
ATOM     58  C   UNL A   1      45.532  25.548  29.909  1.00  0.00     0.029 A 
ATOM     59  C   UNL A   1      44.800  25.170  31.023  1.00  0.00     0.049 A 
ATOM     60  H   UNL A   1      43.239  23.753  31.149  1.00  0.00     0.167 HD
ATOM     61  C   UNL A   1      44.838  26.804  32.814  1.00  0.00     0.074 A 
ATOM     62  C   UNL A   1      44.970  27.503  34.085  1.00  0.00     0.031 C 
ATOM     63  C   UNL A   1      44.893  25.486  32.450  1.00  0.00     0.034 A 
BRANCH  50  64
ATOM     64  C   UNL A   1      42.813  22.535  27.401  1.00  0.00     0.023 A 
ATOM     65  C   UNL A   1      42.048  21.369  27.645  1.00  0.00     0.012 A 
ATOM     66  C   UNL A   1      43.622  22.503  26.239  1.00  0.00     0.148 A 
ATOM     67  C   UNL A   1      42.145  20.216  26.857  1.00  0.00     0.002 A 
ATOM     68  C   UNL A   1      43.755  21.336  25.473  1.00  0.00     0.091 A 
ATOM     69  F   UNL A   1      44.226  23.618  25.821  1.00  0.00    -0.205 F 
ATOM     70  C   UNL A   1      43.021  20.188  25.786  1.00  0.00     0.022 A 
BRANCH  68  71
ATOM     71  S   UNL A   1      44.893  21.196  24.078  1.00  0.00     0.127 S 
ATOM     72  O   UNL A   1      46.198  21.231  24.741  1.00  0.00    -0.237 OA
ATOM     73  O   UNL A   1      44.537  19.898  23.508  1.00  0.00    -0.237 OA
ATOM     74  O   UNL A   1      44.629  22.343  23.216  1.00  0.00    -0.744 OA
ENDBRANCH  68  71
ENDBRANCH  50  64
BRANCH  51  75
ATOM     75  C   UNL A   1      42.498  30.900  32.543  1.00  0.00     0.023 A 
ATOM     76  C   UNL A   1      41.416  30.146  33.070  1.00  0.00     0.012 A 
ATOM     77  C   UNL A   1      42.625  32.238  32.952  1.00  0.00     0.148 A 
ATOM     78  C   UNL A   1      40.598  30.662  34.084  1.00  0.00     0.002 A 
ATOM     79  C   UNL A   1      41.825  32.735  33.981  1.00  0.00     0.091 A 
ATOM     80  F   UNL A   1      43.574  33.004  32.400  1.00  0.00    -0.205 F 
ATOM     81  C   UNL A   1      40.827  31.946  34.567  1.00  0.00     0.022 A 
BRANCH  79  82
ATOM     82  S   UNL A   1      42.236  34.330  34.702  1.00  0.00     0.127 S 
ATOM     83  O   UNL A   1      42.346  35.208  33.537  1.00  0.00    -0.237 OA
ATOM     84  O   UNL A   1      41.087  34.622  35.550  1.00  0.00    -0.237 OA
ATOM     85  O   UNL A   1      43.497  34.044  35.377  1.00  0.00    -0.744 OA
ENDBRANCH  79  82
ENDBRANCH  51  75
BRANCH  63  86
ATOM     86  C   UNL A   1      45.038  24.355  33.438  1.00  0.00     0.023 A 
ATOM     87  C   UNL A   1      43.976  23.481  33.740  1.00  0.00     0.012 A 
ATOM     88  C   UNL A   1      46.304  24.046  33.992  1.00  0.00     0.148 A 
ATOM     89  C   UNL A   1      44.132  22.417  34.631  1.00  0.00     0.002 A 
ATOM     90  C   UNL A   1      46.483  22.908  34.767  1.00  0.00     0.091 A 
ATOM     91  F   UNL A   1      47.344  24.867  33.782  1.00  0.00    -0.205 F 
ATOM     92  C   UNL A   1      45.392  22.117  35.131  1.00  0.00     0.022 A 
BRANCH  90  93
ATOM     93  S   UNL A   1      48.137  22.334  35.173  1.00  0.00     0.127 S 
ATOM     94  O   UNL A   1      48.593  23.355  36.113  1.00  0.00    -0.237 OA
ATOM     95  O   UNL A   1      47.879  21.024  35.774  1.00  0.00    -0.237 OA
ATOM     96  O   UNL A   1      48.835  22.274  33.895  1.00  0.00    -0.744 OA
ENDBRANCH  90  93
ENDBRANCH  63  86
ENDBRANCH  37  38
ENDBRANCH  30  32
ENDBRANCH  29  30
ENDBRANCH  28  29
ENDBRANCH  27  28
ENDBRANCH   1  27
TORSDOF 20
ENDMDL
MODEL 3
REMARK VINA RESULT:     -10.8      3.627      9.792
REMARK SMILES Cc1ccc(S(=O)(=O)N[C@@H](C)C(=O)Oc2csc(C(=O)OCCOC(=O)c3ccc(-c4c5nc(c(-c6cccc(S(=O)(=O)[O-])c6F)c6ccc([nH]6)c(-c6cccc(S(=O)(=O)[O-])c6F)c6nc(c(-c7cccc(S(=O)(=O)[O-])c7F)c7ccc4[nH]7)C=C6)C=C5)cc3)c2C)cc1
REMARK SMILES IDX 21 1 19 2 20 3 18 4 15 5 16 6 90 7 17 8 91 9 14 10 12 11
REMARK SMILES IDX 13 12 10 13 11 14 9 15 6 17 7 18 8 19 5 20 1 21 2 22 3 23
REMARK SMILES IDX 93 24 4 25 92 26 22 27 23 28 24 29 25 30 26 31 27 32 28 33
REMARK SMILES IDX 89 34 29 35 88 36 30 37 31 38 32 39 82 40 33 41 87 42 81 43
REMARK SMILES IDX 83 44 34 45 86 46 80 47 79 48 35 50 67 51 47 52 66 53 48 54
REMARK SMILES IDX 51 55 65 56 84 57 49 58 50 59 64 61 85 62 52 63 36 64 37 65
REMARK SMILES IDX 45 66 38 67 40 68 46 69 39 70 41 71 42 72 43 73 44 74 68 75
REMARK SMILES IDX 69 76 77 77 70 78 72 79 78 80 71 81 73 82 74 83 75 84 76 85
REMARK SMILES IDX 53 86 54 87 62 88 55 89 57 90 63 91 56 92 58 93 59 94 60 95
REMARK SMILES IDX 61 96
REMARK H PARENT 9 16 83 49 51 60
REMARK Flexibility Score: inf
ROOT
ATOM      1  O   UNL A   1      31.960  30.306  25.754  1.00  0.00    -0.458 OA
ENDROOT
BRANCH   1   2
ATOM      2  C   UNL A   1      32.486  29.420  24.865  1.00  0.00     0.348 C 
ATOM      3  O   UNL A   1      33.534  29.589  24.279  1.00  0.00    -0.245 OA
BRANCH   2   4
ATOM      4  C   UNL A   1      31.567  28.298  24.730  1.00  0.00     0.119 A 
ATOM      5  C   UNL A   1      30.409  26.285  24.919  1.00  0.00     0.145 A 
ATOM      6  C   UNL A   1      29.642  26.974  24.007  1.00  0.00     0.113 A 
ATOM      7  C   UNL A   1      31.526  27.072  25.402  1.00  0.00     0.017 A 
ATOM      8  S   UNL A   1      30.326  28.461  23.564  1.00  0.00    -0.133 S 
ATOM      9  C   UNL A   1      32.568  26.681  26.406  1.00  0.00     0.050 C 
BRANCH   5  10
ATOM     10  O   UNL A   1      30.073  24.986  25.104  1.00  0.00    -0.424 OA
BRANCH  10  11
ATOM     11  C   UNL A   1      30.632  23.992  24.371  1.00  0.00     0.329 C 
ATOM     12  O   UNL A   1      30.603  23.914  23.150  1.00  0.00    -0.250 OA
BRANCH  11  13
ATOM     13  C   UNL A   1      31.461  23.066  25.267  1.00  0.00     0.177 C 
ATOM     14  C   UNL A   1      30.900  23.052  26.686  1.00  0.00     0.038 C 
BRANCH  13  15
ATOM     15  N   UNL A   1      32.869  23.492  25.229  1.00  0.00    -0.197 NA
ATOM     16  H   UNL A   1      32.852  24.512  25.261  1.00  0.00     0.142 HD
BRANCH  15  17
ATOM     17  S   UNL A   1      33.922  23.095  24.001  1.00  0.00     0.241 S 
ATOM     18  O   UNL A   1      34.089  24.269  23.171  1.00  0.00    -0.207 OA
ATOM     19  O   UNL A   1      33.437  21.855  23.437  1.00  0.00    -0.207 OA
BRANCH  17  20
ATOM     20  C   UNL A   1      35.494  22.752  24.745  1.00  0.00     0.082 A 
ATOM     21  C   UNL A   1      39.449  21.846  26.165  1.00  0.00     0.044 C 
ATOM     22  C   UNL A   1      38.058  22.156  25.690  1.00  0.00    -0.051 A 
ATOM     23  C   UNL A   1      37.283  21.160  25.085  1.00  0.00     0.005 A 
ATOM     24  C   UNL A   1      37.520  23.439  25.858  1.00  0.00     0.005 A 
ATOM     25  C   UNL A   1      36.009  21.459  24.600  1.00  0.00     0.022 A 
ATOM     26  C   UNL A   1      36.232  23.735  25.405  1.00  0.00     0.022 A 
ENDBRANCH  17  20
ENDBRANCH  15  17
ENDBRANCH  13  15
ENDBRANCH  11  13
ENDBRANCH  10  11
ENDBRANCH   5  10
ENDBRANCH   2   4
ENDBRANCH   1   2
BRANCH   1  27
ATOM     27  C   UNL A   1      32.478  30.304  27.081  1.00  0.00     0.275 C 
BRANCH  27  28
ATOM     28  C   UNL A   1      33.700  31.192  27.396  1.00  0.00     0.275 C 
BRANCH  28  29
ATOM     29  O   UNL A   1      33.682  32.265  28.384  1.00  0.00    -0.458 OA
BRANCH  29  30
ATOM     30  C   UNL A   1      34.579  33.193  28.792  1.00  0.00     0.338 C 
ATOM     31  O   UNL A   1      34.294  34.381  28.854  1.00  0.00    -0.246 OA
BRANCH  30  32
ATOM     32  C   UNL A   1      35.911  32.724  29.166  1.00  0.00     0.060 A 
ATOM     33  C   UNL A   1      37.061  33.345  28.648  1.00  0.00     0.016 A 
ATOM     34  C   UNL A   1      35.998  31.686  30.081  1.00  0.00     0.016 A 
ATOM     35  C   UNL A   1      38.318  32.947  29.089  1.00  0.00     0.010 A 
ATOM     36  C   UNL A   1      37.214  31.415  30.644  1.00  0.00     0.010 A 
ATOM     37  C   UNL A   1      38.374  31.963  30.069  1.00  0.00    -0.014 A 
BRANCH  37  38
ATOM     38  C   UNL A   1      39.539  31.121  30.290  1.00  0.00     0.031 A 
ATOM     39  C   UNL A   1      39.722  29.825  29.643  1.00  0.00     0.074 A 
ATOM     40  C   UNL A   1      40.500  31.781  30.975  1.00  0.00     0.049 A 
ATOM     41  N   UNL A   1      40.580  28.957  30.046  1.00  0.00    -0.248 NA
ATOM     42  C   UNL A   1      38.932  29.378  28.507  1.00  0.00     0.031 C 
ATOM     43  C   UNL A   1      41.933  31.602  31.017  1.00  0.00     0.029 A 
ATOM     44  N   UNL A   1      40.262  32.833  31.874  1.00  0.00    -0.354 N 
ATOM     45  C   UNL A   1      40.673  27.991  29.066  1.00  0.00     0.074 A 
ATOM     46  C   UNL A   1      39.542  28.226  28.201  1.00  0.00     0.031 C 
ATOM     47  C   UNL A   1      42.422  32.331  32.041  1.00  0.00     0.029 A 
ATOM     48  C   UNL A   1      41.286  32.829  32.813  1.00  0.00     0.049 A 
ATOM     49  H   UNL A   1      39.504  33.461  31.845  1.00  0.00     0.167 HD
ATOM     50  C   UNL A   1      41.814  27.245  29.007  1.00  0.00     0.034 A 
ATOM     51  C   UNL A   1      41.019  32.602  34.134  1.00  0.00     0.034 A 
ATOM     52  C   UNL A   1      42.708  27.622  30.120  1.00  0.00     0.049 A 
ATOM     53  C   UNL A   1      41.637  31.281  34.567  1.00  0.00     0.074 A 
ATOM     54  C   UNL A   1      43.748  28.537  30.195  1.00  0.00     0.029 A 
ATOM     55  N   UNL A   1      42.344  27.342  31.434  1.00  0.00    -0.354 N 
ATOM     56  N   UNL A   1      42.168  30.415  33.748  1.00  0.00    -0.248 NA
ATOM     57  C   UNL A   1      41.648  30.815  35.949  1.00  0.00     0.031 C 
ATOM     58  C   UNL A   1      43.925  28.891  31.561  1.00  0.00     0.029 A 
ATOM     59  C   UNL A   1      43.023  28.168  32.325  1.00  0.00     0.049 A 
ATOM     60  H   UNL A   1      41.693  26.652  31.698  1.00  0.00     0.167 HD
ATOM     61  C   UNL A   1      42.425  29.249  34.411  1.00  0.00     0.074 A 
ATOM     62  C   UNL A   1      42.166  29.583  35.804  1.00  0.00     0.031 C 
ATOM     63  C   UNL A   1      42.747  28.089  33.760  1.00  0.00     0.034 A 
BRANCH  50  64
ATOM     64  C   UNL A   1      42.298  26.472  27.785  1.00  0.00     0.023 A 
ATOM     65  C   UNL A   1      42.228  27.143  26.541  1.00  0.00     0.012 A 
ATOM     66  C   UNL A   1      42.760  25.134  27.733  1.00  0.00     0.148 A 
ATOM     67  C   UNL A   1      42.499  26.515  25.320  1.00  0.00     0.002 A 
ATOM     68  C   UNL A   1      42.990  24.488  26.509  1.00  0.00     0.091 A 
ATOM     69  F   UNL A   1      43.044  24.486  28.865  1.00  0.00    -0.205 F 
ATOM     70  C   UNL A   1      42.853  25.177  25.300  1.00  0.00     0.022 A 
BRANCH  68  71
ATOM     71  S   UNL A   1      43.427  22.740  26.384  1.00  0.00     0.127 S 
ATOM     72  O   UNL A   1      42.581  22.138  27.417  1.00  0.00    -0.237 OA
ATOM     73  O   UNL A   1      43.037  22.414  25.014  1.00  0.00    -0.237 OA
ATOM     74  O   UNL A   1      44.857  22.654  26.657  1.00  0.00    -0.744 OA
ENDBRANCH  68  71
ENDBRANCH  50  64
BRANCH  51  75
ATOM     75  C   UNL A   1      39.645  33.066  34.567  1.00  0.00     0.023 A 
ATOM     76  C   UNL A   1      38.547  32.824  33.698  1.00  0.00     0.012 A 
ATOM     77  C   UNL A   1      39.366  33.330  35.918  1.00  0.00     0.148 A 
ATOM     78  C   UNL A   1      37.244  32.692  34.196  1.00  0.00     0.002 A 
ATOM     79  C   UNL A   1      38.070  33.168  36.411  1.00  0.00     0.091 A 
ATOM     80  F   UNL A   1      40.368  33.659  36.742  1.00  0.00    -0.205 F 
ATOM     81  C   UNL A   1      37.010  32.826  35.561  1.00  0.00     0.022 A 
BRANCH  79  82
ATOM     82  S   UNL A   1      37.813  33.187  38.190  1.00  0.00     0.127 S 
ATOM     83  O   UNL A   1      38.643  32.079  38.662  1.00  0.00    -0.237 OA
ATOM     84  O   UNL A   1      38.305  34.500  38.586  1.00  0.00    -0.237 OA
ATOM     85  O   UNL A   1      36.374  32.965  38.292  1.00  0.00    -0.744 OA
ENDBRANCH  79  82
ENDBRANCH  51  75
BRANCH  63  86
ATOM     86  C   UNL A   1      42.827  26.746  34.444  1.00  0.00     0.023 A 
ATOM     87  C   UNL A   1      41.687  26.090  34.945  1.00  0.00     0.012 A 
ATOM     88  C   UNL A   1      44.049  26.031  34.478  1.00  0.00     0.148 A 
ATOM     89  C   UNL A   1      41.769  24.832  35.547  1.00  0.00     0.002 A 
ATOM     90  C   UNL A   1      44.097  24.726  34.952  1.00  0.00     0.091 A 
ATOM     91  F   UNL A   1      45.180  26.619  34.061  1.00  0.00    -0.205 F 
ATOM     92  C   UNL A   1      42.971  24.139  35.532  1.00  0.00     0.022 A 
BRANCH  90  93
ATOM     93  S   UNL A   1      45.552  23.709  34.672  1.00  0.00     0.127 S 
ATOM     94  O   UNL A   1      45.011  22.358  34.801  1.00  0.00    -0.237 OA
ATOM     95  O   UNL A   1      45.942  24.082  33.311  1.00  0.00    -0.237 OA
ATOM     96  O   UNL A   1      46.501  24.126  35.697  1.00  0.00    -0.744 OA
ENDBRANCH  90  93
ENDBRANCH  63  86
ENDBRANCH  37  38
ENDBRANCH  30  32
ENDBRANCH  29  30
ENDBRANCH  28  29
ENDBRANCH  27  28
ENDBRANCH   1  27
TORSDOF 20
ENDMDL
