MODEL 1
REMARK VINA RESULT:     -12.6      0.000      0.000
REMARK SMILES Cc1ccc(-c2cc(Cl)cc3c2O[C@@H](C(F)(F)F)C(C(=O)OCCOC(=O)c2ccc(-c4c5nc(c(-c6cccc(S(=O)(=O)[O-])c6F)c6ccc([nH]6)c(-c6cccc(S(=O)(=O)[O-])c6F)c6nc(c(-c7cccc(S(=O)(=O)[O-])c7F)c7ccc4[nH]7)C=C6)C=C5)cc2)=C3)cc1
REMARK SMILES IDX 24 1 23 2 22 3 20 4 21 5 19 6 6 7 7 8 12 9 8 10 11 11 13 12
REMARK SMILES IDX 9 13 10 14 91 15 14 16 5 17 1 18 2 19 3 20 93 21 4 22 92 23
REMARK SMILES IDX 15 24 16 25 17 26 18 27 25 28 26 29 27 30 28 31 29 32 90 33
REMARK SMILES IDX 30 34 89 35 31 36 32 37 33 38 83 39 34 40 88 41 82 42 84 43
REMARK SMILES IDX 35 44 87 45 81 46 80 47 36 49 68 50 48 51 67 52 49 53 52 54
REMARK SMILES IDX 66 55 85 56 50 57 51 58 65 60 86 61 53 62 37 63 38 64 46 65
REMARK SMILES IDX 39 66 41 67 47 68 40 69 42 70 43 71 44 72 45 73 69 74 70 75
REMARK SMILES IDX 78 76 71 77 73 78 79 79 72 80 74 81 75 82 76 83 77 84 54 85
REMARK SMILES IDX 55 86 63 87 56 88 58 89 64 90 57 91 59 92 60 93 61 94 62 95
REMARK H PARENT 84 48 52 59
REMARK Flexibility Score: inf
ROOT
ATOM      1  C   UNL A   1      36.003  22.785  25.974  1.00  0.00     0.275 C 
ENDROOT
BRANCH   1   2
ATOM      2  C   UNL A   1      34.816  23.338  26.806  1.00  0.00     0.275 C 
BRANCH   2   3
ATOM      3  O   UNL A   1      33.776  23.740  25.891  1.00  0.00    -0.459 OA
BRANCH   3   4
ATOM      4  C   UNL A   1      32.753  22.901  25.566  1.00  0.00     0.338 C 
ATOM      5  O   UNL A   1      32.556  21.794  25.985  1.00  0.00    -0.246 OA
BRANCH   4   6
ATOM      6  C   UNL A   1      31.934  23.659  24.576  1.00  0.00     0.087 C 
ATOM      7  C   UNL A   1      31.599  27.661  23.876  1.00  0.00     0.026 A 
ATOM      8  C   UNL A   1      30.347  28.209  23.549  1.00  0.00     0.033 A 
ATOM      9  C   UNL A   1      31.676  26.254  23.836  1.00  0.00     0.135 A 
ATOM     10  C   UNL A   1      29.200  27.409  23.529  1.00  0.00     0.042 A 
ATOM     11  C   UNL A   1      30.510  25.484  24.100  1.00  0.00     0.019 A 
ATOM     12  O   UNL A   1      32.880  25.591  23.573  1.00  0.00    -0.475 OA
ATOM     13  Cl  UNL A   1      27.677  28.160  23.245  1.00  0.00    -0.084 Cl
ATOM     14  C   UNL A   1      29.267  26.066  23.895  1.00  0.00     0.032 A 
ATOM     15  C   UNL A   1      30.719  24.187  24.814  1.00  0.00     0.027 C 
ATOM     16  C   UNL A   1      32.616  24.172  23.341  1.00  0.00     0.316 C 
BRANCH   7  17
ATOM     17  C   UNL A   1      32.407  28.476  24.846  1.00  0.00    -0.015 A 
ATOM     18  C   UNL A   1      34.223  30.888  28.001  1.00  0.00     0.044 C 
ATOM     19  C   UNL A   1      33.633  30.096  26.868  1.00  0.00    -0.051 A 
ATOM     20  C   UNL A   1      34.260  28.944  26.369  1.00  0.00     0.004 A 
ATOM     21  C   UNL A   1      32.404  30.460  26.330  1.00  0.00     0.004 A 
ATOM     22  C   UNL A   1      33.658  28.146  25.364  1.00  0.00     0.009 A 
ATOM     23  C   UNL A   1      31.813  29.667  25.342  1.00  0.00     0.009 A 
ENDBRANCH   7  17
BRANCH  16  24
ATOM     24  C   UNL A   1      33.745  23.278  22.792  1.00  0.00     0.430 C 
ATOM     25  F   UNL A   1      33.691  23.211  21.433  1.00  0.00    -0.167 F 
ATOM     26  F   UNL A   1      34.960  23.817  23.077  1.00  0.00    -0.167 F 
ATOM     27  F   UNL A   1      33.764  22.013  23.251  1.00  0.00    -0.167 F 
ENDBRANCH  16  24
ENDBRANCH   4   6
ENDBRANCH   3   4
ENDBRANCH   2   3
ENDBRANCH   1   2
BRANCH   1  28
ATOM     28  O   UNL A   1      37.154  23.650  25.936  1.00  0.00    -0.458 OA
BRANCH  28  29
ATOM     29  C   UNL A   1      38.324  23.011  26.207  1.00  0.00     0.338 C 
ATOM     30  O   UNL A   1      38.630  21.931  25.745  1.00  0.00    -0.246 OA
BRANCH  29  31
ATOM     31  C   UNL A   1      39.199  24.024  26.850  1.00  0.00     0.060 A 
ATOM     32  C   UNL A   1      40.049  24.793  26.044  1.00  0.00     0.016 A 
ATOM     33  C   UNL A   1      38.856  24.450  28.127  1.00  0.00     0.016 A 
ATOM     34  C   UNL A   1      40.435  26.069  26.421  1.00  0.00     0.010 A 
ATOM     35  C   UNL A   1      39.158  25.739  28.474  1.00  0.00     0.010 A 
ATOM     36  C   UNL A   1      39.929  26.548  27.615  1.00  0.00    -0.014 A 
BRANCH  36  37
ATOM     37  C   UNL A   1      40.330  27.801  28.218  1.00  0.00     0.031 A 
ATOM     38  C   UNL A   1      39.438  28.971  28.270  1.00  0.00     0.074 A 
ATOM     39  C   UNL A   1      41.270  27.528  29.141  1.00  0.00     0.049 A 
ATOM     40  N   UNL A   1      39.657  29.989  29.025  1.00  0.00    -0.248 NA
ATOM     41  C   UNL A   1      38.242  29.108  27.448  1.00  0.00     0.031 C 
ATOM     42  C   UNL A   1      41.416  28.045  30.486  1.00  0.00     0.029 A 
ATOM     43  N   UNL A   1      42.375  26.683  28.959  1.00  0.00    -0.354 N 
ATOM     44  C   UNL A   1      38.542  30.804  28.972  1.00  0.00     0.074 A 
ATOM     45  C   UNL A   1      37.739  30.264  27.902  1.00  0.00     0.031 C 
ATOM     46  C   UNL A   1      42.640  27.698  30.924  1.00  0.00     0.029 A 
ATOM     47  C   UNL A   1      43.379  27.229  29.754  1.00  0.00     0.049 A 
ATOM     48  H   UNL A   1      42.429  25.880  28.392  1.00  0.00     0.167 HD
ATOM     49  C   UNL A   1      38.386  31.752  29.940  1.00  0.00     0.034 A 
ATOM     50  C   UNL A   1      44.439  27.884  29.192  1.00  0.00     0.034 A 
ATOM     51  C   UNL A   1      39.564  31.760  30.824  1.00  0.00     0.049 A 
ATOM     52  C   UNL A   1      44.578  29.324  29.656  1.00  0.00     0.074 A 
ATOM     53  C   UNL A   1      39.860  31.150  32.031  1.00  0.00     0.029 A 
ATOM     54  N   UNL A   1      40.767  32.216  30.319  1.00  0.00    -0.354 N 
ATOM     55  N   UNL A   1      43.698  29.983  30.355  1.00  0.00    -0.248 NA
ATOM     56  C   UNL A   1      45.684  30.159  29.197  1.00  0.00     0.031 C 
ATOM     57  C   UNL A   1      41.275  31.223  32.227  1.00  0.00     0.029 A 
ATOM     58  C   UNL A   1      41.826  31.911  31.160  1.00  0.00     0.049 A 
ATOM     59  H   UNL A   1      40.860  32.699  29.466  1.00  0.00     0.167 HD
ATOM     60  C   UNL A   1      43.997  31.315  30.293  1.00  0.00     0.074 A 
ATOM     61  C   UNL A   1      45.266  31.372  29.585  1.00  0.00     0.031 C 
ATOM     62  C   UNL A   1      43.163  32.302  30.737  1.00  0.00     0.034 A 
BRANCH  49  63
ATOM     63  C   UNL A   1      37.115  32.519  30.288  1.00  0.00     0.023 A 
ATOM     64  C   UNL A   1      36.591  33.357  29.272  1.00  0.00     0.012 A 
ATOM     65  C   UNL A   1      36.425  32.554  31.523  1.00  0.00     0.148 A 
ATOM     66  C   UNL A   1      35.529  34.242  29.486  1.00  0.00     0.002 A 
ATOM     67  C   UNL A   1      35.385  33.467  31.753  1.00  0.00     0.091 A 
ATOM     68  F   UNL A   1      36.729  31.681  32.482  1.00  0.00    -0.205 F 
ATOM     69  C   UNL A   1      34.942  34.318  30.737  1.00  0.00     0.022 A 
BRANCH  67  70
ATOM     70  S   UNL A   1      34.584  33.667  33.358  1.00  0.00     0.127 S 
ATOM     71  O   UNL A   1      33.302  32.993  33.143  1.00  0.00    -0.237 OA
ATOM     72  O   UNL A   1      35.494  32.960  34.258  1.00  0.00    -0.237 OA
ATOM     73  O   UNL A   1      34.478  35.101  33.593  1.00  0.00    -0.744 OA
ENDBRANCH  67  70
ENDBRANCH  49  63
BRANCH  50  74
ATOM     74  C   UNL A   1      44.750  27.518  27.769  1.00  0.00     0.023 A 
ATOM     75  C   UNL A   1      44.291  28.328  26.708  1.00  0.00     0.012 A 
ATOM     76  C   UNL A   1      45.705  26.519  27.488  1.00  0.00     0.148 A 
ATOM     77  C   UNL A   1      44.790  28.159  25.411  1.00  0.00     0.002 A 
ATOM     78  C   UNL A   1      46.196  26.357  26.201  1.00  0.00     0.091 A 
ATOM     79  F   UNL A   1      46.164  25.765  28.494  1.00  0.00    -0.205 F 
ATOM     80  C   UNL A   1      45.751  27.183  25.159  1.00  0.00     0.022 A 
BRANCH  78  81
ATOM     81  S   UNL A   1      47.472  25.148  25.845  1.00  0.00     0.127 S 
ATOM     82  O   UNL A   1      48.633  25.751  26.493  1.00  0.00    -0.237 OA
ATOM     83  O   UNL A   1      46.948  23.955  26.503  1.00  0.00    -0.237 OA
ATOM     84  O   UNL A   1      47.510  25.047  24.395  1.00  0.00    -0.744 OA
ENDBRANCH  78  81
ENDBRANCH  50  74
BRANCH  62  85
ATOM     85  C   UNL A   1      43.581  33.752  30.732  1.00  0.00     0.023 A 
ATOM     86  C   UNL A   1      43.997  34.367  31.932  1.00  0.00     0.012 A 
ATOM     87  C   UNL A   1      43.476  34.578  29.588  1.00  0.00     0.148 A 
ATOM     88  C   UNL A   1      44.408  35.699  31.972  1.00  0.00     0.002 A 
ATOM     89  C   UNL A   1      43.795  35.928  29.655  1.00  0.00     0.091 A 
ATOM     90  F   UNL A   1      43.079  34.060  28.423  1.00  0.00    -0.205 F 
ATOM     91  C   UNL A   1      44.302  36.482  30.833  1.00  0.00     0.022 A 
BRANCH  89  92
ATOM     92  S   UNL A   1      43.493  37.059  28.291  1.00  0.00     0.127 S 
ATOM     93  O   UNL A   1      44.113  36.339  27.177  1.00  0.00    -0.237 OA
ATOM     94  O   UNL A   1      42.031  37.097  28.252  1.00  0.00    -0.237 OA
ATOM     95  O   UNL A   1      44.139  38.313  28.643  1.00  0.00    -0.744 OA
ENDBRANCH  89  92
ENDBRANCH  62  85
ENDBRANCH  36  37
ENDBRANCH  29  31
ENDBRANCH  28  29
ENDBRANCH   1  28
TORSDOF 16
ENDMDL
MODEL 2
REMARK VINA RESULT:     -12.2      1.908      2.223
REMARK SMILES Cc1ccc(-c2cc(Cl)cc3c2O[C@@H](C(F)(F)F)C(C(=O)OCCOC(=O)c2ccc(-c4c5nc(c(-c6cccc(S(=O)(=O)[O-])c6F)c6ccc([nH]6)c(-c6cccc(S(=O)(=O)[O-])c6F)c6nc(c(-c7cccc(S(=O)(=O)[O-])c7F)c7ccc4[nH]7)C=C6)C=C5)cc2)=C3)cc1
REMARK SMILES IDX 24 1 23 2 22 3 20 4 21 5 19 6 6 7 7 8 12 9 8 10 11 11 13 12
REMARK SMILES IDX 9 13 10 14 91 15 14 16 5 17 1 18 2 19 3 20 93 21 4 22 92 23
REMARK SMILES IDX 15 24 16 25 17 26 18 27 25 28 26 29 27 30 28 31 29 32 90 33
REMARK SMILES IDX 30 34 89 35 31 36 32 37 33 38 83 39 34 40 88 41 82 42 84 43
REMARK SMILES IDX 35 44 87 45 81 46 80 47 36 49 68 50 48 51 67 52 49 53 52 54
REMARK SMILES IDX 66 55 85 56 50 57 51 58 65 60 86 61 53 62 37 63 38 64 46 65
REMARK SMILES IDX 39 66 41 67 47 68 40 69 42 70 43 71 44 72 45 73 69 74 70 75
REMARK SMILES IDX 78 76 71 77 73 78 79 79 72 80 74 81 75 82 76 83 77 84 54 85
REMARK SMILES IDX 55 86 63 87 56 88 58 89 64 90 57 91 59 92 60 93 61 94 62 95
REMARK H PARENT 84 48 52 59
REMARK Flexibility Score: inf
ROOT
ATOM      1  C   UNL A   1      36.163  22.995  25.979  1.00  0.00     0.275 C 
ENDROOT
BRANCH   1   2
ATOM      2  C   UNL A   1      34.896  23.249  26.838  1.00  0.00     0.275 C 
BRANCH   2   3
ATOM      3  O   UNL A   1      33.823  23.632  25.953  1.00  0.00    -0.459 OA
BRANCH   3   4
ATOM      4  C   UNL A   1      32.920  22.722  25.496  1.00  0.00     0.338 C 
ATOM      5  O   UNL A   1      32.842  21.560  25.790  1.00  0.00    -0.246 OA
BRANCH   4   6
ATOM      6  C   UNL A   1      32.052  23.482  24.551  1.00  0.00     0.087 C 
ATOM      7  C   UNL A   1      31.637  27.489  23.924  1.00  0.00     0.026 A 
ATOM      8  C   UNL A   1      30.366  28.025  23.655  1.00  0.00     0.033 A 
ATOM      9  C   UNL A   1      31.731  26.084  23.861  1.00  0.00     0.135 A 
ATOM     10  C   UNL A   1      29.229  27.210  23.670  1.00  0.00     0.042 A 
ATOM     11  C   UNL A   1      30.586  25.295  24.160  1.00  0.00     0.019 A 
ATOM     12  O   UNL A   1      32.932  25.441  23.539  1.00  0.00    -0.475 OA
ATOM     13  Cl  UNL A   1      27.687  27.944  23.458  1.00  0.00    -0.084 Cl
ATOM     14  C   UNL A   1      29.329  25.863  24.013  1.00  0.00     0.032 A 
ATOM     15  C   UNL A   1      30.841  23.990  24.845  1.00  0.00     0.027 C 
ATOM     16  C   UNL A   1      32.677  24.022  23.298  1.00  0.00     0.316 C 
BRANCH   7  17
ATOM     17  C   UNL A   1      32.473  28.301  24.873  1.00  0.00    -0.015 A 
ATOM     18  C   UNL A   1      34.367  30.751  27.952  1.00  0.00     0.044 C 
ATOM     19  C   UNL A   1      33.754  29.942  26.844  1.00  0.00    -0.051 A 
ATOM     20  C   UNL A   1      34.321  28.733  26.414  1.00  0.00     0.004 A 
ATOM     21  C   UNL A   1      32.559  30.350  26.263  1.00  0.00     0.004 A 
ATOM     22  C   UNL A   1      33.693  27.924  25.433  1.00  0.00     0.009 A 
ATOM     23  C   UNL A   1      31.942  29.547  25.300  1.00  0.00     0.009 A 
ENDBRANCH   7  17
BRANCH  16  24
ATOM     24  C   UNL A   1      33.794  23.151  22.690  1.00  0.00     0.430 C 
ATOM     25  F   UNL A   1      33.759  23.199  21.330  1.00  0.00    -0.167 F 
ATOM     26  F   UNL A   1      35.016  23.637  23.035  1.00  0.00    -0.167 F 
ATOM     27  F   UNL A   1      33.779  21.852  23.042  1.00  0.00    -0.167 F 
ENDBRANCH  16  24
ENDBRANCH   4   6
ENDBRANCH   3   4
ENDBRANCH   2   3
ENDBRANCH   1   2
BRANCH   1  28
ATOM     28  O   UNL A   1      37.225  23.942  26.196  1.00  0.00    -0.458 OA
BRANCH  28  29
ATOM     29  C   UNL A   1      38.450  23.364  26.332  1.00  0.00     0.338 C 
ATOM     30  O   UNL A   1      38.795  22.361  25.742  1.00  0.00    -0.246 OA
BRANCH  29  31
ATOM     31  C   UNL A   1      39.296  24.368  27.025  1.00  0.00     0.060 A 
ATOM     32  C   UNL A   1      40.090  25.230  26.257  1.00  0.00     0.016 A 
ATOM     33  C   UNL A   1      38.968  24.685  28.338  1.00  0.00     0.016 A 
ATOM     34  C   UNL A   1      40.430  26.492  26.718  1.00  0.00     0.010 A 
ATOM     35  C   UNL A   1      39.223  25.959  28.770  1.00  0.00     0.010 A 
ATOM     36  C   UNL A   1      39.935  26.861  27.954  1.00  0.00    -0.014 A 
BRANCH  36  37
ATOM     37  C   UNL A   1      40.297  28.085  28.637  1.00  0.00     0.031 A 
ATOM     38  C   UNL A   1      39.414  29.262  28.663  1.00  0.00     0.074 A 
ATOM     39  C   UNL A   1      41.156  27.764  29.622  1.00  0.00     0.049 A 
ATOM     40  N   UNL A   1      39.579  30.248  29.473  1.00  0.00    -0.248 NA
ATOM     41  C   UNL A   1      38.290  29.446  27.752  1.00  0.00     0.031 C 
ATOM     42  C   UNL A   1      41.195  28.228  30.994  1.00  0.00     0.029 A 
ATOM     43  N   UNL A   1      42.264  26.914  29.497  1.00  0.00    -0.354 N 
ATOM     44  C   UNL A   1      38.480  31.078  29.361  1.00  0.00     0.074 A 
ATOM     45  C   UNL A   1      37.762  30.589  28.209  1.00  0.00     0.031 C 
ATOM     46  C   UNL A   1      42.376  27.848  31.516  1.00  0.00     0.029 A 
ATOM     47  C   UNL A   1      43.204  27.416  30.393  1.00  0.00     0.049 A 
ATOM     48  H   UNL A   1      42.357  26.133  28.905  1.00  0.00     0.167 HD
ATOM     49  C   UNL A   1      38.254  31.990  30.350  1.00  0.00     0.034 A 
ATOM     50  C   UNL A   1      44.312  28.079  29.945  1.00  0.00     0.034 A 
ATOM     51  C   UNL A   1      39.356  31.949  31.327  1.00  0.00     0.049 A 
ATOM     52  C   UNL A   1      44.427  29.499  30.475  1.00  0.00     0.074 A 
ATOM     53  C   UNL A   1      39.547  31.289  32.529  1.00  0.00     0.029 A 
ATOM     54  N   UNL A   1      40.601  32.410  30.940  1.00  0.00    -0.354 N 
ATOM     55  N   UNL A   1      43.498  30.141  31.126  1.00  0.00    -0.248 NA
ATOM     56  C   UNL A   1      45.574  30.338  30.141  1.00  0.00     0.031 C 
ATOM     57  C   UNL A   1      40.941  31.337  32.842  1.00  0.00     0.029 A 
ATOM     58  C   UNL A   1      41.584  32.059  31.851  1.00  0.00     0.049 A 
ATOM     59  H   UNL A   1      40.767  32.924  30.117  1.00  0.00     0.167 HD
ATOM     60  C   UNL A   1      43.813  31.471  31.141  1.00  0.00     0.074 A 
ATOM     61  C   UNL A   1      45.137  31.540  30.542  1.00  0.00     0.031 C 
ATOM     62  C   UNL A   1      42.955  32.449  31.554  1.00  0.00     0.034 A 
BRANCH  49  63
ATOM     63  C   UNL A   1      36.966  32.758  30.624  1.00  0.00     0.023 A 
ATOM     64  C   UNL A   1      36.460  32.682  31.945  1.00  0.00     0.012 A 
ATOM     65  C   UNL A   1      36.171  33.487  29.707  1.00  0.00     0.148 A 
ATOM     66  C   UNL A   1      35.213  33.197  32.315  1.00  0.00     0.002 A 
ATOM     67  C   UNL A   1      34.903  33.971  30.063  1.00  0.00     0.091 A 
ATOM     68  F   UNL A   1      36.639  33.764  28.491  1.00  0.00    -0.205 F 
ATOM     69  C   UNL A   1      34.420  33.818  31.366  1.00  0.00     0.022 A 
BRANCH  67  70
ATOM     70  S   UNL A   1      33.781  34.760  28.890  1.00  0.00     0.127 S 
ATOM     71  O   UNL A   1      32.640  35.097  29.743  1.00  0.00    -0.237 OA
ATOM     72  O   UNL A   1      34.557  35.913  28.435  1.00  0.00    -0.237 OA
ATOM     73  O   UNL A   1      33.492  33.768  27.862  1.00  0.00    -0.744 OA
ENDBRANCH  67  70
ENDBRANCH  49  63
BRANCH  50  74
ATOM     74  C   UNL A   1      44.735  27.766  28.539  1.00  0.00     0.023 A 
ATOM     75  C   UNL A   1      44.382  28.627  27.478  1.00  0.00     0.012 A 
ATOM     76  C   UNL A   1      45.694  26.759  28.297  1.00  0.00     0.148 A 
ATOM     77  C   UNL A   1      44.985  28.500  26.221  1.00  0.00     0.002 A 
ATOM     78  C   UNL A   1      46.288  26.640  27.049  1.00  0.00     0.091 A 
ATOM     79  F   UNL A   1      46.054  25.956  29.304  1.00  0.00    -0.205 F 
ATOM     80  C   UNL A   1      45.947  27.515  26.009  1.00  0.00     0.022 A 
BRANCH  78  81
ATOM     81  S   UNL A   1      47.569  25.420  26.749  1.00  0.00     0.127 S 
ATOM     82  O   UNL A   1      46.870  24.179  27.068  1.00  0.00    -0.237 OA
ATOM     83  O   UNL A   1      47.853  25.623  25.331  1.00  0.00    -0.237 OA
ATOM     84  O   UNL A   1      48.667  25.796  27.624  1.00  0.00    -0.744 OA
ENDBRANCH  78  81
ENDBRANCH  50  74
BRANCH  62  85
ATOM     85  C   UNL A   1      43.385  33.894  31.641  1.00  0.00     0.023 A 
ATOM     86  C   UNL A   1      43.465  34.674  30.468  1.00  0.00     0.012 A 
ATOM     87  C   UNL A   1      43.825  34.493  32.844  1.00  0.00     0.148 A 
ATOM     88  C   UNL A   1      43.841  36.017  30.502  1.00  0.00     0.002 A 
ATOM     89  C   UNL A   1      44.290  35.802  32.857  1.00  0.00     0.091 A 
ATOM     90  F   UNL A   1      43.785  33.805  33.989  1.00  0.00    -0.205 F 
ATOM     91  C   UNL A   1      44.259  36.580  31.698  1.00  0.00     0.022 A 
BRANCH  89  92
ATOM     92  S   UNL A   1      45.043  36.543  34.312  1.00  0.00     0.127 S 
ATOM     93  O   UNL A   1      43.922  36.527  35.255  1.00  0.00    -0.237 OA
ATOM     94  O   UNL A   1      46.109  35.589  34.617  1.00  0.00    -0.237 OA
ATOM     95  O   UNL A   1      45.489  37.869  33.916  1.00  0.00    -0.744 OA
ENDBRANCH  89  92
ENDBRANCH  62  85
ENDBRANCH  36  37
ENDBRANCH  29  31
ENDBRANCH  28  29
ENDBRANCH   1  28
TORSDOF 16
ENDMDL
MODEL 3
REMARK VINA RESULT:     -11.8      5.134     10.696
REMARK SMILES Cc1ccc(-c2cc(Cl)cc3c2O[C@@H](C(F)(F)F)C(C(=O)OCCOC(=O)c2ccc(-c4c5nc(c(-c6cccc(S(=O)(=O)[O-])c6F)c6ccc([nH]6)c(-c6cccc(S(=O)(=O)[O-])c6F)c6nc(c(-c7cccc(S(=O)(=O)[O-])c7F)c7ccc4[nH]7)C=C6)C=C5)cc2)=C3)cc1
REMARK SMILES IDX 24 1 23 2 22 3 20 4 21 5 19 6 6 7 7 8 12 9 8 10 11 11 13 12
REMARK SMILES IDX 9 13 10 14 91 15 14 16 5 17 1 18 2 19 3 20 93 21 4 22 92 23
REMARK SMILES IDX 15 24 16 25 17 26 18 27 25 28 26 29 27 30 28 31 29 32 90 33
REMARK SMILES IDX 30 34 89 35 31 36 32 37 33 38 83 39 34 40 88 41 82 42 84 43
REMARK SMILES IDX 35 44 87 45 81 46 80 47 36 49 68 50 48 51 67 52 49 53 52 54
REMARK SMILES IDX 66 55 85 56 50 57 51 58 65 60 86 61 53 62 37 63 38 64 46 65
REMARK SMILES IDX 39 66 41 67 47 68 40 69 42 70 43 71 44 72 45 73 69 74 70 75
REMARK SMILES IDX 78 76 71 77 73 78 79 79 72 80 74 81 75 82 76 83 77 84 54 85
REMARK SMILES IDX 55 86 63 87 56 88 58 89 64 90 57 91 59 92 60 93 61 94 62 95
REMARK H PARENT 84 48 52 59
REMARK Flexibility Score: inf
ROOT
ATOM      1  C   UNL A   1      38.085  31.044  34.453  1.00  0.00     0.275 C 
ENDROOT
BRANCH   1   2
ATOM      2  C   UNL A   1      38.485  32.497  34.085  1.00  0.00     0.275 C 
BRANCH   2   3
ATOM      3  O   UNL A   1      38.390  32.639  32.653  1.00  0.00    -0.459 OA
BRANCH   3   4
ATOM      4  C   UNL A   1      39.468  32.438  31.846  1.00  0.00     0.338 C 
ATOM      5  O   UNL A   1      40.626  32.425  32.164  1.00  0.00    -0.246 OA
BRANCH   4   6
ATOM      6  C   UNL A   1      38.897  32.239  30.482  1.00  0.00     0.087 C 
ATOM      7  C   UNL A   1      35.371  33.468  28.847  1.00  0.00     0.026 A 
ATOM      8  C   UNL A   1      34.677  32.620  27.967  1.00  0.00     0.033 A 
ATOM      9  C   UNL A   1      36.693  33.082  29.149  1.00  0.00     0.135 A 
ATOM     10  C   UNL A   1      35.146  31.330  27.699  1.00  0.00     0.042 A 
ATOM     11  C   UNL A   1      37.038  31.703  29.124  1.00  0.00     0.019 A 
ATOM     12  O   UNL A   1      37.669  34.020  29.503  1.00  0.00    -0.475 OA
ATOM     13  Cl  UNL A   1      34.188  30.293  26.714  1.00  0.00    -0.084 Cl
ATOM     14  C   UNL A   1      36.276  30.839  28.350  1.00  0.00     0.032 A 
ATOM     15  C   UNL A   1      38.049  31.255  30.131  1.00  0.00     0.027 C 
ATOM     16  C   UNL A   1      38.983  33.378  29.508  1.00  0.00     0.316 C 
BRANCH   7  17
ATOM     17  C   UNL A   1      34.503  34.186  29.842  1.00  0.00    -0.015 A 
ATOM     18  C   UNL A   1      32.516  36.387  33.048  1.00  0.00     0.044 C 
ATOM     19  C   UNL A   1      33.147  35.584  31.946  1.00  0.00    -0.051 A 
ATOM     20  C   UNL A   1      32.857  35.828  30.596  1.00  0.00     0.004 A 
ATOM     21  C   UNL A   1      34.094  34.612  32.248  1.00  0.00     0.004 A 
ATOM     22  C   UNL A   1      33.521  35.132  29.554  1.00  0.00     0.009 A 
ATOM     23  C   UNL A   1      34.750  33.932  31.217  1.00  0.00     0.009 A 
ENDBRANCH   7  17
BRANCH  16  24
ATOM     24  C   UNL A   1      40.246  34.253  29.627  1.00  0.00     0.430 C 
ATOM     25  F   UNL A   1      41.372  33.490  29.560  1.00  0.00    -0.167 F 
ATOM     26  F   UNL A   1      40.331  35.111  28.576  1.00  0.00    -0.167 F 
ATOM     27  F   UNL A   1      40.338  34.997  30.744  1.00  0.00    -0.167 F 
ENDBRANCH  16  24
ENDBRANCH   4   6
ENDBRANCH   3   4
ENDBRANCH   2   3
ENDBRANCH   1   2
BRANCH   1  28
ATOM     28  O   UNL A   1      38.859  30.029  33.788  1.00  0.00    -0.458 OA
BRANCH  28  29
ATOM     29  C   UNL A   1      38.115  29.203  33.004  1.00  0.00     0.338 C 
ATOM     30  O   UNL A   1      36.923  29.336  32.818  1.00  0.00    -0.246 OA
BRANCH  29  31
ATOM     31  C   UNL A   1      39.090  28.403  32.220  1.00  0.00     0.060 A 
ATOM     32  C   UNL A   1      38.694  27.876  30.983  1.00  0.00     0.016 A 
ATOM     33  C   UNL A   1      40.436  28.551  32.530  1.00  0.00     0.016 A 
ATOM     34  C   UNL A   1      39.615  27.645  29.974  1.00  0.00     0.010 A 
ATOM     35  C   UNL A   1      41.345  28.409  31.516  1.00  0.00     0.010 A 
ATOM     36  C   UNL A   1      40.931  27.976  30.240  1.00  0.00    -0.014 A 
BRANCH  36  37
ATOM     37  C   UNL A   1      42.034  27.682  29.351  1.00  0.00     0.031 A 
ATOM     38  C   UNL A   1      42.443  26.304  29.032  1.00  0.00     0.074 A 
ATOM     39  C   UNL A   1      42.168  28.723  28.508  1.00  0.00     0.049 A 
ATOM     40  N   UNL A   1      43.225  26.011  28.054  1.00  0.00    -0.248 NA
ATOM     41  C   UNL A   1      42.034  25.143  29.812  1.00  0.00     0.031 C 
ATOM     42  C   UNL A   1      42.391  28.723  27.077  1.00  0.00     0.029 A 
ATOM     43  N   UNL A   1      42.166  30.077  28.872  1.00  0.00    -0.354 N 
ATOM     44  C   UNL A   1      43.245  24.635  27.925  1.00  0.00     0.074 A 
ATOM     45  C   UNL A   1      42.573  24.143  29.102  1.00  0.00     0.031 C 
ATOM     46  C   UNL A   1      42.726  29.976  26.719  1.00  0.00     0.029 A 
ATOM     47  C   UNL A   1      43.013  30.696  27.958  1.00  0.00     0.049 A 
ATOM     48  H   UNL A   1      41.673  30.497  29.614  1.00  0.00     0.167 HD
ATOM     49  C   UNL A   1      43.714  24.101  26.761  1.00  0.00     0.034 A 
ATOM     50  C   UNL A   1      44.253  31.129  28.335  1.00  0.00     0.034 A 
ATOM     51  C   UNL A   1      44.216  25.174  25.886  1.00  0.00     0.049 A 
ATOM     52  C   UNL A   1      45.385  30.498  27.540  1.00  0.00     0.074 A 
ATOM     53  C   UNL A   1      43.657  25.911  24.856  1.00  0.00     0.029 A 
ATOM     54  N   UNL A   1      45.369  25.843  26.253  1.00  0.00    -0.354 N 
ATOM     55  N   UNL A   1      45.264  29.497  26.714  1.00  0.00    -0.248 NA
ATOM     56  C   UNL A   1      46.774  30.881  27.773  1.00  0.00     0.031 C 
ATOM     57  C   UNL A   1      44.484  27.055  24.631  1.00  0.00     0.029 A 
ATOM     58  C   UNL A   1      45.562  26.988  25.497  1.00  0.00     0.049 A 
ATOM     59  H   UNL A   1      45.979  25.541  26.965  1.00  0.00     0.167 HD
ATOM     60  C   UNL A   1      46.506  28.991  26.453  1.00  0.00     0.074 A 
ATOM     61  C   UNL A   1      47.420  29.910  27.112  1.00  0.00     0.031 C 
ATOM     62  C   UNL A   1      46.723  27.813  25.798  1.00  0.00     0.034 A 
BRANCH  49  63
ATOM     63  C   UNL A   1      43.526  22.675  26.256  1.00  0.00     0.023 A 
ATOM     64  C   UNL A   1      42.266  22.080  26.513  1.00  0.00     0.012 A 
ATOM     65  C   UNL A   1      44.476  21.840  25.618  1.00  0.00     0.148 A 
ATOM     66  C   UNL A   1      41.992  20.732  26.256  1.00  0.00     0.002 A 
ATOM     67  C   UNL A   1      44.219  20.480  25.394  1.00  0.00     0.091 A 
ATOM     68  F   UNL A   1      45.625  22.352  25.178  1.00  0.00    -0.205 F 
ATOM     69  C   UNL A   1      42.979  19.923  25.722  1.00  0.00     0.022 A 
BRANCH  67  70
ATOM     70  S   UNL A   1      45.452  19.336  24.739  1.00  0.00     0.127 S 
ATOM     71  O   UNL A   1      45.046  18.070  25.352  1.00  0.00    -0.237 OA
ATOM     72  O   UNL A   1      45.220  19.410  23.297  1.00  0.00    -0.237 OA
ATOM     73  O   UNL A   1      46.751  19.830  25.180  1.00  0.00    -0.744 OA
ENDBRANCH  67  70
ENDBRANCH  49  63
BRANCH  50  74
ATOM     74  C   UNL A   1      44.429  31.407  29.800  1.00  0.00     0.023 A 
ATOM     75  C   UNL A   1      44.765  30.365  30.690  1.00  0.00     0.012 A 
ATOM     76  C   UNL A   1      44.511  32.738  30.262  1.00  0.00     0.148 A 
ATOM     77  C   UNL A   1      45.193  30.645  31.993  1.00  0.00     0.002 A 
ATOM     78  C   UNL A   1      44.935  33.009  31.555  1.00  0.00     0.091 A 
ATOM     79  F   UNL A   1      44.218  33.732  29.417  1.00  0.00    -0.205 F 
ATOM     80  C   UNL A   1      45.290  31.967  32.422  1.00  0.00     0.022 A 
BRANCH  78  81
ATOM     81  S   UNL A   1      45.125  34.697  32.129  1.00  0.00     0.127 S 
ATOM     82  O   UNL A   1      45.819  34.498  33.397  1.00  0.00    -0.237 OA
ATOM     83  O   UNL A   1      45.936  35.287  31.067  1.00  0.00    -0.237 OA
ATOM     84  O   UNL A   1      43.775  35.232  32.199  1.00  0.00    -0.744 OA
ENDBRANCH  78  81
ENDBRANCH  50  74
BRANCH  62  85
ATOM     85  C   UNL A   1      48.116  27.345  25.452  1.00  0.00     0.023 A 
ATOM     86  C   UNL A   1      48.566  27.409  24.116  1.00  0.00     0.012 A 
ATOM     87  C   UNL A   1      48.977  26.734  26.393  1.00  0.00     0.148 A 
ATOM     88  C   UNL A   1      49.851  27.005  23.753  1.00  0.00     0.002 A 
ATOM     89  C   UNL A   1      50.219  26.245  26.008  1.00  0.00     0.091 A 
ATOM     90  F   UNL A   1      48.607  26.633  27.673  1.00  0.00    -0.205 F 
ATOM     91  C   UNL A   1      50.677  26.418  24.699  1.00  0.00     0.022 A 
BRANCH  89  92
ATOM     92  S   UNL A   1      51.264  25.288  27.114  1.00  0.00     0.127 S 
ATOM     93  O   UNL A   1      50.296  24.349  27.684  1.00  0.00    -0.237 OA
ATOM     94  O   UNL A   1      52.217  24.688  26.180  1.00  0.00    -0.237 OA
ATOM     95  O   UNL A   1      51.833  26.232  28.063  1.00  0.00    -0.744 OA
ENDBRANCH  89  92
ENDBRANCH  62  85
ENDBRANCH  36  37
ENDBRANCH  29  31
ENDBRANCH  28  29
ENDBRANCH   1  28
TORSDOF 16
ENDMDL
