MODEL 1
REMARK VINA RESULT:     -12.4      0.000      0.000
REMARK SMILES Cc1c(Br)c(C)c2c(c1Br)O[C@H](C(F)(F)F)C(C(=O)OCCOC(=O)c1ccc(-c3c4nc(c(-c5cccc(S(=O)(=O)[O-])c5F)c5ccc([nH]5)c(-c5cccc(S(=O)(=O)[O-])c5F)c5nc(c(-c6cccc(S(=O)(=O)[O-])c6F)c6ccc3[nH]6)C=C5)C=C4)cc1)=C2
REMARK SMILES IDX 22 1 21 2 20 3 18 4 19 5 17 6 1 7 2 8 3 9 9 10 4 11 5 12
REMARK SMILES IDX 8 13 10 14 6 15 7 16 11 17 89 18 12 19 13 20 14 21 15 22
REMARK SMILES IDX 16 23 23 24 24 25 25 26 26 27 27 28 88 29 28 30 87 31 29 32
REMARK SMILES IDX 30 33 31 34 81 35 32 36 86 37 80 38 82 39 33 40 85 41 79 42
REMARK SMILES IDX 78 43 34 45 66 46 46 47 65 48 47 49 50 50 64 51 83 52 48 53
REMARK SMILES IDX 49 54 63 56 84 57 51 58 35 59 36 60 44 61 37 62 39 63 45 64
REMARK SMILES IDX 38 65 40 66 41 67 42 68 43 69 67 70 68 71 76 72 69 73 71 74
REMARK SMILES IDX 77 75 70 76 72 77 73 78 74 79 75 80 52 81 53 82 61 83 54 84
REMARK SMILES IDX 56 85 62 86 55 87 57 88 58 89 59 90 60 91
REMARK H PARENT 82 44 50 55
REMARK Flexibility Score: inf
ROOT
ATOM      1  C   UNL A   1      36.161  20.923  25.087  1.00  0.00     0.275 C 
ENDROOT
BRANCH   1   2
ATOM      2  C   UNL A   1      34.963  21.718  24.565  1.00  0.00     0.275 C 
BRANCH   2   3
ATOM      3  O   UNL A   1      35.134  23.135  24.790  1.00  0.00    -0.459 OA
BRANCH   3   4
ATOM      4  C   UNL A   1      34.321  23.678  25.726  1.00  0.00     0.338 C 
ATOM      5  O   UNL A   1      34.145  23.270  26.863  1.00  0.00    -0.246 OA
BRANCH   4   6
ATOM      6  C   UNL A   1      33.630  24.867  25.192  1.00  0.00     0.087 C 
ATOM      7  C   UNL A   1      30.279  30.424  24.343  1.00  0.00     0.047 C 
ATOM      8  C   UNL A   1      31.219  29.298  24.703  1.00  0.00    -0.019 A 
ATOM      9  C   UNL A   1      32.132  29.455  25.776  1.00  0.00     0.025 A 
ATOM     10  C   UNL A   1      31.250  28.092  23.973  1.00  0.00     0.064 A 
ATOM     11  Br  UNL A   1      32.207  31.149  26.682  1.00  0.00    -0.050 Br
ATOM     12  C   UNL A   1      32.992  28.403  26.174  1.00  0.00    -0.026 A 
ATOM     13  C   UNL A   1      32.101  27.037  24.348  1.00  0.00     0.142 A 
ATOM     14  Br  UNL A   1      30.133  27.835  22.435  1.00  0.00    -0.046 Br
ATOM     15  C   UNL A   1      33.951  28.549  27.336  1.00  0.00     0.046 C 
ATOM     16  C   UNL A   1      32.949  27.179  25.454  1.00  0.00     0.022 A 
ATOM     17  O   UNL A   1      32.075  25.903  23.572  1.00  0.00    -0.474 OA
ATOM     18  C   UNL A   1      33.759  26.026  25.846  1.00  0.00     0.027 C 
ATOM     19  C   UNL A   1      32.697  24.683  24.043  1.00  0.00     0.316 C 
BRANCH  19  20
ATOM     20  C   UNL A   1      31.608  23.645  24.357  1.00  0.00     0.430 C 
ATOM     21  F   UNL A   1      31.259  23.677  25.667  1.00  0.00    -0.167 F 
ATOM     22  F   UNL A   1      30.473  23.885  23.656  1.00  0.00    -0.167 F 
ATOM     23  F   UNL A   1      32.002  22.384  24.073  1.00  0.00    -0.167 F 
ENDBRANCH  19  20
ENDBRANCH   4   6
ENDBRANCH   3   4
ENDBRANCH   2   3
ENDBRANCH   1   2
BRANCH   1  24
ATOM     24  O   UNL A   1      37.383  21.643  24.846  1.00  0.00    -0.458 OA
BRANCH  24  25
ATOM     25  C   UNL A   1      38.442  21.236  25.581  1.00  0.00     0.338 C 
ATOM     26  O   UNL A   1      38.969  20.137  25.572  1.00  0.00    -0.246 OA
BRANCH  25  27
ATOM     27  C   UNL A   1      38.979  22.361  26.360  1.00  0.00     0.060 A 
ATOM     28  C   UNL A   1      38.448  23.623  26.140  1.00  0.00     0.016 A 
ATOM     29  C   UNL A   1      40.129  22.214  27.130  1.00  0.00     0.016 A 
ATOM     30  C   UNL A   1      39.162  24.750  26.529  1.00  0.00     0.010 A 
ATOM     31  C   UNL A   1      40.758  23.352  27.654  1.00  0.00     0.010 A 
ATOM     32  C   UNL A   1      40.326  24.645  27.303  1.00  0.00    -0.014 A 
BRANCH  32  33
ATOM     33  C   UNL A   1      41.093  25.871  27.691  1.00  0.00     0.031 A 
ATOM     34  C   UNL A   1      40.463  26.928  28.574  1.00  0.00     0.074 A 
ATOM     35  C   UNL A   1      42.372  26.041  27.286  1.00  0.00     0.049 A 
ATOM     36  N   UNL A   1      40.892  28.132  28.856  1.00  0.00    -0.248 NA
ATOM     37  C   UNL A   1      39.178  26.596  29.213  1.00  0.00     0.031 C 
ATOM     38  C   UNL A   1      43.137  25.097  26.467  1.00  0.00     0.029 A 
ATOM     39  N   UNL A   1      43.264  27.064  27.513  1.00  0.00    -0.354 N 
ATOM     40  C   UNL A   1      39.896  28.727  29.625  1.00  0.00     0.074 A 
ATOM     41  C   UNL A   1      38.841  27.750  29.775  1.00  0.00     0.031 C 
ATOM     42  C   UNL A   1      44.390  25.546  26.318  1.00  0.00     0.029 A 
ATOM     43  C   UNL A   1      44.486  26.873  26.907  1.00  0.00     0.049 A 
ATOM     44  H   UNL A   1      43.049  27.856  28.056  1.00  0.00     0.167 HD
ATOM     45  C   UNL A   1      39.867  29.970  30.166  1.00  0.00     0.034 A 
ATOM     46  C   UNL A   1      45.552  27.688  26.776  1.00  0.00     0.034 A 
ATOM     47  C   UNL A   1      40.958  30.906  30.091  1.00  0.00     0.049 A 
ATOM     48  C   UNL A   1      45.484  29.070  27.359  1.00  0.00     0.074 A 
ATOM     49  C   UNL A   1      41.033  32.180  30.628  1.00  0.00     0.029 A 
ATOM     50  N   UNL A   1      42.171  30.667  29.463  1.00  0.00    -0.354 N 
ATOM     51  N   UNL A   1      44.530  29.616  28.074  1.00  0.00    -0.248 NA
ATOM     52  C   UNL A   1      46.635  29.951  27.118  1.00  0.00     0.031 C 
ATOM     53  C   UNL A   1      42.279  32.720  30.303  1.00  0.00     0.029 A 
ATOM     54  C   UNL A   1      42.996  31.771  29.593  1.00  0.00     0.049 A 
ATOM     55  H   UNL A   1      42.409  29.835  28.993  1.00  0.00     0.167 HD
ATOM     56  C   UNL A   1      44.972  30.895  28.382  1.00  0.00     0.074 A 
ATOM     57  C   UNL A   1      46.294  31.032  27.806  1.00  0.00     0.031 C 
ATOM     58  C   UNL A   1      44.331  31.877  29.061  1.00  0.00     0.034 A 
BRANCH  45  59
ATOM     59  C   UNL A   1      38.632  30.401  30.921  1.00  0.00     0.023 A 
ATOM     60  C   UNL A   1      38.566  30.232  32.318  1.00  0.00     0.012 A 
ATOM     61  C   UNL A   1      37.587  31.079  30.258  1.00  0.00     0.148 A 
ATOM     62  C   UNL A   1      37.472  30.710  33.040  1.00  0.00     0.002 A 
ATOM     63  C   UNL A   1      36.525  31.597  30.991  1.00  0.00     0.091 A 
ATOM     64  F   UNL A   1      37.661  31.220  28.927  1.00  0.00    -0.205 F 
ATOM     65  C   UNL A   1      36.461  31.404  32.380  1.00  0.00     0.022 A 
BRANCH  63  66
ATOM     66  S   UNL A   1      35.220  32.587  30.251  1.00  0.00     0.127 S 
ATOM     67  O   UNL A   1      34.304  32.757  31.377  1.00  0.00    -0.237 OA
ATOM     68  O   UNL A   1      35.939  33.801  29.862  1.00  0.00    -0.237 OA
ATOM     69  O   UNL A   1      34.698  31.804  29.140  1.00  0.00    -0.744 OA
ENDBRANCH  63  66
ENDBRANCH  45  59
BRANCH  46  70
ATOM     70  C   UNL A   1      46.770  27.214  26.052  1.00  0.00     0.023 A 
ATOM     71  C   UNL A   1      46.906  27.482  24.676  1.00  0.00     0.012 A 
ATOM     72  C   UNL A   1      47.816  26.550  26.726  1.00  0.00     0.148 A 
ATOM     73  C   UNL A   1      48.053  27.088  23.986  1.00  0.00     0.002 A 
ATOM     74  C   UNL A   1      48.986  26.229  26.049  1.00  0.00     0.091 A 
ATOM     75  F   UNL A   1      47.660  26.277  28.029  1.00  0.00    -0.205 F 
ATOM     76  C   UNL A   1      49.099  26.479  24.673  1.00  0.00     0.022 A 
BRANCH  74  77
ATOM     77  S   UNL A   1      50.443  25.598  26.890  1.00  0.00     0.127 S 
ATOM     78  O   UNL A   1      50.740  26.678  27.826  1.00  0.00    -0.237 OA
ATOM     79  O   UNL A   1      49.928  24.373  27.504  1.00  0.00    -0.237 OA
ATOM     80  O   UNL A   1      51.434  25.374  25.846  1.00  0.00    -0.744 OA
ENDBRANCH  74  77
ENDBRANCH  46  70
BRANCH  58  81
ATOM     81  C   UNL A   1      45.048  33.188  29.248  1.00  0.00     0.023 A 
ATOM     82  C   UNL A   1      45.867  33.381  30.377  1.00  0.00     0.012 A 
ATOM     83  C   UNL A   1      44.991  34.187  28.255  1.00  0.00     0.148 A 
ATOM     84  C   UNL A   1      46.600  34.556  30.528  1.00  0.00     0.002 A 
ATOM     85  C   UNL A   1      45.766  35.332  28.385  1.00  0.00     0.091 A 
ATOM     86  F   UNL A   1      44.191  33.989  27.196  1.00  0.00    -0.205 F 
ATOM     87  C   UNL A   1      46.561  35.524  29.527  1.00  0.00     0.022 A 
BRANCH  85  88
ATOM     88  S   UNL A   1      45.865  36.584  27.101  1.00  0.00     0.127 S 
ATOM     89  O   UNL A   1      44.486  37.069  27.053  1.00  0.00    -0.237 OA
ATOM     90  O   UNL A   1      46.824  37.531  27.669  1.00  0.00    -0.237 OA
ATOM     91  O   UNL A   1      46.324  35.898  25.902  1.00  0.00    -0.744 OA
ENDBRANCH  85  88
ENDBRANCH  58  81
ENDBRANCH  32  33
ENDBRANCH  25  27
ENDBRANCH  24  25
ENDBRANCH   1  24
TORSDOF 15
ENDMDL
MODEL 2
REMARK VINA RESULT:     -12.2      1.300      1.597
REMARK SMILES Cc1c(Br)c(C)c2c(c1Br)O[C@H](C(F)(F)F)C(C(=O)OCCOC(=O)c1ccc(-c3c4nc(c(-c5cccc(S(=O)(=O)[O-])c5F)c5ccc([nH]5)c(-c5cccc(S(=O)(=O)[O-])c5F)c5nc(c(-c6cccc(S(=O)(=O)[O-])c6F)c6ccc3[nH]6)C=C5)C=C4)cc1)=C2
REMARK SMILES IDX 22 1 21 2 20 3 18 4 19 5 17 6 1 7 2 8 3 9 9 10 4 11 5 12
REMARK SMILES IDX 8 13 10 14 6 15 7 16 11 17 89 18 12 19 13 20 14 21 15 22
REMARK SMILES IDX 16 23 23 24 24 25 25 26 26 27 27 28 88 29 28 30 87 31 29 32
REMARK SMILES IDX 30 33 31 34 81 35 32 36 86 37 80 38 82 39 33 40 85 41 79 42
REMARK SMILES IDX 78 43 34 45 66 46 46 47 65 48 47 49 50 50 64 51 83 52 48 53
REMARK SMILES IDX 49 54 63 56 84 57 51 58 35 59 36 60 44 61 37 62 39 63 45 64
REMARK SMILES IDX 38 65 40 66 41 67 42 68 43 69 67 70 68 71 76 72 69 73 71 74
REMARK SMILES IDX 77 75 70 76 72 77 73 78 74 79 75 80 52 81 53 82 61 83 54 84
REMARK SMILES IDX 56 85 62 86 55 87 57 88 58 89 59 90 60 91
REMARK H PARENT 82 44 50 55
REMARK Flexibility Score: inf
ROOT
ATOM      1  C   UNL A   1      36.172  21.426  25.595  1.00  0.00     0.275 C 
ENDROOT
BRANCH   1   2
ATOM      2  C   UNL A   1      35.004  21.788  24.677  1.00  0.00     0.275 C 
BRANCH   2   3
ATOM      3  O   UNL A   1      34.823  23.219  24.596  1.00  0.00    -0.459 OA
BRANCH   3   4
ATOM      4  C   UNL A   1      34.029  23.760  25.549  1.00  0.00     0.338 C 
ATOM      5  O   UNL A   1      33.840  23.323  26.674  1.00  0.00    -0.246 OA
BRANCH   4   6
ATOM      6  C   UNL A   1      33.376  24.986  25.053  1.00  0.00     0.087 C 
ATOM      7  C   UNL A   1      30.193  30.664  24.376  1.00  0.00     0.047 C 
ATOM      8  C   UNL A   1      31.098  29.500  24.703  1.00  0.00    -0.019 A 
ATOM      9  C   UNL A   1      32.006  29.592  25.788  1.00  0.00     0.025 A 
ATOM     10  C   UNL A   1      31.100  28.320  23.931  1.00  0.00     0.064 A 
ATOM     11  Br  UNL A   1      32.121  31.250  26.754  1.00  0.00    -0.050 Br
ATOM     12  C   UNL A   1      32.831  28.503  26.154  1.00  0.00    -0.026 A 
ATOM     13  C   UNL A   1      31.918  27.228  24.275  1.00  0.00     0.142 A 
ATOM     14  Br  UNL A   1      29.990  28.149  22.377  1.00  0.00    -0.046 Br
ATOM     15  C   UNL A   1      33.785  28.580  27.328  1.00  0.00     0.046 C 
ATOM     16  C   UNL A   1      32.760  27.306  25.391  1.00  0.00     0.022 A 
ATOM     17  O   UNL A   1      31.865  26.123  23.460  1.00  0.00    -0.474 OA
ATOM     18  C   UNL A   1      33.533  26.118  25.748  1.00  0.00     0.027 C 
ATOM     19  C   UNL A   1      32.449  24.870  23.891  1.00  0.00     0.316 C 
BRANCH  19  20
ATOM     20  C   UNL A   1      31.328  23.853  24.161  1.00  0.00     0.430 C 
ATOM     21  F   UNL A   1      30.833  23.985  25.416  1.00  0.00    -0.167 F 
ATOM     22  F   UNL A   1      30.280  24.032  23.319  1.00  0.00    -0.167 F 
ATOM     23  F   UNL A   1      31.747  22.576  24.022  1.00  0.00    -0.167 F 
ENDBRANCH  19  20
ENDBRANCH   4   6
ENDBRANCH   3   4
ENDBRANCH   2   3
ENDBRANCH   1   2
BRANCH   1  24
ATOM     24  O   UNL A   1      37.425  21.668  24.930  1.00  0.00    -0.458 OA
BRANCH  24  25
ATOM     25  C   UNL A   1      38.523  21.290  25.623  1.00  0.00     0.338 C 
ATOM     26  O   UNL A   1      39.088  20.211  25.582  1.00  0.00    -0.246 OA
BRANCH  25  27
ATOM     27  C   UNL A   1      39.049  22.425  26.395  1.00  0.00     0.060 A 
ATOM     28  C   UNL A   1      38.534  23.687  26.138  1.00  0.00     0.016 A 
ATOM     29  C   UNL A   1      40.177  22.283  27.198  1.00  0.00     0.016 A 
ATOM     30  C   UNL A   1      39.247  24.815  26.526  1.00  0.00     0.010 A 
ATOM     31  C   UNL A   1      40.801  23.425  27.719  1.00  0.00     0.010 A 
ATOM     32  C   UNL A   1      40.389  24.715  27.332  1.00  0.00    -0.014 A 
BRANCH  32  33
ATOM     33  C   UNL A   1      41.156  25.942  27.719  1.00  0.00     0.031 A 
ATOM     34  C   UNL A   1      40.528  26.996  28.607  1.00  0.00     0.074 A 
ATOM     35  C   UNL A   1      42.433  26.115  27.308  1.00  0.00     0.049 A 
ATOM     36  N   UNL A   1      40.956  28.201  28.889  1.00  0.00    -0.248 NA
ATOM     37  C   UNL A   1      39.246  26.660  29.252  1.00  0.00     0.031 C 
ATOM     38  C   UNL A   1      43.195  25.174  26.484  1.00  0.00     0.029 A 
ATOM     39  N   UNL A   1      43.324  27.139  27.532  1.00  0.00    -0.354 N 
ATOM     40  C   UNL A   1      39.963  28.793  29.663  1.00  0.00     0.074 A 
ATOM     41  C   UNL A   1      38.911  27.813  29.817  1.00  0.00     0.031 C 
ATOM     42  C   UNL A   1      44.446  25.625  26.329  1.00  0.00     0.029 A 
ATOM     43  C   UNL A   1      44.543  26.952  26.920  1.00  0.00     0.049 A 
ATOM     44  H   UNL A   1      43.109  27.930  28.077  1.00  0.00     0.167 HD
ATOM     45  C   UNL A   1      39.934  30.034  30.207  1.00  0.00     0.034 A 
ATOM     46  C   UNL A   1      45.607  27.769  26.785  1.00  0.00     0.034 A 
ATOM     47  C   UNL A   1      41.023  30.972  30.128  1.00  0.00     0.049 A 
ATOM     48  C   UNL A   1      45.539  29.150  27.371  1.00  0.00     0.074 A 
ATOM     49  C   UNL A   1      41.098  32.245  30.667  1.00  0.00     0.029 A 
ATOM     50  N   UNL A   1      42.233  30.737  29.494  1.00  0.00    -0.354 N 
ATOM     51  N   UNL A   1      44.587  29.692  28.091  1.00  0.00    -0.248 NA
ATOM     52  C   UNL A   1      46.687  30.034  27.126  1.00  0.00     0.031 C 
ATOM     53  C   UNL A   1      42.341  32.789  30.336  1.00  0.00     0.029 A 
ATOM     54  C   UNL A   1      43.057  31.843  29.622  1.00  0.00     0.049 A 
ATOM     55  H   UNL A   1      42.471  29.906  29.021  1.00  0.00     0.167 HD
ATOM     56  C   UNL A   1      45.029  30.973  28.399  1.00  0.00     0.074 A 
ATOM     57  C   UNL A   1      46.347  31.113  27.817  1.00  0.00     0.031 C 
ATOM     58  C   UNL A   1      44.389  31.952  29.083  1.00  0.00     0.034 A 
BRANCH  45  59
ATOM     59  C   UNL A   1      38.702  30.462  30.969  1.00  0.00     0.023 A 
ATOM     60  C   UNL A   1      38.651  30.309  32.369  1.00  0.00     0.012 A 
ATOM     61  C   UNL A   1      37.643  31.120  30.308  1.00  0.00     0.148 A 
ATOM     62  C   UNL A   1      37.559  30.785  33.095  1.00  0.00     0.002 A 
ATOM     63  C   UNL A   1      36.583  31.636  31.044  1.00  0.00     0.091 A 
ATOM     64  F   UNL A   1      37.703  31.244  28.974  1.00  0.00    -0.205 F 
ATOM     65  C   UNL A   1      36.535  31.460  32.437  1.00  0.00     0.022 A 
BRANCH  63  66
ATOM     66  S   UNL A   1      35.260  32.603  30.305  1.00  0.00     0.127 S 
ATOM     67  O   UNL A   1      35.978  33.797  29.864  1.00  0.00    -0.237 OA
ATOM     68  O   UNL A   1      34.809  31.728  29.223  1.00  0.00    -0.237 OA
ATOM     69  O   UNL A   1      34.282  32.823  31.361  1.00  0.00    -0.744 OA
ENDBRANCH  63  66
ENDBRANCH  45  59
BRANCH  46  70
ATOM     70  C   UNL A   1      46.822  27.298  26.054  1.00  0.00     0.023 A 
ATOM     71  C   UNL A   1      47.685  26.372  26.671  1.00  0.00     0.012 A 
ATOM     72  C   UNL A   1      47.097  27.715  24.735  1.00  0.00     0.148 A 
ATOM     73  C   UNL A   1      48.803  25.882  25.995  1.00  0.00     0.002 A 
ATOM     74  C   UNL A   1      48.168  27.166  24.041  1.00  0.00     0.091 A 
ATOM     75  F   UNL A   1      46.282  28.618  24.171  1.00  0.00    -0.205 F 
ATOM     76  C   UNL A   1      49.035  26.264  24.676  1.00  0.00     0.022 A 
BRANCH  74  77
ATOM     77  S   UNL A   1      48.440  27.473  22.293  1.00  0.00     0.127 S 
ATOM     78  O   UNL A   1      49.645  28.297  22.317  1.00  0.00    -0.237 OA
ATOM     79  O   UNL A   1      48.630  26.117  21.775  1.00  0.00    -0.237 OA
ATOM     80  O   UNL A   1      47.232  28.132  21.815  1.00  0.00    -0.744 OA
ENDBRANCH  74  77
ENDBRANCH  46  70
BRANCH  58  81
ATOM     81  C   UNL A   1      45.104  33.264  29.269  1.00  0.00     0.023 A 
ATOM     82  C   UNL A   1      45.953  33.445  30.377  1.00  0.00     0.012 A 
ATOM     83  C   UNL A   1      45.014  34.276  28.292  1.00  0.00     0.148 A 
ATOM     84  C   UNL A   1      46.685  34.622  30.525  1.00  0.00     0.002 A 
ATOM     85  C   UNL A   1      45.787  35.424  28.417  1.00  0.00     0.091 A 
ATOM     86  F   UNL A   1      44.187  34.089  27.253  1.00  0.00    -0.205 F 
ATOM     87  C   UNL A   1      46.612  35.604  29.539  1.00  0.00     0.022 A 
BRANCH  85  88
ATOM     88  S   UNL A   1      45.844  36.694  27.149  1.00  0.00     0.127 S 
ATOM     89  O   UNL A   1      46.814  37.632  27.712  1.00  0.00    -0.237 OA
ATOM     90  O   UNL A   1      46.324  35.947  25.987  1.00  0.00    -0.237 OA
ATOM     91  O   UNL A   1      44.486  37.204  27.026  1.00  0.00    -0.744 OA
ENDBRANCH  85  88
ENDBRANCH  58  81
ENDBRANCH  32  33
ENDBRANCH  25  27
ENDBRANCH  24  25
ENDBRANCH   1  24
TORSDOF 15
ENDMDL
MODEL 3
REMARK VINA RESULT:     -12.2      5.258     10.027
REMARK SMILES Cc1c(Br)c(C)c2c(c1Br)O[C@H](C(F)(F)F)C(C(=O)OCCOC(=O)c1ccc(-c3c4nc(c(-c5cccc(S(=O)(=O)[O-])c5F)c5ccc([nH]5)c(-c5cccc(S(=O)(=O)[O-])c5F)c5nc(c(-c6cccc(S(=O)(=O)[O-])c6F)c6ccc3[nH]6)C=C5)C=C4)cc1)=C2
REMARK SMILES IDX 22 1 21 2 20 3 18 4 19 5 17 6 1 7 2 8 3 9 9 10 4 11 5 12
REMARK SMILES IDX 8 13 10 14 6 15 7 16 11 17 89 18 12 19 13 20 14 21 15 22
REMARK SMILES IDX 16 23 23 24 24 25 25 26 26 27 27 28 88 29 28 30 87 31 29 32
REMARK SMILES IDX 30 33 31 34 81 35 32 36 86 37 80 38 82 39 33 40 85 41 79 42
REMARK SMILES IDX 78 43 34 45 66 46 46 47 65 48 47 49 50 50 64 51 83 52 48 53
REMARK SMILES IDX 49 54 63 56 84 57 51 58 35 59 36 60 44 61 37 62 39 63 45 64
REMARK SMILES IDX 38 65 40 66 41 67 42 68 43 69 67 70 68 71 76 72 69 73 71 74
REMARK SMILES IDX 77 75 70 76 72 77 73 78 74 79 75 80 52 81 53 82 61 83 54 84
REMARK SMILES IDX 56 85 62 86 55 87 57 88 58 89 59 90 60 91
REMARK H PARENT 82 44 50 55
REMARK Flexibility Score: inf
ROOT
ATOM      1  C   UNL A   1      31.819  29.600  26.815  1.00  0.00     0.275 C 
ENDROOT
BRANCH   1   2
ATOM      2  C   UNL A   1      31.634  28.317  26.004  1.00  0.00     0.275 C 
BRANCH   2   3
ATOM      3  O   UNL A   1      32.628  27.327  26.351  1.00  0.00    -0.459 OA
BRANCH   3   4
ATOM      4  C   UNL A   1      33.371  26.861  25.321  1.00  0.00     0.338 C 
ATOM      5  O   UNL A   1      33.888  27.525  24.436  1.00  0.00    -0.246 OA
BRANCH   4   6
ATOM      6  C   UNL A   1      33.482  25.391  25.379  1.00  0.00     0.087 C 
ATOM      7  C   UNL A   1      35.155  19.108  24.629  1.00  0.00     0.047 C 
ATOM      8  C   UNL A   1      35.037  20.593  24.881  1.00  0.00    -0.019 A 
ATOM      9  C   UNL A   1      36.207  21.380  25.030  1.00  0.00     0.025 A 
ATOM     10  C   UNL A   1      33.785  21.228  25.013  1.00  0.00     0.064 A 
ATOM     11  Br  UNL A   1      37.917  20.502  25.004  1.00  0.00    -0.050 Br
ATOM     12  C   UNL A   1      36.135  22.781  25.215  1.00  0.00    -0.026 A 
ATOM     13  C   UNL A   1      33.693  22.619  25.203  1.00  0.00     0.142 A 
ATOM     14  Br  UNL A   1      32.152  20.226  24.940  1.00  0.00    -0.046 Br
ATOM     15  C   UNL A   1      37.378  23.636  25.348  1.00  0.00     0.046 C 
ATOM     16  C   UNL A   1      34.856  23.396  25.280  1.00  0.00     0.022 A 
ATOM     17  O   UNL A   1      32.433  23.152  25.335  1.00  0.00    -0.474 OA
ATOM     18  C   UNL A   1      34.703  24.845  25.404  1.00  0.00     0.027 C 
ATOM     19  C   UNL A   1      32.234  24.584  25.250  1.00  0.00     0.316 C 
BRANCH  19  20
ATOM     20  C   UNL A   1      31.476  24.916  23.955  1.00  0.00     0.430 C 
ATOM     21  F   UNL A   1      30.695  23.881  23.560  1.00  0.00    -0.167 F 
ATOM     22  F   UNL A   1      30.647  25.976  24.120  1.00  0.00    -0.167 F 
ATOM     23  F   UNL A   1      32.310  25.208  22.932  1.00  0.00    -0.167 F 
ENDBRANCH  19  20
ENDBRANCH   4   6
ENDBRANCH   3   4
ENDBRANCH   2   3
ENDBRANCH   1   2
BRANCH   1  24
ATOM     24  O   UNL A   1      32.932  30.357  26.306  1.00  0.00    -0.458 OA
BRANCH  24  25
ATOM     25  C   UNL A   1      33.407  31.308  27.142  1.00  0.00     0.338 C 
ATOM     26  O   UNL A   1      32.790  32.240  27.628  1.00  0.00    -0.246 OA
BRANCH  25  27
ATOM     27  C   UNL A   1      34.803  31.015  27.500  1.00  0.00     0.060 A 
ATOM     28  C   UNL A   1      35.177  29.687  27.642  1.00  0.00     0.016 A 
ATOM     29  C   UNL A   1      35.666  32.029  27.903  1.00  0.00     0.016 A 
ATOM     30  C   UNL A   1      36.329  29.367  28.352  1.00  0.00     0.010 A 
ATOM     31  C   UNL A   1      36.901  31.696  28.477  1.00  0.00     0.010 A 
ATOM     32  C   UNL A   1      37.223  30.359  28.777  1.00  0.00    -0.014 A 
BRANCH  32  33
ATOM     33  C   UNL A   1      38.447  29.994  29.560  1.00  0.00     0.031 A 
ATOM     34  C   UNL A   1      39.490  29.067  28.973  1.00  0.00     0.074 A 
ATOM     35  C   UNL A   1      38.655  30.510  30.793  1.00  0.00     0.049 A 
ATOM     36  N   UNL A   1      40.506  28.488  29.562  1.00  0.00    -0.248 NA
ATOM     37  C   UNL A   1      39.371  28.735  27.543  1.00  0.00     0.031 C 
ATOM     38  C   UNL A   1      37.766  31.449  31.482  1.00  0.00     0.029 A 
ATOM     39  N   UNL A   1      39.685  30.327  31.687  1.00  0.00    -0.354 N 
ATOM     40  C   UNL A   1      41.089  27.662  28.606  1.00  0.00     0.074 A 
ATOM     41  C   UNL A   1      40.319  27.818  27.391  1.00  0.00     0.031 C 
ATOM     42  C   UNL A   1      38.315  31.810  32.649  1.00  0.00     0.029 A 
ATOM     43  C   UNL A   1      39.524  31.027  32.862  1.00  0.00     0.049 A 
ATOM     44  H   UNL A   1      40.461  29.752  31.504  1.00  0.00     0.167 HD
ATOM     45  C   UNL A   1      42.172  26.856  28.723  1.00  0.00     0.034 A 
ATOM     46  C   UNL A   1      40.223  31.005  34.015  1.00  0.00     0.034 A 
ATOM     47  C   UNL A   1      42.988  26.773  29.906  1.00  0.00     0.049 A 
ATOM     48  C   UNL A   1      41.401  30.082  34.130  1.00  0.00     0.074 A 
ATOM     49  C   UNL A   1      44.120  26.003  30.113  1.00  0.00     0.029 A 
ATOM     50  N   UNL A   1      42.781  27.497  31.070  1.00  0.00    -0.354 N 
ATOM     51  N   UNL A   1      41.928  29.303  33.217  1.00  0.00    -0.248 NA
ATOM     52  C   UNL A   1      42.080  30.030  35.432  1.00  0.00     0.031 C 
ATOM     53  C   UNL A   1      44.581  26.242  31.410  1.00  0.00     0.029 A 
ATOM     54  C   UNL A   1      43.759  27.187  32.000  1.00  0.00     0.049 A 
ATOM     55  H   UNL A   1      42.046  28.137  31.213  1.00  0.00     0.167 HD
ATOM     56  C   UNL A   1      43.011  28.683  33.828  1.00  0.00     0.074 A 
ATOM     57  C   UNL A   1      43.084  29.202  35.178  1.00  0.00     0.031 C 
ATOM     58  C   UNL A   1      43.853  27.749  33.323  1.00  0.00     0.034 A 
BRANCH  45  59
ATOM     59  C   UNL A   1      42.575  26.008  27.540  1.00  0.00     0.023 A 
ATOM     60  C   UNL A   1      43.511  26.499  26.608  1.00  0.00     0.012 A 
ATOM     61  C   UNL A   1      42.110  24.681  27.417  1.00  0.00     0.148 A 
ATOM     62  C   UNL A   1      43.962  25.692  25.563  1.00  0.00     0.002 A 
ATOM     63  C   UNL A   1      42.603  23.867  26.404  1.00  0.00     0.091 A 
ATOM     64  F   UNL A   1      41.210  24.236  28.306  1.00  0.00    -0.205 F 
ATOM     65  C   UNL A   1      43.521  24.375  25.469  1.00  0.00     0.022 A 
BRANCH  63  66
ATOM     66  S   UNL A   1      42.171  22.129  26.251  1.00  0.00     0.127 S 
ATOM     67  O   UNL A   1      42.948  21.734  25.077  1.00  0.00    -0.237 OA
ATOM     68  O   UNL A   1      42.657  21.580  27.517  1.00  0.00    -0.237 OA
ATOM     69  O   UNL A   1      40.725  22.085  26.080  1.00  0.00    -0.744 OA
ENDBRANCH  63  66
ENDBRANCH  45  59
BRANCH  46  70
ATOM     70  C   UNL A   1      39.815  31.884  35.152  1.00  0.00     0.023 A 
ATOM     71  C   UNL A   1      40.175  33.245  35.139  1.00  0.00     0.012 A 
ATOM     72  C   UNL A   1      39.026  31.396  36.215  1.00  0.00     0.148 A 
ATOM     73  C   UNL A   1      39.769  34.098  36.166  1.00  0.00     0.002 A 
ATOM     74  C   UNL A   1      38.563  32.267  37.193  1.00  0.00     0.091 A 
ATOM     75  F   UNL A   1      38.715  30.092  36.228  1.00  0.00    -0.205 F 
ATOM     76  C   UNL A   1      38.950  33.615  37.182  1.00  0.00     0.022 A 
BRANCH  74  77
ATOM     77  S   UNL A   1      37.371  31.766  38.440  1.00  0.00     0.127 S 
ATOM     78  O   UNL A   1      38.128  31.960  39.674  1.00  0.00    -0.237 OA
ATOM     79  O   UNL A   1      36.287  32.725  38.224  1.00  0.00    -0.237 OA
ATOM     80  O   UNL A   1      37.023  30.387  38.122  1.00  0.00    -0.744 OA
ENDBRANCH  74  77
ENDBRANCH  46  70
BRANCH  58  81
ATOM     81  C   UNL A   1      44.950  27.234  34.217  1.00  0.00     0.023 A 
ATOM     82  C   UNL A   1      46.199  27.885  34.234  1.00  0.00     0.012 A 
ATOM     83  C   UNL A   1      44.710  26.172  35.111  1.00  0.00     0.148 A 
ATOM     84  C   UNL A   1      47.201  27.472  35.111  1.00  0.00     0.002 A 
ATOM     85  C   UNL A   1      45.693  25.801  36.019  1.00  0.00     0.091 A 
ATOM     86  F   UNL A   1      43.519  25.556  35.066  1.00  0.00    -0.205 F 
ATOM     87  C   UNL A   1      46.943  26.441  36.012  1.00  0.00     0.022 A 
BRANCH  85  88
ATOM     88  S   UNL A   1      45.419  24.559  37.288  1.00  0.00     0.127 S 
ATOM     89  O   UNL A   1      44.209  25.061  37.937  1.00  0.00    -0.237 OA
ATOM     90  O   UNL A   1      45.227  23.346  36.494  1.00  0.00    -0.237 OA
ATOM     91  O   UNL A   1      46.614  24.560  38.119  1.00  0.00    -0.744 OA
ENDBRANCH  85  88
ENDBRANCH  58  81
ENDBRANCH  32  33
ENDBRANCH  25  27
ENDBRANCH  24  25
ENDBRANCH   1  24
TORSDOF 15
ENDMDL
