MODEL 1
REMARK VINA RESULT:     -12.4      0.000      0.000
REMARK SMILES Cc1cc(F)c([C@@H](C)[N@@H+]2C[C@H](C)[C@H](C(=O)OCCOC(=O)c3ccc(-c4c5nc(c(-c6cccc(S(=O)(=O)[O-])c6F)c6ccc([nH]6)c(-c6cccc(S(=O)(=O)[O-])c6F)c6nc(c(-c7cccc(S(=O)(=O)[O-])c7F)c7ccc4[nH]7)C=C6)C=C5)cc3)C2)cc1F
REMARK SMILES IDX 18 1 17 2 16 3 14 4 15 5 13 6 9 7 10 8 85 9 11 11 12 12 7 13
REMARK SMILES IDX 8 14 6 15 1 16 2 17 3 18 87 19 4 20 86 21 88 22 5 23 19 24
REMARK SMILES IDX 20 25 21 26 22 27 23 28 84 29 24 30 83 31 25 32 26 33 27 34
REMARK SMILES IDX 77 35 28 36 82 37 76 38 78 39 29 40 81 41 75 42 74 43 30 45
REMARK SMILES IDX 62 46 42 47 61 48 43 49 46 50 60 51 79 52 44 53 45 54 59 56
REMARK SMILES IDX 80 57 47 58 31 59 32 60 40 61 33 62 35 63 41 64 34 65 36 66
REMARK SMILES IDX 37 67 38 68 39 69 63 70 64 71 72 72 65 73 67 74 73 75 66 76
REMARK SMILES IDX 68 77 69 78 70 79 71 80 48 81 49 82 57 83 50 84 52 85 58 86
REMARK SMILES IDX 51 87 53 88 54 89 55 90 56 91
REMARK H PARENT 9 10 78 44 46 55
REMARK Flexibility Score: inf
ROOT
ATOM      1  C   UNL A   1      32.506  29.692  25.218  1.00  0.00     0.275 C 
ENDROOT
BRANCH   1   2
ATOM      2  C   UNL A   1      31.108  29.589  24.601  1.00  0.00     0.274 C 
BRANCH   2   3
ATOM      3  O   UNL A   1      30.823  28.243  24.170  1.00  0.00    -0.462 OA
BRANCH   3   4
ATOM      4  C   UNL A   1      30.736  28.035  22.837  1.00  0.00     0.315 C 
ATOM      5  O   UNL A   1      30.162  28.795  22.063  1.00  0.00    -0.252 OA
BRANCH   4   6
ATOM      6  C   UNL A   1      31.382  26.750  22.351  1.00  0.00     0.162 C 
ATOM      7  N   UNL A   1      32.380  24.837  23.401  1.00  0.00    -0.328 N 
ATOM      8  C   UNL A   1      33.237  25.229  22.288  1.00  0.00     0.267 C 
ATOM      9  C   UNL A   1      31.168  25.647  23.378  1.00  0.00     0.278 C 
ATOM     10  H   UNL A   1      32.101  23.868  23.242  1.00  0.00     0.348 HD
ATOM     11  C   UNL A   1      32.837  26.650  21.876  1.00  0.00     0.061 C 
ATOM     12  C   UNL A   1      33.849  27.685  22.346  1.00  0.00     0.015 C 
BRANCH   7  13
ATOM     13  C   UNL A   1      33.011  24.582  24.702  1.00  0.00     0.215 C 
ATOM     14  C   UNL A   1      33.195  25.885  25.499  1.00  0.00     0.081 C 
BRANCH  13  15
ATOM     15  C   UNL A   1      34.260  23.717  24.655  1.00  0.00     0.048 A 
ATOM     16  C   UNL A   1      37.797  21.263  25.141  1.00  0.00     0.047 C 
ATOM     17  C   UNL A   1      36.603  22.125  24.879  1.00  0.00    -0.012 A 
ATOM     18  C   UNL A   1      35.394  21.561  24.459  1.00  0.00     0.046 A 
ATOM     19  C   UNL A   1      36.637  23.495  25.141  1.00  0.00     0.126 A 
ATOM     20  C   UNL A   1      34.251  22.353  24.335  1.00  0.00     0.132 A 
ATOM     21  C   UNL A   1      35.493  24.284  25.029  1.00  0.00     0.052 A 
ATOM     22  F   UNL A   1      37.777  24.068  25.551  1.00  0.00    -0.207 F 
ATOM     23  F   UNL A   1      33.129  21.745  23.933  1.00  0.00    -0.206 F 
ENDBRANCH  13  15
ENDBRANCH   7  13
ENDBRANCH   4   6
ENDBRANCH   3   4
ENDBRANCH   2   3
ENDBRANCH   1   2
BRANCH   1  24
ATOM     24  O   UNL A   1      32.440  29.948  26.633  1.00  0.00    -0.458 OA
BRANCH  24  25
ATOM     25  C   UNL A   1      32.970  31.128  27.028  1.00  0.00     0.338 C 
ATOM     26  O   UNL A   1      32.405  32.214  27.072  1.00  0.00    -0.246 OA
BRANCH  25  27
ATOM     27  C   UNL A   1      34.315  30.911  27.570  1.00  0.00     0.060 A 
ATOM     28  C   UNL A   1      35.189  31.971  27.804  1.00  0.00     0.016 A 
ATOM     29  C   UNL A   1      34.670  29.608  27.928  1.00  0.00     0.016 A 
ATOM     30  C   UNL A   1      36.431  31.707  28.389  1.00  0.00     0.010 A 
ATOM     31  C   UNL A   1      35.907  29.343  28.501  1.00  0.00     0.010 A 
ATOM     32  C   UNL A   1      36.797  30.392  28.738  1.00  0.00    -0.014 A 
BRANCH  32  33
ATOM     33  C   UNL A   1      38.061  30.129  29.459  1.00  0.00     0.031 A 
ATOM     34  C   UNL A   1      38.301  30.674  30.836  1.00  0.00     0.074 A 
ATOM     35  C   UNL A   1      39.021  29.428  28.827  1.00  0.00     0.049 A 
ATOM     36  N   UNL A   1      39.275  30.396  31.661  1.00  0.00    -0.248 NA
ATOM     37  C   UNL A   1      37.346  31.671  31.346  1.00  0.00     0.031 C 
ATOM     38  C   UNL A   1      38.951  28.982  27.433  1.00  0.00     0.029 A 
ATOM     39  N   UNL A   1      40.233  28.965  29.267  1.00  0.00    -0.354 N 
ATOM     40  C   UNL A   1      39.056  31.179  32.786  1.00  0.00     0.074 A 
ATOM     41  C   UNL A   1      37.879  31.977  32.523  1.00  0.00     0.031 C 
ATOM     42  C   UNL A   1      40.049  28.264  27.149  1.00  0.00     0.029 A 
ATOM     43  C   UNL A   1      40.891  28.193  28.339  1.00  0.00     0.049 A 
ATOM     44  H   UNL A   1      40.597  29.166  30.159  1.00  0.00     0.167 HD
ATOM     45  C   UNL A   1      39.752  31.193  33.946  1.00  0.00     0.034 A 
ATOM     46  C   UNL A   1      42.017  27.463  28.453  1.00  0.00     0.034 A 
ATOM     47  C   UNL A   1      40.892  30.357  34.201  1.00  0.00     0.049 A 
ATOM     48  C   UNL A   1      42.712  27.405  29.783  1.00  0.00     0.074 A 
ATOM     49  C   UNL A   1      41.602  30.208  35.379  1.00  0.00     0.029 A 
ATOM     50  N   UNL A   1      41.487  29.528  33.263  1.00  0.00    -0.354 N 
ATOM     51  N   UNL A   1      42.380  27.997  30.906  1.00  0.00    -0.248 NA
ATOM     52  C   UNL A   1      43.905  26.555  29.880  1.00  0.00     0.031 C 
ATOM     53  C   UNL A   1      42.627  29.285  35.153  1.00  0.00     0.029 A 
ATOM     54  C   UNL A   1      42.554  28.861  33.834  1.00  0.00     0.049 A 
ATOM     55  H   UNL A   1      41.193  29.428  32.329  1.00  0.00     0.167 HD
ATOM     56  C   UNL A   1      43.310  27.577  31.848  1.00  0.00     0.074 A 
ATOM     57  C   UNL A   1      44.212  26.670  31.168  1.00  0.00     0.031 C 
ATOM     58  C   UNL A   1      43.411  27.925  33.152  1.00  0.00     0.034 A 
BRANCH  45  59
ATOM     59  C   UNL A   1      39.242  32.050  35.071  1.00  0.00     0.023 A 
ATOM     60  C   UNL A   1      38.313  31.494  35.973  1.00  0.00     0.012 A 
ATOM     61  C   UNL A   1      39.751  33.343  35.307  1.00  0.00     0.148 A 
ATOM     62  C   UNL A   1      37.886  32.213  37.087  1.00  0.00     0.002 A 
ATOM     63  C   UNL A   1      39.341  34.044  36.436  1.00  0.00     0.091 A 
ATOM     64  F   UNL A   1      40.629  33.853  34.431  1.00  0.00    -0.205 F 
ATOM     65  C   UNL A   1      38.406  33.483  37.324  1.00  0.00     0.022 A 
BRANCH  63  66
ATOM     66  S   UNL A   1      39.986  35.664  36.870  1.00  0.00     0.127 S 
ATOM     67  O   UNL A   1      39.287  35.933  38.126  1.00  0.00    -0.237 OA
ATOM     68  O   UNL A   1      41.416  35.396  37.014  1.00  0.00    -0.237 OA
ATOM     69  O   UNL A   1      39.636  36.547  35.766  1.00  0.00    -0.744 OA
ENDBRANCH  63  66
ENDBRANCH  45  59
BRANCH  46  70
ATOM     70  C   UNL A   1      42.440  26.613  27.309  1.00  0.00     0.023 A 
ATOM     71  C   UNL A   1      43.321  27.154  26.352  1.00  0.00     0.012 A 
ATOM     72  C   UNL A   1      42.078  25.255  27.226  1.00  0.00     0.148 A 
ATOM     73  C   UNL A   1      43.833  26.357  25.328  1.00  0.00     0.002 A 
ATOM     74  C   UNL A   1      42.620  24.458  26.224  1.00  0.00     0.091 A 
ATOM     75  F   UNL A   1      41.241  24.766  28.152  1.00  0.00    -0.205 F 
ATOM     76  C   UNL A   1      43.492  25.008  25.271  1.00  0.00     0.022 A 
BRANCH  74  77
ATOM     77  S   UNL A   1      42.330  22.688  26.129  1.00  0.00     0.127 S 
ATOM     78  O   UNL A   1      42.985  22.346  24.868  1.00  0.00    -0.237 OA
ATOM     79  O   UNL A   1      43.015  22.206  27.329  1.00  0.00    -0.237 OA
ATOM     80  O   UNL A   1      40.884  22.521  26.151  1.00  0.00    -0.744 OA
ENDBRANCH  74  77
ENDBRANCH  46  70
BRANCH  58  81
ATOM     81  C   UNL A   1      44.535  27.342  33.959  1.00  0.00     0.023 A 
ATOM     82  C   UNL A   1      45.755  28.040  34.030  1.00  0.00     0.012 A 
ATOM     83  C   UNL A   1      44.322  26.217  34.779  1.00  0.00     0.148 A 
ATOM     84  C   UNL A   1      46.750  27.630  34.914  1.00  0.00     0.002 A 
ATOM     85  C   UNL A   1      45.306  25.833  35.681  1.00  0.00     0.091 A 
ATOM     86  F   UNL A   1      43.147  25.576  34.689  1.00  0.00    -0.205 F 
ATOM     87  C   UNL A   1      46.520  26.537  35.748  1.00  0.00     0.022 A 
BRANCH  85  88
ATOM     88  S   UNL A   1      45.080  24.490  36.853  1.00  0.00     0.127 S 
ATOM     89  O   UNL A   1      46.359  24.497  37.563  1.00  0.00    -0.237 OA
ATOM     90  O   UNL A   1      43.941  24.960  37.641  1.00  0.00    -0.237 OA
ATOM     91  O   UNL A   1      44.826  23.296  36.059  1.00  0.00    -0.744 OA
ENDBRANCH  85  88
ENDBRANCH  58  81
ENDBRANCH  32  33
ENDBRANCH  25  27
ENDBRANCH  24  25
ENDBRANCH   1  24
TORSDOF 16
ENDMDL
MODEL 2
REMARK VINA RESULT:     -12.2      4.805      9.960
REMARK SMILES Cc1cc(F)c([C@@H](C)[N@@H+]2C[C@H](C)[C@H](C(=O)OCCOC(=O)c3ccc(-c4c5nc(c(-c6cccc(S(=O)(=O)[O-])c6F)c6ccc([nH]6)c(-c6cccc(S(=O)(=O)[O-])c6F)c6nc(c(-c7cccc(S(=O)(=O)[O-])c7F)c7ccc4[nH]7)C=C6)C=C5)cc3)C2)cc1F
REMARK SMILES IDX 18 1 17 2 16 3 14 4 15 5 13 6 9 7 10 8 85 9 11 11 12 12 7 13
REMARK SMILES IDX 8 14 6 15 1 16 2 17 3 18 87 19 4 20 86 21 88 22 5 23 19 24
REMARK SMILES IDX 20 25 21 26 22 27 23 28 84 29 24 30 83 31 25 32 26 33 27 34
REMARK SMILES IDX 77 35 28 36 82 37 76 38 78 39 29 40 81 41 75 42 74 43 30 45
REMARK SMILES IDX 62 46 42 47 61 48 43 49 46 50 60 51 79 52 44 53 45 54 59 56
REMARK SMILES IDX 80 57 47 58 31 59 32 60 40 61 33 62 35 63 41 64 34 65 36 66
REMARK SMILES IDX 37 67 38 68 39 69 63 70 64 71 72 72 65 73 67 74 73 75 66 76
REMARK SMILES IDX 68 77 69 78 70 79 71 80 48 81 49 82 57 83 50 84 52 85 58 86
REMARK SMILES IDX 51 87 53 88 54 89 55 90 56 91
REMARK H PARENT 9 10 78 44 46 55
REMARK Flexibility Score: inf
ROOT
ATOM      1  C   UNL A   1      35.924  21.385  25.765  1.00  0.00     0.275 C 
ENDROOT
BRANCH   1   2
ATOM      2  C   UNL A   1      35.065  20.458  24.902  1.00  0.00     0.274 C 
BRANCH   2   3
ATOM      3  O   UNL A   1      33.850  21.109  24.481  1.00  0.00    -0.462 OA
BRANCH   3   4
ATOM      4  C   UNL A   1      32.715  20.762  25.129  1.00  0.00     0.315 C 
ATOM      5  O   UNL A   1      32.433  19.610  25.442  1.00  0.00    -0.252 OA
BRANCH   4   6
ATOM      6  C   UNL A   1      31.772  21.914  25.420  1.00  0.00     0.162 C 
ATOM      7  N   UNL A   1      31.744  24.265  24.933  1.00  0.00    -0.328 N 
ATOM      8  C   UNL A   1      31.343  24.096  26.325  1.00  0.00     0.267 C 
ATOM      9  C   UNL A   1      31.869  22.953  24.311  1.00  0.00     0.278 C 
ATOM     10  H   UNL A   1      30.987  24.757  24.457  1.00  0.00     0.348 HD
ATOM     11  C   UNL A   1      31.738  22.677  26.751  1.00  0.00     0.061 C 
ATOM     12  C   UNL A   1      32.970  22.674  27.645  1.00  0.00     0.015 C 
BRANCH   7  13
ATOM     13  C   UNL A   1      32.770  25.270  24.628  1.00  0.00     0.215 C 
ATOM     14  C   UNL A   1      34.186  24.694  24.797  1.00  0.00     0.081 C 
BRANCH  13  15
ATOM     15  C   UNL A   1      32.576  26.616  25.307  1.00  0.00     0.048 A 
ATOM     16  C   UNL A   1      32.490  30.650  26.883  1.00  0.00     0.047 C 
ATOM     17  C   UNL A   1      32.465  29.229  26.417  1.00  0.00    -0.012 A 
ATOM     18  C   UNL A   1      31.470  28.783  25.543  1.00  0.00     0.046 A 
ATOM     19  C   UNL A   1      33.487  28.344  26.762  1.00  0.00     0.126 A 
ATOM     20  C   UNL A   1      31.521  27.491  25.015  1.00  0.00     0.132 A 
ATOM     21  C   UNL A   1      33.546  27.059  26.226  1.00  0.00     0.052 A 
ATOM     22  F   UNL A   1      34.461  28.740  27.593  1.00  0.00    -0.207 F 
ATOM     23  F   UNL A   1      30.538  27.133  24.181  1.00  0.00    -0.206 F 
ENDBRANCH  13  15
ENDBRANCH   7  13
ENDBRANCH   4   6
ENDBRANCH   3   4
ENDBRANCH   2   3
ENDBRANCH   1   2
BRANCH   1  24
ATOM     24  O   UNL A   1      37.115  21.798  25.070  1.00  0.00    -0.458 OA
BRANCH  24  25
ATOM     25  C   UNL A   1      38.276  21.371  25.616  1.00  0.00     0.338 C 
ATOM     26  O   UNL A   1      38.785  20.263  25.497  1.00  0.00    -0.246 OA
BRANCH  25  27
ATOM     27  C   UNL A   1      38.961  22.492  26.267  1.00  0.00     0.060 A 
ATOM     28  C   UNL A   1      40.062  22.293  27.098  1.00  0.00     0.016 A 
ATOM     29  C   UNL A   1      38.527  23.784  25.963  1.00  0.00     0.016 A 
ATOM     30  C   UNL A   1      40.716  23.407  27.632  1.00  0.00     0.010 A 
ATOM     31  C   UNL A   1      39.169  24.892  26.500  1.00  0.00     0.010 A 
ATOM     32  C   UNL A   1      40.272  24.712  27.338  1.00  0.00    -0.014 A 
BRANCH  32  33
ATOM     33  C   UNL A   1      41.031  25.890  27.810  1.00  0.00     0.031 A 
ATOM     34  C   UNL A   1      42.465  26.100  27.423  1.00  0.00     0.074 A 
ATOM     35  C   UNL A   1      40.418  26.749  28.645  1.00  0.00     0.049 A 
ATOM     36  N   UNL A   1      43.211  27.155  27.613  1.00  0.00    -0.248 NA
ATOM     37  C   UNL A   1      43.159  24.984  26.760  1.00  0.00     0.031 C 
ATOM     38  C   UNL A   1      39.078  26.560  29.206  1.00  0.00     0.029 A 
ATOM     39  N   UNL A   1      40.832  27.948  29.165  1.00  0.00    -0.354 N 
ATOM     40  C   UNL A   1      44.460  26.836  27.097  1.00  0.00     0.074 A 
ATOM     41  C   UNL A   1      44.386  25.472  26.623  1.00  0.00     0.031 C 
ATOM     42  C   UNL A   1      38.760  27.632  29.949  1.00  0.00     0.029 A 
ATOM     43  C   UNL A   1      39.866  28.582  29.908  1.00  0.00     0.049 A 
ATOM     44  H   UNL A   1      41.733  28.318  29.019  1.00  0.00     0.167 HD
ATOM     45  C   UNL A   1      45.550  27.629  26.991  1.00  0.00     0.034 A 
ATOM     46  C   UNL A   1      39.853  29.816  30.449  1.00  0.00     0.034 A 
ATOM     47  C   UNL A   1      45.587  28.997  27.429  1.00  0.00     0.049 A 
ATOM     48  C   UNL A   1      41.031  30.719  30.225  1.00  0.00     0.074 A 
ATOM     49  C   UNL A   1      46.601  29.924  27.268  1.00  0.00     0.029 A 
ATOM     50  N   UNL A   1      44.562  29.633  28.111  1.00  0.00    -0.354 N 
ATOM     51  N   UNL A   1      42.134  30.474  29.559  1.00  0.00    -0.248 NA
ATOM     52  C   UNL A   1      40.953  32.075  30.785  1.00  0.00     0.031 C 
ATOM     53  C   UNL A   1      46.187  31.125  27.852  1.00  0.00     0.029 A 
ATOM     54  C   UNL A   1      44.915  30.942  28.376  1.00  0.00     0.049 A 
ATOM     55  H   UNL A   1      43.708  29.215  28.367  1.00  0.00     0.167 HD
ATOM     56  C   UNL A   1      42.874  31.648  29.601  1.00  0.00     0.074 A 
ATOM     57  C   UNL A   1      42.089  32.610  30.348  1.00  0.00     0.031 C 
ATOM     58  C   UNL A   1      44.098  31.898  29.080  1.00  0.00     0.034 A 
BRANCH  45  59
ATOM     59  C   UNL A   1      46.759  27.085  26.281  1.00  0.00     0.023 A 
ATOM     60  C   UNL A   1      46.861  27.272  24.887  1.00  0.00     0.012 A 
ATOM     61  C   UNL A   1      47.832  26.501  26.983  1.00  0.00     0.148 A 
ATOM     62  C   UNL A   1      48.005  26.875  24.199  1.00  0.00     0.002 A 
ATOM     63  C   UNL A   1      48.981  26.132  26.293  1.00  0.00     0.091 A 
ATOM     64  F   UNL A   1      47.709  26.328  28.306  1.00  0.00    -0.205 F 
ATOM     65  C   UNL A   1      49.068  26.315  24.901  1.00  0.00     0.022 A 
BRANCH  63  66
ATOM     66  S   UNL A   1      50.433  25.451  27.103  1.00  0.00     0.127 S 
ATOM     67  O   UNL A   1      50.782  26.524  28.034  1.00  0.00    -0.237 OA
ATOM     68  O   UNL A   1      49.895  24.247  27.736  1.00  0.00    -0.237 OA
ATOM     69  O   UNL A   1      51.407  25.206  26.049  1.00  0.00    -0.744 OA
ENDBRANCH  63  66
ENDBRANCH  45  59
BRANCH  46  70
ATOM     70  C   UNL A   1      38.609  30.297  31.107  1.00  0.00     0.023 A 
ATOM     71  C   UNL A   1      38.483  30.157  32.504  1.00  0.00     0.012 A 
ATOM     72  C   UNL A   1      37.616  30.990  30.390  1.00  0.00     0.148 A 
ATOM     73  C   UNL A   1      37.386  30.696  33.175  1.00  0.00     0.002 A 
ATOM     74  C   UNL A   1      36.544  31.557  31.070  1.00  0.00     0.091 A 
ATOM     75  F   UNL A   1      37.764  31.112  29.063  1.00  0.00    -0.205 F 
ATOM     76  C   UNL A   1      36.424  31.405  32.461  1.00  0.00     0.022 A 
BRANCH  74  77
ATOM     77  S   UNL A   1      35.311  32.581  30.258  1.00  0.00     0.127 S 
ATOM     78  O   UNL A   1      34.835  31.692  29.200  1.00  0.00    -0.237 OA
ATOM     79  O   UNL A   1      34.356  32.817  31.341  1.00  0.00    -0.237 OA
ATOM     80  O   UNL A   1      36.020  33.770  29.807  1.00  0.00    -0.744 OA
ENDBRANCH  74  77
ENDBRANCH  46  70
BRANCH  58  81
ATOM     81  C   UNL A   1      44.696  33.259  29.288  1.00  0.00     0.023 A 
ATOM     82  C   UNL A   1      45.575  33.458  30.369  1.00  0.00     0.012 A 
ATOM     83  C   UNL A   1      44.533  34.271  28.322  1.00  0.00     0.148 A 
ATOM     84  C   UNL A   1      46.292  34.647  30.484  1.00  0.00     0.002 A 
ATOM     85  C   UNL A   1      45.275  35.440  28.426  1.00  0.00     0.091 A 
ATOM     86  F   UNL A   1      43.691  34.048  27.303  1.00  0.00    -0.205 F 
ATOM     87  C   UNL A   1      46.152  35.630  29.507  1.00  0.00     0.022 A 
BRANCH  85  88
ATOM     88  S   UNL A   1      45.228  36.734  27.180  1.00  0.00     0.127 S 
ATOM     89  O   UNL A   1      45.879  37.843  27.879  1.00  0.00    -0.237 OA
ATOM     90  O   UNL A   1      46.018  36.147  26.099  1.00  0.00    -0.237 OA
ATOM     91  O   UNL A   1      43.822  36.948  26.869  1.00  0.00    -0.744 OA
ENDBRANCH  85  88
ENDBRANCH  58  81
ENDBRANCH  32  33
ENDBRANCH  25  27
ENDBRANCH  24  25
ENDBRANCH   1  24
TORSDOF 16
ENDMDL
MODEL 3
REMARK VINA RESULT:     -12.1      1.581      2.089
REMARK SMILES Cc1cc(F)c([C@@H](C)[N@@H+]2C[C@H](C)[C@H](C(=O)OCCOC(=O)c3ccc(-c4c5nc(c(-c6cccc(S(=O)(=O)[O-])c6F)c6ccc([nH]6)c(-c6cccc(S(=O)(=O)[O-])c6F)c6nc(c(-c7cccc(S(=O)(=O)[O-])c7F)c7ccc4[nH]7)C=C6)C=C5)cc3)C2)cc1F
REMARK SMILES IDX 18 1 17 2 16 3 14 4 15 5 13 6 9 7 10 8 85 9 11 11 12 12 7 13
REMARK SMILES IDX 8 14 6 15 1 16 2 17 3 18 87 19 4 20 86 21 88 22 5 23 19 24
REMARK SMILES IDX 20 25 21 26 22 27 23 28 84 29 24 30 83 31 25 32 26 33 27 34
REMARK SMILES IDX 77 35 28 36 82 37 76 38 78 39 29 40 81 41 75 42 74 43 30 45
REMARK SMILES IDX 62 46 42 47 61 48 43 49 46 50 60 51 79 52 44 53 45 54 59 56
REMARK SMILES IDX 80 57 47 58 31 59 32 60 40 61 33 62 35 63 41 64 34 65 36 66
REMARK SMILES IDX 37 67 38 68 39 69 63 70 64 71 72 72 65 73 67 74 73 75 66 76
REMARK SMILES IDX 68 77 69 78 70 79 71 80 48 81 49 82 57 83 50 84 52 85 58 86
REMARK SMILES IDX 51 87 53 88 54 89 55 90 56 91
REMARK H PARENT 9 10 78 44 46 55
REMARK Flexibility Score: inf
ROOT
ATOM      1  C   UNL A   1      31.830  30.846  26.183  1.00  0.00     0.275 C 
ENDROOT
BRANCH   1   2
ATOM      2  C   UNL A   1      31.393  29.725  25.236  1.00  0.00     0.274 C 
BRANCH   2   3
ATOM      3  O   UNL A   1      32.523  29.128  24.571  1.00  0.00    -0.462 OA
BRANCH   3   4
ATOM      4  C   UNL A   1      32.636  27.783  24.645  1.00  0.00     0.315 C 
ATOM      5  O   UNL A   1      33.505  27.138  24.067  1.00  0.00    -0.252 OA
BRANCH   4   6
ATOM      6  C   UNL A   1      31.570  27.101  25.483  1.00  0.00     0.162 C 
ATOM      7  N   UNL A   1      31.342  24.960  26.543  1.00  0.00    -0.328 N 
ATOM      8  C   UNL A   1      30.076  25.266  25.887  1.00  0.00     0.267 C 
ATOM      9  C   UNL A   1      32.223  26.116  26.444  1.00  0.00     0.278 C 
ATOM     10  H   UNL A   1      31.143  24.813  27.533  1.00  0.00     0.348 HD
ATOM     11  C   UNL A   1      30.334  26.407  24.896  1.00  0.00     0.061 C 
ATOM     12  C   UNL A   1      30.368  25.914  23.457  1.00  0.00     0.015 C 
BRANCH   7  13
ATOM     13  C   UNL A   1      31.928  23.631  26.326  1.00  0.00     0.215 C 
ATOM     14  C   UNL A   1      32.165  22.899  27.659  1.00  0.00     0.081 C 
BRANCH  13  15
ATOM     15  C   UNL A   1      33.128  23.599  25.393  1.00  0.00     0.048 A 
ATOM     16  C   UNL A   1      36.699  22.978  23.021  1.00  0.00     0.047 C 
ATOM     17  C   UNL A   1      35.465  23.286  23.809  1.00  0.00    -0.012 A 
ATOM     18  C   UNL A   1      34.197  23.076  23.259  1.00  0.00     0.046 A 
ATOM     19  C   UNL A   1      35.548  23.694  25.140  1.00  0.00     0.126 A 
ATOM     20  C   UNL A   1      33.051  23.248  24.039  1.00  0.00     0.132 A 
ATOM     21  C   UNL A   1      34.406  23.855  25.923  1.00  0.00     0.052 A 
ATOM     22  F   UNL A   1      36.748  23.900  25.702  1.00  0.00    -0.207 F 
ATOM     23  F   UNL A   1      31.872  23.025  23.448  1.00  0.00    -0.206 F 
ENDBRANCH  13  15
ENDBRANCH   7  13
ENDBRANCH   4   6
ENDBRANCH   3   4
ENDBRANCH   2   3
ENDBRANCH   1   2
BRANCH   1  24
ATOM     24  O   UNL A   1      33.191  30.669  26.617  1.00  0.00    -0.458 OA
BRANCH  24  25
ATOM     25  C   UNL A   1      33.671  31.646  27.418  1.00  0.00     0.338 C 
ATOM     26  O   UNL A   1      33.070  32.637  27.816  1.00  0.00    -0.246 OA
BRANCH  25  27
ATOM     27  C   UNL A   1      35.005  31.281  27.905  1.00  0.00     0.060 A 
ATOM     28  C   UNL A   1      36.019  32.227  28.040  1.00  0.00     0.016 A 
ATOM     29  C   UNL A   1      35.209  29.960  28.312  1.00  0.00     0.016 A 
ATOM     30  C   UNL A   1      37.247  31.830  28.576  1.00  0.00     0.010 A 
ATOM     31  C   UNL A   1      36.432  29.561  28.836  1.00  0.00     0.010 A 
ATOM     32  C   UNL A   1      37.461  30.496  28.975  1.00  0.00    -0.014 A 
BRANCH  32  33
ATOM     33  C   UNL A   1      38.718  30.102  29.646  1.00  0.00     0.031 A 
ATOM     34  C   UNL A   1      39.079  30.636  31.000  1.00  0.00     0.074 A 
ATOM     35  C   UNL A   1      39.565  29.290  28.987  1.00  0.00     0.049 A 
ATOM     36  N   UNL A   1      40.052  30.263  31.788  1.00  0.00    -0.248 NA
ATOM     37  C   UNL A   1      38.265  31.741  31.533  1.00  0.00     0.031 C 
ATOM     38  C   UNL A   1      39.384  28.835  27.606  1.00  0.00     0.029 A 
ATOM     39  N   UNL A   1      40.737  28.700  29.382  1.00  0.00    -0.354 N 
ATOM     40  C   UNL A   1      39.972  31.081  32.906  1.00  0.00     0.074 A 
ATOM     41  C   UNL A   1      38.880  32.002  32.680  1.00  0.00     0.031 C 
ATOM     42  C   UNL A   1      40.382  27.995  27.288  1.00  0.00     0.029 A 
ATOM     43  C   UNL A   1      41.262  27.846  28.442  1.00  0.00     0.049 A 
ATOM     44  H   UNL A   1      41.160  28.871  30.255  1.00  0.00     0.167 HD
ATOM     45  C   UNL A   1      40.716  31.033  34.035  1.00  0.00     0.034 A 
ATOM     46  C   UNL A   1      42.305  26.997  28.522  1.00  0.00     0.034 A 
ATOM     47  C   UNL A   1      41.767  30.078  34.257  1.00  0.00     0.049 A 
ATOM     48  C   UNL A   1      43.048  26.880  29.821  1.00  0.00     0.074 A 
ATOM     49  C   UNL A   1      42.508  29.867  35.406  1.00  0.00     0.029 A 
ATOM     50  N   UNL A   1      42.223  29.175  33.310  1.00  0.00    -0.354 N 
ATOM     51  N   UNL A   1      42.834  27.521  30.946  1.00  0.00    -0.248 NA
ATOM     52  C   UNL A   1      44.142  25.903  29.883  1.00  0.00     0.031 C 
ATOM     53  C   UNL A   1      43.413  28.832  35.154  1.00  0.00     0.029 A 
ATOM     54  C   UNL A   1      43.233  28.401  33.847  1.00  0.00     0.049 A 
ATOM     55  H   UNL A   1      41.878  29.095  32.391  1.00  0.00     0.167 HD
ATOM     56  C   UNL A   1      43.752  27.013  31.855  1.00  0.00     0.074 A 
ATOM     57  C   UNL A   1      44.517  26.001  31.154  1.00  0.00     0.031 C 
ATOM     58  C   UNL A   1      43.950  27.365  33.147  1.00  0.00     0.034 A 
BRANCH  45  59
ATOM     59  C   UNL A   1      40.356  31.957  35.164  1.00  0.00     0.023 A 
ATOM     60  C   UNL A   1      41.038  33.186  35.273  1.00  0.00     0.012 A 
ATOM     61  C   UNL A   1      39.287  31.678  36.039  1.00  0.00     0.148 A 
ATOM     62  C   UNL A   1      40.674  34.119  36.241  1.00  0.00     0.002 A 
ATOM     63  C   UNL A   1      38.911  32.625  36.985  1.00  0.00     0.091 A 
ATOM     64  F   UNL A   1      38.657  30.501  35.921  1.00  0.00    -0.205 F 
ATOM     65  C   UNL A   1      39.606  33.844  37.090  1.00  0.00     0.022 A 
BRANCH  63  66
ATOM     66  S   UNL A   1      37.516  32.401  38.095  1.00  0.00     0.127 S 
ATOM     67  O   UNL A   1      37.998  33.054  39.311  1.00  0.00    -0.237 OA
ATOM     68  O   UNL A   1      36.451  33.121  37.397  1.00  0.00    -0.237 OA
ATOM     69  O   UNL A   1      37.313  30.963  38.204  1.00  0.00    -0.744 OA
ENDBRANCH  63  66
ENDBRANCH  45  59
BRANCH  46  70
ATOM     70  C   UNL A   1      42.579  26.089  27.376  1.00  0.00     0.023 A 
ATOM     71  C   UNL A   1      43.448  26.526  26.357  1.00  0.00     0.012 A 
ATOM     72  C   UNL A   1      42.089  24.770  27.348  1.00  0.00     0.148 A 
ATOM     73  C   UNL A   1      43.823  25.665  25.326  1.00  0.00     0.002 A 
ATOM     74  C   UNL A   1      42.494  23.906  26.337  1.00  0.00     0.091 A 
ATOM     75  F   UNL A   1      41.266  24.379  28.332  1.00  0.00    -0.205 F 
ATOM     76  C   UNL A   1      43.355  24.354  25.322  1.00  0.00     0.022 A 
BRANCH  74  77
ATOM     77  S   UNL A   1      42.037  22.169  26.302  1.00  0.00     0.127 S 
ATOM     78  O   UNL A   1      40.587  22.245  26.143  1.00  0.00    -0.237 OA
ATOM     79  O   UNL A   1      42.762  21.691  25.125  1.00  0.00    -0.237 OA
ATOM     80  O   UNL A   1      42.502  21.612  27.565  1.00  0.00    -0.744 OA
ENDBRANCH  74  77
ENDBRANCH  46  70
BRANCH  58  81
ATOM     81  C   UNL A   1      45.037  26.671  33.916  1.00  0.00     0.023 A 
ATOM     82  C   UNL A   1      46.338  27.208  33.889  1.00  0.00     0.012 A 
ATOM     83  C   UNL A   1      44.732  25.614  34.795  1.00  0.00     0.148 A 
ATOM     84  C   UNL A   1      47.324  26.705  34.735  1.00  0.00     0.002 A 
ATOM     85  C   UNL A   1      45.712  25.139  35.657  1.00  0.00     0.091 A 
ATOM     86  F   UNL A   1      43.483  25.128  34.797  1.00  0.00    -0.205 F 
ATOM     87  C   UNL A   1      47.008  25.682  35.627  1.00  0.00     0.022 A 
BRANCH  85  88
ATOM     88  S   UNL A   1      45.387  23.880  36.897  1.00  0.00     0.127 S 
ATOM     89  O   UNL A   1      44.392  24.542  37.740  1.00  0.00    -0.237 OA
ATOM     90  O   UNL A   1      44.867  22.779  36.087  1.00  0.00    -0.237 OA
ATOM     91  O   UNL A   1      46.662  23.614  37.548  1.00  0.00    -0.744 OA
ENDBRANCH  85  88
ENDBRANCH  58  81
ENDBRANCH  32  33
ENDBRANCH  25  27
ENDBRANCH  24  25
ENDBRANCH   1  24
TORSDOF 16
ENDMDL
