MODEL 1
REMARK VINA RESULT:     -11.9      0.000      0.000
REMARK SMILES C[C@@H](Nc1cccc(Cl)c1)[C@@H](C)C(=O)OCCOC(=O)c1ccc(-c2c3nc(c(-c4cccc(S(=O)(=O)[O-])c4F)c4ccc([nH]4)c(-c4cccc(S(=O)(=O)[O-])c4F)c4nc(c(-c5cccc(S(=O)(=O)[O-])c5F)c5ccc2[nH]5)C=C4)C=C3)cc1
REMARK SMILES IDX 16 1 15 2 13 3 14 4 11 5 12 6 2 7 1 8 3 9 4 11 5 12 10 13
REMARK SMILES IDX 6 14 8 15 7 16 9 17 17 18 18 19 19 20 20 21 21 22 22 23
REMARK SMILES IDX 83 24 23 25 82 26 24 27 25 28 26 29 76 30 27 31 81 32 75 33
REMARK SMILES IDX 77 34 28 35 80 36 74 37 73 38 29 40 61 41 41 42 60 43 42 44
REMARK SMILES IDX 45 45 59 46 78 47 43 48 44 49 58 51 79 52 46 53 30 54 31 55
REMARK SMILES IDX 39 56 32 57 34 58 40 59 33 60 35 61 36 62 37 63 38 64 62 65
REMARK SMILES IDX 63 66 71 67 64 68 66 69 72 70 65 71 67 72 68 73 69 74 70 75
REMARK SMILES IDX 47 76 48 77 56 78 49 79 51 80 57 81 50 82 52 83 53 84 54 85
REMARK SMILES IDX 55 86
REMARK H PARENT 3 10 77 39 45 50
REMARK Flexibility Score: inf
ROOT
ATOM      1  C   UNL A   1      30.903  27.525  25.261  1.00  0.00     0.274 C 
ENDROOT
BRANCH   1   2
ATOM      2  O   UNL A   1      30.361  28.360  24.211  1.00  0.00    -0.462 OA
BRANCH   2   3
ATOM      3  C   UNL A   1      30.651  28.006  22.931  1.00  0.00     0.310 C 
ATOM      4  O   UNL A   1      30.055  28.446  21.954  1.00  0.00    -0.252 OA
BRANCH   3   5
ATOM      5  C   UNL A   1      31.889  27.103  22.814  1.00  0.00     0.118 C 
ATOM      6  C   UNL A   1      33.057  28.001  22.393  1.00  0.00     0.022 C 
BRANCH   5   7
ATOM      7  C   UNL A   1      31.654  25.865  21.924  1.00  0.00     0.090 C 
ATOM      8  C   UNL A   1      32.825  25.566  20.963  1.00  0.00     0.031 C 
BRANCH   7   9
ATOM      9  N   UNL A   1      31.453  24.605  22.654  1.00  0.00    -0.382 N 
ATOM     10  H   UNL A   1      30.541  24.244  22.570  1.00  0.00     0.160 HD
BRANCH   9  11
ATOM     11  C   UNL A   1      32.286  23.823  23.435  1.00  0.00     0.036 A 
ATOM     12  C   UNL A   1      33.545  24.443  24.627  1.00  0.00     0.026 A 
ATOM     13  C   UNL A   1      32.176  22.033  23.119  1.00  0.00     0.046 A 
ATOM     14  C   UNL A   1      34.540  23.262  25.617  1.00  0.00     0.004 A 
ATOM     15  C   UNL A   1      33.063  20.872  24.196  1.00  0.00     0.043 A 
ATOM     16  C   UNL A   1      34.174  21.490  25.504  1.00  0.00     0.020 A 
ATOM     17  Cl  UNL A   1      32.884  19.178  23.947  1.00  0.00    -0.084 Cl
ENDBRANCH   9  11
ENDBRANCH   7   9
ENDBRANCH   5   7
ENDBRANCH   3   5
ENDBRANCH   2   3
ENDBRANCH   1   2
BRANCH   1  18
ATOM     18  C   UNL A   1      31.918  28.349  26.068  1.00  0.00     0.275 C 
BRANCH  18  19
ATOM     19  O   UNL A   1      31.645  29.744  25.794  1.00  0.00    -0.458 OA
BRANCH  19  20
ATOM     20  C   UNL A   1      32.312  30.831  26.572  1.00  0.00     0.338 C 
ATOM     21  O   UNL A   1      31.425  31.729  26.523  1.00  0.00    -0.246 OA
BRANCH  20  22
ATOM     22  C   UNL A   1      34.270  30.732  27.457  1.00  0.00     0.060 A 
ATOM     23  C   UNL A   1      35.297  31.868  27.718  1.00  0.00     0.016 A 
ATOM     24  C   UNL A   1      35.020  29.566  28.059  1.00  0.00     0.016 A 
ATOM     25  C   UNL A   1      36.546  31.864  28.360  1.00  0.00     0.010 A 
ATOM     26  C   UNL A   1      36.236  29.549  28.759  1.00  0.00     0.010 A 
ATOM     27  C   UNL A   1      36.994  30.692  28.895  1.00  0.00    -0.014 A 
BRANCH  27  28
ATOM     28  C   UNL A   1      38.279  30.573  29.567  1.00  0.00     0.031 A 
ATOM     29  C   UNL A   1      39.263  29.629  28.964  1.00  0.00     0.074 A 
ATOM     30  C   UNL A   1      38.387  31.118  30.787  1.00  0.00     0.049 A 
ATOM     31  N   UNL A   1      40.320  29.099  29.499  1.00  0.00    -0.248 NA
ATOM     32  C   UNL A   1      38.965  29.155  27.597  1.00  0.00     0.031 C 
ATOM     33  C   UNL A   1      37.376  31.976  31.419  1.00  0.00     0.029 A 
ATOM     34  N   UNL A   1      39.341  30.957  31.746  1.00  0.00    -0.354 N 
ATOM     35  C   UNL A   1      40.781  28.183  28.565  1.00  0.00     0.074 A 
ATOM     36  C   UNL A   1      39.873  28.204  27.443  1.00  0.00     0.031 C 
ATOM     37  C   UNL A   1      37.743  32.224  32.685  1.00  0.00     0.029 A 
ATOM     38  C   UNL A   1      38.988  31.517  32.951  1.00  0.00     0.049 A 
ATOM     39  H   UNL A   1      40.194  30.489  31.593  1.00  0.00     0.167 HD
ATOM     40  C   UNL A   1      41.879  27.403  28.657  1.00  0.00     0.034 A 
ATOM     41  C   UNL A   1      39.601  31.420  34.142  1.00  0.00     0.034 A 
ATOM     42  C   UNL A   1      42.732  27.431  29.812  1.00  0.00     0.049 A 
ATOM     43  C   UNL A   1      40.856  30.598  34.195  1.00  0.00     0.074 A 
ATOM     44  C   UNL A   1      43.937  26.792  30.015  1.00  0.00     0.029 A 
ATOM     45  N   UNL A   1      42.442  28.134  30.977  1.00  0.00    -0.354 N 
ATOM     46  N   UNL A   1      41.395  29.860  33.249  1.00  0.00    -0.248 NA
ATOM     47  C   UNL A   1      41.612  30.627  35.448  1.00  0.00     0.031 C 
ATOM     48  C   UNL A   1      44.353  27.074  31.321  1.00  0.00     0.029 A 
ATOM     49  C   UNL A   1      43.437  27.936  31.911  1.00  0.00     0.049 A 
ATOM     50  H   UNL A   1      41.642  28.693  31.113  1.00  0.00     0.167 HD
ATOM     51  C   UNL A   1      42.573  29.361  33.780  1.00  0.00     0.074 A 
ATOM     52  C   UNL A   1      42.677  29.906  35.124  1.00  0.00     0.031 C 
ATOM     53  C   UNL A   1      43.487  28.525  33.226  1.00  0.00     0.034 A 
BRANCH  40  54
ATOM     54  C   UNL A   1      42.209  26.505  27.494  1.00  0.00     0.023 A 
ATOM     55  C   UNL A   1      42.905  27.020  26.379  1.00  0.00     0.012 A 
ATOM     56  C   UNL A   1      41.854  25.142  27.510  1.00  0.00     0.148 A 
ATOM     57  C   UNL A   1      43.203  26.209  25.284  1.00  0.00     0.002 A 
ATOM     58  C   UNL A   1      42.205  24.326  26.441  1.00  0.00     0.091 A 
ATOM     59  F   UNL A   1      41.169  24.672  28.562  1.00  0.00    -0.205 F 
ATOM     60  C   UNL A   1      42.865  24.861  25.322  1.00  0.00     0.022 A 
BRANCH  58  61
ATOM     61  S   UNL A   1      41.889  22.559  26.422  1.00  0.00     0.127 S 
ATOM     62  O   UNL A   1      40.429  22.520  26.346  1.00  0.00    -0.237 OA
ATOM     63  O   UNL A   1      42.574  22.144  25.198  1.00  0.00    -0.237 OA
ATOM     64  O   UNL A   1      42.458  22.031  27.654  1.00  0.00    -0.744 OA
ENDBRANCH  58  61
ENDBRANCH  40  54
BRANCH  41  65
ATOM     65  C   UNL A   1      39.079  32.170  35.314  1.00  0.00     0.023 A 
ATOM     66  C   UNL A   1      39.116  33.577  35.294  1.00  0.00     0.012 A 
ATOM     67  C   UNL A   1      38.483  31.513  36.409  1.00  0.00     0.148 A 
ATOM     68  C   UNL A   1      38.603  34.318  36.359  1.00  0.00     0.002 A 
ATOM     69  C   UNL A   1      37.931  32.259  37.445  1.00  0.00     0.091 A 
ATOM     70  F   UNL A   1      38.444  30.174  36.401  1.00  0.00    -0.205 F 
ATOM     71  C   UNL A   1      38.005  33.660  37.430  1.00  0.00     0.022 A 
BRANCH  69  72
ATOM     72  S   UNL A   1      37.032  31.508  38.808  1.00  0.00     0.127 S 
ATOM     73  O   UNL A   1      35.825  32.328  38.855  1.00  0.00    -0.237 OA
ATOM     74  O   UNL A   1      36.832  30.143  38.319  1.00  0.00    -0.237 OA
ATOM     75  O   UNL A   1      37.910  31.610  39.966  1.00  0.00    -0.744 OA
ENDBRANCH  69  72
ENDBRANCH  41  65
BRANCH  53  76
ATOM     76  C   UNL A   1      44.680  28.185  34.072  1.00  0.00     0.023 A 
ATOM     77  C   UNL A   1      45.830  28.996  34.025  1.00  0.00     0.012 A 
ATOM     78  C   UNL A   1      44.625  27.095  34.960  1.00  0.00     0.148 A 
ATOM     79  C   UNL A   1      46.931  28.697  34.821  1.00  0.00     0.002 A 
ATOM     80  C   UNL A   1      45.699  26.843  35.796  1.00  0.00     0.091 A 
ATOM     81  F   UNL A   1      43.520  26.336  34.973  1.00  0.00    -0.205 F 
ATOM     82  C   UNL A   1      46.860  27.630  35.716  1.00  0.00     0.022 A 
BRANCH  80  83
ATOM     83  S   UNL A   1      45.658  25.563  37.052  1.00  0.00     0.127 S 
ATOM     84  O   UNL A   1      46.980  25.702  37.660  1.00  0.00    -0.237 OA
ATOM     85  O   UNL A   1      44.546  26.001  37.896  1.00  0.00    -0.237 OA
ATOM     86  O   UNL A   1      45.429  24.309  36.346  1.00  0.00    -0.744 OA
ENDBRANCH  80  83
ENDBRANCH  53  76
ENDBRANCH  27  28
ENDBRANCH  20  22
ENDBRANCH  19  20
ENDBRANCH  18  19
ENDBRANCH   1  18
TORSDOF 17
ENDMDL
MODEL 2
REMARK VINA RESULT:     -11.8      1.715      2.237
REMARK SMILES C[C@@H](Nc1cccc(Cl)c1)[C@@H](C)C(=O)OCCOC(=O)c1ccc(-c2c3nc(c(-c4cccc(S(=O)(=O)[O-])c4F)c4ccc([nH]4)c(-c4cccc(S(=O)(=O)[O-])c4F)c4nc(c(-c5cccc(S(=O)(=O)[O-])c5F)c5ccc2[nH]5)C=C4)C=C3)cc1
REMARK SMILES IDX 16 1 15 2 13 3 14 4 11 5 12 6 2 7 1 8 3 9 4 11 5 12 10 13
REMARK SMILES IDX 6 14 8 15 7 16 9 17 17 18 18 19 19 20 20 21 21 22 22 23
REMARK SMILES IDX 83 24 23 25 82 26 24 27 25 28 26 29 76 30 27 31 81 32 75 33
REMARK SMILES IDX 77 34 28 35 80 36 74 37 73 38 29 40 61 41 41 42 60 43 42 44
REMARK SMILES IDX 45 45 59 46 78 47 43 48 44 49 58 51 79 52 46 53 30 54 31 55
REMARK SMILES IDX 39 56 32 57 34 58 40 59 33 60 35 61 36 62 37 63 38 64 62 65
REMARK SMILES IDX 63 66 71 67 64 68 66 69 72 70 65 71 67 72 68 73 69 74 70 75
REMARK SMILES IDX 47 76 48 77 56 78 49 79 51 80 57 81 50 82 52 83 53 84 54 85
REMARK SMILES IDX 55 86
REMARK H PARENT 3 10 77 39 45 50
REMARK Flexibility Score: inf
ROOT
ATOM      1  C   UNL A   1      31.500  28.197  24.237  1.00  0.00     0.274 C 
ENDROOT
BRANCH   1   2
ATOM      2  O   UNL A   1      31.285  27.507  25.491  1.00  0.00    -0.462 OA
BRANCH   2   3
ATOM      3  C   UNL A   1      30.567  26.354  25.443  1.00  0.00     0.310 C 
ATOM      4  O   UNL A   1      30.251  25.709  26.437  1.00  0.00    -0.252 OA
BRANCH   3   5
ATOM      5  C   UNL A   1      30.068  26.005  24.032  1.00  0.00     0.118 C 
ATOM      6  C   UNL A   1      28.548  26.203  24.034  1.00  0.00     0.022 C 
BRANCH   5   7
ATOM      7  C   UNL A   1      30.552  24.625  23.542  1.00  0.00     0.090 C 
ATOM      8  C   UNL A   1      31.744  24.699  22.564  1.00  0.00     0.031 C 
BRANCH   7   9
ATOM      9  N   UNL A   1      31.009  23.715  24.603  1.00  0.00    -0.382 N 
ATOM     10  H   UNL A   1      30.401  23.675  25.376  1.00  0.00     0.160 HD
BRANCH   9  11
ATOM     11  C   UNL A   1      32.122  22.903  24.734  1.00  0.00     0.036 A 
ATOM     12  C   UNL A   1      32.190  21.098  24.377  1.00  0.00     0.026 A 
ATOM     13  C   UNL A   1      33.586  23.716  25.451  1.00  0.00     0.046 A 
ATOM     14  C   UNL A   1      33.765  20.177  24.564  1.00  0.00     0.004 A 
ATOM     15  C   UNL A   1      35.171  22.834  25.504  1.00  0.00     0.043 A 
ATOM     16  C   UNL A   1      35.277  21.091  24.973  1.00  0.00     0.020 A 
ATOM     17  Cl  UNL A   1      36.570  23.639  26.101  1.00  0.00    -0.084 Cl
ENDBRANCH   9  11
ENDBRANCH   7   9
ENDBRANCH   5   7
ENDBRANCH   3   5
ENDBRANCH   2   3
ENDBRANCH   1   2
BRANCH   1  18
ATOM     18  C   UNL A   1      31.883  29.654  24.540  1.00  0.00     0.275 C 
BRANCH  18  19
ATOM     19  O   UNL A   1      31.672  29.863  25.957  1.00  0.00    -0.458 OA
BRANCH  19  20
ATOM     20  C   UNL A   1      32.380  30.953  26.693  1.00  0.00     0.338 C 
ATOM     21  O   UNL A   1      31.517  31.873  26.632  1.00  0.00    -0.246 OA
BRANCH  20  22
ATOM     22  C   UNL A   1      34.350  30.827  27.549  1.00  0.00     0.060 A 
ATOM     23  C   UNL A   1      35.421  31.935  27.736  1.00  0.00     0.016 A 
ATOM     24  C   UNL A   1      35.068  29.665  28.198  1.00  0.00     0.016 A 
ATOM     25  C   UNL A   1      36.681  31.918  28.357  1.00  0.00     0.010 A 
ATOM     26  C   UNL A   1      36.296  29.639  28.877  1.00  0.00     0.010 A 
ATOM     27  C   UNL A   1      37.096  30.758  28.943  1.00  0.00    -0.014 A 
BRANCH  27  28
ATOM     28  C   UNL A   1      38.389  30.626  29.598  1.00  0.00     0.031 A 
ATOM     29  C   UNL A   1      39.352  29.667  28.988  1.00  0.00     0.074 A 
ATOM     30  C   UNL A   1      38.519  31.175  30.815  1.00  0.00     0.049 A 
ATOM     31  N   UNL A   1      40.409  29.125  29.511  1.00  0.00    -0.248 NA
ATOM     32  C   UNL A   1      39.031  29.190  27.626  1.00  0.00     0.031 C 
ATOM     33  C   UNL A   1      37.528  32.049  31.455  1.00  0.00     0.029 A 
ATOM     34  N   UNL A   1      39.483  31.007  31.762  1.00  0.00    -0.354 N 
ATOM     35  C   UNL A   1      40.847  28.199  28.576  1.00  0.00     0.074 A 
ATOM     36  C   UNL A   1      39.924  28.226  27.466  1.00  0.00     0.031 C 
ATOM     37  C   UNL A   1      37.915  32.298  32.715  1.00  0.00     0.029 A 
ATOM     38  C   UNL A   1      39.154  31.577  32.968  1.00  0.00     0.049 A 
ATOM     39  H   UNL A   1      40.328  30.527  31.599  1.00  0.00     0.167 HD
ATOM     40  C   UNL A   1      41.936  27.405  28.658  1.00  0.00     0.034 A 
ATOM     41  C   UNL A   1      39.781  31.478  34.152  1.00  0.00     0.034 A 
ATOM     42  C   UNL A   1      42.804  27.428  29.801  1.00  0.00     0.049 A 
ATOM     43  C   UNL A   1      41.026  30.640  34.192  1.00  0.00     0.074 A 
ATOM     44  C   UNL A   1      44.003  26.775  29.992  1.00  0.00     0.029 A 
ATOM     45  N   UNL A   1      42.538  28.140  30.966  1.00  0.00    -0.354 N 
ATOM     46  N   UNL A   1      41.543  29.891  33.244  1.00  0.00    -0.248 NA
ATOM     47  C   UNL A   1      41.798  30.665  35.436  1.00  0.00     0.031 C 
ATOM     48  C   UNL A   1      44.439  27.058  31.290  1.00  0.00     0.029 A 
ATOM     49  C   UNL A   1      43.542  27.934  31.888  1.00  0.00     0.049 A 
ATOM     50  H   UNL A   1      41.747  28.710  31.110  1.00  0.00     0.167 HD
ATOM     51  C   UNL A   1      42.721  29.379  33.761  1.00  0.00     0.074 A 
ATOM     52  C   UNL A   1      42.850  29.929  35.101  1.00  0.00     0.031 C 
ATOM     53  C   UNL A   1      43.617  28.528  33.200  1.00  0.00     0.034 A 
BRANCH  40  54
ATOM     54  C   UNL A   1      42.239  26.497  27.495  1.00  0.00     0.023 A 
ATOM     55  C   UNL A   1      42.964  26.987  26.387  1.00  0.00     0.012 A 
ATOM     56  C   UNL A   1      41.829  25.150  27.504  1.00  0.00     0.148 A 
ATOM     57  C   UNL A   1      43.238  26.167  25.292  1.00  0.00     0.002 A 
ATOM     58  C   UNL A   1      42.156  24.324  26.436  1.00  0.00     0.091 A 
ATOM     59  F   UNL A   1      41.117  24.706  28.549  1.00  0.00    -0.205 F 
ATOM     60  C   UNL A   1      42.846  24.834  25.323  1.00  0.00     0.022 A 
BRANCH  58  61
ATOM     61  S   UNL A   1      41.769  22.570  26.409  1.00  0.00     0.127 S 
ATOM     62  O   UNL A   1      42.433  22.139  25.180  1.00  0.00    -0.237 OA
ATOM     63  O   UNL A   1      42.405  22.103  27.641  1.00  0.00    -0.237 OA
ATOM     64  O   UNL A   1      40.317  22.475  26.394  1.00  0.00    -0.744 OA
ENDBRANCH  58  61
ENDBRANCH  40  54
BRANCH  41  65
ATOM     65  C   UNL A   1      39.283  32.240  35.327  1.00  0.00     0.023 A 
ATOM     66  C   UNL A   1      38.346  31.633  36.185  1.00  0.00     0.012 A 
ATOM     67  C   UNL A   1      39.778  33.519  35.644  1.00  0.00     0.148 A 
ATOM     68  C   UNL A   1      37.881  32.301  37.318  1.00  0.00     0.002 A 
ATOM     69  C   UNL A   1      39.347  34.160  36.801  1.00  0.00     0.091 A 
ATOM     70  F   UNL A   1      40.682  34.072  34.823  1.00  0.00    -0.205 F 
ATOM     71  C   UNL A   1      38.386  33.560  37.629  1.00  0.00     0.022 A 
BRANCH  69  72
ATOM     72  S   UNL A   1      40.027  35.729  37.351  1.00  0.00     0.127 S 
ATOM     73  O   UNL A   1      41.457  35.434  37.393  1.00  0.00    -0.237 OA
ATOM     74  O   UNL A   1      39.615  36.630  36.273  1.00  0.00    -0.237 OA
ATOM     75  O   UNL A   1      39.403  36.003  38.638  1.00  0.00    -0.744 OA
ENDBRANCH  69  72
ENDBRANCH  41  65
BRANCH  53  76
ATOM     76  C   UNL A   1      44.816  28.177  34.031  1.00  0.00     0.023 A 
ATOM     77  C   UNL A   1      45.944  29.021  34.033  1.00  0.00     0.012 A 
ATOM     78  C   UNL A   1      44.790  27.040  34.860  1.00  0.00     0.148 A 
ATOM     79  C   UNL A   1      47.050  28.711  34.818  1.00  0.00     0.002 A 
ATOM     80  C   UNL A   1      45.868  26.774  35.686  1.00  0.00     0.091 A 
ATOM     81  F   UNL A   1      43.706  26.251  34.827  1.00  0.00    -0.205 F 
ATOM     82  C   UNL A   1      47.007  27.596  35.653  1.00  0.00     0.022 A 
BRANCH  80  83
ATOM     83  S   UNL A   1      45.859  25.427  36.871  1.00  0.00     0.127 S 
ATOM     84  O   UNL A   1      44.539  25.578  37.481  1.00  0.00    -0.237 OA
ATOM     85  O   UNL A   1      46.003  24.258  36.003  1.00  0.00    -0.237 OA
ATOM     86  O   UNL A   1      46.985  25.664  37.765  1.00  0.00    -0.744 OA
ENDBRANCH  80  83
ENDBRANCH  53  76
ENDBRANCH  27  28
ENDBRANCH  20  22
ENDBRANCH  19  20
ENDBRANCH  18  19
ENDBRANCH   1  18
TORSDOF 17
ENDMDL
MODEL 3
REMARK VINA RESULT:     -11.7      5.637     10.465
REMARK SMILES C[C@@H](Nc1cccc(Cl)c1)[C@@H](C)C(=O)OCCOC(=O)c1ccc(-c2c3nc(c(-c4cccc(S(=O)(=O)[O-])c4F)c4ccc([nH]4)c(-c4cccc(S(=O)(=O)[O-])c4F)c4nc(c(-c5cccc(S(=O)(=O)[O-])c5F)c5ccc2[nH]5)C=C4)C=C3)cc1
REMARK SMILES IDX 16 1 15 2 13 3 14 4 11 5 12 6 2 7 1 8 3 9 4 11 5 12 10 13
REMARK SMILES IDX 6 14 8 15 7 16 9 17 17 18 18 19 19 20 20 21 21 22 22 23
REMARK SMILES IDX 83 24 23 25 82 26 24 27 25 28 26 29 76 30 27 31 81 32 75 33
REMARK SMILES IDX 77 34 28 35 80 36 74 37 73 38 29 40 61 41 41 42 60 43 42 44
REMARK SMILES IDX 45 45 59 46 78 47 43 48 44 49 58 51 79 52 46 53 30 54 31 55
REMARK SMILES IDX 39 56 32 57 34 58 40 59 33 60 35 61 36 62 37 63 38 64 62 65
REMARK SMILES IDX 63 66 71 67 64 68 66 69 72 70 65 71 67 72 68 73 69 74 70 75
REMARK SMILES IDX 47 76 48 77 56 78 49 79 51 80 57 81 50 82 52 83 53 84 54 85
REMARK SMILES IDX 55 86
REMARK H PARENT 3 10 77 39 45 50
REMARK Flexibility Score: inf
ROOT
ATOM      1  C   UNL A   1      35.002  22.203  24.205  1.00  0.00     0.274 C 
ENDROOT
BRANCH   1   2
ATOM      2  O   UNL A   1      33.612  22.393  23.846  1.00  0.00    -0.462 OA
BRANCH   2   3
ATOM      3  C   UNL A   1      32.795  22.911  24.800  1.00  0.00     0.310 C 
ATOM      4  O   UNL A   1      31.571  22.860  24.745  1.00  0.00    -0.252 OA
BRANCH   3   5
ATOM      5  C   UNL A   1      33.552  23.448  26.024  1.00  0.00     0.118 C 
ATOM      6  C   UNL A   1      33.009  22.701  27.247  1.00  0.00     0.022 C 
BRANCH   5   7
ATOM      7  C   UNL A   1      33.525  24.987  26.126  1.00  0.00     0.090 C 
ATOM      8  C   UNL A   1      34.346  25.694  25.026  1.00  0.00     0.031 C 
BRANCH   7   9
ATOM      9  N   UNL A   1      32.189  25.593  26.027  1.00  0.00    -0.382 N 
ATOM     10  H   UNL A   1      31.512  25.144  26.583  1.00  0.00     0.160 HD
BRANCH   9  11
ATOM     11  C   UNL A   1      31.691  26.666  25.310  1.00  0.00     0.036 A 
ATOM     12  C   UNL A   1      30.916  26.585  23.642  1.00  0.00     0.026 A 
ATOM     13  C   UNL A   1      31.972  28.296  26.074  1.00  0.00     0.046 A 
ATOM     14  C   UNL A   1      30.266  28.107  22.849  1.00  0.00     0.004 A 
ATOM     15  C   UNL A   1      31.209  29.774  25.349  1.00  0.00     0.043 A 
ATOM     16  C   UNL A   1      30.278  29.662  23.784  1.00  0.00     0.020 A 
ATOM     17  Cl  UNL A   1      31.405  31.298  26.126  1.00  0.00    -0.084 Cl
ENDBRANCH   9  11
ENDBRANCH   7   9
ENDBRANCH   5   7
ENDBRANCH   3   5
ENDBRANCH   2   3
ENDBRANCH   1   2
BRANCH   1  18
ATOM     18  C   UNL A   1      35.203  20.739  24.628  1.00  0.00     0.275 C 
BRANCH  18  19
ATOM     19  O   UNL A   1      36.173  20.739  25.703  1.00  0.00    -0.458 OA
BRANCH  19  20
ATOM     20  C   UNL A   1      37.619  21.002  25.441  1.00  0.00     0.338 C 
ATOM     21  O   UNL A   1      37.881  20.073  24.626  1.00  0.00    -0.246 OA
BRANCH  20  22
ATOM     22  C   UNL A   1      38.796  22.577  26.315  1.00  0.00     0.060 A 
ATOM     23  C   UNL A   1      40.032  22.487  27.251  1.00  0.00     0.016 A 
ATOM     24  C   UNL A   1      38.707  24.078  26.153  1.00  0.00     0.016 A 
ATOM     25  C   UNL A   1      40.874  23.479  27.780  1.00  0.00     0.010 A 
ATOM     26  C   UNL A   1      39.571  25.081  26.618  1.00  0.00     0.010 A 
ATOM     27  C   UNL A   1      40.638  24.778  27.434  1.00  0.00    -0.014 A 
BRANCH  27  28
ATOM     28  C   UNL A   1      41.439  25.884  27.937  1.00  0.00     0.031 A 
ATOM     29  C   UNL A   1      40.710  26.956  28.672  1.00  0.00     0.074 A 
ATOM     30  C   UNL A   1      42.702  25.979  27.494  1.00  0.00     0.049 A 
ATOM     31  N   UNL A   1      41.092  28.167  28.942  1.00  0.00    -0.248 NA
ATOM     32  C   UNL A   1      39.327  26.643  29.087  1.00  0.00     0.031 C 
ATOM     33  C   UNL A   1      43.392  24.962  26.691  1.00  0.00     0.029 A 
ATOM     34  N   UNL A   1      43.590  27.008  27.572  1.00  0.00    -0.354 N 
ATOM     35  C   UNL A   1      39.982  28.783  29.501  1.00  0.00     0.074 A 
ATOM     36  C   UNL A   1      38.902  27.826  29.502  1.00  0.00     0.031 C 
ATOM     37  C   UNL A   1      44.583  25.443  26.306  1.00  0.00     0.029 A 
ATOM     38  C   UNL A   1      44.715  26.803  26.808  1.00  0.00     0.049 A 
ATOM     39  H   UNL A   1      43.444  27.814  28.118  1.00  0.00     0.167 HD
ATOM     40  C   UNL A   1      39.898  30.046  29.972  1.00  0.00     0.034 A 
ATOM     41  C   UNL A   1      45.713  27.655  26.523  1.00  0.00     0.034 A 
ATOM     42  C   UNL A   1      41.017  30.945  29.928  1.00  0.00     0.049 A 
ATOM     43  C   UNL A   1      45.621  29.031  27.117  1.00  0.00     0.074 A 
ATOM     44  C   UNL A   1      41.132  32.211  30.462  1.00  0.00     0.029 A 
ATOM     45  N   UNL A   1      42.218  30.663  29.284  1.00  0.00    -0.354 N 
ATOM     46  N   UNL A   1      44.634  29.565  27.802  1.00  0.00    -0.248 NA
ATOM     47  C   UNL A   1      46.784  29.904  26.945  1.00  0.00     0.031 C 
ATOM     48  C   UNL A   1      42.388  32.712  30.101  1.00  0.00     0.029 A 
ATOM     49  C   UNL A   1      43.078  31.736  29.393  1.00  0.00     0.049 A 
ATOM     50  H   UNL A   1      42.423  29.820  28.819  1.00  0.00     0.167 HD
ATOM     51  C   UNL A   1      45.067  30.827  28.174  1.00  0.00     0.074 A 
ATOM     52  C   UNL A   1      46.419  30.962  27.656  1.00  0.00     0.031 C 
ATOM     53  C   UNL A   1      44.419  31.796  28.868  1.00  0.00     0.034 A 
BRANCH  40  54
ATOM     54  C   UNL A   1      38.592  30.491  30.575  1.00  0.00     0.023 A 
ATOM     55  C   UNL A   1      38.332  30.261  31.943  1.00  0.00     0.012 A 
ATOM     56  C   UNL A   1      37.628  31.161  29.796  1.00  0.00     0.148 A 
ATOM     57  C   UNL A   1      37.120  30.649  32.516  1.00  0.00     0.002 A 
ATOM     58  C   UNL A   1      36.448  31.596  30.388  1.00  0.00     0.091 A 
ATOM     59  F   UNL A   1      37.877  31.348  28.494  1.00  0.00    -0.205 F 
ATOM     60  C   UNL A   1      36.185  31.327  31.741  1.00  0.00     0.022 A 
BRANCH  58  61
ATOM     61  S   UNL A   1      35.211  32.549  29.501  1.00  0.00     0.127 S 
ATOM     62  O   UNL A   1      34.738  31.577  28.517  1.00  0.00    -0.237 OA
ATOM     63  O   UNL A   1      34.253  32.859  30.561  1.00  0.00    -0.237 OA
ATOM     64  O   UNL A   1      35.907  33.701  28.946  1.00  0.00    -0.744 OA
ENDBRANCH  58  61
ENDBRANCH  40  54
BRANCH  41  65
ATOM     65  C   UNL A   1      46.879  27.199  25.722  1.00  0.00     0.023 A 
ATOM     66  C   UNL A   1      47.750  26.240  26.272  1.00  0.00     0.012 A 
ATOM     67  C   UNL A   1      47.092  27.646  24.404  1.00  0.00     0.148 A 
ATOM     68  C   UNL A   1      48.835  25.760  25.539  1.00  0.00     0.002 A 
ATOM     69  C   UNL A   1      48.148  27.128  23.661  1.00  0.00     0.091 A 
ATOM     70  F   UNL A   1      46.242  28.548  23.893  1.00  0.00    -0.205 F 
ATOM     71  C   UNL A   1      49.030  26.198  24.232  1.00  0.00     0.022 A 
BRANCH  69  72
ATOM     72  S   UNL A   1      48.409  27.540  21.931  1.00  0.00     0.127 S 
ATOM     73  O   UNL A   1      47.153  28.203  21.591  1.00  0.00    -0.237 OA
ATOM     74  O   UNL A   1      49.573  28.424  22.006  1.00  0.00    -0.237 OA
ATOM     75  O   UNL A   1      48.656  26.273  21.255  1.00  0.00    -0.744 OA
ENDBRANCH  69  72
ENDBRANCH  41  65
BRANCH  53  76
ATOM     76  C   UNL A   1      45.186  33.061  29.123  1.00  0.00     0.023 A 
ATOM     77  C   UNL A   1      46.000  33.173  30.267  1.00  0.00     0.012 A 
ATOM     78  C   UNL A   1      45.144  34.110  28.187  1.00  0.00     0.148 A 
ATOM     79  C   UNL A   1      46.728  34.336  30.497  1.00  0.00     0.002 A 
ATOM     80  C   UNL A   1      45.922  35.237  28.390  1.00  0.00     0.091 A 
ATOM     81  F   UNL A   1      44.351  33.978  27.113  1.00  0.00    -0.205 F 
ATOM     82  C   UNL A   1      46.700  35.361  29.554  1.00  0.00     0.022 A 
BRANCH  80  83
ATOM     83  S   UNL A   1      46.034  36.558  27.181  1.00  0.00     0.127 S 
ATOM     84  O   UNL A   1      44.641  36.993  27.088  1.00  0.00    -0.237 OA
ATOM     85  O   UNL A   1      46.929  37.505  27.847  1.00  0.00    -0.237 OA
ATOM     86  O   UNL A   1      46.578  35.956  25.971  1.00  0.00    -0.744 OA
ENDBRANCH  80  83
ENDBRANCH  53  76
ENDBRANCH  27  28
ENDBRANCH  20  22
ENDBRANCH  19  20
ENDBRANCH  18  19
ENDBRANCH   1  18
TORSDOF 17
ENDMDL
