MODEL 1
REMARK VINA RESULT:     -12.0      0.000      0.000
REMARK SMILES C[C@@H](C(=O)OCCOC(=O)c1ccc(-c2c3nc(c(-c4cccc(S(=O)(=O)[O-])c4F)c4ccc([nH]4)c(-c4cccc(S(=O)(=O)[O-])c4F)c4nc(c(-c5cccc(S(=O)(=O)[O-])c5F)c5ccc2[nH]5)C=C4)C=C3)cc1)c1ccc(-c2ccccc2)c(F)c1
REMARK SMILES IDX 7 1 6 2 5 3 3 4 4 5 2 6 1 7 74 8 75 9 86 10 76 11 84 12
REMARK SMILES IDX 77 13 85 14 78 15 79 16 83 17 80 18 82 19 81 20 8 21 9 22
REMARK SMILES IDX 10 23 11 24 12 25 73 26 13 27 72 28 14 29 15 30 16 31 66 32
REMARK SMILES IDX 17 33 71 34 65 35 67 36 18 37 70 38 64 39 63 40 19 42 51 43
REMARK SMILES IDX 31 44 50 45 32 46 35 47 49 48 68 49 33 50 34 51 48 53 69 54
REMARK SMILES IDX 36 55 20 56 21 57 29 58 22 59 24 60 30 61 23 62 25 63 26 64
REMARK SMILES IDX 27 65 28 66 52 67 53 68 61 69 54 70 56 71 62 72 55 73 57 74
REMARK SMILES IDX 58 75 59 76 60 77 37 78 38 79 46 80 39 81 41 82 47 83 40 84
REMARK SMILES IDX 42 85 43 86 44 87 45 88
REMARK H PARENT 67 41 35 52
REMARK Flexibility Score: inf
ROOT
ATOM      1  C   UNL A   1      36.659  21.435  24.203  1.00  0.00     0.275 C 
ENDROOT
BRANCH   1   2
ATOM      2  C   UNL A   1      36.625  22.760  23.447  1.00  0.00     0.274 C 
BRANCH   2   3
ATOM      3  O   UNL A   1      35.332  22.953  22.839  1.00  0.00    -0.462 OA
BRANCH   3   4
ATOM      4  C   UNL A   1      34.287  23.198  23.679  1.00  0.00     0.313 C 
ATOM      5  O   UNL A   1      33.349  22.427  23.845  1.00  0.00    -0.252 OA
BRANCH   4   6
ATOM      6  C   UNL A   1      34.375  24.580  24.346  1.00  0.00     0.126 C 
ATOM      7  C   UNL A   1      34.659  24.504  25.851  1.00  0.00     0.025 C 
BRANCH   6   8
ATOM      8  C   UNL A   1      33.172  25.455  23.998  1.00  0.00    -0.031 A 
ATOM      9  C   UNL A   1      32.606  25.504  22.718  1.00  0.00     0.005 A 
ATOM     10  C   UNL A   1      32.623  26.296  24.977  1.00  0.00     0.044 A 
ATOM     11  C   UNL A   1      31.544  26.377  22.428  1.00  0.00     0.012 A 
ATOM     12  C   UNL A   1      31.562  27.161  24.680  1.00  0.00     0.131 A 
ATOM     13  C   UNL A   1      31.002  27.244  23.396  1.00  0.00     0.017 A 
ATOM     14  F   UNL A   1      31.103  27.929  25.680  1.00  0.00    -0.206 F 
BRANCH  13  15
ATOM     15  C   UNL A   1      29.958  28.237  23.030  1.00  0.00    -0.015 A 
ATOM     16  C   UNL A   1      28.600  28.031  23.347  1.00  0.00     0.009 A 
ATOM     17  C   UNL A   1      30.266  29.392  22.289  1.00  0.00     0.009 A 
ATOM     18  C   UNL A   1      27.603  28.917  22.919  1.00  0.00     0.001 A 
ATOM     19  C   UNL A   1      29.274  30.288  21.876  1.00  0.00     0.001 A 
ATOM     20  C   UNL A   1      27.941  30.044  22.179  1.00  0.00     0.000 A 
ENDBRANCH  13  15
ENDBRANCH   6   8
ENDBRANCH   4   6
ENDBRANCH   3   4
ENDBRANCH   2   3
ENDBRANCH   1   2
BRANCH   1  21
ATOM     21  O   UNL A   1      37.071  21.670  25.559  1.00  0.00    -0.458 OA
BRANCH  21  22
ATOM     22  C   UNL A   1      38.369  21.419  25.838  1.00  0.00     0.338 C 
ATOM     23  O   UNL A   1      38.983  20.381  25.643  1.00  0.00    -0.246 OA
BRANCH  22  24
ATOM     24  C   UNL A   1      38.982  22.622  26.421  1.00  0.00     0.060 A 
ATOM     25  C   UNL A   1      38.410  23.868  26.183  1.00  0.00     0.016 A 
ATOM     26  C   UNL A   1      40.194  22.523  27.105  1.00  0.00     0.016 A 
ATOM     27  C   UNL A   1      39.103  25.023  26.544  1.00  0.00     0.010 A 
ATOM     28  C   UNL A   1      40.842  23.686  27.541  1.00  0.00     0.010 A 
ATOM     29  C   UNL A   1      40.334  24.955  27.216  1.00  0.00    -0.014 A 
BRANCH  29  30
ATOM     30  C   UNL A   1      41.100  26.203  27.515  1.00  0.00     0.031 A 
ATOM     31  C   UNL A   1      40.559  27.220  28.493  1.00  0.00     0.074 A 
ATOM     32  C   UNL A   1      42.303  26.422  26.945  1.00  0.00     0.049 A 
ATOM     33  N   UNL A   1      41.020  28.410  28.787  1.00  0.00    -0.248 NA
ATOM     34  C   UNL A   1      39.322  26.871  29.212  1.00  0.00     0.031 C 
ATOM     35  C   UNL A   1      42.969  25.521  26.005  1.00  0.00     0.029 A 
ATOM     36  N   UNL A   1      43.199  27.452  27.102  1.00  0.00    -0.354 N 
ATOM     37  C   UNL A   1      40.078  28.987  29.631  1.00  0.00     0.074 A 
ATOM     38  C   UNL A   1      39.034  28.006  29.832  1.00  0.00     0.031 C 
ATOM     39  C   UNL A   1      44.204  25.978  25.757  1.00  0.00     0.029 A 
ATOM     40  C   UNL A   1      44.394  27.249  26.449  1.00  0.00     0.049 A 
ATOM     41  H   UNL A   1      43.005  28.258  27.633  1.00  0.00     0.167 HD
ATOM     42  C   UNL A   1      40.079  30.224  30.184  1.00  0.00     0.034 A 
ATOM     43  C   UNL A   1      45.518  27.992  26.421  1.00  0.00     0.034 A 
ATOM     44  C   UNL A   1      41.174  31.152  30.089  1.00  0.00     0.049 A 
ATOM     45  C   UNL A   1      45.547  29.308  27.148  1.00  0.00     0.074 A 
ATOM     46  C   UNL A   1      41.269  32.428  30.616  1.00  0.00     0.029 A 
ATOM     47  N   UNL A   1      42.380  30.888  29.460  1.00  0.00    -0.354 N 
ATOM     48  N   UNL A   1      44.645  29.837  27.938  1.00  0.00    -0.248 NA
ATOM     49  C   UNL A   1      46.750  30.136  26.971  1.00  0.00     0.031 C 
ATOM     50  C   UNL A   1      42.538  32.932  30.315  1.00  0.00     0.029 A 
ATOM     51  C   UNL A   1      43.232  31.970  29.600  1.00  0.00     0.049 A 
ATOM     52  H   UNL A   1      42.599  30.055  28.985  1.00  0.00     0.167 HD
ATOM     53  C   UNL A   1      45.160  31.065  28.336  1.00  0.00     0.074 A 
ATOM     54  C   UNL A   1      46.483  31.172  27.757  1.00  0.00     0.031 C 
ATOM     55  C   UNL A   1      44.569  32.041  29.068  1.00  0.00     0.034 A 
BRANCH  42  56
ATOM     56  C   UNL A   1      38.861  30.651  30.958  1.00  0.00     0.023 A 
ATOM     57  C   UNL A   1      38.828  30.505  32.358  1.00  0.00     0.012 A 
ATOM     58  C   UNL A   1      37.774  31.262  30.300  1.00  0.00     0.148 A 
ATOM     59  C   UNL A   1      37.723  30.941  33.089  1.00  0.00     0.002 A 
ATOM     60  C   UNL A   1      36.692  31.727  31.038  1.00  0.00     0.091 A 
ATOM     61  F   UNL A   1      37.812  31.368  28.963  1.00  0.00    -0.205 F 
ATOM     62  C   UNL A   1      36.662  31.561  32.432  1.00  0.00     0.022 A 
BRANCH  60  63
ATOM     63  S   UNL A   1      35.321  32.605  30.277  1.00  0.00     0.127 S 
ATOM     64  O   UNL A   1      34.304  32.530  31.324  1.00  0.00    -0.237 OA
ATOM     65  O   UNL A   1      35.880  33.940  30.065  1.00  0.00    -0.237 OA
ATOM     66  O   UNL A   1      35.022  31.878  29.050  1.00  0.00    -0.744 OA
ENDBRANCH  60  63
ENDBRANCH  42  56
BRANCH  43  67
ATOM     67  C   UNL A   1      46.740  27.466  25.745  1.00  0.00     0.023 A 
ATOM     68  C   UNL A   1      46.947  27.771  24.385  1.00  0.00     0.012 A 
ATOM     69  C   UNL A   1      47.725  26.735  26.435  1.00  0.00     0.148 A 
ATOM     70  C   UNL A   1      48.104  27.353  23.727  1.00  0.00     0.002 A 
ATOM     71  C   UNL A   1      48.908  26.385  25.793  1.00  0.00     0.091 A 
ATOM     72  F   UNL A   1      47.504  26.412  27.718  1.00  0.00    -0.205 F 
ATOM     73  C   UNL A   1      49.095  26.678  24.435  1.00  0.00     0.022 A 
BRANCH  71  74
ATOM     74  S   UNL A   1      50.279  25.683  26.717  1.00  0.00     0.127 S 
ATOM     75  O   UNL A   1      51.301  25.536  25.685  1.00  0.00    -0.237 OA
ATOM     76  O   UNL A   1      50.558  26.715  27.715  1.00  0.00    -0.237 OA
ATOM     77  O   UNL A   1      49.742  24.449  27.280  1.00  0.00    -0.744 OA
ENDBRANCH  71  74
ENDBRANCH  43  67
BRANCH  55  78
ATOM     78  C   UNL A   1      45.332  33.322  29.270  1.00  0.00     0.023 A 
ATOM     79  C   UNL A   1      46.244  33.409  30.342  1.00  0.00     0.012 A 
ATOM     80  C   UNL A   1      45.217  34.397  28.370  1.00  0.00     0.148 A 
ATOM     81  C   UNL A   1      47.011  34.557  30.530  1.00  0.00     0.002 A 
ATOM     82  C   UNL A   1      46.012  35.527  28.543  1.00  0.00     0.091 A 
ATOM     83  F   UNL A   1      44.329  34.304  27.369  1.00  0.00    -0.205 F 
ATOM     84  C   UNL A   1      46.904  35.610  29.624  1.00  0.00     0.022 A 
BRANCH  82  85
ATOM     85  S   UNL A   1      45.995  36.893  27.377  1.00  0.00     0.127 S 
ATOM     86  O   UNL A   1      46.270  36.212  26.113  1.00  0.00    -0.237 OA
ATOM     87  O   UNL A   1      44.631  37.406  27.509  1.00  0.00    -0.237 OA
ATOM     88  O   UNL A   1      47.028  37.814  27.835  1.00  0.00    -0.744 OA
ENDBRANCH  82  85
ENDBRANCH  55  78
ENDBRANCH  29  30
ENDBRANCH  22  24
ENDBRANCH  21  22
ENDBRANCH   1  21
TORSDOF 16
ENDMDL
MODEL 2
REMARK VINA RESULT:     -11.9      4.997     10.231
REMARK SMILES C[C@@H](C(=O)OCCOC(=O)c1ccc(-c2c3nc(c(-c4cccc(S(=O)(=O)[O-])c4F)c4ccc([nH]4)c(-c4cccc(S(=O)(=O)[O-])c4F)c4nc(c(-c5cccc(S(=O)(=O)[O-])c5F)c5ccc2[nH]5)C=C4)C=C3)cc1)c1ccc(-c2ccccc2)c(F)c1
REMARK SMILES IDX 7 1 6 2 5 3 3 4 4 5 2 6 1 7 74 8 75 9 86 10 76 11 84 12
REMARK SMILES IDX 77 13 85 14 78 15 79 16 83 17 80 18 82 19 81 20 8 21 9 22
REMARK SMILES IDX 10 23 11 24 12 25 73 26 13 27 72 28 14 29 15 30 16 31 66 32
REMARK SMILES IDX 17 33 71 34 65 35 67 36 18 37 70 38 64 39 63 40 19 42 51 43
REMARK SMILES IDX 31 44 50 45 32 46 35 47 49 48 68 49 33 50 34 51 48 53 69 54
REMARK SMILES IDX 36 55 20 56 21 57 29 58 22 59 24 60 30 61 23 62 25 63 26 64
REMARK SMILES IDX 27 65 28 66 52 67 53 68 61 69 54 70 56 71 62 72 55 73 57 74
REMARK SMILES IDX 58 75 59 76 60 77 37 78 38 79 46 80 39 81 41 82 47 83 40 84
REMARK SMILES IDX 42 85 43 86 44 87 45 88
REMARK H PARENT 67 41 35 52
REMARK Flexibility Score: inf
ROOT
ATOM      1  C   UNL A   1      31.319  30.436  25.564  1.00  0.00     0.275 C 
ENDROOT
BRANCH   1   2
ATOM      2  C   UNL A   1      31.095  29.351  24.515  1.00  0.00     0.274 C 
BRANCH   2   3
ATOM      3  O   UNL A   1      32.033  28.273  24.705  1.00  0.00    -0.462 OA
BRANCH   3   4
ATOM      4  C   UNL A   1      31.519  27.012  24.758  1.00  0.00     0.313 C 
ATOM      5  O   UNL A   1      30.517  26.656  24.149  1.00  0.00    -0.252 OA
BRANCH   4   6
ATOM      6  C   UNL A   1      32.291  26.099  25.723  1.00  0.00     0.126 C 
ATOM      7  C   UNL A   1      33.658  26.666  26.125  1.00  0.00     0.025 C 
BRANCH   6   8
ATOM      8  C   UNL A   1      32.357  24.660  25.213  1.00  0.00    -0.031 A 
ATOM      9  C   UNL A   1      31.590  23.621  25.754  1.00  0.00     0.005 A 
ATOM     10  C   UNL A   1      33.257  24.331  24.188  1.00  0.00     0.044 A 
ATOM     11  C   UNL A   1      31.737  22.300  25.298  1.00  0.00     0.012 A 
ATOM     12  C   UNL A   1      33.394  23.011  23.738  1.00  0.00     0.131 A 
ATOM     13  C   UNL A   1      32.655  21.953  24.288  1.00  0.00     0.017 A 
ATOM     14  F   UNL A   1      34.280  22.791  22.755  1.00  0.00    -0.206 F 
BRANCH  13  15
ATOM     15  C   UNL A   1      32.870  20.532  23.908  1.00  0.00    -0.015 A 
ATOM     16  C   UNL A   1      32.153  19.934  22.852  1.00  0.00     0.009 A 
ATOM     17  C   UNL A   1      33.744  19.699  24.631  1.00  0.00     0.009 A 
ATOM     18  C   UNL A   1      32.282  18.572  22.556  1.00  0.00     0.001 A 
ATOM     19  C   UNL A   1      33.888  18.342  24.324  1.00  0.00     0.001 A 
ATOM     20  C   UNL A   1      33.147  17.774  23.295  1.00  0.00     0.000 A 
ENDBRANCH  13  15
ENDBRANCH   6   8
ENDBRANCH   4   6
ENDBRANCH   3   4
ENDBRANCH   2   3
ENDBRANCH   1   2
BRANCH   1  21
ATOM     21  O   UNL A   1      32.652  30.327  26.087  1.00  0.00    -0.458 OA
BRANCH  21  22
ATOM     22  C   UNL A   1      33.038  31.303  26.939  1.00  0.00     0.338 C 
ATOM     23  O   UNL A   1      32.418  32.310  27.244  1.00  0.00    -0.246 OA
BRANCH  22  24
ATOM     24  C   UNL A   1      34.360  30.971  27.491  1.00  0.00     0.060 A 
ATOM     25  C   UNL A   1      34.739  29.637  27.610  1.00  0.00     0.016 A 
ATOM     26  C   UNL A   1      35.174  31.982  28.002  1.00  0.00     0.016 A 
ATOM     27  C   UNL A   1      35.888  29.310  28.329  1.00  0.00     0.010 A 
ATOM     28  C   UNL A   1      36.371  31.649  28.648  1.00  0.00     0.010 A 
ATOM     29  C   UNL A   1      36.717  30.305  28.871  1.00  0.00    -0.014 A 
BRANCH  29  30
ATOM     30  C   UNL A   1      37.894  29.931  29.712  1.00  0.00     0.031 A 
ATOM     31  C   UNL A   1      39.046  29.155  29.118  1.00  0.00     0.074 A 
ATOM     32  C   UNL A   1      37.962  30.312  31.005  1.00  0.00     0.049 A 
ATOM     33  N   UNL A   1      40.092  28.640  29.715  1.00  0.00    -0.248 NA
ATOM     34  C   UNL A   1      39.007  28.897  27.669  1.00  0.00     0.031 C 
ATOM     35  C   UNL A   1      36.943  31.087  31.712  1.00  0.00     0.029 A 
ATOM     36  N   UNL A   1      38.949  30.133  31.945  1.00  0.00    -0.354 N 
ATOM     37  C   UNL A   1      40.766  27.909  28.745  1.00  0.00     0.074 A 
ATOM     38  C   UNL A   1      40.035  28.075  27.508  1.00  0.00     0.031 C 
ATOM     39  C   UNL A   1      37.402  31.411  32.929  1.00  0.00     0.029 A 
ATOM     40  C   UNL A   1      38.711  30.796  33.128  1.00  0.00     0.049 A 
ATOM     41  H   UNL A   1      39.750  29.584  31.787  1.00  0.00     0.167 HD
ATOM     42  C   UNL A   1      41.891  27.165  28.872  1.00  0.00     0.034 A 
ATOM     43  C   UNL A   1      39.464  30.909  34.240  1.00  0.00     0.034 A 
ATOM     44  C   UNL A   1      42.689  27.103  30.066  1.00  0.00     0.049 A 
ATOM     45  C   UNL A   1      40.775  30.175  34.316  1.00  0.00     0.074 A 
ATOM     46  C   UNL A   1      43.846  26.376  30.291  1.00  0.00     0.029 A 
ATOM     47  N   UNL A   1      42.439  27.825  31.222  1.00  0.00    -0.354 N 
ATOM     48  N   UNL A   1      41.394  29.488  33.388  1.00  0.00    -0.248 NA
ATOM     49  C   UNL A   1      41.488  30.226  35.602  1.00  0.00     0.031 C 
ATOM     50  C   UNL A   1      44.302  26.669  31.581  1.00  0.00     0.029 A 
ATOM     51  C   UNL A   1      43.428  27.575  32.158  1.00  0.00     0.049 A 
ATOM     52  H   UNL A   1      41.672  28.426  31.357  1.00  0.00     0.167 HD
ATOM     53  C   UNL A   1      42.556  29.009  33.980  1.00  0.00     0.074 A 
ATOM     54  C   UNL A   1      42.591  29.541  35.326  1.00  0.00     0.031 C 
ATOM     55  C   UNL A   1      43.483  28.158  33.474  1.00  0.00     0.034 A 
BRANCH  42  56
ATOM     56  C   UNL A   1      42.341  26.359  27.683  1.00  0.00     0.023 A 
ATOM     57  C   UNL A   1      43.232  26.919  26.748  1.00  0.00     0.012 A 
ATOM     58  C   UNL A   1      41.930  25.019  27.531  1.00  0.00     0.148 A 
ATOM     59  C   UNL A   1      43.692  26.164  25.669  1.00  0.00     0.002 A 
ATOM     60  C   UNL A   1      42.420  24.261  26.474  1.00  0.00     0.091 A 
ATOM     61  F   UNL A   1      41.059  24.511  28.416  1.00  0.00    -0.205 F 
ATOM     62  C   UNL A   1      43.295  24.835  25.537  1.00  0.00     0.022 A 
BRANCH  60  63
ATOM     63  S   UNL A   1      42.018  22.521  26.277  1.00  0.00     0.127 S 
ATOM     64  O   UNL A   1      40.557  22.557  26.235  1.00  0.00    -0.237 OA
ATOM     65  O   UNL A   1      42.655  22.192  25.001  1.00  0.00    -0.237 OA
ATOM     66  O   UNL A   1      42.602  21.850  27.430  1.00  0.00    -0.744 OA
ENDBRANCH  60  63
ENDBRANCH  42  56
BRANCH  43  67
ATOM     67  C   UNL A   1      39.034  31.821  35.340  1.00  0.00     0.023 A 
ATOM     68  C   UNL A   1      38.159  31.326  36.327  1.00  0.00     0.012 A 
ATOM     69  C   UNL A   1      39.525  33.133  35.463  1.00  0.00     0.148 A 
ATOM     70  C   UNL A   1      37.778  32.122  37.409  1.00  0.00     0.002 A 
ATOM     71  C   UNL A   1      39.199  33.895  36.581  1.00  0.00     0.091 A 
ATOM     72  F   UNL A   1      40.325  33.614  34.500  1.00  0.00    -0.205 F 
ATOM     73  C   UNL A   1      38.313  33.400  37.547  1.00  0.00     0.022 A 
BRANCH  71  74
ATOM     74  S   UNL A   1      40.013  35.468  36.887  1.00  0.00     0.127 S 
ATOM     75  O   UNL A   1      39.545  36.279  35.767  1.00  0.00    -0.237 OA
ATOM     76  O   UNL A   1      39.480  35.858  38.193  1.00  0.00    -0.237 OA
ATOM     77  O   UNL A   1      41.434  35.143  36.905  1.00  0.00    -0.744 OA
ENDBRANCH  71  74
ENDBRANCH  43  67
BRANCH  55  78
ATOM     78  C   UNL A   1      44.604  27.728  34.380  1.00  0.00     0.023 A 
ATOM     79  C   UNL A   1      45.790  28.490  34.405  1.00  0.00     0.012 A 
ATOM     80  C   UNL A   1      44.465  26.636  35.257  1.00  0.00     0.148 A 
ATOM     81  C   UNL A   1      46.830  28.158  35.271  1.00  0.00     0.002 A 
ATOM     82  C   UNL A   1      45.493  26.332  36.145  1.00  0.00     0.091 A 
ATOM     83  F   UNL A   1      43.338  25.911  35.204  1.00  0.00    -0.205 F 
ATOM     84  C   UNL A   1      46.677  27.087  36.149  1.00  0.00     0.022 A 
BRANCH  82  85
ATOM     85  S   UNL A   1      45.344  25.020  37.364  1.00  0.00     0.127 S 
ATOM     86  O   UNL A   1      44.175  25.452  38.127  1.00  0.00    -0.237 OA
ATOM     87  O   UNL A   1      45.125  23.837  36.530  1.00  0.00    -0.237 OA
ATOM     88  O   UNL A   1      46.606  25.015  38.092  1.00  0.00    -0.744 OA
ENDBRANCH  82  85
ENDBRANCH  55  78
ENDBRANCH  29  30
ENDBRANCH  22  24
ENDBRANCH  21  22
ENDBRANCH   1  21
TORSDOF 16
ENDMDL
MODEL 3
REMARK VINA RESULT:     -11.9      4.945      7.938
REMARK SMILES C[C@@H](C(=O)OCCOC(=O)c1ccc(-c2c3nc(c(-c4cccc(S(=O)(=O)[O-])c4F)c4ccc([nH]4)c(-c4cccc(S(=O)(=O)[O-])c4F)c4nc(c(-c5cccc(S(=O)(=O)[O-])c5F)c5ccc2[nH]5)C=C4)C=C3)cc1)c1ccc(-c2ccccc2)c(F)c1
REMARK SMILES IDX 7 1 6 2 5 3 3 4 4 5 2 6 1 7 74 8 75 9 86 10 76 11 84 12
REMARK SMILES IDX 77 13 85 14 78 15 79 16 83 17 80 18 82 19 81 20 8 21 9 22
REMARK SMILES IDX 10 23 11 24 12 25 73 26 13 27 72 28 14 29 15 30 16 31 66 32
REMARK SMILES IDX 17 33 71 34 65 35 67 36 18 37 70 38 64 39 63 40 19 42 51 43
REMARK SMILES IDX 31 44 50 45 32 46 35 47 49 48 68 49 33 50 34 51 48 53 69 54
REMARK SMILES IDX 36 55 20 56 21 57 29 58 22 59 24 60 30 61 23 62 25 63 26 64
REMARK SMILES IDX 27 65 28 66 52 67 53 68 61 69 54 70 56 71 62 72 55 73 57 74
REMARK SMILES IDX 58 75 59 76 60 77 37 78 38 79 46 80 39 81 41 82 47 83 40 84
REMARK SMILES IDX 42 85 43 86 44 87 45 88
REMARK H PARENT 67 41 35 52
REMARK Flexibility Score: inf
ROOT
ATOM      1  C   UNL A   1      31.292  31.506  26.097  1.00  0.00     0.275 C 
ENDROOT
BRANCH   1   2
ATOM      2  C   UNL A   1      31.011  30.395  25.090  1.00  0.00     0.274 C 
BRANCH   2   3
ATOM      3  O   UNL A   1      31.762  29.212  25.429  1.00  0.00    -0.462 OA
BRANCH   3   4
ATOM      4  C   UNL A   1      31.921  28.281  24.446  1.00  0.00     0.313 C 
ATOM      5  O   UNL A   1      30.990  27.756  23.846  1.00  0.00    -0.252 OA
BRANCH   4   6
ATOM      6  C   UNL A   1      33.393  27.905  24.219  1.00  0.00     0.126 C 
ATOM      7  C   UNL A   1      34.005  28.587  22.989  1.00  0.00     0.025 C 
BRANCH   6   8
ATOM      8  C   UNL A   1      33.603  26.392  24.243  1.00  0.00    -0.031 A 
ATOM      9  C   UNL A   1      33.758  25.624  23.083  1.00  0.00     0.005 A 
ATOM     10  C   UNL A   1      33.594  25.712  25.470  1.00  0.00     0.044 A 
ATOM     11  C   UNL A   1      33.879  24.226  23.150  1.00  0.00     0.012 A 
ATOM     12  C   UNL A   1      33.718  24.317  25.527  1.00  0.00     0.131 A 
ATOM     13  C   UNL A   1      33.845  23.529  24.374  1.00  0.00     0.017 A 
ATOM     14  F   UNL A   1      33.697  23.753  26.745  1.00  0.00    -0.206 F 
BRANCH  13  15
ATOM     15  C   UNL A   1      33.859  22.043  24.406  1.00  0.00    -0.015 A 
ATOM     16  C   UNL A   1      32.725  21.286  24.049  1.00  0.00     0.009 A 
ATOM     17  C   UNL A   1      34.980  21.326  24.862  1.00  0.00     0.009 A 
ATOM     18  C   UNL A   1      32.705  19.891  24.171  1.00  0.00     0.001 A 
ATOM     19  C   UNL A   1      34.968  19.931  24.968  1.00  0.00     0.001 A 
ATOM     20  C   UNL A   1      33.827  19.214  24.635  1.00  0.00     0.000 A 
ENDBRANCH  13  15
ENDBRANCH   6   8
ENDBRANCH   4   6
ENDBRANCH   3   4
ENDBRANCH   2   3
ENDBRANCH   1   2
BRANCH   1  21
ATOM     21  O   UNL A   1      32.424  31.143  26.904  1.00  0.00    -0.458 OA
BRANCH  21  22
ATOM     22  C   UNL A   1      33.166  32.167  27.380  1.00  0.00     0.338 C 
ATOM     23  O   UNL A   1      32.835  33.338  27.485  1.00  0.00    -0.246 OA
BRANCH  22  24
ATOM     24  C   UNL A   1      34.484  31.661  27.791  1.00  0.00     0.060 A 
ATOM     25  C   UNL A   1      34.658  30.298  28.012  1.00  0.00     0.016 A 
ATOM     26  C   UNL A   1      35.515  32.557  28.075  1.00  0.00     0.016 A 
ATOM     27  C   UNL A   1      35.833  29.842  28.609  1.00  0.00     0.010 A 
ATOM     28  C   UNL A   1      36.725  32.081  28.595  1.00  0.00     0.010 A 
ATOM     29  C   UNL A   1      36.880  30.723  28.924  1.00  0.00    -0.014 A 
BRANCH  29  30
ATOM     30  C   UNL A   1      38.092  30.227  29.643  1.00  0.00     0.031 A 
ATOM     31  C   UNL A   1      38.299  30.544  31.106  1.00  0.00     0.074 A 
ATOM     32  C   UNL A   1      39.001  29.460  29.006  1.00  0.00     0.049 A 
ATOM     33  N   UNL A   1      39.340  30.304  31.864  1.00  0.00    -0.248 NA
ATOM     34  C   UNL A   1      37.210  31.248  31.803  1.00  0.00     0.031 C 
ATOM     35  C   UNL A   1      38.926  29.046  27.606  1.00  0.00     0.029 A 
ATOM     36  N   UNL A   1      40.148  28.856  29.465  1.00  0.00    -0.354 N 
ATOM     37  C   UNL A   1      39.077  30.922  33.081  1.00  0.00     0.074 A 
ATOM     38  C   UNL A   1      37.764  31.518  32.977  1.00  0.00     0.031 C 
ATOM     39  C   UNL A   1      39.911  28.174  27.350  1.00  0.00     0.029 A 
ATOM     40  C   UNL A   1      40.744  28.029  28.540  1.00  0.00     0.049 A 
ATOM     41  H   UNL A   1      40.509  29.001  30.369  1.00  0.00     0.167 HD
ATOM     42  C   UNL A   1      39.860  30.990  34.185  1.00  0.00     0.034 A 
ATOM     43  C   UNL A   1      41.826  27.232  28.641  1.00  0.00     0.034 A 
ATOM     44  C   UNL A   1      41.108  30.292  34.335  1.00  0.00     0.049 A 
ATOM     45  C   UNL A   1      42.615  27.224  29.922  1.00  0.00     0.074 A 
ATOM     46  C   UNL A   1      41.973  30.299  35.416  1.00  0.00     0.029 A 
ATOM     47  N   UNL A   1      41.649  29.429  33.396  1.00  0.00    -0.354 N 
ATOM     48  N   UNL A   1      42.351  27.816  31.060  1.00  0.00    -0.248 NA
ATOM     49  C   UNL A   1      43.860  26.440  29.927  1.00  0.00     0.031 C 
ATOM     50  C   UNL A   1      43.033  29.430  35.135  1.00  0.00     0.029 A 
ATOM     51  C   UNL A   1      42.827  28.885  33.878  1.00  0.00     0.049 A 
ATOM     52  H   UNL A   1      41.254  29.233  32.516  1.00  0.00     0.167 HD
ATOM     53  C   UNL A   1      43.403  27.496  31.910  1.00  0.00     0.074 A 
ATOM     54  C   UNL A   1      44.274  26.600  31.178  1.00  0.00     0.031 C 
ATOM     55  C   UNL A   1      43.655  27.948  33.163  1.00  0.00     0.034 A 
BRANCH  42  56
ATOM     56  C   UNL A   1      39.389  31.843  35.332  1.00  0.00     0.023 A 
ATOM     57  C   UNL A   1      38.516  31.306  36.298  1.00  0.00     0.012 A 
ATOM     58  C   UNL A   1      39.868  33.160  35.487  1.00  0.00     0.148 A 
ATOM     59  C   UNL A   1      38.111  32.073  37.390  1.00  0.00     0.002 A 
ATOM     60  C   UNL A   1      39.489  33.906  36.597  1.00  0.00     0.091 A 
ATOM     61  F   UNL A   1      40.676  33.664  34.543  1.00  0.00    -0.205 F 
ATOM     62  C   UNL A   1      38.604  33.367  37.545  1.00  0.00     0.022 A 
BRANCH  60  63
ATOM     63  S   UNL A   1      40.139  35.552  36.910  1.00  0.00     0.127 S 
ATOM     64  O   UNL A   1      39.659  36.288  35.742  1.00  0.00    -0.237 OA
ATOM     65  O   UNL A   1      39.486  35.915  38.168  1.00  0.00    -0.237 OA
ATOM     66  O   UNL A   1      41.583  35.392  37.009  1.00  0.00    -0.744 OA
ENDBRANCH  60  63
ENDBRANCH  42  56
BRANCH  43  67
ATOM     67  C   UNL A   1      42.179  26.311  27.521  1.00  0.00     0.023 A 
ATOM     68  C   UNL A   1      43.066  26.766  26.524  1.00  0.00     0.012 A 
ATOM     69  C   UNL A   1      41.712  24.986  27.462  1.00  0.00     0.148 A 
ATOM     70  C   UNL A   1      43.473  25.920  25.491  1.00  0.00     0.002 A 
ATOM     71  C   UNL A   1      42.179  24.128  26.472  1.00  0.00     0.091 A 
ATOM     72  F   UNL A   1      40.837  24.571  28.390  1.00  0.00    -0.205 F 
ATOM     73  C   UNL A   1      43.046  24.595  25.475  1.00  0.00     0.022 A 
BRANCH  71  74
ATOM     74  S   UNL A   1      41.800  22.372  26.527  1.00  0.00     0.127 S 
ATOM     75  O   UNL A   1      40.346  22.368  26.393  1.00  0.00    -0.237 OA
ATOM     76  O   UNL A   1      42.525  21.849  25.368  1.00  0.00    -0.237 OA
ATOM     77  O   UNL A   1      42.336  21.926  27.807  1.00  0.00    -0.744 OA
ENDBRANCH  71  74
ENDBRANCH  43  67
BRANCH  55  78
ATOM     78  C   UNL A   1      44.933  27.503  33.821  1.00  0.00     0.023 A 
ATOM     79  C   UNL A   1      46.083  28.308  33.688  1.00  0.00     0.012 A 
ATOM     80  C   UNL A   1      44.983  26.351  34.628  1.00  0.00     0.148 A 
ATOM     81  C   UNL A   1      47.271  27.960  34.329  1.00  0.00     0.002 A 
ATOM     82  C   UNL A   1      46.162  26.030  35.294  1.00  0.00     0.091 A 
ATOM     83  F   UNL A   1      43.885  25.587  34.725  1.00  0.00    -0.205 F 
ATOM     84  C   UNL A   1      47.307  26.828  35.141  1.00  0.00     0.022 A 
BRANCH  82  85
ATOM     85  S   UNL A   1      46.271  24.636  36.423  1.00  0.00     0.127 S 
ATOM     86  O   UNL A   1      46.118  23.502  35.513  1.00  0.00    -0.237 OA
ATOM     87  O   UNL A   1      47.614  24.789  36.986  1.00  0.00    -0.237 OA
ATOM     88  O   UNL A   1      45.193  24.824  37.385  1.00  0.00    -0.744 OA
ENDBRANCH  82  85
ENDBRANCH  55  78
ENDBRANCH  29  30
ENDBRANCH  22  24
ENDBRANCH  21  22
ENDBRANCH   1  21
TORSDOF 16
ENDMDL
