MODEL 1
REMARK VINA RESULT:     -11.6      0.000      0.000
REMARK SMILES C[NH2+][C@@]1(C(=O)OCCOC(=O)c2ccc(-c3c4nc(c(-c5cccc(S(=O)(=O)[O-])c5F)c5ccc([nH]5)c(-c5cccc(S(=O)(=O)[O-])c5F)c5nc(c(-c6cccc(S(=O)(=O)[O-])c6F)c6ccc3[nH]6)C=C5)C=C4)cc2)CCC[C@H](Oc2cccc(OC)c2)C1
REMARK SMILES IDX 7 1 6 2 4 3 5 4 3 5 75 6 88 7 76 8 78 9 77 10 2 11 1 12
REMARK SMILES IDX 79 15 80 16 81 17 87 18 82 19 84 20 83 21 85 22 86 23 8 24
REMARK SMILES IDX 9 25 10 26 11 27 12 28 13 29 74 30 14 31 73 32 15 33 16 34
REMARK SMILES IDX 17 35 67 36 18 37 72 38 66 39 68 40 19 41 71 42 65 43 64 44
REMARK SMILES IDX 20 46 52 47 32 48 51 49 33 50 36 51 50 52 69 53 34 54 35 55
REMARK SMILES IDX 49 57 70 58 37 59 21 60 22 61 30 62 23 63 25 64 31 65 24 66
REMARK SMILES IDX 26 67 27 68 28 69 29 70 53 71 54 72 62 73 55 74 57 75 63 76
REMARK SMILES IDX 56 77 58 78 59 79 60 80 61 81 38 82 39 83 47 84 40 85 42 86
REMARK SMILES IDX 48 87 41 88 43 89 44 90 45 91 46 92
REMARK H PARENT 2 13 2 14 68 45 36 56
REMARK Flexibility Score: inf
ROOT
ATOM      1  C   UNL A   1      31.703  28.379  26.665  1.00  0.00     0.274 C 
ENDROOT
BRANCH   1   2
ATOM      2  O   UNL A   1      31.437  27.233  25.828  1.00  0.00    -0.457 OA
BRANCH   2   3
ATOM      3  C   UNL A   1      32.494  26.470  25.472  1.00  0.00     0.368 C 
ATOM      4  O   UNL A   1      33.649  26.697  25.830  1.00  0.00    -0.245 OA
BRANCH   3   5
ATOM      5  C   UNL A   1      32.150  25.275  24.519  1.00  0.00     0.197 C 
ATOM      6  C   UNL A   1      33.438  25.012  23.704  1.00  0.00     0.081 C 
ATOM      7  C   UNL A   1      30.930  25.449  23.573  1.00  0.00     0.126 C 
ATOM      8  C   UNL A   1      33.644  26.044  22.605  1.00  0.00     0.011 C 
ATOM      9  C   UNL A   1      31.141  26.345  22.331  1.00  0.00     0.180 C 
ATOM     10  C   UNL A   1      32.470  26.015  21.641  1.00  0.00     0.046 C 
BRANCH   5  11
ATOM     11  N   UNL A   1      32.017  24.050  25.379  1.00  0.00    -0.334 N 
ATOM     12  C   UNL A   1      33.058  23.046  25.228  1.00  0.00     0.331 C 
ATOM     13  H   UNL A   1      32.014  24.352  26.353  1.00  0.00     0.347 HD
ATOM     14  H   UNL A   1      31.154  23.596  25.078  1.00  0.00     0.347 HD
ENDBRANCH   5  11
BRANCH   9  15
ATOM     15  O   UNL A   1      31.071  27.697  22.774  1.00  0.00    -0.490 OA
BRANCH  15  16
ATOM     16  C   UNL A   1      29.904  28.396  22.772  1.00  0.00     0.123 A 
ATOM     17  C   UNL A   1      28.649  27.927  23.141  1.00  0.00     0.047 A 
ATOM     18  C   UNL A   1      30.038  29.703  22.291  1.00  0.00     0.092 A 
ATOM     19  C   UNL A   1      27.524  28.731  22.942  1.00  0.00     0.008 A 
ATOM     20  C   UNL A   1      28.924  30.516  22.094  1.00  0.00     0.122 A 
ATOM     21  C   UNL A   1      27.662  30.014  22.407  1.00  0.00     0.046 A 
BRANCH  20  22
ATOM     22  O   UNL A   1      28.943  31.789  21.595  1.00  0.00    -0.497 OA
ATOM     23  C   UNL A   1      28.027  32.075  20.542  1.00  0.00     0.278 C 
ENDBRANCH  20  22
ENDBRANCH  15  16
ENDBRANCH   9  15
ENDBRANCH   3   5
ENDBRANCH   2   3
ENDBRANCH   1   2
BRANCH   1  24
ATOM     24  C   UNL A   1      31.652  29.657  25.837  1.00  0.00     0.275 C 
BRANCH  24  25
ATOM     25  O   UNL A   1      32.953  30.260  25.868  1.00  0.00    -0.458 OA
BRANCH  25  26
ATOM     26  C   UNL A   1      33.150  31.186  26.826  1.00  0.00     0.338 C 
ATOM     27  O   UNL A   1      32.369  32.043  27.220  1.00  0.00    -0.246 OA
BRANCH  26  28
ATOM     28  C   UNL A   1      34.461  30.940  27.431  1.00  0.00     0.060 A 
ATOM     29  C   UNL A   1      34.796  29.630  27.773  1.00  0.00     0.016 A 
ATOM     30  C   UNL A   1      35.311  31.995  27.746  1.00  0.00     0.016 A 
ATOM     31  C   UNL A   1      35.937  29.375  28.520  1.00  0.00     0.010 A 
ATOM     32  C   UNL A   1      36.511  31.721  28.408  1.00  0.00     0.010 A 
ATOM     33  C   UNL A   1      36.819  30.415  28.832  1.00  0.00    -0.014 A 
BRANCH  33  34
ATOM     34  C   UNL A   1      38.046  30.143  29.625  1.00  0.00     0.031 A 
ATOM     35  C   UNL A   1      39.125  29.264  29.057  1.00  0.00     0.074 A 
ATOM     36  C   UNL A   1      38.188  30.674  30.856  1.00  0.00     0.049 A 
ATOM     37  N   UNL A   1      40.158  28.734  29.657  1.00  0.00    -0.248 NA
ATOM     38  C   UNL A   1      39.018  28.918  27.629  1.00  0.00     0.031 C 
ATOM     39  C   UNL A   1      37.227  31.565  31.510  1.00  0.00     0.029 A 
ATOM     40  N   UNL A   1      39.189  30.530  31.784  1.00  0.00    -0.354 N 
ATOM     41  C   UNL A   1      40.773  27.925  28.709  1.00  0.00     0.074 A 
ATOM     42  C   UNL A   1      40.011  28.051  27.486  1.00  0.00     0.031 C 
ATOM     43  C   UNL A   1      37.692  31.903  32.721  1.00  0.00     0.029 A 
ATOM     44  C   UNL A   1      38.939  31.189  32.966  1.00  0.00     0.049 A 
ATOM     45  H   UNL A   1      40.007  30.007  31.619  1.00  0.00     0.167 HD
ATOM     46  C   UNL A   1      41.874  27.152  28.849  1.00  0.00     0.034 A 
ATOM     47  C   UNL A   1      39.612  31.183  34.133  1.00  0.00     0.034 A 
ATOM     48  C   UNL A   1      42.675  27.102  30.043  1.00  0.00     0.049 A 
ATOM     49  C   UNL A   1      40.854  30.347  34.249  1.00  0.00     0.074 A 
ATOM     50  C   UNL A   1      43.824  26.369  30.280  1.00  0.00     0.029 A 
ATOM     51  N   UNL A   1      42.421  27.832  31.194  1.00  0.00    -0.354 N 
ATOM     52  N   UNL A   1      41.429  29.597  33.340  1.00  0.00    -0.248 NA
ATOM     53  C   UNL A   1      41.544  30.359  35.546  1.00  0.00     0.031 C 
ATOM     54  C   UNL A   1      44.269  26.662  31.574  1.00  0.00     0.029 A 
ATOM     55  C   UNL A   1      43.397  27.578  32.141  1.00  0.00     0.049 A 
ATOM     56  H   UNL A   1      41.657  28.441  31.319  1.00  0.00     0.167 HD
ATOM     57  C   UNL A   1      42.550  29.052  33.951  1.00  0.00     0.074 A 
ATOM     58  C   UNL A   1      42.594  29.587  35.298  1.00  0.00     0.031 C 
ATOM     59  C   UNL A   1      43.447  28.164  33.455  1.00  0.00     0.034 A 
BRANCH  46  60
ATOM     60  C   UNL A   1      42.296  26.316  27.671  1.00  0.00     0.023 A 
ATOM     61  C   UNL A   1      43.142  26.868  26.689  1.00  0.00     0.012 A 
ATOM     62  C   UNL A   1      41.894  24.970  27.561  1.00  0.00     0.148 A 
ATOM     63  C   UNL A   1      43.562  26.100  25.603  1.00  0.00     0.002 A 
ATOM     64  C   UNL A   1      42.346  24.200  26.495  1.00  0.00     0.091 A 
ATOM     65  F   UNL A   1      41.065  24.471  28.489  1.00  0.00    -0.205 F 
ATOM     66  C   UNL A   1      43.174  24.766  25.511  1.00  0.00     0.022 A 
BRANCH  64  67
ATOM     67  S   UNL A   1      41.952  22.455  26.337  1.00  0.00     0.127 S 
ATOM     68  O   UNL A   1      42.466  22.154  25.002  1.00  0.00    -0.237 OA
ATOM     69  O   UNL A   1      42.719  21.859  27.432  1.00  0.00    -0.237 OA
ATOM     70  O   UNL A   1      40.507  22.360  26.494  1.00  0.00    -0.744 OA
ENDBRANCH  64  67
ENDBRANCH  46  60
BRANCH  47  71
ATOM     71  C   UNL A   1      39.119  32.012  35.270  1.00  0.00     0.023 A 
ATOM     72  C   UNL A   1      38.228  31.446  36.201  1.00  0.00     0.012 A 
ATOM     73  C   UNL A   1      39.583  33.325  35.478  1.00  0.00     0.148 A 
ATOM     74  C   UNL A   1      37.803  32.175  37.312  1.00  0.00     0.002 A 
ATOM     75  C   UNL A   1      39.206  34.023  36.620  1.00  0.00     0.091 A 
ATOM     76  F   UNL A   1      40.408  33.863  34.568  1.00  0.00    -0.205 F 
ATOM     77  C   UNL A   1      38.305  33.456  37.531  1.00  0.00     0.022 A 
BRANCH  75  78
ATOM     78  S   UNL A   1      39.947  35.605  37.043  1.00  0.00     0.127 S 
ATOM     79  O   UNL A   1      41.358  35.255  37.165  1.00  0.00    -0.237 OA
ATOM     80  O   UNL A   1      39.614  36.426  35.878  1.00  0.00    -0.237 OA
ATOM     81  O   UNL A   1      39.278  36.021  38.269  1.00  0.00    -0.744 OA
ENDBRANCH  75  78
ENDBRANCH  47  71
BRANCH  59  82
ATOM     82  C   UNL A   1      44.554  27.721  34.370  1.00  0.00     0.023 A 
ATOM     83  C   UNL A   1      45.746  28.470  34.422  1.00  0.00     0.012 A 
ATOM     84  C   UNL A   1      44.391  26.614  35.224  1.00  0.00     0.148 A 
ATOM     85  C   UNL A   1      46.770  28.109  35.297  1.00  0.00     0.002 A 
ATOM     86  C   UNL A   1      45.401  26.284  36.119  1.00  0.00     0.091 A 
ATOM     87  F   UNL A   1      43.258  25.901  35.140  1.00  0.00    -0.205 F 
ATOM     88  C   UNL A   1      46.593  27.025  36.152  1.00  0.00     0.022 A 
BRANCH  86  89
ATOM     89  S   UNL A   1      45.218  24.950  37.308  1.00  0.00     0.127 S 
ATOM     90  O   UNL A   1      44.141  25.452  38.159  1.00  0.00    -0.237 OA
ATOM     91  O   UNL A   1      44.846  23.817  36.459  1.00  0.00    -0.237 OA
ATOM     92  O   UNL A   1      46.520  24.814  37.949  1.00  0.00    -0.744 OA
ENDBRANCH  86  89
ENDBRANCH  59  82
ENDBRANCH  33  34
ENDBRANCH  26  28
ENDBRANCH  25  26
ENDBRANCH  24  25
ENDBRANCH   1  24
TORSDOF 18
ENDMDL
MODEL 2
REMARK VINA RESULT:     -11.2      1.521      3.584
REMARK SMILES C[NH2+][C@@]1(C(=O)OCCOC(=O)c2ccc(-c3c4nc(c(-c5cccc(S(=O)(=O)[O-])c5F)c5ccc([nH]5)c(-c5cccc(S(=O)(=O)[O-])c5F)c5nc(c(-c6cccc(S(=O)(=O)[O-])c6F)c6ccc3[nH]6)C=C5)C=C4)cc2)CCC[C@H](Oc2cccc(OC)c2)C1
REMARK SMILES IDX 7 1 6 2 4 3 5 4 3 5 75 6 88 7 76 8 78 9 77 10 2 11 1 12
REMARK SMILES IDX 79 15 80 16 81 17 87 18 82 19 84 20 83 21 85 22 86 23 8 24
REMARK SMILES IDX 9 25 10 26 11 27 12 28 13 29 74 30 14 31 73 32 15 33 16 34
REMARK SMILES IDX 17 35 67 36 18 37 72 38 66 39 68 40 19 41 71 42 65 43 64 44
REMARK SMILES IDX 20 46 52 47 32 48 51 49 33 50 36 51 50 52 69 53 34 54 35 55
REMARK SMILES IDX 49 57 70 58 37 59 21 60 22 61 30 62 23 63 25 64 31 65 24 66
REMARK SMILES IDX 26 67 27 68 28 69 29 70 53 71 54 72 62 73 55 74 57 75 63 76
REMARK SMILES IDX 56 77 58 78 59 79 60 80 61 81 38 82 39 83 47 84 40 85 42 86
REMARK SMILES IDX 48 87 41 88 43 89 44 90 45 91 46 92
REMARK H PARENT 2 13 2 14 68 45 36 56
REMARK Flexibility Score: inf
ROOT
ATOM      1  C   UNL A   1      31.574  28.633  27.257  1.00  0.00     0.274 C 
ENDROOT
BRANCH   1   2
ATOM      2  O   UNL A   1      31.289  27.532  26.367  1.00  0.00    -0.457 OA
BRANCH   2   3
ATOM      3  C   UNL A   1      32.313  27.059  25.623  1.00  0.00     0.368 C 
ATOM      4  O   UNL A   1      33.374  26.658  26.100  1.00  0.00    -0.245 OA
BRANCH   3   5
ATOM      5  C   UNL A   1      32.070  27.095  24.076  1.00  0.00     0.197 C 
ATOM      6  C   UNL A   1      30.535  27.034  23.896  1.00  0.00     0.081 C 
ATOM      7  C   UNL A   1      32.764  25.999  23.222  1.00  0.00     0.126 C 
ATOM      8  C   UNL A   1      29.985  25.632  24.116  1.00  0.00     0.011 C 
ATOM      9  C   UNL A   1      32.133  24.588  23.262  1.00  0.00     0.180 C 
ATOM     10  C   UNL A   1      30.609  24.669  23.119  1.00  0.00     0.046 C 
BRANCH   5  11
ATOM     11  N   UNL A   1      32.428  28.477  23.605  1.00  0.00    -0.334 N 
ATOM     12  C   UNL A   1      33.661  28.595  22.844  1.00  0.00     0.331 C 
ATOM     13  H   UNL A   1      31.665  28.811  23.016  1.00  0.00     0.347 HD
ATOM     14  H   UNL A   1      32.575  29.025  24.452  1.00  0.00     0.347 HD
ENDBRANCH   5  11
BRANCH   9  15
ATOM     15  O   UNL A   1      32.540  23.983  24.486  1.00  0.00    -0.490 OA
BRANCH  15  16
ATOM     16  C   UNL A   1      33.048  22.722  24.532  1.00  0.00     0.123 A 
ATOM     17  C   UNL A   1      32.386  21.543  24.212  1.00  0.00     0.047 A 
ATOM     18  C   UNL A   1      34.364  22.667  25.005  1.00  0.00     0.092 A 
ATOM     19  C   UNL A   1      33.006  20.315  24.452  1.00  0.00     0.008 A 
ATOM     20  C   UNL A   1      34.994  21.449  25.242  1.00  0.00     0.122 A 
ATOM     21  C   UNL A   1      34.299  20.270  24.979  1.00  0.00     0.046 A 
BRANCH  20  22
ATOM     22  O   UNL A   1      36.259  21.287  25.739  1.00  0.00    -0.497 OA
ATOM     23  C   UNL A   1      37.296  22.020  25.093  1.00  0.00     0.278 C 
ENDBRANCH  20  22
ENDBRANCH  15  16
ENDBRANCH   9  15
ENDBRANCH   3   5
ENDBRANCH   2   3
ENDBRANCH   1   2
BRANCH   1  24
ATOM     24  C   UNL A   1      31.486  29.954  26.503  1.00  0.00     0.275 C 
BRANCH  24  25
ATOM     25  O   UNL A   1      32.821  30.412  26.251  1.00  0.00    -0.458 OA
BRANCH  25  26
ATOM     26  C   UNL A   1      33.215  31.492  26.952  1.00  0.00     0.338 C 
ATOM     27  O   UNL A   1      32.590  32.523  27.168  1.00  0.00    -0.246 OA
BRANCH  26  28
ATOM     28  C   UNL A   1      34.526  31.199  27.537  1.00  0.00     0.060 A 
ATOM     29  C   UNL A   1      34.817  29.878  27.877  1.00  0.00     0.016 A 
ATOM     30  C   UNL A   1      35.419  32.223  27.837  1.00  0.00     0.016 A 
ATOM     31  C   UNL A   1      35.960  29.583  28.607  1.00  0.00     0.010 A 
ATOM     32  C   UNL A   1      36.618  31.906  28.480  1.00  0.00     0.010 A 
ATOM     33  C   UNL A   1      36.885  30.590  28.903  1.00  0.00    -0.014 A 
BRANCH  33  34
ATOM     34  C   UNL A   1      38.113  30.275  29.676  1.00  0.00     0.031 A 
ATOM     35  C   UNL A   1      39.172  29.393  29.075  1.00  0.00     0.074 A 
ATOM     36  C   UNL A   1      38.275  30.768  30.921  1.00  0.00     0.049 A 
ATOM     37  N   UNL A   1      40.200  28.828  29.651  1.00  0.00    -0.248 NA
ATOM     38  C   UNL A   1      39.046  29.088  27.639  1.00  0.00     0.031 C 
ATOM     39  C   UNL A   1      37.336  31.657  31.608  1.00  0.00     0.029 A 
ATOM     40  N   UNL A   1      39.281  30.581  31.835  1.00  0.00    -0.354 N 
ATOM     41  C   UNL A   1      40.792  28.035  28.675  1.00  0.00     0.074 A 
ATOM     42  C   UNL A   1      40.022  28.208  27.463  1.00  0.00     0.031 C 
ATOM     43  C   UNL A   1      37.817  31.953  32.823  1.00  0.00     0.029 A 
ATOM     44  C   UNL A   1      39.052  31.211  33.037  1.00  0.00     0.049 A 
ATOM     45  H   UNL A   1      40.088  30.048  31.649  1.00  0.00     0.167 HD
ATOM     46  C   UNL A   1      41.880  27.239  28.784  1.00  0.00     0.034 A 
ATOM     47  C   UNL A   1      39.735  31.161  34.198  1.00  0.00     0.034 A 
ATOM     48  C   UNL A   1      42.690  27.141  29.969  1.00  0.00     0.049 A 
ATOM     49  C   UNL A   1      40.962  30.300  34.279  1.00  0.00     0.074 A 
ATOM     50  C   UNL A   1      43.828  26.382  30.175  1.00  0.00     0.029 A 
ATOM     51  N   UNL A   1      42.458  27.844  31.142  1.00  0.00    -0.354 N 
ATOM     52  N   UNL A   1      41.516  29.566  33.345  1.00  0.00    -0.248 NA
ATOM     53  C   UNL A   1      41.663  30.263  35.570  1.00  0.00     0.031 C 
ATOM     54  C   UNL A   1      44.288  26.630  31.473  1.00  0.00     0.029 A 
ATOM     55  C   UNL A   1      43.438  27.546  32.073  1.00  0.00     0.049 A 
ATOM     56  H   UNL A   1      41.707  28.462  31.291  1.00  0.00     0.167 HD
ATOM     57  C   UNL A   1      42.633  28.984  33.930  1.00  0.00     0.074 A 
ATOM     58  C   UNL A   1      42.698  29.480  35.291  1.00  0.00     0.031 C 
ATOM     59  C   UNL A   1      43.510  28.094  33.402  1.00  0.00     0.034 A 
BRANCH  46  60
ATOM     60  C   UNL A   1      42.277  26.429  27.579  1.00  0.00     0.023 A 
ATOM     61  C   UNL A   1      43.046  27.023  26.559  1.00  0.00     0.012 A 
ATOM     62  C   UNL A   1      41.930  25.066  27.480  1.00  0.00     0.148 A 
ATOM     63  C   UNL A   1      43.443  26.281  25.447  1.00  0.00     0.002 A 
ATOM     64  C   UNL A   1      42.360  24.324  26.386  1.00  0.00     0.091 A 
ATOM     65  F   UNL A   1      41.172  24.527  28.446  1.00  0.00    -0.205 F 
ATOM     66  C   UNL A   1      43.109  24.931  25.366  1.00  0.00     0.022 A 
BRANCH  64  67
ATOM     67  S   UNL A   1      42.035  22.563  26.236  1.00  0.00     0.127 S 
ATOM     68  O   UNL A   1      42.594  22.051  27.486  1.00  0.00    -0.237 OA
ATOM     69  O   UNL A   1      40.574  22.519  26.161  1.00  0.00    -0.237 OA
ATOM     70  O   UNL A   1      42.712  22.138  25.019  1.00  0.00    -0.744 OA
ENDBRANCH  64  67
ENDBRANCH  46  60
BRANCH  47  71
ATOM     71  C   UNL A   1      39.267  31.966  35.361  1.00  0.00     0.023 A 
ATOM     72  C   UNL A   1      38.425  31.369  36.320  1.00  0.00     0.012 A 
ATOM     73  C   UNL A   1      39.708  33.288  35.566  1.00  0.00     0.148 A 
ATOM     74  C   UNL A   1      38.026  32.077  37.454  1.00  0.00     0.002 A 
ATOM     75  C   UNL A   1      39.358  33.964  36.730  1.00  0.00     0.091 A 
ATOM     76  F   UNL A   1      40.485  33.854  34.631  1.00  0.00    -0.205 F 
ATOM     77  C   UNL A   1      38.506  33.367  37.668  1.00  0.00     0.022 A 
BRANCH  75  78
ATOM     78  S   UNL A   1      40.077  35.560  37.142  1.00  0.00     0.127 S 
ATOM     79  O   UNL A   1      39.507  35.816  38.460  1.00  0.00    -0.237 OA
ATOM     80  O   UNL A   1      41.512  35.266  37.137  1.00  0.00    -0.237 OA
ATOM     81  O   UNL A   1      39.655  36.453  36.072  1.00  0.00    -0.744 OA
ENDBRANCH  75  78
ENDBRANCH  47  71
BRANCH  59  82
ATOM     82  C   UNL A   1      44.616  27.607  34.294  1.00  0.00     0.023 A 
ATOM     83  C   UNL A   1      45.891  28.197  34.196  1.00  0.00     0.012 A 
ATOM     84  C   UNL A   1      44.379  26.622  35.272  1.00  0.00     0.148 A 
ATOM     85  C   UNL A   1      46.923  27.796  35.044  1.00  0.00     0.002 A 
ATOM     86  C   UNL A   1      45.402  26.255  36.139  1.00  0.00     0.091 A 
ATOM     87  F   UNL A   1      43.165  26.056  35.332  1.00  0.00    -0.205 F 
ATOM     88  C   UNL A   1      46.676  26.835  36.022  1.00  0.00     0.022 A 
BRANCH  86  89
ATOM     89  S   UNL A   1      45.142  25.083  37.474  1.00  0.00     0.127 S 
ATOM     90  O   UNL A   1      44.824  23.859  36.741  1.00  0.00    -0.237 OA
ATOM     91  O   UNL A   1      46.442  25.072  38.145  1.00  0.00    -0.237 OA
ATOM     92  O   UNL A   1      44.059  25.637  38.278  1.00  0.00    -0.744 OA
ENDBRANCH  86  89
ENDBRANCH  59  82
ENDBRANCH  33  34
ENDBRANCH  26  28
ENDBRANCH  25  26
ENDBRANCH  24  25
ENDBRANCH   1  24
TORSDOF 18
ENDMDL
MODEL 3
REMARK VINA RESULT:     -10.9      5.267     10.360
REMARK SMILES C[NH2+][C@@]1(C(=O)OCCOC(=O)c2ccc(-c3c4nc(c(-c5cccc(S(=O)(=O)[O-])c5F)c5ccc([nH]5)c(-c5cccc(S(=O)(=O)[O-])c5F)c5nc(c(-c6cccc(S(=O)(=O)[O-])c6F)c6ccc3[nH]6)C=C5)C=C4)cc2)CCC[C@H](Oc2cccc(OC)c2)C1
REMARK SMILES IDX 7 1 6 2 4 3 5 4 3 5 75 6 88 7 76 8 78 9 77 10 2 11 1 12
REMARK SMILES IDX 79 15 80 16 81 17 87 18 82 19 84 20 83 21 85 22 86 23 8 24
REMARK SMILES IDX 9 25 10 26 11 27 12 28 13 29 74 30 14 31 73 32 15 33 16 34
REMARK SMILES IDX 17 35 67 36 18 37 72 38 66 39 68 40 19 41 71 42 65 43 64 44
REMARK SMILES IDX 20 46 52 47 32 48 51 49 33 50 36 51 50 52 69 53 34 54 35 55
REMARK SMILES IDX 49 57 70 58 37 59 21 60 22 61 30 62 23 63 25 64 31 65 24 66
REMARK SMILES IDX 26 67 27 68 28 69 29 70 53 71 54 72 62 73 55 74 57 75 63 76
REMARK SMILES IDX 56 77 58 78 59 79 60 80 61 81 38 82 39 83 47 84 40 85 42 86
REMARK SMILES IDX 48 87 41 88 43 89 44 90 45 91 46 92
REMARK H PARENT 2 13 2 14 68 45 36 56
REMARK Flexibility Score: inf
ROOT
ATOM      1  C   UNL A   1      35.484  22.293  24.115  1.00  0.00     0.274 C 
ENDROOT
BRANCH   1   2
ATOM      2  O   UNL A   1      35.467  23.468  24.953  1.00  0.00    -0.457 OA
BRANCH   2   3
ATOM      3  C   UNL A   1      34.395  23.638  25.756  1.00  0.00     0.368 C 
ATOM      4  O   UNL A   1      34.401  23.396  26.963  1.00  0.00    -0.245 OA
BRANCH   3   5
ATOM      5  C   UNL A   1      33.102  24.138  25.027  1.00  0.00     0.197 C 
ATOM      6  C   UNL A   1      32.180  24.681  26.145  1.00  0.00     0.081 C 
ATOM      7  C   UNL A   1      32.341  23.110  24.144  1.00  0.00     0.126 C 
ATOM      8  C   UNL A   1      31.506  23.565  26.928  1.00  0.00     0.011 C 
ATOM      9  C   UNL A   1      31.485  22.060  24.887  1.00  0.00     0.180 C 
ATOM     10  C   UNL A   1      30.655  22.718  25.995  1.00  0.00     0.046 C 
BRANCH   5  11
ATOM     11  N   UNL A   1      33.480  25.367  24.250  1.00  0.00    -0.334 N 
ATOM     12  C   UNL A   1      33.341  26.634  24.949  1.00  0.00     0.331 C 
ATOM     13  H   UNL A   1      34.456  25.271  23.972  1.00  0.00     0.347 HD
ATOM     14  H   UNL A   1      32.824  25.411  23.471  1.00  0.00     0.347 HD
ENDBRANCH   5  11
BRANCH   9  15
ATOM     15  O   UNL A   1      32.380  21.068  25.384  1.00  0.00    -0.490 OA
BRANCH  15  16
ATOM     16  C   UNL A   1      32.528  19.861  24.772  1.00  0.00     0.123 A 
ATOM     17  C   UNL A   1      32.465  19.603  23.409  1.00  0.00     0.047 A 
ATOM     18  C   UNL A   1      32.713  18.802  25.668  1.00  0.00     0.092 A 
ATOM     19  C   UNL A   1      32.493  18.283  22.953  1.00  0.00     0.008 A 
ATOM     20  C   UNL A   1      32.749  17.483  25.224  1.00  0.00     0.122 A 
ATOM     21  C   UNL A   1      32.620  17.228  23.860  1.00  0.00     0.046 A 
BRANCH  20  22
ATOM     22  O   UNL A   1      32.885  16.377  26.018  1.00  0.00    -0.497 OA
ATOM     23  C   UNL A   1      32.935  15.117  25.354  1.00  0.00     0.278 C 
ENDBRANCH  20  22
ENDBRANCH  15  16
ENDBRANCH   9  15
ENDBRANCH   3   5
ENDBRANCH   2   3
ENDBRANCH   1   2
BRANCH   1  24
ATOM     24  C   UNL A   1      35.934  21.079  24.919  1.00  0.00     0.275 C 
BRANCH  24  25
ATOM     25  O   UNL A   1      36.827  21.533  25.945  1.00  0.00    -0.458 OA
BRANCH  25  26
ATOM     26  C   UNL A   1      38.116  21.167  25.808  1.00  0.00     0.338 C 
ATOM     27  O   UNL A   1      38.559  20.097  25.407  1.00  0.00    -0.246 OA
BRANCH  26  28
ATOM     28  C   UNL A   1      38.953  22.326  26.124  1.00  0.00     0.060 A 
ATOM     29  C   UNL A   1      40.132  22.115  26.839  1.00  0.00     0.016 A 
ATOM     30  C   UNL A   1      38.536  23.615  25.808  1.00  0.00     0.016 A 
ATOM     31  C   UNL A   1      40.854  23.195  27.327  1.00  0.00     0.010 A 
ATOM     32  C   UNL A   1      39.321  24.698  26.213  1.00  0.00     0.010 A 
ATOM     33  C   UNL A   1      40.468  24.500  27.006  1.00  0.00    -0.014 A 
BRANCH  33  34
ATOM     34  C   UNL A   1      41.243  25.658  27.520  1.00  0.00     0.031 A 
ATOM     35  C   UNL A   1      40.578  26.669  28.411  1.00  0.00     0.074 A 
ATOM     36  C   UNL A   1      42.539  25.811  27.180  1.00  0.00     0.049 A 
ATOM     37  N   UNL A   1      41.004  27.847  28.786  1.00  0.00    -0.248 NA
ATOM     38  C   UNL A   1      39.245  26.320  28.934  1.00  0.00     0.031 C 
ATOM     39  C   UNL A   1      43.310  24.887  26.345  1.00  0.00     0.029 A 
ATOM     40  N   UNL A   1      43.434  26.806  27.483  1.00  0.00    -0.354 N 
ATOM     41  C   UNL A   1      39.963  28.413  29.512  1.00  0.00     0.074 A 
ATOM     42  C   UNL A   1      38.892  27.441  29.546  1.00  0.00     0.031 C 
ATOM     43  C   UNL A   1      44.563  25.346  26.218  1.00  0.00     0.029 A 
ATOM     44  C   UNL A   1      44.664  26.636  26.888  1.00  0.00     0.049 A 
ATOM     45  H   UNL A   1      43.217  27.568  28.068  1.00  0.00     0.167 HD
ATOM     46  C   UNL A   1      39.911  29.631  30.099  1.00  0.00     0.034 A 
ATOM     47  C   UNL A   1      45.738  27.448  26.847  1.00  0.00     0.034 A 
ATOM     48  C   UNL A   1      41.014  30.554  30.134  1.00  0.00     0.049 A 
ATOM     49  C   UNL A   1      45.668  28.778  27.540  1.00  0.00     0.074 A 
ATOM     50  C   UNL A   1      41.072  31.804  30.724  1.00  0.00     0.029 A 
ATOM     51  N   UNL A   1      42.260  30.315  29.574  1.00  0.00    -0.354 N 
ATOM     52  N   UNL A   1      44.682  29.294  28.233  1.00  0.00    -0.248 NA
ATOM     53  C   UNL A   1      46.857  29.636  27.453  1.00  0.00     0.031 C 
ATOM     54  C   UNL A   1      42.358  32.320  30.525  1.00  0.00     0.029 A 
ATOM     55  C   UNL A   1      43.100  31.389  29.814  1.00  0.00     0.049 A 
ATOM     56  H   UNL A   1      42.510  29.502  29.078  1.00  0.00     0.167 HD
ATOM     57  C   UNL A   1      45.130  30.533  28.670  1.00  0.00     0.074 A 
ATOM     58  C   UNL A   1      46.493  30.675  28.194  1.00  0.00     0.031 C 
ATOM     59  C   UNL A   1      44.467  31.483  29.375  1.00  0.00     0.034 A 
BRANCH  46  60
ATOM     60  C   UNL A   1      38.626  30.026  30.776  1.00  0.00     0.023 A 
ATOM     61  C   UNL A   1      38.369  29.596  32.092  1.00  0.00     0.012 A 
ATOM     62  C   UNL A   1      37.697  30.864  30.127  1.00  0.00     0.148 A 
ATOM     63  C   UNL A   1      37.195  29.973  32.744  1.00  0.00     0.002 A 
ATOM     64  C   UNL A   1      36.546  31.265  30.796  1.00  0.00     0.091 A 
ATOM     65  F   UNL A   1      37.946  31.238  28.864  1.00  0.00    -0.205 F 
ATOM     66  C   UNL A   1      36.290  30.814  32.101  1.00  0.00     0.022 A 
BRANCH  64  67
ATOM     67  S   UNL A   1      35.362  32.403  30.068  1.00  0.00     0.127 S 
ATOM     68  O   UNL A   1      34.879  31.634  28.923  1.00  0.00    -0.237 OA
ATOM     69  O   UNL A   1      34.384  32.569  31.145  1.00  0.00    -0.237 OA
ATOM     70  O   UNL A   1      36.116  33.607  29.749  1.00  0.00    -0.744 OA
ENDBRANCH  64  67
ENDBRANCH  46  60
BRANCH  47  71
ATOM     71  C   UNL A   1      46.968  27.005  26.131  1.00  0.00     0.023 A 
ATOM     72  C   UNL A   1      47.121  27.315  24.766  1.00  0.00     0.012 A 
ATOM     73  C   UNL A   1      48.015  26.349  26.806  1.00  0.00     0.148 A 
ATOM     74  C   UNL A   1      48.291  26.972  24.087  1.00  0.00     0.002 A 
ATOM     75  C   UNL A   1      49.203  26.068  26.139  1.00  0.00     0.091 A 
ATOM     76  F   UNL A   1      47.844  26.033  28.098  1.00  0.00    -0.205 F 
ATOM     77  C   UNL A   1      49.338  26.365  24.776  1.00  0.00     0.022 A 
BRANCH  75  78
ATOM     78  S   UNL A   1      50.645  25.441  27.010  1.00  0.00     0.127 S 
ATOM     79  O   UNL A   1      51.576  25.193  25.914  1.00  0.00    -0.237 OA
ATOM     80  O   UNL A   1      50.999  26.566  27.877  1.00  0.00    -0.237 OA
ATOM     81  O   UNL A   1      50.172  24.267  27.731  1.00  0.00    -0.744 OA
ENDBRANCH  75  78
ENDBRANCH  47  71
BRANCH  59  82
ATOM     82  C   UNL A   1      45.207  32.756  29.679  1.00  0.00     0.023 A 
ATOM     83  C   UNL A   1      46.026  32.820  30.822  1.00  0.00     0.012 A 
ATOM     84  C   UNL A   1      45.147  33.856  28.803  1.00  0.00     0.148 A 
ATOM     85  C   UNL A   1      46.761  33.971  31.101  1.00  0.00     0.002 A 
ATOM     86  C   UNL A   1      45.911  34.986  29.068  1.00  0.00     0.091 A 
ATOM     87  F   UNL A   1      44.341  33.783  27.733  1.00  0.00    -0.205 F 
ATOM     88  C   UNL A   1      46.713  35.049  30.220  1.00  0.00     0.022 A 
BRANCH  86  89
ATOM     89  S   UNL A   1      45.964  36.384  27.942  1.00  0.00     0.127 S 
ATOM     90  O   UNL A   1      47.031  37.197  28.522  1.00  0.00    -0.237 OA
ATOM     91  O   UNL A   1      46.304  35.752  26.667  1.00  0.00    -0.237 OA
ATOM     92  O   UNL A   1      44.630  36.971  27.981  1.00  0.00    -0.744 OA
ENDBRANCH  86  89
ENDBRANCH  59  82
ENDBRANCH  33  34
ENDBRANCH  26  28
ENDBRANCH  25  26
ENDBRANCH  24  25
ENDBRANCH   1  24
TORSDOF 18
ENDMDL
