MODEL 1
REMARK VINA RESULT:     -12.8      0.000      0.000
REMARK SMILES C[C@@]1(C(=O)c2ccccc2N)[C@H](C(=O)OCCOC(=O)c2ccc(-c3c4nc(c(-c5cccc(S(=O)(=O)[O-])c5F)c5ccc([nH]5)c(-c5cccc(S(=O)(=O)[O-])c5F)c5nc(c(-c6cccc(S(=O)(=O)[O-])c6F)c6ccc3[nH]6)C=C5)C=C4)cc2)[C@@H]1C(=O)N1CCOCC1
REMARK SMILES IDX 16 1 15 2 13 3 14 4 12 5 1 6 2 7 84 8 3 9 4 10 5 11 6 12
REMARK SMILES IDX 10 13 7 14 9 15 8 16 11 17 85 20 86 21 87 22 88 23 92 24
REMARK SMILES IDX 89 25 91 26 90 27 17 28 18 29 19 30 20 31 21 32 22 33 83 34
REMARK SMILES IDX 23 35 82 36 24 37 25 38 26 39 76 40 27 41 81 42 75 43 77 44
REMARK SMILES IDX 28 45 80 46 74 47 73 48 29 50 61 51 41 52 60 53 42 54 45 55
REMARK SMILES IDX 59 56 78 57 43 58 44 59 58 61 79 62 46 63 30 64 31 65 39 66
REMARK SMILES IDX 32 67 34 68 40 69 33 70 35 71 36 72 37 73 38 74 62 75 63 76
REMARK SMILES IDX 71 77 64 78 66 79 72 80 65 81 67 82 68 83 69 84 70 85 47 86
REMARK SMILES IDX 48 87 56 88 49 89 51 90 57 91 50 92 52 93 53 94 54 95 55 96
REMARK H PARENT 11 18 11 19 77 49 45 60
REMARK Flexibility Score: inf
ROOT
ATOM      1  C   UNL A   1      36.847  22.303  23.731  1.00  0.00     0.274 C 
ENDROOT
BRANCH   1   2
ATOM      2  O   UNL A   1      35.920  23.101  24.498  1.00  0.00    -0.462 OA
BRANCH   2   3
ATOM      3  C   UNL A   1      34.721  22.514  24.749  1.00  0.00     0.310 C 
ATOM      4  O   UNL A   1      34.400  22.012  25.811  1.00  0.00    -0.252 OA
BRANCH   3   5
ATOM      5  C   UNL A   1      33.744  22.510  23.624  1.00  0.00     0.127 C 
ATOM      6  C   UNL A   1      32.101  21.437  22.010  1.00  0.00     0.022 C 
ATOM      7  C   UNL A   1      32.406  21.799  23.479  1.00  0.00     0.057 C 
ATOM      8  C   UNL A   1      32.465  23.302  23.734  1.00  0.00     0.108 C 
BRANCH   7   9
ATOM      9  C   UNL A   1      32.145  20.616  24.384  1.00  0.00     0.172 C 
ATOM     10  O   UNL A   1      31.404  20.817  25.349  1.00  0.00    -0.293 OA
BRANCH   9  11
ATOM     11  C   UNL A   1      32.681  19.245  24.282  1.00  0.00     0.041 A 
ATOM     12  C   UNL A   1      32.617  18.687  22.985  1.00  0.00     0.014 A 
ATOM     13  C   UNL A   1      33.105  18.451  25.353  1.00  0.00     0.042 A 
ATOM     14  C   UNL A   1      33.021  17.379  22.733  1.00  0.00     0.001 A 
ATOM     15  C   UNL A   1      33.523  17.135  25.076  1.00  0.00     0.026 A 
ATOM     16  C   UNL A   1      33.498  16.607  23.781  1.00  0.00     0.002 A 
BRANCH  13  17
ATOM     17  N   UNL A   1      32.908  18.787  26.697  1.00  0.00    -0.398 N 
ATOM     18  H   UNL A   1      33.445  19.502  27.109  1.00  0.00     0.156 HD
ATOM     19  H   UNL A   1      32.232  18.310  27.231  1.00  0.00     0.156 HD
ENDBRANCH  13  17
ENDBRANCH   9  11
ENDBRANCH   7   9
BRANCH   8  20
ATOM     20  C   UNL A   1      32.174  24.078  24.958  1.00  0.00     0.227 C 
ATOM     21  O   UNL A   1      31.465  23.619  25.841  1.00  0.00    -0.275 OA
ATOM     22  N   UNL A   1      32.602  25.391  24.967  1.00  0.00    -0.338 N 
ATOM     23  C   UNL A   1      32.091  26.329  23.959  1.00  0.00     0.148 C 
ATOM     24  C   UNL A   1      32.918  25.991  26.254  1.00  0.00     0.148 C 
ATOM     25  C   UNL A   1      32.877  27.643  23.918  1.00  0.00     0.181 C 
ATOM     26  C   UNL A   1      33.747  27.261  26.071  1.00  0.00     0.181 C 
ATOM     27  O   UNL A   1      33.047  28.193  25.236  1.00  0.00    -0.378 OA
ENDBRANCH   8  20
ENDBRANCH   3   5
ENDBRANCH   2   3
ENDBRANCH   1   2
BRANCH   1  28
ATOM     28  C   UNL A   1      37.360  21.079  24.496  1.00  0.00     0.275 C 
BRANCH  28  29
ATOM     29  O   UNL A   1      37.718  21.395  25.853  1.00  0.00    -0.458 OA
BRANCH  29  30
ATOM     30  C   UNL A   1      39.040  21.279  26.112  1.00  0.00     0.338 C 
ATOM     31  O   UNL A   1      39.775  20.371  25.764  1.00  0.00    -0.246 OA
BRANCH  30  32
ATOM     32  C   UNL A   1      39.551  22.485  26.775  1.00  0.00     0.060 A 
ATOM     33  C   UNL A   1      39.016  23.712  26.383  1.00  0.00     0.016 A 
ATOM     34  C   UNL A   1      40.648  22.435  27.630  1.00  0.00     0.016 A 
ATOM     35  C   UNL A   1      39.597  24.902  26.793  1.00  0.00     0.010 A 
ATOM     36  C   UNL A   1      41.220  23.634  28.069  1.00  0.00     0.010 A 
ATOM     37  C   UNL A   1      40.718  24.872  27.625  1.00  0.00    -0.014 A 
BRANCH  37  38
ATOM     38  C   UNL A   1      41.400  26.144  27.958  1.00  0.00     0.031 A 
ATOM     39  C   UNL A   1      40.659  27.206  28.720  1.00  0.00     0.074 A 
ATOM     40  C   UNL A   1      42.685  26.328  27.598  1.00  0.00     0.049 A 
ATOM     41  N   UNL A   1      41.040  28.418  29.025  1.00  0.00    -0.248 NA
ATOM     42  C   UNL A   1      39.309  26.862  29.198  1.00  0.00     0.031 C 
ATOM     43  C   UNL A   1      43.512  25.348  26.891  1.00  0.00     0.029 A 
ATOM     44  N   UNL A   1      43.515  27.406  27.766  1.00  0.00    -0.354 N 
ATOM     45  C   UNL A   1      39.957  29.004  29.668  1.00  0.00     0.074 A 
ATOM     46  C   UNL A   1      38.908  28.010  29.724  1.00  0.00     0.031 C 
ATOM     47  C   UNL A   1      44.727  25.876  26.674  1.00  0.00     0.029 A 
ATOM     48  C   UNL A   1      44.746  27.244  27.177  1.00  0.00     0.049 A 
ATOM     49  H   UNL A   1      43.254  28.217  28.260  1.00  0.00     0.167 HD
ATOM     50  C   UNL A   1      39.854  30.257  30.172  1.00  0.00     0.034 A 
ATOM     51  C   UNL A   1      45.762  28.117  27.027  1.00  0.00     0.034 A 
ATOM     52  C   UNL A   1      40.926  31.215  30.163  1.00  0.00     0.049 A 
ATOM     53  C   UNL A   1      45.614  29.503  27.590  1.00  0.00     0.074 A 
ATOM     54  C   UNL A   1      40.942  32.492  30.696  1.00  0.00     0.029 A 
ATOM     55  N   UNL A   1      42.171  31.002  29.593  1.00  0.00    -0.354 N 
ATOM     56  N   UNL A   1      44.615  30.017  28.267  1.00  0.00    -0.248 NA
ATOM     57  C   UNL A   1      46.740  30.424  27.389  1.00  0.00     0.031 C 
ATOM     58  C   UNL A   1      42.193  33.059  30.429  1.00  0.00     0.029 A 
ATOM     59  C   UNL A   1      42.962  32.127  29.749  1.00  0.00     0.049 A 
ATOM     60  H   UNL A   1      42.453  30.174  29.143  1.00  0.00     0.167 HD
ATOM     61  C   UNL A   1      45.003  31.309  28.598  1.00  0.00     0.074 A 
ATOM     62  C   UNL A   1      46.339  31.492  28.067  1.00  0.00     0.031 C 
ATOM     63  C   UNL A   1      44.310  32.266  29.263  1.00  0.00     0.034 A 
BRANCH  50  64
ATOM     64  C   UNL A   1      38.540  30.662  30.785  1.00  0.00     0.023 A 
ATOM     65  C   UNL A   1      38.295  30.416  32.151  1.00  0.00     0.012 A 
ATOM     66  C   UNL A   1      37.571  31.341  30.019  1.00  0.00     0.148 A 
ATOM     67  C   UNL A   1      37.095  30.816  32.738  1.00  0.00     0.002 A 
ATOM     68  C   UNL A   1      36.395  31.772  30.621  1.00  0.00     0.091 A 
ATOM     69  F   UNL A   1      37.813  31.541  28.716  1.00  0.00    -0.205 F 
ATOM     70  C   UNL A   1      36.151  31.504  31.978  1.00  0.00     0.022 A 
BRANCH  68  71
ATOM     71  S   UNL A   1      35.155  32.729  29.742  1.00  0.00     0.127 S 
ATOM     72  O   UNL A   1      34.607  31.730  28.824  1.00  0.00    -0.237 OA
ATOM     73  O   UNL A   1      34.249  33.127  30.821  1.00  0.00    -0.237 OA
ATOM     74  O   UNL A   1      35.868  33.830  29.114  1.00  0.00    -0.744 OA
ENDBRANCH  68  71
ENDBRANCH  50  64
BRANCH  51  75
ATOM     75  C   UNL A   1      47.010  27.695  26.330  1.00  0.00     0.023 A 
ATOM     76  C   UNL A   1      48.018  27.032  27.056  1.00  0.00     0.012 A 
ATOM     77  C   UNL A   1      47.192  27.921  24.951  1.00  0.00     0.148 A 
ATOM     78  C   UNL A   1      49.195  26.625  26.427  1.00  0.00     0.002 A 
ATOM     79  C   UNL A   1      48.341  27.461  24.319  1.00  0.00     0.091 A 
ATOM     80  F   UNL A   1      46.233  28.575  24.281  1.00  0.00    -0.205 F 
ATOM     81  C   UNL A   1      49.352  26.828  25.057  1.00  0.00     0.022 A 
BRANCH  79  82
ATOM     82  S   UNL A   1      48.556  27.557  22.538  1.00  0.00     0.127 S 
ATOM     83  O   UNL A   1      49.824  28.273  22.427  1.00  0.00    -0.237 OA
ATOM     84  O   UNL A   1      48.610  26.144  22.160  1.00  0.00    -0.237 OA
ATOM     85  O   UNL A   1      47.381  28.261  22.043  1.00  0.00    -0.744 OA
ENDBRANCH  79  82
ENDBRANCH  51  75
BRANCH  63  86
ATOM     86  C   UNL A   1      44.996  33.587  29.489  1.00  0.00     0.023 A 
ATOM     87  C   UNL A   1      45.763  33.785  30.653  1.00  0.00     0.012 A 
ATOM     88  C   UNL A   1      44.940  34.602  28.514  1.00  0.00     0.148 A 
ATOM     89  C   UNL A   1      46.441  34.986  30.858  1.00  0.00     0.002 A 
ATOM     90  C   UNL A   1      45.657  35.777  28.703  1.00  0.00     0.091 A 
ATOM     91  F   UNL A   1      44.186  34.401  27.423  1.00  0.00    -0.205 F 
ATOM     92  C   UNL A   1      46.398  35.976  29.879  1.00  0.00     0.022 A 
BRANCH  90  93
ATOM     93  S   UNL A   1      45.735  37.063  27.452  1.00  0.00     0.127 S 
ATOM     94  O   UNL A   1      46.366  36.357  26.338  1.00  0.00    -0.237 OA
ATOM     95  O   UNL A   1      44.323  37.386  27.247  1.00  0.00    -0.237 OA
ATOM     96  O   UNL A   1      46.521  38.142  28.036  1.00  0.00    -0.744 OA
ENDBRANCH  90  93
ENDBRANCH  63  86
ENDBRANCH  37  38
ENDBRANCH  30  32
ENDBRANCH  29  30
ENDBRANCH  28  29
ENDBRANCH   1  28
TORSDOF 18
ENDMDL
MODEL 2
REMARK VINA RESULT:     -12.7      5.281     10.367
REMARK SMILES C[C@@]1(C(=O)c2ccccc2N)[C@H](C(=O)OCCOC(=O)c2ccc(-c3c4nc(c(-c5cccc(S(=O)(=O)[O-])c5F)c5ccc([nH]5)c(-c5cccc(S(=O)(=O)[O-])c5F)c5nc(c(-c6cccc(S(=O)(=O)[O-])c6F)c6ccc3[nH]6)C=C5)C=C4)cc2)[C@@H]1C(=O)N1CCOCC1
REMARK SMILES IDX 16 1 15 2 13 3 14 4 12 5 1 6 2 7 84 8 3 9 4 10 5 11 6 12
REMARK SMILES IDX 10 13 7 14 9 15 8 16 11 17 85 20 86 21 87 22 88 23 92 24
REMARK SMILES IDX 89 25 91 26 90 27 17 28 18 29 19 30 20 31 21 32 22 33 83 34
REMARK SMILES IDX 23 35 82 36 24 37 25 38 26 39 76 40 27 41 81 42 75 43 77 44
REMARK SMILES IDX 28 45 80 46 74 47 73 48 29 50 61 51 41 52 60 53 42 54 45 55
REMARK SMILES IDX 59 56 78 57 43 58 44 59 58 61 79 62 46 63 30 64 31 65 39 66
REMARK SMILES IDX 32 67 34 68 40 69 33 70 35 71 36 72 37 73 38 74 62 75 63 76
REMARK SMILES IDX 71 77 64 78 66 79 72 80 65 81 67 82 68 83 69 84 70 85 47 86
REMARK SMILES IDX 48 87 56 88 49 89 51 90 57 91 50 92 52 93 53 94 54 95 55 96
REMARK H PARENT 11 18 11 19 77 49 45 60
REMARK Flexibility Score: inf
ROOT
ATOM      1  C   UNL A   1      32.794  29.333  24.912  1.00  0.00     0.274 C 
ENDROOT
BRANCH   1   2
ATOM      2  O   UNL A   1      32.277  28.077  24.424  1.00  0.00    -0.462 OA
BRANCH   2   3
ATOM      3  C   UNL A   1      31.872  27.205  25.383  1.00  0.00     0.310 C 
ATOM      4  O   UNL A   1      32.481  26.966  26.410  1.00  0.00    -0.252 OA
BRANCH   3   5
ATOM      5  C   UNL A   1      30.576  26.512  25.135  1.00  0.00     0.127 C 
ATOM      6  C   UNL A   1      28.201  26.326  24.250  1.00  0.00     0.022 C 
ATOM      7  C   UNL A   1      29.695  26.479  23.893  1.00  0.00     0.057 C 
ATOM      8  C   UNL A   1      30.538  25.268  24.283  1.00  0.00     0.108 C 
BRANCH   7   9
ATOM      9  C   UNL A   1      29.890  27.576  22.872  1.00  0.00     0.172 C 
ATOM     10  O   UNL A   1      30.663  27.331  21.943  1.00  0.00    -0.293 OA
BRANCH   9  11
ATOM     11  C   UNL A   1      29.293  28.926  22.848  1.00  0.00     0.041 A 
ATOM     12  C   UNL A   1      27.942  28.975  23.260  1.00  0.00     0.014 A 
ATOM     13  C   UNL A   1      29.902  30.080  22.345  1.00  0.00     0.042 A 
ATOM     14  C   UNL A   1      27.214  30.161  23.232  1.00  0.00     0.001 A 
ATOM     15  C   UNL A   1      29.153  31.274  22.338  1.00  0.00     0.026 A 
ATOM     16  C   UNL A   1      27.831  31.320  22.790  1.00  0.00     0.002 A 
BRANCH  13  17
ATOM     17  N   UNL A   1      31.102  30.077  21.625  1.00  0.00    -0.398 N 
ATOM     18  H   UNL A   1      31.138  30.475  20.725  1.00  0.00     0.156 HD
ATOM     19  H   UNL A   1      31.912  29.678  22.019  1.00  0.00     0.156 HD
ENDBRANCH  13  17
ENDBRANCH   9  11
ENDBRANCH   7   9
BRANCH   8  20
ATOM     20  C   UNL A   1      31.782  24.736  23.689  1.00  0.00     0.227 C 
ATOM     21  O   UNL A   1      31.996  24.827  22.488  1.00  0.00    -0.275 OA
ATOM     22  N   UNL A   1      32.592  23.993  24.525  1.00  0.00    -0.338 N 
ATOM     23  C   UNL A   1      32.072  22.764  25.137  1.00  0.00     0.148 C 
ATOM     24  C   UNL A   1      34.020  23.980  24.247  1.00  0.00     0.148 C 
ATOM     25  C   UNL A   1      32.973  22.230  26.255  1.00  0.00     0.181 C 
ATOM     26  C   UNL A   1      34.802  23.478  25.459  1.00  0.00     0.181 C 
ATOM     27  O   UNL A   1      34.348  22.171  25.836  1.00  0.00    -0.378 OA
ENDBRANCH   8  20
ENDBRANCH   3   5
ENDBRANCH   2   3
ENDBRANCH   1   2
BRANCH   1  28
ATOM     28  C   UNL A   1      31.792  30.094  25.788  1.00  0.00     0.275 C 
BRANCH  28  29
ATOM     29  O   UNL A   1      32.298  30.333  27.113  1.00  0.00    -0.458 OA
BRANCH  29  30
ATOM     30  C   UNL A   1      33.021  31.470  27.227  1.00  0.00     0.338 C 
ATOM     31  O   UNL A   1      32.612  32.610  27.095  1.00  0.00    -0.246 OA
BRANCH  30  32
ATOM     32  C   UNL A   1      34.387  31.178  27.680  1.00  0.00     0.060 A 
ATOM     33  C   UNL A   1      34.706  29.849  27.953  1.00  0.00     0.016 A 
ATOM     34  C   UNL A   1      35.279  32.197  28.000  1.00  0.00     0.016 A 
ATOM     35  C   UNL A   1      35.890  29.521  28.593  1.00  0.00     0.010 A 
ATOM     36  C   UNL A   1      36.489  31.868  28.621  1.00  0.00     0.010 A 
ATOM     37  C   UNL A   1      36.784  30.531  28.951  1.00  0.00    -0.014 A 
BRANCH  37  38
ATOM     38  C   UNL A   1      37.988  30.181  29.740  1.00  0.00     0.031 A 
ATOM     39  C   UNL A   1      39.006  29.240  29.162  1.00  0.00     0.074 A 
ATOM     40  C   UNL A   1      38.173  30.728  30.957  1.00  0.00     0.049 A 
ATOM     41  N   UNL A   1      40.072  28.734  29.723  1.00  0.00    -0.248 NA
ATOM     42  C   UNL A   1      38.796  28.806  27.770  1.00  0.00     0.031 C 
ATOM     43  C   UNL A   1      37.268  31.684  31.598  1.00  0.00     0.029 A 
ATOM     44  N   UNL A   1      39.174  30.548  31.876  1.00  0.00    -0.354 N 
ATOM     45  C   UNL A   1      40.622  27.872  28.782  1.00  0.00     0.074 A 
ATOM     46  C   UNL A   1      39.781  27.934  27.607  1.00  0.00     0.031 C 
ATOM     47  C   UNL A   1      37.750  31.996  32.812  1.00  0.00     0.029 A 
ATOM     48  C   UNL A   1      38.963  31.224  33.053  1.00  0.00     0.049 A 
ATOM     49  H   UNL A   1      39.967  29.989  31.707  1.00  0.00     0.167 HD
ATOM     50  C   UNL A   1      41.732  27.105  28.889  1.00  0.00     0.034 A 
ATOM     51  C   UNL A   1      39.651  31.194  34.212  1.00  0.00     0.034 A 
ATOM     52  C   UNL A   1      42.593  27.098  30.040  1.00  0.00     0.049 A 
ATOM     53  C   UNL A   1      40.876  30.325  34.302  1.00  0.00     0.074 A 
ATOM     54  C   UNL A   1      43.772  26.398  30.228  1.00  0.00     0.029 A 
ATOM     55  N   UNL A   1      42.369  27.825  31.199  1.00  0.00    -0.354 N 
ATOM     56  N   UNL A   1      41.429  29.578  33.377  1.00  0.00    -0.248 NA
ATOM     57  C   UNL A   1      41.585  30.312  35.589  1.00  0.00     0.031 C 
ATOM     58  C   UNL A   1      44.250  26.688  31.511  1.00  0.00     0.029 A 
ATOM     59  C   UNL A   1      43.380  27.584  32.113  1.00  0.00     0.049 A 
ATOM     60  H   UNL A   1      41.604  28.425  31.350  1.00  0.00     0.167 HD
ATOM     61  C   UNL A   1      42.565  29.029  33.958  1.00  0.00     0.074 A 
ATOM     62  C   UNL A   1      42.634  29.549  35.310  1.00  0.00     0.031 C 
ATOM     63  C   UNL A   1      43.460  28.158  33.431  1.00  0.00     0.034 A 
BRANCH  50  64
ATOM     64  C   UNL A   1      42.088  26.215  27.728  1.00  0.00     0.023 A 
ATOM     65  C   UNL A   1      42.891  26.710  26.682  1.00  0.00     0.012 A 
ATOM     66  C   UNL A   1      41.673  24.869  27.704  1.00  0.00     0.148 A 
ATOM     67  C   UNL A   1      43.255  25.887  25.616  1.00  0.00     0.002 A 
ATOM     68  C   UNL A   1      42.072  24.043  26.660  1.00  0.00     0.091 A 
ATOM     69  F   UNL A   1      40.888  24.425  28.696  1.00  0.00    -0.205 F 
ATOM     70  C   UNL A   1      42.856  24.551  25.611  1.00  0.00     0.022 A 
BRANCH  68  71
ATOM     71  S   UNL A   1      41.671  22.293  26.604  1.00  0.00     0.127 S 
ATOM     72  O   UNL A   1      42.345  21.874  25.376  1.00  0.00    -0.237 OA
ATOM     73  O   UNL A   1      42.284  21.796  27.837  1.00  0.00    -0.237 OA
ATOM     74  O   UNL A   1      40.218  22.215  26.578  1.00  0.00    -0.744 OA
ENDBRANCH  68  71
ENDBRANCH  50  64
BRANCH  51  75
ATOM     75  C   UNL A   1      39.206  32.024  35.365  1.00  0.00     0.023 A 
ATOM     76  C   UNL A   1      38.302  31.484  36.299  1.00  0.00     0.012 A 
ATOM     77  C   UNL A   1      39.694  33.332  35.559  1.00  0.00     0.148 A 
ATOM     78  C   UNL A   1      37.870  32.239  37.390  1.00  0.00     0.002 A 
ATOM     79  C   UNL A   1      39.306  34.058  36.679  1.00  0.00     0.091 A 
ATOM     80  F   UNL A   1      40.536  33.839  34.648  1.00  0.00    -0.205 F 
ATOM     81  C   UNL A   1      38.381  33.521  37.588  1.00  0.00     0.022 A 
BRANCH  79  82
ATOM     82  S   UNL A   1      40.023  35.655  37.080  1.00  0.00     0.127 S 
ATOM     83  O   UNL A   1      39.651  36.452  35.914  1.00  0.00    -0.237 OA
ATOM     84  O   UNL A   1      39.322  36.004  38.316  1.00  0.00    -0.237 OA
ATOM     85  O   UNL A   1      41.449  35.407  37.254  1.00  0.00    -0.744 OA
ENDBRANCH  79  82
ENDBRANCH  51  75
BRANCH  63  86
ATOM     86  C   UNL A   1      44.614  27.738  34.301  1.00  0.00     0.023 A 
ATOM     87  C   UNL A   1      45.795  28.505  34.312  1.00  0.00     0.012 A 
ATOM     88  C   UNL A   1      44.499  26.629  35.160  1.00  0.00     0.148 A 
ATOM     89  C   UNL A   1      46.857  28.157  35.145  1.00  0.00     0.002 A 
ATOM     90  C   UNL A   1      45.544  26.315  36.022  1.00  0.00     0.091 A 
ATOM     91  F   UNL A   1      43.375  25.899  35.119  1.00  0.00    -0.205 F 
ATOM     92  C   UNL A   1      46.727  27.070  36.007  1.00  0.00     0.022 A 
BRANCH  90  93
ATOM     93  S   UNL A   1      45.424  24.994  37.233  1.00  0.00     0.127 S 
ATOM     94  O   UNL A   1      45.299  23.816  36.377  1.00  0.00    -0.237 OA
ATOM     95  O   UNL A   1      46.700  25.101  37.940  1.00  0.00    -0.237 OA
ATOM     96  O   UNL A   1      44.256  25.304  38.047  1.00  0.00    -0.744 OA
ENDBRANCH  90  93
ENDBRANCH  63  86
ENDBRANCH  37  38
ENDBRANCH  30  32
ENDBRANCH  29  30
ENDBRANCH  28  29
ENDBRANCH   1  28
TORSDOF 18
ENDMDL
MODEL 3
REMARK VINA RESULT:     -12.7      1.309      7.550
REMARK SMILES C[C@@]1(C(=O)c2ccccc2N)[C@H](C(=O)OCCOC(=O)c2ccc(-c3c4nc(c(-c5cccc(S(=O)(=O)[O-])c5F)c5ccc([nH]5)c(-c5cccc(S(=O)(=O)[O-])c5F)c5nc(c(-c6cccc(S(=O)(=O)[O-])c6F)c6ccc3[nH]6)C=C5)C=C4)cc2)[C@@H]1C(=O)N1CCOCC1
REMARK SMILES IDX 16 1 15 2 13 3 14 4 12 5 1 6 2 7 84 8 3 9 4 10 5 11 6 12
REMARK SMILES IDX 10 13 7 14 9 15 8 16 11 17 85 20 86 21 87 22 88 23 92 24
REMARK SMILES IDX 89 25 91 26 90 27 17 28 18 29 19 30 20 31 21 32 22 33 83 34
REMARK SMILES IDX 23 35 82 36 24 37 25 38 26 39 76 40 27 41 81 42 75 43 77 44
REMARK SMILES IDX 28 45 80 46 74 47 73 48 29 50 61 51 41 52 60 53 42 54 45 55
REMARK SMILES IDX 59 56 78 57 43 58 44 59 58 61 79 62 46 63 30 64 31 65 39 66
REMARK SMILES IDX 32 67 34 68 40 69 33 70 35 71 36 72 37 73 38 74 62 75 63 76
REMARK SMILES IDX 71 77 64 78 66 79 72 80 65 81 67 82 68 83 69 84 70 85 47 86
REMARK SMILES IDX 48 87 56 88 49 89 51 90 57 91 50 92 52 93 53 94 54 95 55 96
REMARK H PARENT 11 18 11 19 77 49 45 60
REMARK Flexibility Score: inf
ROOT
ATOM      1  C   UNL A   1      35.822  21.476  26.042  1.00  0.00     0.274 C 
ENDROOT
BRANCH   1   2
ATOM      2  O   UNL A   1      34.565  21.734  25.381  1.00  0.00    -0.462 OA
BRANCH   2   3
ATOM      3  C   UNL A   1      34.616  22.646  24.375  1.00  0.00     0.310 C 
ATOM      4  O   UNL A   1      35.452  23.525  24.273  1.00  0.00    -0.252 OA
BRANCH   3   5
ATOM      5  C   UNL A   1      33.561  22.527  23.329  1.00  0.00     0.127 C 
ATOM      6  C   UNL A   1      31.869  21.280  21.901  1.00  0.00     0.022 C 
ATOM      7  C   UNL A   1      32.260  21.738  23.323  1.00  0.00     0.057 C 
ATOM      8  C   UNL A   1      32.250  23.253  23.496  1.00  0.00     0.108 C 
BRANCH   7   9
ATOM      9  C   UNL A   1      32.135  20.594  24.303  1.00  0.00     0.172 C 
ATOM     10  O   UNL A   1      31.492  20.820  25.331  1.00  0.00    -0.293 OA
BRANCH   9  11
ATOM     11  C   UNL A   1      32.705  19.235  24.209  1.00  0.00     0.041 A 
ATOM     12  C   UNL A   1      32.663  18.673  22.913  1.00  0.00     0.014 A 
ATOM     13  C   UNL A   1      33.141  18.455  25.285  1.00  0.00     0.042 A 
ATOM     14  C   UNL A   1      33.099  17.374  22.668  1.00  0.00     0.001 A 
ATOM     15  C   UNL A   1      33.593  17.149  25.014  1.00  0.00     0.026 A 
ATOM     16  C   UNL A   1      33.588  16.617  23.721  1.00  0.00     0.002 A 
BRANCH  13  17
ATOM     17  N   UNL A   1      32.927  18.790  26.627  1.00  0.00    -0.398 N 
ATOM     18  H   UNL A   1      32.514  19.653  26.859  1.00  0.00     0.156 HD
ATOM     19  H   UNL A   1      33.190  18.163  27.339  1.00  0.00     0.156 HD
ENDBRANCH  13  17
ENDBRANCH   9  11
ENDBRANCH   7   9
BRANCH   8  20
ATOM     20  C   UNL A   1      32.005  24.079  24.698  1.00  0.00     0.227 C 
ATOM     21  O   UNL A   1      31.227  23.711  25.566  1.00  0.00    -0.275 OA
ATOM     22  N   UNL A   1      32.565  25.341  24.699  1.00  0.00    -0.338 N 
ATOM     23  C   UNL A   1      32.182  26.306  23.661  1.00  0.00     0.148 C 
ATOM     24  C   UNL A   1      32.904  25.929  25.986  1.00  0.00     0.148 C 
ATOM     25  C   UNL A   1      33.100  27.532  23.623  1.00  0.00     0.181 C 
ATOM     26  C   UNL A   1      33.863  27.105  25.808  1.00  0.00     0.181 C 
ATOM     27  O   UNL A   1      33.287  28.088  24.937  1.00  0.00    -0.378 OA
ENDBRANCH   8  20
ENDBRANCH   3   5
ENDBRANCH   2   3
ENDBRANCH   1   2
BRANCH   1  28
ATOM     28  C   UNL A   1      36.818  20.715  25.160  1.00  0.00     0.275 C 
BRANCH  28  29
ATOM     29  O   UNL A   1      38.031  21.457  24.942  1.00  0.00    -0.458 OA
BRANCH  29  30
ATOM     30  C   UNL A   1      39.006  21.190  25.839  1.00  0.00     0.338 C 
ATOM     31  O   UNL A   1      39.543  20.113  26.034  1.00  0.00    -0.246 OA
BRANCH  30  32
ATOM     32  C   UNL A   1      39.467  22.421  26.494  1.00  0.00     0.060 A 
ATOM     33  C   UNL A   1      38.848  23.616  26.129  1.00  0.00     0.016 A 
ATOM     34  C   UNL A   1      40.593  22.431  27.311  1.00  0.00     0.016 A 
ATOM     35  C   UNL A   1      39.371  24.835  26.527  1.00  0.00     0.010 A 
ATOM     36  C   UNL A   1      41.107  23.660  27.740  1.00  0.00     0.010 A 
ATOM     37  C   UNL A   1      40.518  24.869  27.321  1.00  0.00    -0.014 A 
BRANCH  37  38
ATOM     38  C   UNL A   1      41.135  26.177  27.640  1.00  0.00     0.031 A 
ATOM     39  C   UNL A   1      42.527  26.477  27.163  1.00  0.00     0.074 A 
ATOM     40  C   UNL A   1      40.434  27.095  28.333  1.00  0.00     0.049 A 
ATOM     41  N   UNL A   1      43.279  27.516  27.415  1.00  0.00    -0.248 NA
ATOM     42  C   UNL A   1      43.162  25.475  26.290  1.00  0.00     0.031 C 
ATOM     43  C   UNL A   1      39.061  26.924  28.811  1.00  0.00     0.029 A 
ATOM     44  N   UNL A   1      40.786  28.347  28.767  1.00  0.00    -0.354 N 
ATOM     45  C   UNL A   1      44.495  27.264  26.792  1.00  0.00     0.074 A 
ATOM     46  C   UNL A   1      44.377  25.981  26.136  1.00  0.00     0.031 C 
ATOM     47  C   UNL A   1      38.691  28.026  29.483  1.00  0.00     0.029 A 
ATOM     48  C   UNL A   1      39.815  28.953  29.529  1.00  0.00     0.049 A 
ATOM     49  H   UNL A   1      41.648  28.770  28.553  1.00  0.00     0.167 HD
ATOM     50  C   UNL A   1      45.604  28.039  26.767  1.00  0.00     0.034 A 
ATOM     51  C   UNL A   1      39.845  30.111  30.218  1.00  0.00     0.034 A 
ATOM     52  C   UNL A   1      45.687  29.340  27.372  1.00  0.00     0.049 A 
ATOM     53  C   UNL A   1      41.095  30.945  30.176  1.00  0.00     0.074 A 
ATOM     54  C   UNL A   1      46.747  30.230  27.357  1.00  0.00     0.029 A 
ATOM     55  N   UNL A   1      44.672  29.938  28.102  1.00  0.00    -0.354 N 
ATOM     56  N   UNL A   1      42.209  30.732  29.516  1.00  0.00    -0.248 NA
ATOM     57  C   UNL A   1      41.087  32.191  30.956  1.00  0.00     0.031 C 
ATOM     58  C   UNL A   1      46.378  31.359  28.096  1.00  0.00     0.029 A 
ATOM     59  C   UNL A   1      45.082  31.180  28.554  1.00  0.00     0.049 A 
ATOM     60  H   UNL A   1      43.789  29.538  28.275  1.00  0.00     0.167 HD
ATOM     61  C   UNL A   1      43.021  31.829  29.776  1.00  0.00     0.074 A 
ATOM     62  C   UNL A   1      42.263  32.716  30.635  1.00  0.00     0.031 C 
ATOM     63  C   UNL A   1      44.288  32.072  29.359  1.00  0.00     0.034 A 
BRANCH  50  64
ATOM     64  C   UNL A   1      46.817  27.507  26.051  1.00  0.00     0.023 A 
ATOM     65  C   UNL A   1      46.965  27.716  24.665  1.00  0.00     0.012 A 
ATOM     66  C   UNL A   1      47.840  26.851  26.765  1.00  0.00     0.148 A 
ATOM     67  C   UNL A   1      48.100  27.257  23.997  1.00  0.00     0.002 A 
ATOM     68  C   UNL A   1      48.985  26.431  26.099  1.00  0.00     0.091 A 
ATOM     69  F   UNL A   1      47.667  26.639  28.077  1.00  0.00    -0.205 F 
ATOM     70  C   UNL A   1      49.114  26.625  24.715  1.00  0.00     0.022 A 
BRANCH  68  71
ATOM     71  S   UNL A   1      50.376  25.677  26.951  1.00  0.00     0.127 S 
ATOM     72  O   UNL A   1      49.775  24.446  27.465  1.00  0.00    -0.237 OA
ATOM     73  O   UNL A   1      51.334  25.479  25.863  1.00  0.00    -0.237 OA
ATOM     74  O   UNL A   1      50.796  26.637  27.961  1.00  0.00    -0.744 OA
ENDBRANCH  68  71
ENDBRANCH  50  64
BRANCH  51  75
ATOM     75  C   UNL A   1      38.648  30.551  30.988  1.00  0.00     0.023 A 
ATOM     76  C   UNL A   1      38.591  30.314  32.375  1.00  0.00     0.012 A 
ATOM     77  C   UNL A   1      37.581  31.226  30.362  1.00  0.00     0.148 A 
ATOM     78  C   UNL A   1      37.482  30.719  33.119  1.00  0.00     0.002 A 
ATOM     79  C   UNL A   1      36.506  31.678  31.119  1.00  0.00     0.091 A 
ATOM     80  F   UNL A   1      37.640  31.422  29.037  1.00  0.00    -0.205 F 
ATOM     81  C   UNL A   1      36.446  31.411  32.495  1.00  0.00     0.022 A 
BRANCH  79  82
ATOM     82  S   UNL A   1      35.203  32.696  30.418  1.00  0.00     0.127 S 
ATOM     83  O   UNL A   1      34.757  31.880  29.292  1.00  0.00    -0.237 OA
ATOM     84  O   UNL A   1      34.255  32.787  31.529  1.00  0.00    -0.237 OA
ATOM     85  O   UNL A   1      35.841  33.961  30.076  1.00  0.00    -0.744 OA
ENDBRANCH  79  82
ENDBRANCH  51  75
BRANCH  63  86
ATOM     86  C   UNL A   1      44.925  33.365  29.794  1.00  0.00     0.023 A 
ATOM     87  C   UNL A   1      45.661  33.412  30.993  1.00  0.00     0.012 A 
ATOM     88  C   UNL A   1      44.853  34.511  28.978  1.00  0.00     0.148 A 
ATOM     89  C   UNL A   1      46.294  34.590  31.389  1.00  0.00     0.002 A 
ATOM     90  C   UNL A   1      45.526  35.667  29.356  1.00  0.00     0.091 A 
ATOM     91  F   UNL A   1      44.128  34.451  27.851  1.00  0.00    -0.205 F 
ATOM     92  C   UNL A   1      46.237  35.712  30.565  1.00  0.00     0.022 A 
BRANCH  90  93
ATOM     93  S   UNL A   1      45.585  37.126  28.309  1.00  0.00     0.127 S 
ATOM     94  O   UNL A   1      46.466  38.006  29.074  1.00  0.00    -0.237 OA
ATOM     95  O   UNL A   1      46.169  36.601  27.075  1.00  0.00    -0.237 OA
ATOM     96  O   UNL A   1      44.207  37.579  28.178  1.00  0.00    -0.744 OA
ENDBRANCH  90  93
ENDBRANCH  63  86
ENDBRANCH  37  38
ENDBRANCH  30  32
ENDBRANCH  29  30
ENDBRANCH  28  29
ENDBRANCH   1  28
TORSDOF 18
ENDMDL
