MODEL 1
REMARK VINA RESULT:     -12.5      0.000      0.000
REMARK SMILES CN(CCc1ccccn1)C(=O)NC1(CC(=O)OCCOC(=O)c2ccc(-c3c4nc(c(-c5cccc(S(=O)(=O)[O-])c5F)c5ccc([nH]5)c(-c5cccc(S(=O)(=O)[O-])c5F)c5nc(c(-c6cccc(S(=O)(=O)[O-])c6F)c6ccc3[nH]6)C=C5)C=C4)cc2)CCC1
REMARK SMILES IDX 18 1 16 2 17 3 15 4 14 5 87 6 89 7 88 8 13 9 11 10 12 11
REMARK SMILES IDX 2 13 1 14 3 15 4 16 5 17 6 18 10 19 7 20 9 21 8 22 19 23
REMARK SMILES IDX 20 24 21 25 22 26 23 27 24 28 25 29 86 30 26 31 85 32 27 33
REMARK SMILES IDX 28 34 29 35 79 36 30 37 84 38 78 39 80 40 31 41 83 42 77 43
REMARK SMILES IDX 76 44 32 46 64 47 44 48 63 49 45 50 48 51 62 52 81 53 46 54
REMARK SMILES IDX 47 55 61 57 82 58 49 59 33 60 34 61 42 62 35 63 37 64 43 65
REMARK SMILES IDX 36 66 38 67 39 68 40 69 41 70 65 71 66 72 74 73 67 74 69 75
REMARK SMILES IDX 75 76 68 77 70 78 71 79 72 80 73 81 50 82 51 83 59 84 52 85
REMARK SMILES IDX 54 86 60 87 53 88 55 89 56 90 57 91 58 92
REMARK H PARENT 13 12 80 45 48 56
REMARK Flexibility Score: inf
ROOT
ATOM      1  O   UNL A   1      32.567  27.669  26.215  1.00  0.00    -0.462 OA
ENDROOT
BRANCH   1   2
ATOM      2  C   UNL A   1      32.802  26.785  25.215  1.00  0.00     0.308 C 
ATOM      3  O   UNL A   1      31.871  26.329  24.543  1.00  0.00    -0.252 OA
BRANCH   2   4
ATOM      4  C   UNL A   1      34.375  26.145  24.995  1.00  0.00     0.151 C 
BRANCH   4   5
ATOM      5  C   UNL A   1      35.217  24.130  24.917  1.00  0.00     0.052 C 
ATOM      6  C   UNL A   1      36.960  23.509  24.716  1.00  0.00     0.029 C 
ATOM      7  C   UNL A   1      35.181  22.775  23.644  1.00  0.00     0.029 C 
ATOM      8  C   UNL A   1      36.653  22.948  23.329  1.00  0.00     0.005 C 
BRANCH   5   9
ATOM      9  N   UNL A   1      34.877  22.908  26.184  1.00  0.00    -0.332 N 
ATOM     10  C   UNL A   1      33.783  22.304  26.722  1.00  0.00     0.317 C 
ATOM     11  O   UNL A   1      34.030  21.615  27.723  1.00  0.00    -0.249 OA
ATOM     12  H   UNL A   1      35.707  22.588  26.607  1.00  0.00     0.165 HD
BRANCH  10  13
ATOM     13  N   UNL A   1      32.494  22.423  26.248  1.00  0.00    -0.327 N 
ATOM     14  C   UNL A   1      31.770  23.560  26.798  1.00  0.00     0.148 C 
BRANCH  13  15
ATOM     15  C   UNL A   1      31.678  21.406  25.577  1.00  0.00     0.127 C 
BRANCH  15  16
ATOM     16  C   UNL A   1      32.238  20.669  24.357  1.00  0.00     0.078 C 
BRANCH  16  17
ATOM     17  C   UNL A   1      32.996  19.443  24.734  1.00  0.00     0.042 A 
ATOM     18  C   UNL A   1      34.769  19.342  24.622  1.00  0.00     0.024 A 
ATOM     19  N   UNL A   1      32.037  17.965  25.003  1.00  0.00    -0.261 NA
ATOM     20  C   UNL A   1      35.528  17.719  24.680  1.00  0.00     0.003 A 
ATOM     21  C   UNL A   1      32.816  16.382  24.981  1.00  0.00     0.111 A 
ATOM     22  C   UNL A   1      34.551  16.239  24.829  1.00  0.00     0.020 A 
ENDBRANCH  16  17
ENDBRANCH  15  16
ENDBRANCH  13  15
ENDBRANCH  10  13
ENDBRANCH   5   9
ENDBRANCH   4   5
ENDBRANCH   2   4
ENDBRANCH   1   2
BRANCH   1  23
ATOM     23  C   UNL A   1      31.397  28.515  26.182  1.00  0.00     0.274 C 
BRANCH  23  24
ATOM     24  C   UNL A   1      31.727  29.835  25.477  1.00  0.00     0.275 C 
BRANCH  24  25
ATOM     25  O   UNL A   1      33.047  30.207  25.880  1.00  0.00    -0.458 OA
BRANCH  25  26
ATOM     26  C   UNL A   1      33.152  31.123  26.868  1.00  0.00     0.338 C 
ATOM     27  O   UNL A   1      32.358  32.006  27.139  1.00  0.00    -0.246 OA
BRANCH  26  28
ATOM     28  C   UNL A   1      34.426  30.862  27.581  1.00  0.00     0.060 A 
ATOM     29  C   UNL A   1      35.272  31.923  27.905  1.00  0.00     0.016 A 
ATOM     30  C   UNL A   1      34.822  29.564  27.884  1.00  0.00     0.016 A 
ATOM     31  C   UNL A   1      36.534  31.705  28.435  1.00  0.00     0.010 A 
ATOM     32  C   UNL A   1      36.029  29.357  28.566  1.00  0.00     0.010 A 
ATOM     33  C   UNL A   1      36.909  30.424  28.840  1.00  0.00    -0.014 A 
BRANCH  33  34
ATOM     34  C   UNL A   1      38.189  30.206  29.574  1.00  0.00     0.031 A 
ATOM     35  C   UNL A   1      39.254  29.318  28.989  1.00  0.00     0.074 A 
ATOM     36  C   UNL A   1      38.373  30.754  30.796  1.00  0.00     0.049 A 
ATOM     37  N   UNL A   1      40.289  28.774  29.574  1.00  0.00    -0.248 NA
ATOM     38  C   UNL A   1      39.122  28.969  27.564  1.00  0.00     0.031 C 
ATOM     39  C   UNL A   1      37.435  31.650  31.481  1.00  0.00     0.029 A 
ATOM     40  N   UNL A   1      39.402  30.617  31.697  1.00  0.00    -0.354 N 
ATOM     41  C   UNL A   1      40.868  27.938  28.625  1.00  0.00     0.074 A 
ATOM     42  C   UNL A   1      40.082  28.066  27.417  1.00  0.00     0.031 C 
ATOM     43  C   UNL A   1      37.937  31.999  32.673  1.00  0.00     0.029 A 
ATOM     44  C   UNL A   1      39.165  31.254  32.895  1.00  0.00     0.049 A 
ATOM     45  H   UNL A   1      40.226  30.113  31.504  1.00  0.00     0.167 HD
ATOM     46  C   UNL A   1      41.950  27.134  28.757  1.00  0.00     0.034 A 
ATOM     47  C   UNL A   1      39.811  31.190  34.075  1.00  0.00     0.034 A 
ATOM     48  C   UNL A   1      42.760  27.073  29.946  1.00  0.00     0.049 A 
ATOM     49  C   UNL A   1      41.008  30.296  34.194  1.00  0.00     0.074 A 
ATOM     50  C   UNL A   1      43.913  26.339  30.165  1.00  0.00     0.029 A 
ATOM     51  N   UNL A   1      42.508  27.776  31.115  1.00  0.00    -0.354 N 
ATOM     52  N   UNL A   1      41.558  29.533  33.282  1.00  0.00    -0.248 NA
ATOM     53  C   UNL A   1      41.678  30.258  35.500  1.00  0.00     0.031 C 
ATOM     54  C   UNL A   1      44.338  26.573  31.475  1.00  0.00     0.029 A 
ATOM     55  C   UNL A   1      43.478  27.487  32.060  1.00  0.00     0.049 A 
ATOM     56  H   UNL A   1      41.750  28.389  31.253  1.00  0.00     0.167 HD
ATOM     57  C   UNL A   1      42.657  28.943  33.893  1.00  0.00     0.074 A 
ATOM     58  C   UNL A   1      42.706  29.461  35.246  1.00  0.00     0.031 C 
ATOM     59  C   UNL A   1      43.536  28.046  33.387  1.00  0.00     0.034 A 
BRANCH  46  60
ATOM     60  C   UNL A   1      42.326  26.252  27.592  1.00  0.00     0.023 A 
ATOM     61  C   UNL A   1      43.150  26.747  26.560  1.00  0.00     0.012 A 
ATOM     62  C   UNL A   1      41.908  24.905  27.552  1.00  0.00     0.148 A 
ATOM     63  C   UNL A   1      43.517  25.930  25.491  1.00  0.00     0.002 A 
ATOM     64  C   UNL A   1      42.322  24.083  26.510  1.00  0.00     0.091 A 
ATOM     65  F   UNL A   1      41.112  24.454  28.532  1.00  0.00    -0.205 F 
ATOM     66  C   UNL A   1      43.114  24.597  25.472  1.00  0.00     0.022 A 
BRANCH  64  67
ATOM     67  S   UNL A   1      41.931  22.330  26.441  1.00  0.00     0.127 S 
ATOM     68  O   UNL A   1      40.476  22.356  26.296  1.00  0.00    -0.237 OA
ATOM     69  O   UNL A   1      42.654  21.904  25.242  1.00  0.00    -0.237 OA
ATOM     70  O   UNL A   1      42.423  21.757  27.684  1.00  0.00    -0.744 OA
ENDBRANCH  64  67
ENDBRANCH  46  60
BRANCH  47  71
ATOM     71  C   UNL A   1      39.317  31.982  35.239  1.00  0.00     0.023 A 
ATOM     72  C   UNL A   1      38.445  31.381  36.167  1.00  0.00     0.012 A 
ATOM     73  C   UNL A   1      39.742  33.310  35.457  1.00  0.00     0.148 A 
ATOM     74  C   UNL A   1      37.988  32.093  37.277  1.00  0.00     0.002 A 
ATOM     75  C   UNL A   1      39.336  33.988  36.599  1.00  0.00     0.091 A 
ATOM     76  F   UNL A   1      40.558  33.872  34.555  1.00  0.00    -0.205 F 
ATOM     77  C   UNL A   1      38.444  33.389  37.500  1.00  0.00     0.022 A 
BRANCH  75  78
ATOM     78  S   UNL A   1      39.990  35.602  37.044  1.00  0.00     0.127 S 
ATOM     79  O   UNL A   1      41.412  35.314  37.205  1.00  0.00    -0.237 OA
ATOM     80  O   UNL A   1      39.652  36.400  35.864  1.00  0.00    -0.237 OA
ATOM     81  O   UNL A   1      39.282  35.994  38.255  1.00  0.00    -0.744 OA
ENDBRANCH  75  78
ENDBRANCH  47  71
BRANCH  59  82
ATOM     82  C   UNL A   1      44.664  27.609  34.283  1.00  0.00     0.023 A 
ATOM     83  C   UNL A   1      45.821  28.402  34.402  1.00  0.00     0.012 A 
ATOM     84  C   UNL A   1      44.549  26.429  35.043  1.00  0.00     0.148 A 
ATOM     85  C   UNL A   1      46.866  28.006  35.237  1.00  0.00     0.002 A 
ATOM     86  C   UNL A   1      45.569  26.070  35.913  1.00  0.00     0.091 A 
ATOM     87  F   UNL A   1      43.447  25.679  34.898  1.00  0.00    -0.205 F 
ATOM     88  C   UNL A   1      46.735  26.848  36.000  1.00  0.00     0.022 A 
BRANCH  86  89
ATOM     89  S   UNL A   1      45.445  24.651  37.006  1.00  0.00     0.127 S 
ATOM     90  O   UNL A   1      45.396  23.544  36.052  1.00  0.00    -0.237 OA
ATOM     91  O   UNL A   1      46.689  24.742  37.772  1.00  0.00    -0.237 OA
ATOM     92  O   UNL A   1      44.234  24.850  37.792  1.00  0.00    -0.744 OA
ENDBRANCH  86  89
ENDBRANCH  59  82
ENDBRANCH  33  34
ENDBRANCH  26  28
ENDBRANCH  25  26
ENDBRANCH  24  25
ENDBRANCH  23  24
ENDBRANCH   1  23
TORSDOF 20
ENDMDL
MODEL 2
REMARK VINA RESULT:     -12.0      1.494      3.208
REMARK SMILES CN(CCc1ccccn1)C(=O)NC1(CC(=O)OCCOC(=O)c2ccc(-c3c4nc(c(-c5cccc(S(=O)(=O)[O-])c5F)c5ccc([nH]5)c(-c5cccc(S(=O)(=O)[O-])c5F)c5nc(c(-c6cccc(S(=O)(=O)[O-])c6F)c6ccc3[nH]6)C=C5)C=C4)cc2)CCC1
REMARK SMILES IDX 18 1 16 2 17 3 15 4 14 5 87 6 89 7 88 8 13 9 11 10 12 11
REMARK SMILES IDX 2 13 1 14 3 15 4 16 5 17 6 18 10 19 7 20 9 21 8 22 19 23
REMARK SMILES IDX 20 24 21 25 22 26 23 27 24 28 25 29 86 30 26 31 85 32 27 33
REMARK SMILES IDX 28 34 29 35 79 36 30 37 84 38 78 39 80 40 31 41 83 42 77 43
REMARK SMILES IDX 76 44 32 46 64 47 44 48 63 49 45 50 48 51 62 52 81 53 46 54
REMARK SMILES IDX 47 55 61 57 82 58 49 59 33 60 34 61 42 62 35 63 37 64 43 65
REMARK SMILES IDX 36 66 38 67 39 68 40 69 41 70 65 71 66 72 74 73 67 74 69 75
REMARK SMILES IDX 75 76 68 77 70 78 71 79 72 80 73 81 50 82 51 83 59 84 52 85
REMARK SMILES IDX 54 86 60 87 53 88 55 89 56 90 57 91 58 92
REMARK H PARENT 13 12 80 45 48 56
REMARK Flexibility Score: inf
ROOT
ATOM      1  O   UNL A   1      32.919  27.515  25.758  1.00  0.00    -0.462 OA
ENDROOT
BRANCH   1   2
ATOM      2  C   UNL A   1      33.059  26.167  25.805  1.00  0.00     0.308 C 
ATOM      3  O   UNL A   1      32.301  25.477  26.494  1.00  0.00    -0.252 OA
BRANCH   2   4
ATOM      4  C   UNL A   1      34.409  25.425  25.057  1.00  0.00     0.151 C 
BRANCH   4   5
ATOM      5  C   UNL A   1      34.976  23.362  24.609  1.00  0.00     0.052 C 
ATOM      6  C   UNL A   1      35.714  22.011  25.655  1.00  0.00     0.029 C 
ATOM      7  C   UNL A   1      36.362  22.598  23.633  1.00  0.00     0.029 C 
ATOM      8  C   UNL A   1      37.032  22.065  24.884  1.00  0.00     0.005 C 
BRANCH   5   9
ATOM      9  N   UNL A   1      33.839  22.210  23.837  1.00  0.00    -0.332 N 
ATOM     10  C   UNL A   1      32.493  22.028  23.771  1.00  0.00     0.317 C 
ATOM     11  O   UNL A   1      32.154  20.963  23.231  1.00  0.00    -0.249 OA
ATOM     12  H   UNL A   1      34.319  21.521  23.323  1.00  0.00     0.165 HD
BRANCH  10  13
ATOM     13  N   UNL A   1      31.545  22.903  24.256  1.00  0.00    -0.327 N 
ATOM     14  C   UNL A   1      31.080  22.581  25.598  1.00  0.00     0.148 C 
BRANCH  13  15
ATOM     15  C   UNL A   1      30.722  23.856  23.505  1.00  0.00     0.127 C 
BRANCH  15  16
ATOM     16  C   UNL A   1      31.377  25.083  22.865  1.00  0.00     0.078 C 
BRANCH  16  17
ATOM     17  C   UNL A   1      30.608  26.334  23.119  1.00  0.00     0.042 A 
ATOM     18  C   UNL A   1      28.910  26.323  23.651  1.00  0.00     0.024 A 
ATOM     19  N   UNL A   1      31.355  27.855  22.566  1.00  0.00    -0.261 NA
ATOM     20  C   UNL A   1      27.970  27.842  23.508  1.00  0.00     0.003 A 
ATOM     21  C   UNL A   1      30.377  29.309  22.372  1.00  0.00     0.111 A 
ATOM     22  C   UNL A   1      28.693  29.326  22.842  1.00  0.00     0.020 A 
ENDBRANCH  16  17
ENDBRANCH  15  16
ENDBRANCH  13  15
ENDBRANCH  10  13
ENDBRANCH   5   9
ENDBRANCH   4   5
ENDBRANCH   2   4
ENDBRANCH   1   2
BRANCH   1  23
ATOM     23  C   UNL A   1      31.758  28.149  26.337  1.00  0.00     0.274 C 
BRANCH  23  24
ATOM     24  C   UNL A   1      31.632  29.583  25.814  1.00  0.00     0.275 C 
BRANCH  24  25
ATOM     25  O   UNL A   1      32.923  30.186  25.929  1.00  0.00    -0.458 OA
BRANCH  25  26
ATOM     26  C   UNL A   1      33.068  31.153  26.863  1.00  0.00     0.338 C 
ATOM     27  O   UNL A   1      32.301  32.068  27.099  1.00  0.00    -0.246 OA
BRANCH  26  28
ATOM     28  C   UNL A   1      34.349  30.899  27.567  1.00  0.00     0.060 A 
ATOM     29  C   UNL A   1      35.207  31.961  27.853  1.00  0.00     0.016 A 
ATOM     30  C   UNL A   1      34.737  29.606  27.901  1.00  0.00     0.016 A 
ATOM     31  C   UNL A   1      36.474  31.746  28.374  1.00  0.00     0.010 A 
ATOM     32  C   UNL A   1      35.951  29.407  28.573  1.00  0.00     0.010 A 
ATOM     33  C   UNL A   1      36.843  30.473  28.808  1.00  0.00    -0.014 A 
BRANCH  33  34
ATOM     34  C   UNL A   1      38.130  30.263  29.532  1.00  0.00     0.031 A 
ATOM     35  C   UNL A   1      39.198  29.387  28.936  1.00  0.00     0.074 A 
ATOM     36  C   UNL A   1      38.318  30.809  30.755  1.00  0.00     0.049 A 
ATOM     37  N   UNL A   1      40.242  28.850  29.511  1.00  0.00    -0.248 NA
ATOM     38  C   UNL A   1      39.059  29.041  27.511  1.00  0.00     0.031 C 
ATOM     39  C   UNL A   1      37.377  31.694  31.450  1.00  0.00     0.029 A 
ATOM     40  N   UNL A   1      39.355  30.677  31.648  1.00  0.00    -0.354 N 
ATOM     41  C   UNL A   1      40.821  28.022  28.556  1.00  0.00     0.074 A 
ATOM     42  C   UNL A   1      40.025  28.148  27.354  1.00  0.00     0.031 C 
ATOM     43  C   UNL A   1      37.885  32.042  32.639  1.00  0.00     0.029 A 
ATOM     44  C   UNL A   1      39.121  31.307  32.850  1.00  0.00     0.049 A 
ATOM     45  H   UNL A   1      40.181  30.180  31.448  1.00  0.00     0.167 HD
ATOM     46  C   UNL A   1      41.911  27.226  28.677  1.00  0.00     0.034 A 
ATOM     47  C   UNL A   1      39.775  31.244  34.026  1.00  0.00     0.034 A 
ATOM     48  C   UNL A   1      42.731  27.168  29.860  1.00  0.00     0.049 A 
ATOM     49  C   UNL A   1      40.980  30.360  34.132  1.00  0.00     0.074 A 
ATOM     50  C   UNL A   1      43.891  26.443  30.068  1.00  0.00     0.029 A 
ATOM     51  N   UNL A   1      42.480  27.864  31.034  1.00  0.00    -0.354 N 
ATOM     52  N   UNL A   1      41.530  29.605  33.213  1.00  0.00    -0.248 NA
ATOM     53  C   UNL A   1      41.660  30.324  35.433  1.00  0.00     0.031 C 
ATOM     54  C   UNL A   1      44.323  26.676  31.376  1.00  0.00     0.029 A 
ATOM     55  C   UNL A   1      43.459  27.581  31.971  1.00  0.00     0.049 A 
ATOM     56  H   UNL A   1      41.718  28.471  31.179  1.00  0.00     0.167 HD
ATOM     57  C   UNL A   1      42.639  29.023  33.815  1.00  0.00     0.074 A 
ATOM     58  C   UNL A   1      42.693  29.536  35.169  1.00  0.00     0.031 C 
ATOM     59  C   UNL A   1      43.522  28.135  33.299  1.00  0.00     0.034 A 
BRANCH  46  60
ATOM     60  C   UNL A   1      42.286  26.352  27.506  1.00  0.00     0.023 A 
ATOM     61  C   UNL A   1      43.099  26.858  26.471  1.00  0.00     0.012 A 
ATOM     62  C   UNL A   1      41.879  25.002  27.464  1.00  0.00     0.148 A 
ATOM     63  C   UNL A   1      43.465  26.048  25.395  1.00  0.00     0.002 A 
ATOM     64  C   UNL A   1      42.293  24.187  26.416  1.00  0.00     0.091 A 
ATOM     65  F   UNL A   1      41.094  24.540  28.447  1.00  0.00    -0.205 F 
ATOM     66  C   UNL A   1      43.073  24.712  25.374  1.00  0.00     0.022 A 
BRANCH  64  67
ATOM     67  S   UNL A   1      41.916  22.431  26.343  1.00  0.00     0.127 S 
ATOM     68  O   UNL A   1      42.612  22.030  25.121  1.00  0.00    -0.237 OA
ATOM     69  O   UNL A   1      42.524  21.937  27.579  1.00  0.00    -0.237 OA
ATOM     70  O   UNL A   1      40.466  22.331  26.296  1.00  0.00    -0.744 OA
ENDBRANCH  64  67
ENDBRANCH  46  60
BRANCH  47  71
ATOM     71  C   UNL A   1      39.283  32.029  35.195  1.00  0.00     0.023 A 
ATOM     72  C   UNL A   1      38.398  31.426  36.110  1.00  0.00     0.012 A 
ATOM     73  C   UNL A   1      39.722  33.348  35.433  1.00  0.00     0.148 A 
ATOM     74  C   UNL A   1      37.941  32.130  37.225  1.00  0.00     0.002 A 
ATOM     75  C   UNL A   1      39.317  34.017  36.581  1.00  0.00     0.091 A 
ATOM     76  F   UNL A   1      40.552  33.911  34.544  1.00  0.00    -0.205 F 
ATOM     77  C   UNL A   1      38.411  33.418  37.468  1.00  0.00     0.022 A 
BRANCH  75  78
ATOM     78  S   UNL A   1      39.987  35.617  37.051  1.00  0.00     0.127 S 
ATOM     79  O   UNL A   1      41.409  35.315  37.192  1.00  0.00    -0.237 OA
ATOM     80  O   UNL A   1      39.644  36.440  35.890  1.00  0.00    -0.237 OA
ATOM     81  O   UNL A   1      39.294  35.990  38.276  1.00  0.00    -0.744 OA
ENDBRANCH  75  78
ENDBRANCH  47  71
BRANCH  59  82
ATOM     82  C   UNL A   1      44.660  27.704  34.185  1.00  0.00     0.023 A 
ATOM     83  C   UNL A   1      45.878  28.412  34.168  1.00  0.00     0.012 A 
ATOM     84  C   UNL A   1      44.498  26.621  35.071  1.00  0.00     0.148 A 
ATOM     85  C   UNL A   1      46.933  28.022  34.993  1.00  0.00     0.002 A 
ATOM     86  C   UNL A   1      45.533  26.274  35.928  1.00  0.00     0.091 A 
ATOM     87  F   UNL A   1      43.338  25.950  35.055  1.00  0.00    -0.205 F 
ATOM     88  C   UNL A   1      46.756  26.962  35.879  1.00  0.00     0.022 A 
BRANCH  86  89
ATOM     89  S   UNL A   1      45.363  24.988  37.169  1.00  0.00     0.127 S 
ATOM     90  O   UNL A   1      46.008  23.853  36.513  1.00  0.00    -0.237 OA
ATOM     91  O   UNL A   1      46.109  25.547  38.297  1.00  0.00    -0.237 OA
ATOM     92  O   UNL A   1      43.932  24.841  37.404  1.00  0.00    -0.744 OA
ENDBRANCH  86  89
ENDBRANCH  59  82
ENDBRANCH  33  34
ENDBRANCH  26  28
ENDBRANCH  25  26
ENDBRANCH  24  25
ENDBRANCH  23  24
ENDBRANCH   1  23
TORSDOF 20
ENDMDL
MODEL 3
REMARK VINA RESULT:     -11.9      2.274      3.942
REMARK SMILES CN(CCc1ccccn1)C(=O)NC1(CC(=O)OCCOC(=O)c2ccc(-c3c4nc(c(-c5cccc(S(=O)(=O)[O-])c5F)c5ccc([nH]5)c(-c5cccc(S(=O)(=O)[O-])c5F)c5nc(c(-c6cccc(S(=O)(=O)[O-])c6F)c6ccc3[nH]6)C=C5)C=C4)cc2)CCC1
REMARK SMILES IDX 18 1 16 2 17 3 15 4 14 5 87 6 89 7 88 8 13 9 11 10 12 11
REMARK SMILES IDX 2 13 1 14 3 15 4 16 5 17 6 18 10 19 7 20 9 21 8 22 19 23
REMARK SMILES IDX 20 24 21 25 22 26 23 27 24 28 25 29 86 30 26 31 85 32 27 33
REMARK SMILES IDX 28 34 29 35 79 36 30 37 84 38 78 39 80 40 31 41 83 42 77 43
REMARK SMILES IDX 76 44 32 46 64 47 44 48 63 49 45 50 48 51 62 52 81 53 46 54
REMARK SMILES IDX 47 55 61 57 82 58 49 59 33 60 34 61 42 62 35 63 37 64 43 65
REMARK SMILES IDX 36 66 38 67 39 68 40 69 41 70 65 71 66 72 74 73 67 74 69 75
REMARK SMILES IDX 75 76 68 77 70 78 71 79 72 80 73 81 50 82 51 83 59 84 52 85
REMARK SMILES IDX 54 86 60 87 53 88 55 89 56 90 57 91 58 92
REMARK H PARENT 13 12 80 45 48 56
REMARK Flexibility Score: inf
ROOT
ATOM      1  O   UNL A   1      32.612  29.246  25.519  1.00  0.00    -0.462 OA
ENDROOT
BRANCH   1   2
ATOM      2  C   UNL A   1      32.641  28.021  26.097  1.00  0.00     0.308 C 
ATOM      3  O   UNL A   1      31.721  27.648  26.831  1.00  0.00    -0.252 OA
BRANCH   2   4
ATOM      4  C   UNL A   1      34.045  27.051  25.968  1.00  0.00     0.151 C 
BRANCH   4   5
ATOM      5  C   UNL A   1      34.435  24.979  25.390  1.00  0.00     0.052 C 
ATOM      6  C   UNL A   1      33.779  23.358  26.025  1.00  0.00     0.029 C 
ATOM      7  C   UNL A   1      35.888  23.840  25.610  1.00  0.00     0.029 C 
ATOM      8  C   UNL A   1      35.139  22.978  26.607  1.00  0.00     0.005 C 
BRANCH   5   9
ATOM      9  N   UNL A   1      34.296  24.424  23.690  1.00  0.00    -0.332 N 
ATOM     10  C   UNL A   1      33.300  24.165  22.803  1.00  0.00     0.317 C 
ATOM     11  O   UNL A   1      33.687  23.630  21.753  1.00  0.00    -0.249 OA
ATOM     12  H   UNL A   1      35.183  24.263  23.292  1.00  0.00     0.165 HD
BRANCH  10  13
ATOM     13  N   UNL A   1      31.963  24.435  23.003  1.00  0.00    -0.327 N 
ATOM     14  C   UNL A   1      31.187  23.278  23.426  1.00  0.00     0.148 C 
BRANCH  13  15
ATOM     15  C   UNL A   1      31.189  25.585  22.526  1.00  0.00     0.127 C 
BRANCH  15  16
ATOM     16  C   UNL A   1      31.143  26.867  23.363  1.00  0.00     0.078 C 
BRANCH  16  17
ATOM     17  C   UNL A   1      30.107  27.822  22.881  1.00  0.00     0.042 A 
ATOM     18  C   UNL A   1      30.518  29.388  22.141  1.00  0.00     0.024 A 
ATOM     19  N   UNL A   1      28.424  27.481  23.359  1.00  0.00    -0.261 NA
ATOM     20  C   UNL A   1      29.225  30.622  22.000  1.00  0.00     0.003 A 
ATOM     21  C   UNL A   1      27.198  28.746  23.270  1.00  0.00     0.111 A 
ATOM     22  C   UNL A   1      27.574  30.312  22.590  1.00  0.00     0.020 A 
ENDBRANCH  16  17
ENDBRANCH  15  16
ENDBRANCH  13  15
ENDBRANCH  10  13
ENDBRANCH   5   9
ENDBRANCH   4   5
ENDBRANCH   2   4
ENDBRANCH   1   2
BRANCH   1  23
ATOM     23  C   UNL A   1      31.430  30.071  25.612  1.00  0.00     0.274 C 
BRANCH  23  24
ATOM     24  C   UNL A   1      31.715  31.293  26.492  1.00  0.00     0.275 C 
BRANCH  24  25
ATOM     25  O   UNL A   1      33.077  31.196  26.916  1.00  0.00    -0.458 OA
BRANCH  25  26
ATOM     26  C   UNL A   1      33.598  32.266  27.556  1.00  0.00     0.338 C 
ATOM     27  O   UNL A   1      33.127  33.388  27.615  1.00  0.00    -0.246 OA
BRANCH  26  28
ATOM     28  C   UNL A   1      34.867  31.830  28.187  1.00  0.00     0.060 A 
ATOM     29  C   UNL A   1      35.918  32.736  28.334  1.00  0.00     0.016 A 
ATOM     30  C   UNL A   1      35.049  30.511  28.588  1.00  0.00     0.016 A 
ATOM     31  C   UNL A   1      37.165  32.329  28.782  1.00  0.00     0.010 A 
ATOM     32  C   UNL A   1      36.260  30.138  29.188  1.00  0.00     0.010 A 
ATOM     33  C   UNL A   1      37.341  31.039  29.282  1.00  0.00    -0.014 A 
BRANCH  33  34
ATOM     34  C   UNL A   1      38.625  30.646  29.930  1.00  0.00     0.031 A 
ATOM     35  C   UNL A   1      39.541  29.660  29.255  1.00  0.00     0.074 A 
ATOM     36  C   UNL A   1      38.943  31.125  31.153  1.00  0.00     0.049 A 
ATOM     37  N   UNL A   1      40.536  28.978  29.759  1.00  0.00    -0.248 NA
ATOM     38  C   UNL A   1      39.286  29.380  27.832  1.00  0.00     0.031 C 
ATOM     39  C   UNL A   1      38.160  32.100  31.920  1.00  0.00     0.029 A 
ATOM     40  N   UNL A   1      39.999  30.835  31.985  1.00  0.00    -0.354 N 
ATOM     41  C   UNL A   1      40.955  28.115  28.754  1.00  0.00     0.074 A 
ATOM     42  C   UNL A   1      40.122  28.377  27.600  1.00  0.00     0.031 C 
ATOM     43  C   UNL A   1      38.768  32.344  33.089  1.00  0.00     0.029 A 
ATOM     44  C   UNL A   1      39.909  31.452  33.213  1.00  0.00     0.049 A 
ATOM     45  H   UNL A   1      40.744  30.245  31.728  1.00  0.00     0.167 HD
ATOM     46  C   UNL A   1      41.939  27.184  28.796  1.00  0.00     0.034 A 
ATOM     47  C   UNL A   1      40.608  31.270  34.350  1.00  0.00     0.034 A 
ATOM     48  C   UNL A   1      42.804  26.986  29.930  1.00  0.00     0.049 A 
ATOM     49  C   UNL A   1      41.695  30.238  34.369  1.00  0.00     0.074 A 
ATOM     50  C   UNL A   1      43.871  26.114  30.057  1.00  0.00     0.029 A 
ATOM     51  N   UNL A   1      42.704  27.671  31.133  1.00  0.00    -0.354 N 
ATOM     52  N   UNL A   1      42.097  29.449  33.403  1.00  0.00    -0.248 NA
ATOM     53  C   UNL A   1      42.429  30.075  35.629  1.00  0.00     0.031 C 
ATOM     54  C   UNL A   1      44.395  26.249  31.345  1.00  0.00     0.029 A 
ATOM     55  C   UNL A   1      43.685  27.237  32.008  1.00  0.00     0.049 A 
ATOM     56  H   UNL A   1      42.034  28.364  31.334  1.00  0.00     0.167 HD
ATOM     57  C   UNL A   1      43.151  28.713  33.929  1.00  0.00     0.074 A 
ATOM     58  C   UNL A   1      43.339  29.172  35.291  1.00  0.00     0.031 C 
ATOM     59  C   UNL A   1      43.886  27.737  33.344  1.00  0.00     0.034 A 
BRANCH  46  60
ATOM     60  C   UNL A   1      42.140  26.307  27.585  1.00  0.00     0.023 A 
ATOM     61  C   UNL A   1      42.842  26.791  26.462  1.00  0.00     0.012 A 
ATOM     62  C   UNL A   1      41.680  24.973  27.586  1.00  0.00     0.148 A 
ATOM     63  C   UNL A   1      43.048  25.977  25.348  1.00  0.00     0.002 A 
ATOM     64  C   UNL A   1      41.935  24.153  26.493  1.00  0.00     0.091 A 
ATOM     65  F   UNL A   1      41.000  24.532  28.654  1.00  0.00    -0.205 F 
ATOM     66  C   UNL A   1      42.606  24.657  25.368  1.00  0.00     0.022 A 
BRANCH  64  67
ATOM     67  S   UNL A   1      41.487  22.413  26.458  1.00  0.00     0.127 S 
ATOM     68  O   UNL A   1      40.038  22.484  26.267  1.00  0.00    -0.237 OA
ATOM     69  O   UNL A   1      42.231  21.929  25.294  1.00  0.00    -0.237 OA
ATOM     70  O   UNL A   1      41.921  21.858  27.731  1.00  0.00    -0.744 OA
ENDBRANCH  64  67
ENDBRANCH  46  60
BRANCH  47  71
ATOM     71  C   UNL A   1      40.280  32.073  35.564  1.00  0.00     0.023 A 
ATOM     72  C   UNL A   1      41.050  33.212  35.869  1.00  0.00     0.012 A 
ATOM     73  C   UNL A   1      39.184  31.745  36.388  1.00  0.00     0.148 A 
ATOM     74  C   UNL A   1      40.749  33.994  36.985  1.00  0.00     0.002 A 
ATOM     75  C   UNL A   1      38.850  32.566  37.457  1.00  0.00     0.091 A 
ATOM     76  F   UNL A   1      38.472  30.649  36.092  1.00  0.00    -0.205 F 
ATOM     77  C   UNL A   1      39.642  33.680  37.769  1.00  0.00     0.022 A 
BRANCH  75  78
ATOM     78  S   UNL A   1      37.357  32.324  38.429  1.00  0.00     0.127 S 
ATOM     79  O   UNL A   1      36.359  33.021  37.621  1.00  0.00    -0.237 OA
ATOM     80  O   UNL A   1      37.236  30.866  38.436  1.00  0.00    -0.237 OA
ATOM     81  O   UNL A   1      37.637  32.909  39.733  1.00  0.00    -0.744 OA
ENDBRANCH  75  78
ENDBRANCH  47  71
BRANCH  59  82
ATOM     82  C   UNL A   1      45.003  27.139  34.156  1.00  0.00     0.023 A 
ATOM     83  C   UNL A   1      46.302  27.678  34.079  1.00  0.00     0.012 A 
ATOM     84  C   UNL A   1      44.747  26.067  35.033  1.00  0.00     0.148 A 
ATOM     85  C   UNL A   1      47.339  27.133  34.835  1.00  0.00     0.002 A 
ATOM     86  C   UNL A   1      45.772  25.565  35.824  1.00  0.00     0.091 A 
ATOM     87  F   UNL A   1      43.508  25.557  35.074  1.00  0.00    -0.205 F 
ATOM     88  C   UNL A   1      47.072  26.086  35.715  1.00  0.00     0.022 A 
BRANCH  86  89
ATOM     89  S   UNL A   1      45.499  24.286  37.053  1.00  0.00     0.127 S 
ATOM     90  O   UNL A   1      44.338  24.807  37.773  1.00  0.00    -0.237 OA
ATOM     91  O   UNL A   1      45.227  23.113  36.222  1.00  0.00    -0.237 OA
ATOM     92  O   UNL A   1      46.729  24.204  37.831  1.00  0.00    -0.744 OA
ENDBRANCH  86  89
ENDBRANCH  59  82
ENDBRANCH  33  34
ENDBRANCH  26  28
ENDBRANCH  25  26
ENDBRANCH  24  25
ENDBRANCH  23  24
ENDBRANCH   1  23
TORSDOF 20
ENDMDL
