MODEL 1
REMARK VINA RESULT:     -13.7      0.000      0.000
REMARK SMILES Cc1ccc2[nH]cc([C@@H](C(=O)OCCOC(=O)c3ccc(-c4c5nc(c(-c6cccc(S(=O)(=O)[O-])c6F)c6ccc([nH]6)c(-c6cccc(S(=O)(=O)[O-])c6F)c6nc(c(-c7cccc(S(=O)(=O)[O-])c7F)c7ccc4[nH]7)C=C6)C=C5)cc3)[NH+]3CCN(c4ccc(F)cc4)CC3)c2c1
REMARK SMILES IDX 14 1 13 2 12 3 10 4 11 5 9 6 8 7 1 8 2 9 3 10 95 11 4 12
REMARK SMILES IDX 94 13 5 14 6 15 7 16 81 18 82 19 93 20 83 22 92 23 84 24
REMARK SMILES IDX 85 25 86 26 91 27 87 28 90 29 88 30 89 31 15 32 16 33 17 34
REMARK SMILES IDX 18 35 19 36 80 37 20 38 79 39 21 40 22 41 23 42 73 43 24 44
REMARK SMILES IDX 78 45 72 46 74 47 25 48 77 49 71 50 70 51 26 53 58 54 38 55
REMARK SMILES IDX 57 56 39 57 42 58 56 59 75 60 40 61 41 62 55 64 76 65 43 66
REMARK SMILES IDX 27 67 28 68 36 69 29 70 31 71 37 72 30 73 32 74 33 75 34 76
REMARK SMILES IDX 35 77 59 78 60 79 68 80 61 81 63 82 69 83 62 84 64 85 65 86
REMARK SMILES IDX 66 87 67 88 44 89 45 90 53 91 46 92 48 93 54 94 47 95 49 96
REMARK SMILES IDX 50 97 51 98 52 99
REMARK H PARENT 6 17 81 21 74 52 42 63
REMARK Flexibility Score: inf
ROOT
ATOM      1  C   UNL A   1      31.949  30.316  26.465  1.00  0.00     0.275 C 
ENDROOT
BRANCH   1   2
ATOM      2  C   UNL A   1      31.746  28.983  27.180  1.00  0.00     0.274 C 
BRANCH   2   3
ATOM      3  O   UNL A   1      31.449  27.939  26.230  1.00  0.00    -0.457 OA
BRANCH   3   4
ATOM      4  C   UNL A   1      32.519  27.286  25.689  1.00  0.00     0.370 C 
ATOM      5  O   UNL A   1      33.573  27.105  26.296  1.00  0.00    -0.245 OA
BRANCH   4   6
ATOM      6  C   UNL A   1      32.312  26.880  24.209  1.00  0.00     0.328 C 
BRANCH   6   7
ATOM      7  C   UNL A   1      31.818  27.956  23.280  1.00  0.00     0.046 A 
ATOM      8  C   UNL A   1      26.724  27.754  23.684  1.00  0.00     0.044 C 
ATOM      9  C   UNL A   1      28.007  28.383  23.228  1.00  0.00    -0.050 A 
ATOM     10  C   UNL A   1      28.011  29.548  22.457  1.00  0.00     0.005 A 
ATOM     11  C   UNL A   1      29.224  27.771  23.565  1.00  0.00     0.014 A 
ATOM     12  C   UNL A   1      29.204  30.100  21.974  1.00  0.00     0.027 A 
ATOM     13  C   UNL A   1      30.439  28.307  23.091  1.00  0.00     0.009 A 
ATOM     14  C   UNL A   1      30.398  29.440  22.284  1.00  0.00     0.046 A 
ATOM     15  N   UNL A   1      31.690  29.719  21.913  1.00  0.00    -0.361 N 
ATOM     16  C   UNL A   1      32.545  28.797  22.454  1.00  0.00     0.094 A 
ATOM     17  H   UNL A   1      31.963  30.472  21.341  1.00  0.00     0.166 HD
ENDBRANCH   6   7
BRANCH   6  18
ATOM     18  N   UNL A   1      31.526  25.634  24.095  1.00  0.00    -0.316 N 
ATOM     19  C   UNL A   1      31.703  24.822  22.888  1.00  0.00     0.284 C 
ATOM     20  C   UNL A   1      31.422  24.799  25.300  1.00  0.00     0.284 C 
ATOM     21  H   UNL A   1      30.611  26.071  23.981  1.00  0.00     0.349 HD
ATOM     22  C   UNL A   1      32.645  23.604  22.949  1.00  0.00     0.178 C 
ATOM     23  C   UNL A   1      32.401  23.601  25.412  1.00  0.00     0.178 C 
ATOM     24  N   UNL A   1      32.421  22.826  24.165  1.00  0.00    -0.360 N 
BRANCH  24  25
ATOM     25  C   UNL A   1      32.976  21.553  24.210  1.00  0.00     0.037 A 
ATOM     26  C   UNL A   1      32.279  20.414  23.779  1.00  0.00     0.029 A 
ATOM     27  C   UNL A   1      34.257  21.384  24.752  1.00  0.00     0.029 A 
ATOM     28  C   UNL A   1      32.832  19.139  23.913  1.00  0.00     0.041 A 
ATOM     29  C   UNL A   1      34.813  20.110  24.897  1.00  0.00     0.041 A 
ATOM     30  C   UNL A   1      34.092  19.000  24.479  1.00  0.00     0.123 A 
ATOM     31  F   UNL A   1      34.618  17.776  24.621  1.00  0.00    -0.207 F 
ENDBRANCH  24  25
ENDBRANCH   6  18
ENDBRANCH   4   6
ENDBRANCH   3   4
ENDBRANCH   2   3
ENDBRANCH   1   2
BRANCH   1  32
ATOM     32  O   UNL A   1      33.352  30.618  26.416  1.00  0.00    -0.458 OA
BRANCH  32  33
ATOM     33  C   UNL A   1      33.816  31.476  27.351  1.00  0.00     0.338 C 
ATOM     34  O   UNL A   1      33.214  32.433  27.822  1.00  0.00    -0.246 OA
BRANCH  33  35
ATOM     35  C   UNL A   1      35.170  31.075  27.797  1.00  0.00     0.060 A 
ATOM     36  C   UNL A   1      35.465  29.744  28.096  1.00  0.00     0.016 A 
ATOM     37  C   UNL A   1      36.123  32.063  28.054  1.00  0.00     0.016 A 
ATOM     38  C   UNL A   1      36.651  29.423  28.759  1.00  0.00     0.010 A 
ATOM     39  C   UNL A   1      37.360  31.714  28.609  1.00  0.00     0.010 A 
ATOM     40  C   UNL A   1      37.631  30.394  29.007  1.00  0.00    -0.014 A 
BRANCH  40  41
ATOM     41  C   UNL A   1      38.927  30.053  29.668  1.00  0.00     0.031 A 
ATOM     42  C   UNL A   1      39.871  29.062  29.033  1.00  0.00     0.074 A 
ATOM     43  C   UNL A   1      39.247  30.583  30.867  1.00  0.00     0.049 A 
ATOM     44  N   UNL A   1      40.856  28.392  29.577  1.00  0.00    -0.248 NA
ATOM     45  C   UNL A   1      39.669  28.767  27.605  1.00  0.00     0.031 C 
ATOM     46  C   UNL A   1      38.462  31.579  31.597  1.00  0.00     0.029 A 
ATOM     47  N   UNL A   1      40.314  30.335  31.701  1.00  0.00    -0.354 N 
ATOM     48  C   UNL A   1      41.324  27.529  28.592  1.00  0.00     0.074 A 
ATOM     49  C   UNL A   1      40.535  27.781  27.404  1.00  0.00     0.031 C 
ATOM     50  C   UNL A   1      39.076  31.874  32.749  1.00  0.00     0.029 A 
ATOM     51  C   UNL A   1      40.236  31.006  32.899  1.00  0.00     0.049 A 
ATOM     52  H   UNL A   1      41.058  29.736  31.462  1.00  0.00     0.167 HD
ATOM     53  C   UNL A   1      42.320  26.613  28.672  1.00  0.00     0.034 A 
ATOM     54  C   UNL A   1      40.964  30.896  34.028  1.00  0.00     0.034 A 
ATOM     55  C   UNL A   1      43.172  26.443  29.821  1.00  0.00     0.049 A 
ATOM     56  C   UNL A   1      42.075  29.890  34.088  1.00  0.00     0.074 A 
ATOM     57  C   UNL A   1      44.229  25.565  29.986  1.00  0.00     0.029 A 
ATOM     58  N   UNL A   1      43.087  27.188  30.987  1.00  0.00    -0.354 N 
ATOM     59  N   UNL A   1      42.491  29.067  33.157  1.00  0.00    -0.248 NA
ATOM     60  C   UNL A   1      42.817  29.795  35.353  1.00  0.00     0.031 C 
ATOM     61  C   UNL A   1      44.787  25.783  31.251  1.00  0.00     0.029 A 
ATOM     62  C   UNL A   1      44.079  26.799  31.871  1.00  0.00     0.049 A 
ATOM     63  H   UNL A   1      42.419  27.890  31.162  1.00  0.00     0.167 HD
ATOM     64  C   UNL A   1      43.548  28.362  33.718  1.00  0.00     0.074 A 
ATOM     65  C   UNL A   1      43.730  28.878  35.060  1.00  0.00     0.031 C 
ATOM     66  C   UNL A   1      44.283  27.360  33.181  1.00  0.00     0.034 A 
BRANCH  53  67
ATOM     67  C   UNL A   1      42.578  25.734  27.475  1.00  0.00     0.023 A 
ATOM     68  C   UNL A   1      43.380  26.206  26.419  1.00  0.00     0.012 A 
ATOM     69  C   UNL A   1      42.102  24.406  27.441  1.00  0.00     0.148 A 
ATOM     70  C   UNL A   1      43.691  25.378  25.340  1.00  0.00     0.002 A 
ATOM     71  C   UNL A   1      42.448  23.575  26.381  1.00  0.00     0.091 A 
ATOM     72  F   UNL A   1      41.319  23.981  28.443  1.00  0.00    -0.205 F 
ATOM     73  C   UNL A   1      43.237  24.061  25.326  1.00  0.00     0.022 A 
BRANCH  71  74
ATOM     74  S   UNL A   1      41.971  21.842  26.324  1.00  0.00     0.127 S 
ATOM     75  O   UNL A   1      42.307  21.398  27.676  1.00  0.00    -0.237 OA
ATOM     76  O   UNL A   1      40.535  21.920  26.049  1.00  0.00    -0.237 OA
ATOM     77  O   UNL A   1      42.757  21.250  25.251  1.00  0.00    -0.744 OA
ENDBRANCH  71  74
ENDBRANCH  53  67
BRANCH  54  78
ATOM     78  C   UNL A   1      40.645  31.772  35.191  1.00  0.00     0.023 A 
ATOM     79  C   UNL A   1      41.424  32.920  35.424  1.00  0.00     0.012 A 
ATOM     80  C   UNL A   1      39.525  31.525  36.010  1.00  0.00     0.148 A 
ATOM     81  C   UNL A   1      41.094  33.805  36.452  1.00  0.00     0.002 A 
ATOM     82  C   UNL A   1      39.163  32.446  36.986  1.00  0.00     0.091 A 
ATOM     83  F   UNL A   1      38.811  30.410  35.797  1.00  0.00    -0.205 F 
ATOM     84  C   UNL A   1      39.954  33.579  37.219  1.00  0.00     0.022 A 
BRANCH  82  85
ATOM     85  S   UNL A   1      37.608  32.302  37.877  1.00  0.00     0.127 S 
ATOM     86  O   UNL A   1      37.877  33.079  39.082  1.00  0.00    -0.237 OA
ATOM     87  O   UNL A   1      36.656  32.915  36.948  1.00  0.00    -0.237 OA
ATOM     88  O   UNL A   1      37.410  30.870  38.062  1.00  0.00    -0.744 OA
ENDBRANCH  82  85
ENDBRANCH  54  78
BRANCH  66  89
ATOM     89  C   UNL A   1      45.366  26.765  34.036  1.00  0.00     0.023 A 
ATOM     90  C   UNL A   1      46.656  27.331  34.009  1.00  0.00     0.012 A 
ATOM     91  C   UNL A   1      45.097  25.690  34.905  1.00  0.00     0.148 A 
ATOM     92  C   UNL A   1      47.670  26.819  34.817  1.00  0.00     0.002 A 
ATOM     93  C   UNL A   1      46.104  25.208  35.734  1.00  0.00     0.091 A 
ATOM     94  F   UNL A   1      43.869  25.152  34.898  1.00  0.00    -0.205 F 
ATOM     95  C   UNL A   1      47.392  25.766  35.686  1.00  0.00     0.022 A 
BRANCH  93  96
ATOM     96  S   UNL A   1      45.813  23.902  36.933  1.00  0.00     0.127 S 
ATOM     97  O   UNL A   1      47.135  23.754  37.539  1.00  0.00    -0.237 OA
ATOM     98  O   UNL A   1      44.803  24.498  37.809  1.00  0.00    -0.237 OA
ATOM     99  O   UNL A   1      45.341  22.757  36.165  1.00  0.00    -0.744 OA
ENDBRANCH  93  96
ENDBRANCH  66  89
ENDBRANCH  40  41
ENDBRANCH  33  35
ENDBRANCH  32  33
ENDBRANCH   1  32
TORSDOF 17
ENDMDL
MODEL 2
REMARK VINA RESULT:     -13.4      2.345      4.846
REMARK SMILES Cc1ccc2[nH]cc([C@@H](C(=O)OCCOC(=O)c3ccc(-c4c5nc(c(-c6cccc(S(=O)(=O)[O-])c6F)c6ccc([nH]6)c(-c6cccc(S(=O)(=O)[O-])c6F)c6nc(c(-c7cccc(S(=O)(=O)[O-])c7F)c7ccc4[nH]7)C=C6)C=C5)cc3)[NH+]3CCN(c4ccc(F)cc4)CC3)c2c1
REMARK SMILES IDX 14 1 13 2 12 3 10 4 11 5 9 6 8 7 1 8 2 9 3 10 95 11 4 12
REMARK SMILES IDX 94 13 5 14 6 15 7 16 81 18 82 19 93 20 83 22 92 23 84 24
REMARK SMILES IDX 85 25 86 26 91 27 87 28 90 29 88 30 89 31 15 32 16 33 17 34
REMARK SMILES IDX 18 35 19 36 80 37 20 38 79 39 21 40 22 41 23 42 73 43 24 44
REMARK SMILES IDX 78 45 72 46 74 47 25 48 77 49 71 50 70 51 26 53 58 54 38 55
REMARK SMILES IDX 57 56 39 57 42 58 56 59 75 60 40 61 41 62 55 64 76 65 43 66
REMARK SMILES IDX 27 67 28 68 36 69 29 70 31 71 37 72 30 73 32 74 33 75 34 76
REMARK SMILES IDX 35 77 59 78 60 79 68 80 61 81 63 82 69 83 62 84 64 85 65 86
REMARK SMILES IDX 66 87 67 88 44 89 45 90 53 91 46 92 48 93 54 94 47 95 49 96
REMARK SMILES IDX 50 97 51 98 52 99
REMARK H PARENT 6 17 81 21 74 52 42 63
REMARK Flexibility Score: inf
ROOT
ATOM      1  C   UNL A   1      32.410  29.547  24.910  1.00  0.00     0.275 C 
ENDROOT
BRANCH   1   2
ATOM      2  C   UNL A   1      33.533  28.632  24.429  1.00  0.00     0.274 C 
BRANCH   2   3
ATOM      3  O   UNL A   1      33.431  27.335  25.051  1.00  0.00    -0.457 OA
BRANCH   3   4
ATOM      4  C   UNL A   1      33.657  26.254  24.246  1.00  0.00     0.370 C 
ATOM      5  O   UNL A   1      34.390  26.293  23.260  1.00  0.00    -0.245 OA
BRANCH   4   6
ATOM      6  C   UNL A   1      32.829  25.006  24.640  1.00  0.00     0.328 C 
BRANCH   6   7
ATOM      7  C   UNL A   1      33.491  23.670  24.440  1.00  0.00     0.046 A 
ATOM      8  C   UNL A   1      38.139  24.222  26.499  1.00  0.00     0.044 C 
ATOM      9  C   UNL A   1      37.026  23.412  25.902  1.00  0.00    -0.050 A 
ATOM     10  C   UNL A   1      37.159  22.037  25.696  1.00  0.00     0.005 A 
ATOM     11  C   UNL A   1      35.840  24.058  25.524  1.00  0.00     0.014 A 
ATOM     12  C   UNL A   1      36.149  21.290  25.078  1.00  0.00     0.027 A 
ATOM     13  C   UNL A   1      34.807  23.329  24.900  1.00  0.00     0.009 A 
ATOM     14  C   UNL A   1      34.998  21.970  24.667  1.00  0.00     0.046 A 
ATOM     15  N   UNL A   1      33.885  21.514  24.003  1.00  0.00    -0.361 N 
ATOM     16  C   UNL A   1      33.000  22.540  23.806  1.00  0.00     0.094 A 
ATOM     17  H   UNL A   1      33.743  20.584  23.713  1.00  0.00     0.166 HD
ENDBRANCH   6   7
BRANCH   6  18
ATOM     18  N   UNL A   1      31.471  25.055  24.061  1.00  0.00    -0.316 N 
ATOM     19  C   UNL A   1      30.406  25.666  24.863  1.00  0.00     0.284 C 
ATOM     20  C   UNL A   1      31.363  25.426  22.643  1.00  0.00     0.284 C 
ATOM     21  H   UNL A   1      31.280  24.053  24.101  1.00  0.00     0.349 HD
ATOM     22  C   UNL A   1      30.014  27.128  24.576  1.00  0.00     0.178 C 
ATOM     23  C   UNL A   1      31.027  26.907  22.327  1.00  0.00     0.178 C 
ATOM     24  N   UNL A   1      29.894  27.368  23.139  1.00  0.00    -0.360 N 
BRANCH  24  25
ATOM     25  C   UNL A   1      29.259  28.541  22.748  1.00  0.00     0.037 A 
ATOM     26  C   UNL A   1      29.918  29.544  22.021  1.00  0.00     0.029 A 
ATOM     27  C   UNL A   1      27.931  28.763  23.134  1.00  0.00     0.029 A 
ATOM     28  C   UNL A   1      29.278  30.747  21.714  1.00  0.00     0.041 A 
ATOM     29  C   UNL A   1      27.288  29.967  22.838  1.00  0.00     0.041 A 
ATOM     30  C   UNL A   1      27.971  30.949  22.133  1.00  0.00     0.123 A 
ATOM     31  F   UNL A   1      27.361  32.109  21.852  1.00  0.00    -0.207 F 
ENDBRANCH  24  25
ENDBRANCH   6  18
ENDBRANCH   4   6
ENDBRANCH   3   4
ENDBRANCH   2   3
ENDBRANCH   1   2
BRANCH   1  32
ATOM     32  O   UNL A   1      32.472  29.662  26.339  1.00  0.00    -0.458 OA
BRANCH  32  33
ATOM     33  C   UNL A   1      32.970  30.819  26.829  1.00  0.00     0.338 C 
ATOM     34  O   UNL A   1      32.388  31.895  26.882  1.00  0.00    -0.246 OA
BRANCH  33  35
ATOM     35  C   UNL A   1      34.335  30.612  27.365  1.00  0.00     0.060 A 
ATOM     36  C   UNL A   1      34.816  29.329  27.632  1.00  0.00     0.016 A 
ATOM     37  C   UNL A   1      35.096  31.721  27.736  1.00  0.00     0.016 A 
ATOM     38  C   UNL A   1      35.988  29.163  28.373  1.00  0.00     0.010 A 
ATOM     39  C   UNL A   1      36.330  31.542  28.374  1.00  0.00     0.010 A 
ATOM     40  C   UNL A   1      36.779  30.261  28.738  1.00  0.00    -0.014 A 
BRANCH  40  41
ATOM     41  C   UNL A   1      38.062  30.092  29.485  1.00  0.00     0.031 A 
ATOM     42  C   UNL A   1      39.174  29.247  28.914  1.00  0.00     0.074 A 
ATOM     43  C   UNL A   1      38.224  30.645  30.706  1.00  0.00     0.049 A 
ATOM     44  N   UNL A   1      40.203  28.712  29.522  1.00  0.00    -0.248 NA
ATOM     45  C   UNL A   1      39.112  28.945  27.475  1.00  0.00     0.031 C 
ATOM     46  C   UNL A   1      37.262  31.516  31.382  1.00  0.00     0.029 A 
ATOM     47  N   UNL A   1      39.256  30.535  31.610  1.00  0.00    -0.354 N 
ATOM     48  C   UNL A   1      40.850  27.933  28.569  1.00  0.00     0.074 A 
ATOM     49  C   UNL A   1      40.117  28.090  27.331  1.00  0.00     0.031 C 
ATOM     50  C   UNL A   1      37.750  31.877  32.575  1.00  0.00     0.029 A 
ATOM     51  C   UNL A   1      39.006  31.174  32.802  1.00  0.00     0.049 A 
ATOM     52  H   UNL A   1      40.090  30.047  31.422  1.00  0.00     0.167 HD
ATOM     53  C   UNL A   1      41.955  27.161  28.715  1.00  0.00     0.034 A 
ATOM     54  C   UNL A   1      39.664  31.151  33.978  1.00  0.00     0.034 A 
ATOM     55  C   UNL A   1      42.742  27.096  29.919  1.00  0.00     0.049 A 
ATOM     56  C   UNL A   1      40.895  30.306  34.111  1.00  0.00     0.074 A 
ATOM     57  C   UNL A   1      43.896  26.369  30.154  1.00  0.00     0.029 A 
ATOM     58  N   UNL A   1      42.477  27.807  31.079  1.00  0.00    -0.354 N 
ATOM     59  N   UNL A   1      41.482  29.559  33.209  1.00  0.00    -0.248 NA
ATOM     60  C   UNL A   1      41.555  30.298  35.424  1.00  0.00     0.031 C 
ATOM     61  C   UNL A   1      44.333  26.645  31.455  1.00  0.00     0.029 A 
ATOM     62  C   UNL A   1      43.451  27.547  32.028  1.00  0.00     0.049 A 
ATOM     63  H   UNL A   1      41.709  28.408  31.210  1.00  0.00     0.167 HD
ATOM     64  C   UNL A   1      42.586  28.999  33.839  1.00  0.00     0.074 A 
ATOM     65  C   UNL A   1      42.604  29.517  35.192  1.00  0.00     0.031 C 
ATOM     66  C   UNL A   1      43.487  28.113  33.351  1.00  0.00     0.034 A 
BRANCH  53  67
ATOM     67  C   UNL A   1      42.412  26.341  27.536  1.00  0.00     0.023 A 
ATOM     68  C   UNL A   1      43.275  26.909  26.580  1.00  0.00     0.012 A 
ATOM     69  C   UNL A   1      42.060  24.979  27.427  1.00  0.00     0.148 A 
ATOM     70  C   UNL A   1      43.769  26.140  25.525  1.00  0.00     0.002 A 
ATOM     71  C   UNL A   1      42.585  24.211  26.394  1.00  0.00     0.091 A 
ATOM     72  F   UNL A   1      41.216  24.461  28.332  1.00  0.00    -0.205 F 
ATOM     73  C   UNL A   1      43.434  24.791  25.438  1.00  0.00     0.022 A 
BRANCH  71  74
ATOM     74  S   UNL A   1      42.270  22.445  26.254  1.00  0.00     0.127 S 
ATOM     75  O   UNL A   1      42.788  21.950  27.529  1.00  0.00    -0.237 OA
ATOM     76  O   UNL A   1      40.812  22.395  26.130  1.00  0.00    -0.237 OA
ATOM     77  O   UNL A   1      42.989  22.008  25.066  1.00  0.00    -0.744 OA
ENDBRANCH  71  74
ENDBRANCH  53  67
BRANCH  54  78
ATOM     78  C   UNL A   1      39.148  31.960  35.119  1.00  0.00     0.023 A 
ATOM     79  C   UNL A   1      38.266  31.368  36.041  1.00  0.00     0.012 A 
ATOM     80  C   UNL A   1      39.594  33.278  35.344  1.00  0.00     0.148 A 
ATOM     81  C   UNL A   1      37.837  32.075  37.166  1.00  0.00     0.002 A 
ATOM     82  C   UNL A   1      39.217  33.950  36.501  1.00  0.00     0.091 A 
ATOM     83  F   UNL A   1      40.408  33.841  34.439  1.00  0.00    -0.205 F 
ATOM     84  C   UNL A   1      38.327  33.356  37.406  1.00  0.00     0.022 A 
BRANCH  82  85
ATOM     85  S   UNL A   1      39.960  35.523  36.953  1.00  0.00     0.127 S 
ATOM     86  O   UNL A   1      39.302  35.815  38.222  1.00  0.00    -0.237 OA
ATOM     87  O   UNL A   1      41.380  35.181  37.061  1.00  0.00    -0.237 OA
ATOM     88  O   UNL A   1      39.652  36.418  35.845  1.00  0.00    -0.744 OA
ENDBRANCH  82  85
ENDBRANCH  54  78
BRANCH  66  89
ATOM     89  C   UNL A   1      44.581  27.661  34.276  1.00  0.00     0.023 A 
ATOM     90  C   UNL A   1      45.801  28.365  34.298  1.00  0.00     0.012 A 
ATOM     91  C   UNL A   1      44.384  26.584  35.162  1.00  0.00     0.148 A 
ATOM     92  C   UNL A   1      46.820  27.987  35.171  1.00  0.00     0.002 A 
ATOM     93  C   UNL A   1      45.391  26.236  36.055  1.00  0.00     0.091 A 
ATOM     94  F   UNL A   1      43.224  25.915  35.109  1.00  0.00    -0.205 F 
ATOM     95  C   UNL A   1      46.612  26.931  36.056  1.00  0.00     0.022 A 
BRANCH  93  96
ATOM     96  S   UNL A   1      45.180  24.935  37.275  1.00  0.00     0.127 S 
ATOM     97  O   UNL A   1      46.455  24.986  37.989  1.00  0.00    -0.237 OA
ATOM     98  O   UNL A   1      44.029  25.409  38.046  1.00  0.00    -0.237 OA
ATOM     99  O   UNL A   1      44.932  23.716  36.516  1.00  0.00    -0.744 OA
ENDBRANCH  93  96
ENDBRANCH  66  89
ENDBRANCH  40  41
ENDBRANCH  33  35
ENDBRANCH  32  33
ENDBRANCH   1  32
TORSDOF 17
ENDMDL
MODEL 3
REMARK VINA RESULT:     -13.4      4.801      9.316
REMARK SMILES Cc1ccc2[nH]cc([C@@H](C(=O)OCCOC(=O)c3ccc(-c4c5nc(c(-c6cccc(S(=O)(=O)[O-])c6F)c6ccc([nH]6)c(-c6cccc(S(=O)(=O)[O-])c6F)c6nc(c(-c7cccc(S(=O)(=O)[O-])c7F)c7ccc4[nH]7)C=C6)C=C5)cc3)[NH+]3CCN(c4ccc(F)cc4)CC3)c2c1
REMARK SMILES IDX 14 1 13 2 12 3 10 4 11 5 9 6 8 7 1 8 2 9 3 10 95 11 4 12
REMARK SMILES IDX 94 13 5 14 6 15 7 16 81 18 82 19 93 20 83 22 92 23 84 24
REMARK SMILES IDX 85 25 86 26 91 27 87 28 90 29 88 30 89 31 15 32 16 33 17 34
REMARK SMILES IDX 18 35 19 36 80 37 20 38 79 39 21 40 22 41 23 42 73 43 24 44
REMARK SMILES IDX 78 45 72 46 74 47 25 48 77 49 71 50 70 51 26 53 58 54 38 55
REMARK SMILES IDX 57 56 39 57 42 58 56 59 75 60 40 61 41 62 55 64 76 65 43 66
REMARK SMILES IDX 27 67 28 68 36 69 29 70 31 71 37 72 30 73 32 74 33 75 34 76
REMARK SMILES IDX 35 77 59 78 60 79 68 80 61 81 63 82 69 83 62 84 64 85 65 86
REMARK SMILES IDX 66 87 67 88 44 89 45 90 53 91 46 92 48 93 54 94 47 95 49 96
REMARK SMILES IDX 50 97 51 98 52 99
REMARK H PARENT 6 17 81 21 74 52 42 63
REMARK Flexibility Score: inf
ROOT
ATOM      1  C   UNL A   1      35.306  21.489  26.161  1.00  0.00     0.275 C 
ENDROOT
BRANCH   1   2
ATOM      2  C   UNL A   1      34.752  22.668  26.956  1.00  0.00     0.274 C 
BRANCH   2   3
ATOM      3  O   UNL A   1      34.517  23.797  26.090  1.00  0.00    -0.457 OA
BRANCH   3   4
ATOM      4  C   UNL A   1      33.286  24.383  26.172  1.00  0.00     0.370 C 
ATOM      5  O   UNL A   1      32.620  24.404  27.205  1.00  0.00    -0.245 OA
BRANCH   4   6
ATOM      6  C   UNL A   1      32.771  24.932  24.818  1.00  0.00     0.328 C 
BRANCH   6   7
ATOM      7  C   UNL A   1      32.092  26.274  24.852  1.00  0.00     0.046 A 
ATOM      8  C   UNL A   1      35.283  29.256  27.515  1.00  0.00     0.044 C 
ATOM      9  C   UNL A   1      34.084  29.018  26.644  1.00  0.00    -0.050 A 
ATOM     10  C   UNL A   1      33.240  30.066  26.269  1.00  0.00     0.005 A 
ATOM     11  C   UNL A   1      33.796  27.712  26.221  1.00  0.00     0.014 A 
ATOM     12  C   UNL A   1      32.084  29.838  25.513  1.00  0.00     0.027 A 
ATOM     13  C   UNL A   1      32.638  27.455  25.459  1.00  0.00     0.009 A 
ATOM     14  C   UNL A   1      31.796  28.519  25.147  1.00  0.00     0.046 A 
ATOM     15  N   UNL A   1      30.726  27.999  24.461  1.00  0.00    -0.361 N 
ATOM     16  C   UNL A   1      30.863  26.643  24.332  1.00  0.00     0.094 A 
ATOM     17  H   UNL A   1      29.972  28.525  24.111  1.00  0.00     0.166 HD
ENDBRANCH   6   7
BRANCH   6  18
ATOM     18  N   UNL A   1      31.980  23.919  24.090  1.00  0.00    -0.316 N 
ATOM     19  C   UNL A   1      32.643  23.176  23.015  1.00  0.00     0.284 C 
ATOM     20  C   UNL A   1      31.109  23.049  24.893  1.00  0.00     0.284 C 
ATOM     21  H   UNL A   1      31.356  24.567  23.609  1.00  0.00     0.349 HD
ATOM     22  C   UNL A   1      33.191  21.768  23.320  1.00  0.00     0.178 C 
ATOM     23  C   UNL A   1      31.663  21.649  25.264  1.00  0.00     0.178 C 
ATOM     24  N   UNL A   1      32.225  20.981  24.082  1.00  0.00    -0.360 N 
BRANCH  24  25
ATOM     25  C   UNL A   1      32.453  19.613  24.166  1.00  0.00     0.037 A 
ATOM     26  C   UNL A   1      32.632  18.955  25.392  1.00  0.00     0.029 A 
ATOM     27  C   UNL A   1      32.563  18.864  22.987  1.00  0.00     0.029 A 
ATOM     28  C   UNL A   1      32.942  17.594  25.439  1.00  0.00     0.041 A 
ATOM     29  C   UNL A   1      32.881  17.504  23.026  1.00  0.00     0.041 A 
ATOM     30  C   UNL A   1      33.071  16.884  24.254  1.00  0.00     0.123 A 
ATOM     31  F   UNL A   1      33.383  15.582  24.297  1.00  0.00    -0.207 F 
ENDBRANCH  24  25
ENDBRANCH   6  18
ENDBRANCH   4   6
ENDBRANCH   3   4
ENDBRANCH   2   3
ENDBRANCH   1   2
BRANCH   1  32
ATOM     32  O   UNL A   1      36.395  21.941  25.341  1.00  0.00    -0.458 OA
BRANCH  32  33
ATOM     33  C   UNL A   1      37.610  21.417  25.613  1.00  0.00     0.338 C 
ATOM     34  O   UNL A   1      37.931  20.239  25.520  1.00  0.00    -0.246 OA
BRANCH  33  35
ATOM     35  C   UNL A   1      38.562  22.484  25.997  1.00  0.00     0.060 A 
ATOM     36  C   UNL A   1      39.712  22.193  26.732  1.00  0.00     0.016 A 
ATOM     37  C   UNL A   1      38.231  23.816  25.740  1.00  0.00     0.016 A 
ATOM     38  C   UNL A   1      40.455  23.227  27.307  1.00  0.00     0.010 A 
ATOM     39  C   UNL A   1      39.050  24.846  26.220  1.00  0.00     0.010 A 
ATOM     40  C   UNL A   1      40.154  24.570  27.045  1.00  0.00    -0.014 A 
BRANCH  40  41
ATOM     41  C   UNL A   1      40.973  25.684  27.612  1.00  0.00     0.031 A 
ATOM     42  C   UNL A   1      40.339  26.719  28.509  1.00  0.00     0.074 A 
ATOM     43  C   UNL A   1      42.276  25.813  27.287  1.00  0.00     0.049 A 
ATOM     44  N   UNL A   1      40.771  27.913  28.828  1.00  0.00    -0.248 NA
ATOM     45  C   UNL A   1      39.039  26.377  29.110  1.00  0.00     0.031 C 
ATOM     46  C   UNL A   1      43.046  24.881  26.462  1.00  0.00     0.029 A 
ATOM     47  N   UNL A   1      43.183  26.802  27.594  1.00  0.00    -0.354 N 
ATOM     48  C   UNL A   1      39.757  28.500  29.579  1.00  0.00     0.074 A 
ATOM     49  C   UNL A   1      38.700  27.519  29.697  1.00  0.00     0.031 C 
ATOM     50  C   UNL A   1      44.303  25.324  26.345  1.00  0.00     0.029 A 
ATOM     51  C   UNL A   1      44.405  26.628  26.986  1.00  0.00     0.049 A 
ATOM     52  H   UNL A   1      42.977  27.559  28.189  1.00  0.00     0.167 HD
ATOM     53  C   UNL A   1      39.716  29.742  30.121  1.00  0.00     0.034 A 
ATOM     54  C   UNL A   1      45.472  27.446  26.886  1.00  0.00     0.034 A 
ATOM     55  C   UNL A   1      40.814  30.673  30.094  1.00  0.00     0.049 A 
ATOM     56  C   UNL A   1      45.412  28.807  27.511  1.00  0.00     0.074 A 
ATOM     57  C   UNL A   1      40.880  31.942  30.643  1.00  0.00     0.029 A 
ATOM     58  N   UNL A   1      42.049  30.425  29.515  1.00  0.00    -0.354 N 
ATOM     59  N   UNL A   1      44.441  29.356  28.198  1.00  0.00    -0.248 NA
ATOM     60  C   UNL A   1      46.593  29.666  27.346  1.00  0.00     0.031 C 
ATOM     61  C   UNL A   1      42.158  32.459  30.401  1.00  0.00     0.029 A 
ATOM     62  C   UNL A   1      42.888  31.510  29.704  1.00  0.00     0.049 A 
ATOM     63  H   UNL A   1      42.294  29.599  29.039  1.00  0.00     0.167 HD
ATOM     64  C   UNL A   1      44.894  30.618  28.556  1.00  0.00     0.074 A 
ATOM     65  C   UNL A   1      46.241  30.743  28.037  1.00  0.00     0.031 C 
ATOM     66  C   UNL A   1      44.244  31.597  29.230  1.00  0.00     0.034 A 
BRANCH  53  67
ATOM     67  C   UNL A   1      38.454  30.170  30.826  1.00  0.00     0.023 A 
ATOM     68  C   UNL A   1      38.252  29.821  32.174  1.00  0.00     0.012 A 
ATOM     69  C   UNL A   1      37.514  30.998  30.177  1.00  0.00     0.148 A 
ATOM     70  C   UNL A   1      37.126  30.275  32.862  1.00  0.00     0.002 A 
ATOM     71  C   UNL A   1      36.413  31.476  30.881  1.00  0.00     0.091 A 
ATOM     72  F   UNL A   1      37.709  31.300  28.885  1.00  0.00    -0.205 F 
ATOM     73  C   UNL A   1      36.214  31.111  32.221  1.00  0.00     0.022 A 
BRANCH  71  74
ATOM     74  S   UNL A   1      35.233  32.623  30.154  1.00  0.00     0.127 S 
ATOM     75  O   UNL A   1      34.326  32.864  31.275  1.00  0.00    -0.237 OA
ATOM     76  O   UNL A   1      36.080  33.764  29.801  1.00  0.00    -0.237 OA
ATOM     77  O   UNL A   1      34.657  31.927  29.013  1.00  0.00    -0.744 OA
ENDBRANCH  71  74
ENDBRANCH  53  67
BRANCH  54  78
ATOM     78  C   UNL A   1      46.682  26.979  26.152  1.00  0.00     0.023 A 
ATOM     79  C   UNL A   1      46.804  27.255  24.778  1.00  0.00     0.012 A 
ATOM     80  C   UNL A   1      47.748  26.345  26.821  1.00  0.00     0.148 A 
ATOM     81  C   UNL A   1      47.965  26.907  24.085  1.00  0.00     0.002 A 
ATOM     82  C   UNL A   1      48.926  26.064  26.141  1.00  0.00     0.091 A 
ATOM     83  F   UNL A   1      47.603  26.058  28.124  1.00  0.00    -0.205 F 
ATOM     84  C   UNL A   1      49.032  26.331  24.769  1.00  0.00     0.022 A 
BRANCH  82  85
ATOM     85  S   UNL A   1      50.394  25.494  27.008  1.00  0.00     0.127 S 
ATOM     86  O   UNL A   1      51.344  25.319  25.914  1.00  0.00    -0.237 OA
ATOM     87  O   UNL A   1      50.686  26.616  27.903  1.00  0.00    -0.237 OA
ATOM     88  O   UNL A   1      49.977  24.282  27.701  1.00  0.00    -0.744 OA
ENDBRANCH  82  85
ENDBRANCH  54  78
BRANCH  66  89
ATOM     89  C   UNL A   1      44.986  32.883  29.463  1.00  0.00     0.023 A 
ATOM     90  C   UNL A   1      45.809  33.009  30.599  1.00  0.00     0.012 A 
ATOM     91  C   UNL A   1      44.916  33.940  28.535  1.00  0.00     0.148 A 
ATOM     92  C   UNL A   1      46.535  34.179  30.821  1.00  0.00     0.002 A 
ATOM     93  C   UNL A   1      45.670  35.090  28.745  1.00  0.00     0.091 A 
ATOM     94  F   UNL A   1      44.109  33.808  27.473  1.00  0.00    -0.205 F 
ATOM     95  C   UNL A   1      46.473  35.214  29.890  1.00  0.00     0.022 A 
BRANCH  93  96
ATOM     96  S   UNL A   1      45.703  36.441  27.561  1.00  0.00     0.127 S 
ATOM     97  O   UNL A   1      44.320  36.910  27.604  1.00  0.00    -0.237 OA
ATOM     98  O   UNL A   1      46.678  37.357  28.157  1.00  0.00    -0.237 OA
ATOM     99  O   UNL A   1      46.129  35.851  26.298  1.00  0.00    -0.744 OA
ENDBRANCH  93  96
ENDBRANCH  66  89
ENDBRANCH  40  41
ENDBRANCH  33  35
ENDBRANCH  32  33
ENDBRANCH   1  32
TORSDOF 17
ENDMDL
