MODEL 1
REMARK VINA RESULT:     -11.5      0.000      0.000
REMARK SMILES O=C(OCCOC(=O)[C@H]1CC[C@@H](C[NH2+][C@H]2CCC[C@H](C3CC3)C2)CC1)c1ccc(-c2c3nc(c(-c4cccc(S(=O)(=O)[O-])c4F)c4ccc([nH]4)c(-c4cccc(S(=O)(=O)[O-])c4F)c4nc(c(-c5cccc(S(=O)(=O)[O-])c5F)c5ccc2[nH]5)C=C4)C=C3)cc1
REMARK SMILES IDX 5 1 4 2 3 3 2 4 1 5 26 6 27 7 88 8 28 9 87 10 29 11 30 12
REMARK SMILES IDX 31 13 81 14 32 15 86 16 80 17 82 18 33 19 85 20 79 21 78 22
REMARK SMILES IDX 34 24 66 25 46 26 65 27 47 28 50 29 64 30 83 31 48 32 49 33
REMARK SMILES IDX 63 35 84 36 51 37 35 38 36 39 44 40 37 41 39 42 45 43 38 44
REMARK SMILES IDX 40 45 41 46 42 47 43 48 67 49 68 50 76 51 69 52 71 53 77 54
REMARK SMILES IDX 70 55 72 56 73 57 74 58 75 59 52 60 53 61 61 62 54 63 56 64
REMARK SMILES IDX 62 65 55 66 57 67 58 68 59 69 60 70 6 71 7 72 8 73 9 74
REMARK SMILES IDX 25 75 10 76 24 77 11 78 12 79 13 80 14 81 15 84 16 85 23 86
REMARK SMILES IDX 17 87 19 88 18 89 20 90 21 91 22 92
REMARK H PARENT 82 23 50 34 14 82 14 83
REMARK Flexibility Score: inf
ROOT
ATOM      1  C   UNL A   1      31.929  30.722  26.302  1.00  0.00     0.274 C 
ENDROOT
BRANCH   1   2
ATOM      2  C   UNL A   1      31.422  32.053  26.865  1.00  0.00     0.275 C 
BRANCH   2   3
ATOM      3  O   UNL A   1      32.394  33.107  26.869  1.00  0.00    -0.458 OA
BRANCH   3   4
ATOM      4  C   UNL A   1      33.185  33.557  27.871  1.00  0.00     0.338 C 
ATOM      5  O   UNL A   1      32.871  34.619  28.408  1.00  0.00    -0.246 OA
BRANCH   4   6
ATOM      6  C   UNL A   1      34.479  32.914  28.296  1.00  0.00     0.060 A 
ATOM      7  C   UNL A   1      35.778  33.368  28.041  1.00  0.00     0.016 A 
ATOM      8  C   UNL A   1      34.351  31.775  29.111  1.00  0.00     0.016 A 
ATOM      9  C   UNL A   1      36.897  32.795  28.667  1.00  0.00     0.010 A 
ATOM     10  C   UNL A   1      35.459  31.233  29.776  1.00  0.00     0.010 A 
ATOM     11  C   UNL A   1      36.750  31.749  29.576  1.00  0.00    -0.014 A 
BRANCH  11  12
ATOM     12  C   UNL A   1      37.916  31.120  30.249  1.00  0.00     0.031 A 
ATOM     13  C   UNL A   1      38.345  31.636  31.589  1.00  0.00     0.074 A 
ATOM     14  C   UNL A   1      38.627  30.098  29.727  1.00  0.00     0.049 A 
ATOM     15  N   UNL A   1      39.325  31.213  32.340  1.00  0.00    -0.248 NA
ATOM     16  C   UNL A   1      37.544  32.718  32.182  1.00  0.00     0.031 C 
ATOM     17  C   UNL A   1      38.306  29.332  28.529  1.00  0.00     0.029 A 
ATOM     18  N   UNL A   1      39.825  29.551  30.149  1.00  0.00    -0.354 N 
ATOM     19  C   UNL A   1      39.216  31.921  33.519  1.00  0.00     0.074 A 
ATOM     20  C   UNL A   1      38.164  32.897  33.336  1.00  0.00     0.031 C 
ATOM     21  C   UNL A   1      39.336  28.508  28.263  1.00  0.00     0.029 A 
ATOM     22  C   UNL A   1      40.405  28.735  29.206  1.00  0.00     0.049 A 
ATOM     23  H   UNL A   1      40.221  29.727  31.032  1.00  0.00     0.167 HD
ATOM     24  C   UNL A   1      39.856  31.711  34.689  1.00  0.00     0.034 A 
ATOM     25  C   UNL A   1      41.659  28.256  29.093  1.00  0.00     0.034 A 
ATOM     26  C   UNL A   1      40.911  30.765  34.900  1.00  0.00     0.049 A 
ATOM     27  C   UNL A   1      42.532  28.253  30.310  1.00  0.00     0.074 A 
ATOM     28  C   UNL A   1      41.563  30.451  36.078  1.00  0.00     0.029 A 
ATOM     29  N   UNL A   1      41.511  30.024  33.899  1.00  0.00    -0.354 N 
ATOM     30  N   UNL A   1      42.288  28.765  31.486  1.00  0.00    -0.248 NA
ATOM     31  C   UNL A   1      43.766  27.455  30.236  1.00  0.00     0.031 C 
ATOM     32  C   UNL A   1      42.600  29.559  35.779  1.00  0.00     0.029 A 
ATOM     33  C   UNL A   1      42.559  29.288  34.424  1.00  0.00     0.049 A 
ATOM     34  H   UNL A   1      41.234  30.020  32.955  1.00  0.00     0.167 HD
ATOM     35  C   UNL A   1      43.274  28.254  32.315  1.00  0.00     0.074 A 
ATOM     36  C   UNL A   1      44.131  27.419  31.506  1.00  0.00     0.031 C 
ATOM     37  C   UNL A   1      43.412  28.434  33.647  1.00  0.00     0.034 A 
BRANCH  24  38
ATOM     38  C   UNL A   1      39.371  32.528  35.839  1.00  0.00     0.023 A 
ATOM     39  C   UNL A   1      39.881  33.830  36.032  1.00  0.00     0.012 A 
ATOM     40  C   UNL A   1      38.461  31.983  36.755  1.00  0.00     0.148 A 
ATOM     41  C   UNL A   1      39.528  34.560  37.161  1.00  0.00     0.002 A 
ATOM     42  C   UNL A   1      38.080  32.734  37.854  1.00  0.00     0.091 A 
ATOM     43  F   UNL A   1      38.022  30.733  36.553  1.00  0.00    -0.205 F 
ATOM     44  C   UNL A   1      38.625  34.014  38.068  1.00  0.00     0.022 A 
BRANCH  42  45
ATOM     45  S   UNL A   1      36.890  32.141  39.052  1.00  0.00     0.127 S 
ATOM     46  O   UNL A   1      37.475  32.610  40.306  1.00  0.00    -0.237 OA
ATOM     47  O   UNL A   1      35.675  32.842  38.640  1.00  0.00    -0.237 OA
ATOM     48  O   UNL A   1      36.845  30.691  38.894  1.00  0.00    -0.744 OA
ENDBRANCH  42  45
ENDBRANCH  24  38
BRANCH  25  49
ATOM     49  C   UNL A   1      42.236  27.666  27.853  1.00  0.00     0.023 A 
ATOM     50  C   UNL A   1      42.485  28.488  26.738  1.00  0.00     0.012 A 
ATOM     51  C   UNL A   1      42.227  26.262  27.699  1.00  0.00     0.148 A 
ATOM     52  C   UNL A   1      42.597  27.922  25.465  1.00  0.00     0.002 A 
ATOM     53  C   UNL A   1      42.377  25.705  26.432  1.00  0.00     0.091 A 
ATOM     54  F   UNL A   1      42.035  25.500  28.785  1.00  0.00    -0.205 F 
ATOM     55  C   UNL A   1      42.503  26.538  25.308  1.00  0.00     0.022 A 
BRANCH  53  56
ATOM     56  S   UNL A   1      42.433  23.923  26.183  1.00  0.00     0.127 S 
ATOM     57  O   UNL A   1      41.036  23.530  26.375  1.00  0.00    -0.237 OA
ATOM     58  O   UNL A   1      42.905  23.819  24.806  1.00  0.00    -0.237 OA
ATOM     59  O   UNL A   1      43.339  23.430  27.211  1.00  0.00    -0.744 OA
ENDBRANCH  53  56
ENDBRANCH  25  49
BRANCH  37  60
ATOM     60  C   UNL A   1      44.488  27.648  34.333  1.00  0.00     0.023 A 
ATOM     61  C   UNL A   1      45.808  28.135  34.391  1.00  0.00     0.012 A 
ATOM     62  C   UNL A   1      44.176  26.408  34.923  1.00  0.00     0.148 A 
ATOM     63  C   UNL A   1      46.813  27.377  34.988  1.00  0.00     0.002 A 
ATOM     64  C   UNL A   1      45.168  25.689  35.573  1.00  0.00     0.091 A 
ATOM     65  F   UNL A   1      42.921  25.948  34.821  1.00  0.00    -0.205 F 
ATOM     66  C   UNL A   1      46.491  26.162  35.590  1.00  0.00     0.022 A 
BRANCH  64  67
ATOM     67  S   UNL A   1      44.827  24.169  36.463  1.00  0.00     0.127 S 
ATOM     68  O   UNL A   1      46.175  23.674  36.739  1.00  0.00    -0.237 OA
ATOM     69  O   UNL A   1      44.103  24.662  37.635  1.00  0.00    -0.237 OA
ATOM     70  O   UNL A   1      44.036  23.340  35.564  1.00  0.00    -0.744 OA
ENDBRANCH  64  67
ENDBRANCH  37  60
ENDBRANCH  11  12
ENDBRANCH   4   6
ENDBRANCH   3   4
ENDBRANCH   2   3
ENDBRANCH   1   2
BRANCH   1  71
ATOM     71  O   UNL A   1      32.276  29.760  27.313  1.00  0.00    -0.462 OA
BRANCH  71  72
ATOM     72  C   UNL A   1      31.756  28.511  27.151  1.00  0.00     0.309 C 
ATOM     73  O   UNL A   1      31.120  27.918  28.017  1.00  0.00    -0.252 OA
BRANCH  72  74
ATOM     74  C   UNL A   1      32.074  27.875  25.800  1.00  0.00     0.099 C 
ATOM     75  C   UNL A   1      33.537  27.496  25.577  1.00  0.00     0.016 C 
ATOM     76  C   UNL A   1      31.151  26.683  25.563  1.00  0.00     0.016 C 
ATOM     77  C   UNL A   1      33.821  26.717  24.287  1.00  0.00     0.010 C 
ATOM     78  C   UNL A   1      31.422  26.065  24.193  1.00  0.00     0.010 C 
ATOM     79  C   UNL A   1      32.857  25.536  24.081  1.00  0.00     0.044 C 
BRANCH  79  80
ATOM     80  C   UNL A   1      33.195  24.408  25.076  1.00  0.00     0.264 C 
BRANCH  80  81
ATOM     81  N   UNL A   1      34.616  24.190  25.305  1.00  0.00    -0.344 N 
ATOM     82  H   UNL A   1      34.726  23.623  26.147  1.00  0.00     0.346 HD
ATOM     83  H   UNL A   1      35.053  25.107  25.404  1.00  0.00     0.346 HD
BRANCH  81  84
ATOM     84  C   UNL A   1      35.277  23.508  24.196  1.00  0.00     0.182 C 
ATOM     85  C   UNL A   1      36.781  23.328  24.401  1.00  0.00     0.065 C 
ATOM     86  C   UNL A   1      34.594  22.170  23.952  1.00  0.00     0.069 C 
ATOM     87  C   UNL A   1      37.110  22.265  25.442  1.00  0.00     0.006 C 
ATOM     88  C   UNL A   1      34.882  21.128  25.038  1.00  0.00    -0.002 C 
ATOM     89  C   UNL A   1      36.399  20.942  25.150  1.00  0.00     0.004 C 
BRANCH  88  90
ATOM     90  C   UNL A   1      34.089  19.879  24.748  1.00  0.00    -0.008 C 
ATOM     91  C   UNL A   1      32.867  19.423  25.502  1.00  0.00     0.004 C 
ATOM     92  C   UNL A   1      32.736  19.945  24.096  1.00  0.00     0.004 C 
ENDBRANCH  88  90
ENDBRANCH  81  84
ENDBRANCH  80  81
ENDBRANCH  79  80
ENDBRANCH  72  74
ENDBRANCH  71  72
ENDBRANCH   1  71
TORSDOF 18
ENDMDL
MODEL 2
REMARK VINA RESULT:     -11.1      5.078     10.653
REMARK SMILES O=C(OCCOC(=O)[C@H]1CC[C@@H](C[NH2+][C@H]2CCC[C@H](C3CC3)C2)CC1)c1ccc(-c2c3nc(c(-c4cccc(S(=O)(=O)[O-])c4F)c4ccc([nH]4)c(-c4cccc(S(=O)(=O)[O-])c4F)c4nc(c(-c5cccc(S(=O)(=O)[O-])c5F)c5ccc2[nH]5)C=C4)C=C3)cc1
REMARK SMILES IDX 5 1 4 2 3 3 2 4 1 5 26 6 27 7 88 8 28 9 87 10 29 11 30 12
REMARK SMILES IDX 31 13 81 14 32 15 86 16 80 17 82 18 33 19 85 20 79 21 78 22
REMARK SMILES IDX 34 24 66 25 46 26 65 27 47 28 50 29 64 30 83 31 48 32 49 33
REMARK SMILES IDX 63 35 84 36 51 37 35 38 36 39 44 40 37 41 39 42 45 43 38 44
REMARK SMILES IDX 40 45 41 46 42 47 43 48 67 49 68 50 76 51 69 52 71 53 77 54
REMARK SMILES IDX 70 55 72 56 73 57 74 58 75 59 52 60 53 61 61 62 54 63 56 64
REMARK SMILES IDX 62 65 55 66 57 67 58 68 59 69 60 70 6 71 7 72 8 73 9 74
REMARK SMILES IDX 25 75 10 76 24 77 11 78 12 79 13 80 14 81 15 84 16 85 23 86
REMARK SMILES IDX 17 87 19 88 18 89 20 90 21 91 22 92
REMARK H PARENT 82 23 50 34 14 82 14 83
REMARK Flexibility Score: inf
ROOT
ATOM      1  C   UNL A   1      35.815  20.720  24.683  1.00  0.00     0.274 C 
ENDROOT
BRANCH   1   2
ATOM      2  C   UNL A   1      37.299  20.484  24.979  1.00  0.00     0.275 C 
BRANCH   2   3
ATOM      3  O   UNL A   1      37.864  21.384  25.941  1.00  0.00    -0.458 OA
BRANCH   3   4
ATOM      4  C   UNL A   1      39.160  21.632  26.244  1.00  0.00     0.338 C 
ATOM      5  O   UNL A   1      39.961  20.707  26.109  1.00  0.00    -0.246 OA
BRANCH   4   6
ATOM      6  C   UNL A   1      39.670  22.916  26.842  1.00  0.00     0.060 A 
ATOM      7  C   UNL A   1      40.590  23.062  27.886  1.00  0.00     0.016 A 
ATOM      8  C   UNL A   1      39.226  24.095  26.216  1.00  0.00     0.016 A 
ATOM      9  C   UNL A   1      41.144  24.311  28.215  1.00  0.00     0.010 A 
ATOM     10  C   UNL A   1      39.813  25.334  26.506  1.00  0.00     0.010 A 
ATOM     11  C   UNL A   1      40.796  25.456  27.502  1.00  0.00    -0.014 A 
BRANCH  11  12
ATOM     12  C   UNL A   1      41.362  26.791  27.830  1.00  0.00     0.031 A 
ATOM     13  C   UNL A   1      42.836  27.011  27.678  1.00  0.00     0.074 A 
ATOM     14  C   UNL A   1      40.625  27.836  28.263  1.00  0.00     0.049 A 
ATOM     15  N   UNL A   1      43.515  28.103  27.900  1.00  0.00    -0.248 NA
ATOM     16  C   UNL A   1      43.635  25.889  27.161  1.00  0.00     0.031 C 
ATOM     17  C   UNL A   1      39.170  27.911  28.333  1.00  0.00     0.029 A 
ATOM     18  N   UNL A   1      41.036  29.053  28.774  1.00  0.00    -0.354 N 
ATOM     19  C   UNL A   1      44.801  27.826  27.483  1.00  0.00     0.074 A 
ATOM     20  C   UNL A   1      44.843  26.425  27.126  1.00  0.00     0.031 C 
ATOM     21  C   UNL A   1      38.834  29.053  28.958  1.00  0.00     0.029 A 
ATOM     22  C   UNL A   1      40.023  29.745  29.396  1.00  0.00     0.049 A 
ATOM     23  H   UNL A   1      41.958  29.389  28.701  1.00  0.00     0.167 HD
ATOM     24  C   UNL A   1      45.832  28.682  27.309  1.00  0.00     0.034 A 
ATOM     25  C   UNL A   1      40.050  30.789  30.246  1.00  0.00     0.034 A 
ATOM     26  C   UNL A   1      45.828  30.068  27.666  1.00  0.00     0.049 A 
ATOM     27  C   UNL A   1      41.290  31.627  30.307  1.00  0.00     0.074 A 
ATOM     28  C   UNL A   1      46.816  31.014  27.458  1.00  0.00     0.029 A 
ATOM     29  N   UNL A   1      44.812  30.698  28.361  1.00  0.00    -0.354 N 
ATOM     30  N   UNL A   1      42.435  31.427  29.714  1.00  0.00    -0.248 NA
ATOM     31  C   UNL A   1      41.181  32.919  31.004  1.00  0.00     0.031 C 
ATOM     32  C   UNL A   1      46.421  32.204  28.080  1.00  0.00     0.029 A 
ATOM     33  C   UNL A   1      45.169  32.007  28.633  1.00  0.00     0.049 A 
ATOM     34  H   UNL A   1      43.962  30.276  28.623  1.00  0.00     0.167 HD
ATOM     35  C   UNL A   1      43.136  32.612  29.868  1.00  0.00     0.074 A 
ATOM     36  C   UNL A   1      42.302  33.512  30.630  1.00  0.00     0.031 C 
ATOM     37  C   UNL A   1      44.350  32.928  29.368  1.00  0.00     0.034 A 
BRANCH  24  38
ATOM     38  C   UNL A   1      47.041  28.101  26.656  1.00  0.00     0.023 A 
ATOM     39  C   UNL A   1      48.116  27.655  27.455  1.00  0.00     0.012 A 
ATOM     40  C   UNL A   1      47.133  28.055  25.259  1.00  0.00     0.148 A 
ATOM     41  C   UNL A   1      49.296  27.220  26.861  1.00  0.00     0.002 A 
ATOM     42  C   UNL A   1      48.294  27.578  24.675  1.00  0.00     0.091 A 
ATOM     43  F   UNL A   1      46.102  28.515  24.536  1.00  0.00    -0.205 F 
ATOM     44  C   UNL A   1      49.381  27.177  25.473  1.00  0.00     0.022 A 
BRANCH  42  45
ATOM     45  S   UNL A   1      48.486  27.440  22.901  1.00  0.00     0.127 S 
ATOM     46  O   UNL A   1      47.337  28.202  22.420  1.00  0.00    -0.237 OA
ATOM     47  O   UNL A   1      49.782  28.080  22.689  1.00  0.00    -0.237 OA
ATOM     48  O   UNL A   1      48.451  26.012  22.600  1.00  0.00    -0.744 OA
ENDBRANCH  42  45
ENDBRANCH  24  38
BRANCH  25  49
ATOM     49  C   UNL A   1      38.908  31.218  31.102  1.00  0.00     0.023 A 
ATOM     50  C   UNL A   1      38.793  30.726  32.414  1.00  0.00     0.012 A 
ATOM     51  C   UNL A   1      37.801  31.850  30.492  1.00  0.00     0.148 A 
ATOM     52  C   UNL A   1      37.555  30.749  33.062  1.00  0.00     0.002 A 
ATOM     53  C   UNL A   1      36.580  31.901  31.160  1.00  0.00     0.091 A 
ATOM     54  F   UNL A   1      37.950  32.353  29.258  1.00  0.00    -0.205 F 
ATOM     55  C   UNL A   1      36.444  31.298  32.421  1.00  0.00     0.022 A 
BRANCH  53  56
ATOM     56  S   UNL A   1      35.153  32.742  30.458  1.00  0.00     0.127 S 
ATOM     57  O   UNL A   1      34.174  32.671  31.543  1.00  0.00    -0.237 OA
ATOM     58  O   UNL A   1      35.677  34.081  30.206  1.00  0.00    -0.237 OA
ATOM     59  O   UNL A   1      34.798  31.961  29.281  1.00  0.00    -0.744 OA
ENDBRANCH  53  56
ENDBRANCH  25  49
BRANCH  37  60
ATOM     60  C   UNL A   1      44.821  34.338  29.561  1.00  0.00     0.023 A 
ATOM     61  C   UNL A   1      45.435  34.732  30.765  1.00  0.00     0.012 A 
ATOM     62  C   UNL A   1      44.644  35.279  28.528  1.00  0.00     0.148 A 
ATOM     63  C   UNL A   1      45.826  36.055  30.956  1.00  0.00     0.002 A 
ATOM     64  C   UNL A   1      45.095  36.579  28.700  1.00  0.00     0.091 A 
ATOM     65  F   UNL A   1      44.022  34.889  27.406  1.00  0.00    -0.205 F 
ATOM     66  C   UNL A   1      45.669  36.975  29.920  1.00  0.00     0.022 A 
BRANCH  64  67
ATOM     67  S   UNL A   1      45.029  37.800  27.388  1.00  0.00     0.127 S 
ATOM     68  O   UNL A   1      45.561  38.987  28.056  1.00  0.00    -0.237 OA
ATOM     69  O   UNL A   1      45.917  37.213  26.384  1.00  0.00    -0.237 OA
ATOM     70  O   UNL A   1      43.632  37.891  26.987  1.00  0.00    -0.744 OA
ENDBRANCH  64  67
ENDBRANCH  37  60
ENDBRANCH  11  12
ENDBRANCH   4   6
ENDBRANCH   3   4
ENDBRANCH   2   3
ENDBRANCH   1   2
BRANCH   1  71
ATOM     71  O   UNL A   1      35.430  22.105  24.722  1.00  0.00    -0.462 OA
BRANCH  71  72
ATOM     72  C   UNL A   1      35.481  22.773  23.535  1.00  0.00     0.309 C 
ATOM     73  O   UNL A   1      36.523  23.022  22.936  1.00  0.00    -0.252 OA
BRANCH  72  74
ATOM     74  C   UNL A   1      34.120  23.236  23.023  1.00  0.00     0.099 C 
ATOM     75  C   UNL A   1      32.912  22.503  23.604  1.00  0.00     0.016 C 
ATOM     76  C   UNL A   1      33.990  24.746  23.202  1.00  0.00     0.016 C 
ATOM     77  C   UNL A   1      31.546  23.078  23.207  1.00  0.00     0.010 C 
ATOM     78  C   UNL A   1      32.653  25.234  22.649  1.00  0.00     0.010 C 
ATOM     79  C   UNL A   1      31.466  24.603  23.387  1.00  0.00     0.044 C 
BRANCH  79  80
ATOM     80  C   UNL A   1      31.400  24.946  24.890  1.00  0.00     0.264 C 
BRANCH  80  81
ATOM     81  N   UNL A   1      32.523  25.722  25.397  1.00  0.00    -0.344 N 
ATOM     82  H   UNL A   1      33.067  26.061  24.603  1.00  0.00     0.346 HD
ATOM     83  H   UNL A   1      33.070  25.109  26.000  1.00  0.00     0.346 HD
BRANCH  81  84
ATOM     84  C   UNL A   1      32.108  26.870  26.200  1.00  0.00     0.182 C 
ATOM     85  C   UNL A   1      33.279  27.714  26.703  1.00  0.00     0.065 C 
ATOM     86  C   UNL A   1      31.129  27.715  25.399  1.00  0.00     0.069 C 
ATOM     87  C   UNL A   1      33.928  28.538  25.598  1.00  0.00     0.006 C 
ATOM     88  C   UNL A   1      31.783  28.489  24.251  1.00  0.00    -0.002 C 
ATOM     89  C   UNL A   1      32.900  29.367  24.825  1.00  0.00     0.004 C 
BRANCH  88  90
ATOM     90  C   UNL A   1      30.715  29.216  23.472  1.00  0.00    -0.008 C 
ATOM     91  C   UNL A   1      30.148  28.779  22.147  1.00  0.00     0.004 C 
ATOM     92  C   UNL A   1      29.309  28.690  23.394  1.00  0.00     0.004 C 
ENDBRANCH  88  90
ENDBRANCH  81  84
ENDBRANCH  80  81
ENDBRANCH  79  80
ENDBRANCH  72  74
ENDBRANCH  71  72
ENDBRANCH   1  71
TORSDOF 18
ENDMDL
MODEL 3
REMARK VINA RESULT:     -11.1      4.978     10.509
REMARK SMILES O=C(OCCOC(=O)[C@H]1CC[C@@H](C[NH2+][C@H]2CCC[C@H](C3CC3)C2)CC1)c1ccc(-c2c3nc(c(-c4cccc(S(=O)(=O)[O-])c4F)c4ccc([nH]4)c(-c4cccc(S(=O)(=O)[O-])c4F)c4nc(c(-c5cccc(S(=O)(=O)[O-])c5F)c5ccc2[nH]5)C=C4)C=C3)cc1
REMARK SMILES IDX 5 1 4 2 3 3 2 4 1 5 26 6 27 7 88 8 28 9 87 10 29 11 30 12
REMARK SMILES IDX 31 13 81 14 32 15 86 16 80 17 82 18 33 19 85 20 79 21 78 22
REMARK SMILES IDX 34 24 66 25 46 26 65 27 47 28 50 29 64 30 83 31 48 32 49 33
REMARK SMILES IDX 63 35 84 36 51 37 35 38 36 39 44 40 37 41 39 42 45 43 38 44
REMARK SMILES IDX 40 45 41 46 42 47 43 48 67 49 68 50 76 51 69 52 71 53 77 54
REMARK SMILES IDX 70 55 72 56 73 57 74 58 75 59 52 60 53 61 61 62 54 63 56 64
REMARK SMILES IDX 62 65 55 66 57 67 58 68 59 69 60 70 6 71 7 72 8 73 9 74
REMARK SMILES IDX 25 75 10 76 24 77 11 78 12 79 13 80 14 81 15 84 16 85 23 86
REMARK SMILES IDX 17 87 19 88 18 89 20 90 21 91 22 92
REMARK H PARENT 82 23 50 34 14 82 14 83
REMARK Flexibility Score: inf
ROOT
ATOM      1  C   UNL A   1      35.300  19.667  25.021  1.00  0.00     0.274 C 
ENDROOT
BRANCH   1   2
ATOM      2  C   UNL A   1      36.715  20.101  24.627  1.00  0.00     0.275 C 
BRANCH   2   3
ATOM      3  O   UNL A   1      37.353  20.975  25.567  1.00  0.00    -0.458 OA
BRANCH   3   4
ATOM      4  C   UNL A   1      38.661  21.091  25.899  1.00  0.00     0.338 C 
ATOM      5  O   UNL A   1      39.368  20.091  25.774  1.00  0.00    -0.246 OA
BRANCH   4   6
ATOM      6  C   UNL A   1      39.283  22.316  26.514  1.00  0.00     0.060 A 
ATOM      7  C   UNL A   1      40.426  22.375  27.320  1.00  0.00     0.016 A 
ATOM      8  C   UNL A   1      38.687  23.541  26.164  1.00  0.00     0.016 A 
ATOM      9  C   UNL A   1      41.026  23.599  27.662  1.00  0.00     0.010 A 
ATOM     10  C   UNL A   1      39.311  24.761  26.460  1.00  0.00     0.010 A 
ATOM     11  C   UNL A   1      40.504  24.805  27.201  1.00  0.00    -0.014 A 
BRANCH  11  12
ATOM     12  C   UNL A   1      41.115  26.114  27.550  1.00  0.00     0.031 A 
ATOM     13  C   UNL A   1      42.594  26.289  27.390  1.00  0.00     0.074 A 
ATOM     14  C   UNL A   1      40.416  27.174  28.009  1.00  0.00     0.049 A 
ATOM     15  N   UNL A   1      43.311  27.354  27.627  1.00  0.00    -0.248 NA
ATOM     16  C   UNL A   1      43.352  25.152  26.845  1.00  0.00     0.031 C 
ATOM     17  C   UNL A   1      38.965  27.294  28.093  1.00  0.00     0.029 A 
ATOM     18  N   UNL A   1      40.870  28.366  28.541  1.00  0.00    -0.354 N 
ATOM     19  C   UNL A   1      44.583  27.044  27.194  1.00  0.00     0.074 A 
ATOM     20  C   UNL A   1      44.576  25.649  26.810  1.00  0.00     0.031 C 
ATOM     21  C   UNL A   1      38.671  28.434  28.744  1.00  0.00     0.029 A 
ATOM     22  C   UNL A   1      39.886  29.079  29.185  1.00  0.00     0.049 A 
ATOM     23  H   UNL A   1      41.802  28.674  28.466  1.00  0.00     0.167 HD
ATOM     24  C   UNL A   1      45.640  27.869  27.028  1.00  0.00     0.034 A 
ATOM     25  C   UNL A   1      39.953  30.104  30.054  1.00  0.00     0.034 A 
ATOM     26  C   UNL A   1      45.685  29.247  27.412  1.00  0.00     0.049 A 
ATOM     27  C   UNL A   1      41.220  30.900  30.121  1.00  0.00     0.074 A 
ATOM     28  C   UNL A   1      46.701  30.164  27.213  1.00  0.00     0.029 A 
ATOM     29  N   UNL A   1      44.695  29.895  28.127  1.00  0.00    -0.354 N 
ATOM     30  N   UNL A   1      42.353  30.674  29.515  1.00  0.00    -0.248 NA
ATOM     31  C   UNL A   1      41.159  32.181  30.843  1.00  0.00     0.031 C 
ATOM     32  C   UNL A   1      46.349  31.355  27.862  1.00  0.00     0.029 A 
ATOM     33  C   UNL A   1      45.097  31.186  28.421  1.00  0.00     0.049 A 
ATOM     34  H   UNL A   1      43.833  29.497  28.388  1.00  0.00     0.167 HD
ATOM     35  C   UNL A   1      43.094  31.833  29.685  1.00  0.00     0.074 A 
ATOM     36  C   UNL A   1      42.295  32.745  30.472  1.00  0.00     0.031 C 
ATOM     37  C   UNL A   1      44.314  32.120  29.181  1.00  0.00     0.034 A 
BRANCH  24  38
ATOM     38  C   UNL A   1      46.825  27.261  26.354  1.00  0.00     0.023 A 
ATOM     39  C   UNL A   1      46.879  27.224  24.944  1.00  0.00     0.012 A 
ATOM     40  C   UNL A   1      47.846  26.679  27.117  1.00  0.00     0.148 A 
ATOM     41  C   UNL A   1      47.918  26.559  24.302  1.00  0.00     0.002 A 
ATOM     42  C   UNL A   1      48.900  26.058  26.469  1.00  0.00     0.091 A 
ATOM     43  F   UNL A   1      47.742  26.710  28.453  1.00  0.00    -0.205 F 
ATOM     44  C   UNL A   1      48.929  25.981  25.064  1.00  0.00     0.022 A 
BRANCH  42  45
ATOM     45  S   UNL A   1      50.271  25.326  27.357  1.00  0.00     0.127 S 
ATOM     46  O   UNL A   1      51.206  25.040  26.271  1.00  0.00    -0.237 OA
ATOM     47  O   UNL A   1      50.671  26.418  28.242  1.00  0.00    -0.237 OA
ATOM     48  O   UNL A   1      49.733  24.152  28.035  1.00  0.00    -0.744 OA
ENDBRANCH  42  45
ENDBRANCH  24  38
BRANCH  25  49
ATOM     49  C   UNL A   1      38.833  30.553  30.928  1.00  0.00     0.023 A 
ATOM     50  C   UNL A   1      38.605  29.913  32.160  1.00  0.00     0.012 A 
ATOM     51  C   UNL A   1      37.833  31.387  30.377  1.00  0.00     0.148 A 
ATOM     52  C   UNL A   1      37.351  30.000  32.770  1.00  0.00     0.002 A 
ATOM     53  C   UNL A   1      36.599  31.497  31.013  1.00  0.00     0.091 A 
ATOM     54  F   UNL A   1      38.092  32.024  29.226  1.00  0.00    -0.205 F 
ATOM     55  C   UNL A   1      36.340  30.757  32.178  1.00  0.00     0.022 A 
BRANCH  53  56
ATOM     56  S   UNL A   1      35.310  32.588  30.390  1.00  0.00     0.127 S 
ATOM     57  O   UNL A   1      36.034  33.837  30.155  1.00  0.00    -0.237 OA
ATOM     58  O   UNL A   1      34.884  31.900  29.175  1.00  0.00    -0.237 OA
ATOM     59  O   UNL A   1      34.328  32.659  31.464  1.00  0.00    -0.744 OA
ENDBRANCH  53  56
ENDBRANCH  25  49
BRANCH  37  60
ATOM     60  C   UNL A   1      44.832  33.509  29.397  1.00  0.00     0.023 A 
ATOM     61  C   UNL A   1      45.484  33.855  30.597  1.00  0.00     0.012 A 
ATOM     62  C   UNL A   1      44.661  34.480  28.392  1.00  0.00     0.148 A 
ATOM     63  C   UNL A   1      45.919  35.161  30.811  1.00  0.00     0.002 A 
ATOM     64  C   UNL A   1      45.156  35.761  28.585  1.00  0.00     0.091 A 
ATOM     65  F   UNL A   1      44.004  34.137  27.275  1.00  0.00    -0.205 F 
ATOM     66  C   UNL A   1      45.768  36.109  29.801  1.00  0.00     0.022 A 
BRANCH  64  67
ATOM     67  S   UNL A   1      45.100  37.016  27.304  1.00  0.00     0.127 S 
ATOM     68  O   UNL A   1      45.896  36.399  26.245  1.00  0.00    -0.237 OA
ATOM     69  O   UNL A   1      43.666  37.098  27.025  1.00  0.00    -0.237 OA
ATOM     70  O   UNL A   1      45.675  38.220  27.889  1.00  0.00    -0.744 OA
ENDBRANCH  64  67
ENDBRANCH  37  60
ENDBRANCH  11  12
ENDBRANCH   4   6
ENDBRANCH   3   4
ENDBRANCH   2   3
ENDBRANCH   1   2
BRANCH   1  71
ATOM     71  O   UNL A   1      34.386  20.764  25.198  1.00  0.00    -0.462 OA
BRANCH  71  72
ATOM     72  C   UNL A   1      33.519  20.990  24.172  1.00  0.00     0.309 C 
ATOM     73  O   UNL A   1      32.801  20.123  23.681  1.00  0.00    -0.252 OA
BRANCH  72  74
ATOM     74  C   UNL A   1      33.544  22.420  23.639  1.00  0.00     0.099 C 
ATOM     75  C   UNL A   1      32.199  23.144  23.629  1.00  0.00     0.016 C 
ATOM     76  C   UNL A   1      34.602  23.228  24.386  1.00  0.00     0.016 C 
ATOM     77  C   UNL A   1      32.259  24.627  23.243  1.00  0.00     0.010 C 
ATOM     78  C   UNL A   1      34.675  24.649  23.832  1.00  0.00     0.010 C 
ATOM     79  C   UNL A   1      33.348  25.398  24.007  1.00  0.00     0.044 C 
BRANCH  79  80
ATOM     80  C   UNL A   1      32.918  25.589  25.476  1.00  0.00     0.264 C 
BRANCH  80  81
ATOM     81  N   UNL A   1      33.557  26.698  26.169  1.00  0.00    -0.344 N 
ATOM     82  H   UNL A   1      34.051  27.268  25.481  1.00  0.00     0.346 HD
ATOM     83  H   UNL A   1      34.193  26.300  26.860  1.00  0.00     0.346 HD
BRANCH  81  84
ATOM     84  C   UNL A   1      32.610  27.548  26.884  1.00  0.00     0.182 C 
ATOM     85  C   UNL A   1      33.148  28.949  27.173  1.00  0.00     0.065 C 
ATOM     86  C   UNL A   1      31.306  27.614  26.102  1.00  0.00     0.069 C 
ATOM     87  C   UNL A   1      33.214  29.823  25.927  1.00  0.00     0.006 C 
ATOM     88  C   UNL A   1      31.402  28.444  24.818  1.00  0.00    -0.002 C 
ATOM     89  C   UNL A   1      31.879  29.854  25.180  1.00  0.00     0.004 C 
BRANCH  88  90
ATOM     90  C   UNL A   1      30.088  28.367  24.080  1.00  0.00    -0.008 C 
ATOM     91  C   UNL A   1      29.921  27.997  22.629  1.00  0.00     0.004 C 
ATOM     92  C   UNL A   1      29.476  27.045  23.708  1.00  0.00     0.004 C 
ENDBRANCH  88  90
ENDBRANCH  81  84
ENDBRANCH  80  81
ENDBRANCH  79  80
ENDBRANCH  72  74
ENDBRANCH  71  72
ENDBRANCH   1  71
TORSDOF 18
ENDMDL
