MODEL 1
REMARK VINA RESULT:     -11.9      0.000      0.000
REMARK SMILES O=C(C[C@H]1C[C@H]2CC[C@@H](C1)N2C(=O)c1c[nH]c(=O)[nH]1)OCCOC(=O)c1ccc(-c2c3nc(c(-c4cccc(S(=O)(=O)[O-])c4F)c4ccc([nH]4)c(-c4cccc(S(=O)(=O)[O-])c4F)c4nc(c(-c5cccc(S(=O)(=O)[O-])c5F)c5ccc2[nH]5)C=C4)C=C3)cc1
REMARK SMILES IDX 21 1 20 2 2 3 1 4 3 5 4 6 5 7 10 8 6 9 9 10 7 11 11 12 8 13
REMARK SMILES IDX 12 14 13 15 14 16 15 17 19 18 16 19 17 20 18 23 22 24 23 25
REMARK SMILES IDX 24 26 25 27 26 28 27 29 88 30 28 31 87 32 29 33 30 34 31 35
REMARK SMILES IDX 81 36 32 37 86 38 80 39 82 40 33 41 85 42 79 43 78 44 34 46
REMARK SMILES IDX 66 47 46 48 65 49 47 50 50 51 64 52 83 53 48 54 49 55 63 57
REMARK SMILES IDX 84 58 51 59 35 60 36 61 44 62 37 63 39 64 45 65 38 66 40 67
REMARK SMILES IDX 41 68 42 69 43 70 67 71 68 72 76 73 69 74 71 75 77 76 70 77
REMARK SMILES IDX 72 78 73 79 74 80 75 81 52 82 53 83 61 84 54 85 56 86 62 87
REMARK SMILES IDX 55 88 57 89 58 90 59 91 60 92
REMARK H PARENT 19 21 16 22 82 45 50 56
REMARK Flexibility Score: inf
ROOT
ATOM      1  C   UNL A   1      31.583  29.209  25.072  1.00  0.00     0.274 C 
ENDROOT
BRANCH   1   2
ATOM      2  O   UNL A   1      30.620  29.437  24.034  1.00  0.00    -0.462 OA
BRANCH   2   3
ATOM      3  C   UNL A   1      30.209  28.320  23.387  1.00  0.00     0.306 C 
ATOM      4  O   UNL A   1      29.608  28.327  22.319  1.00  0.00    -0.252 OA
BRANCH   3   5
ATOM      5  C   UNL A   1      30.315  27.083  24.257  1.00  0.00     0.126 C 
BRANCH   5   6
ATOM      6  C   UNL A   1      30.680  25.718  23.641  1.00  0.00     0.004 C 
ATOM      7  C   UNL A   1      31.773  25.688  22.538  1.00  0.00     0.029 C 
ATOM      8  C   UNL A   1      31.023  24.713  24.784  1.00  0.00     0.029 C 
ATOM      9  C   UNL A   1      33.197  25.375  23.008  1.00  0.00     0.086 C 
ATOM     10  C   UNL A   1      32.531  24.516  25.048  1.00  0.00     0.086 C 
ATOM     11  C   UNL A   1      33.728  26.374  24.037  1.00  0.00     0.027 C 
ATOM     12  N   UNL A   1      33.167  24.161  23.789  1.00  0.00    -0.331 N 
ATOM     13  C   UNL A   1      33.257  25.818  25.391  1.00  0.00     0.027 C 
BRANCH  12  14
ATOM     14  C   UNL A   1      34.043  23.135  23.520  1.00  0.00     0.272 C 
ATOM     15  O   UNL A   1      34.999  23.259  22.754  1.00  0.00    -0.267 OA
BRANCH  14  16
ATOM     16  C   UNL A   1      33.898  21.886  24.299  1.00  0.00     0.125 A 
ATOM     17  C   UNL A   1      34.701  21.335  25.220  1.00  0.00     0.119 A 
ATOM     18  N   UNL A   1      32.801  21.074  24.132  1.00  0.00    -0.302 N 
ATOM     19  N   UNL A   1      34.149  20.142  25.619  1.00  0.00    -0.312 N 
ATOM     20  C   UNL A   1      32.934  19.946  24.948  1.00  0.00     0.323 A 
ATOM     21  H   UNL A   1      32.043  21.257  23.533  1.00  0.00     0.172 HD
ATOM     22  H   UNL A   1      34.545  19.522  26.273  1.00  0.00     0.171 HD
ATOM     23  O   UNL A   1      32.153  19.019  25.041  1.00  0.00    -0.248 OA
ENDBRANCH  14  16
ENDBRANCH  12  14
ENDBRANCH   5   6
ENDBRANCH   3   5
ENDBRANCH   2   3
ENDBRANCH   1   2
BRANCH   1  24
ATOM     24  C   UNL A   1      31.749  30.472  25.935  1.00  0.00     0.275 C 
BRANCH  24  25
ATOM     25  O   UNL A   1      33.133  30.811  26.149  1.00  0.00    -0.458 OA
BRANCH  25  26
ATOM     26  C   UNL A   1      33.458  31.659  27.153  1.00  0.00     0.338 C 
ATOM     27  O   UNL A   1      32.839  32.631  27.521  1.00  0.00    -0.246 OA
BRANCH  26  28
ATOM     28  C   UNL A   1      34.719  31.152  27.757  1.00  0.00     0.060 A 
ATOM     29  C   UNL A   1      34.858  29.790  28.040  1.00  0.00     0.016 A 
ATOM     30  C   UNL A   1      35.783  32.024  28.005  1.00  0.00     0.016 A 
ATOM     31  C   UNL A   1      36.059  29.303  28.589  1.00  0.00     0.010 A 
ATOM     32  C   UNL A   1      36.988  31.528  28.527  1.00  0.00     0.010 A 
ATOM     33  C   UNL A   1      37.135  30.166  28.854  1.00  0.00    -0.014 A 
BRANCH  33  34
ATOM     34  C   UNL A   1      38.360  29.691  29.570  1.00  0.00     0.031 A 
ATOM     35  C   UNL A   1      38.697  30.269  30.927  1.00  0.00     0.074 A 
ATOM     36  C   UNL A   1      39.213  28.792  29.032  1.00  0.00     0.049 A 
ATOM     37  N   UNL A   1      39.710  30.007  31.713  1.00  0.00    -0.248 NA
ATOM     38  C   UNL A   1      37.785  31.297  31.452  1.00  0.00     0.031 C 
ATOM     39  C   UNL A   1      39.089  28.185  27.709  1.00  0.00     0.029 A 
ATOM     40  N   UNL A   1      40.380  28.255  29.534  1.00  0.00    -0.354 N 
ATOM     41  C   UNL A   1      39.582  30.865  32.798  1.00  0.00     0.074 A 
ATOM     42  C   UNL A   1      38.415  31.683  32.550  1.00  0.00     0.031 C 
ATOM     43  C   UNL A   1      40.141  27.374  27.498  1.00  0.00     0.029 A 
ATOM     44  C   UNL A   1      41.023  27.403  28.667  1.00  0.00     0.049 A 
ATOM     45  H   UNL A   1      40.721  28.463  30.434  1.00  0.00     0.167 HD
ATOM     46  C   UNL A   1      40.328  30.950  33.925  1.00  0.00     0.034 A 
ATOM     47  C   UNL A   1      42.184  26.722  28.790  1.00  0.00     0.034 A 
ATOM     48  C   UNL A   1      41.445  30.103  34.235  1.00  0.00     0.049 A 
ATOM     49  C   UNL A   1      42.976  26.787  30.077  1.00  0.00     0.074 A 
ATOM     50  C   UNL A   1      42.176  30.043  35.410  1.00  0.00     0.029 A 
ATOM     51  N   UNL A   1      42.000  29.176  33.371  1.00  0.00    -0.354 N 
ATOM     52  N   UNL A   1      42.711  27.448  31.176  1.00  0.00    -0.248 NA
ATOM     53  C   UNL A   1      44.205  25.976  30.156  1.00  0.00     0.031 C 
ATOM     54  C   UNL A   1      43.184  29.088  35.250  1.00  0.00     0.029 A 
ATOM     55  C   UNL A   1      43.070  28.545  33.981  1.00  0.00     0.049 A 
ATOM     56  H   UNL A   1      41.679  28.992  32.459  1.00  0.00     0.167 HD
ATOM     57  C   UNL A   1      43.712  27.104  32.083  1.00  0.00     0.074 A 
ATOM     58  C   UNL A   1      44.582  26.163  31.414  1.00  0.00     0.031 C 
ATOM     59  C   UNL A   1      43.895  27.546  33.352  1.00  0.00     0.034 A 
BRANCH  46  60
ATOM     60  C   UNL A   1      39.909  31.968  34.951  1.00  0.00     0.023 A 
ATOM     61  C   UNL A   1      40.391  33.289  34.851  1.00  0.00     0.012 A 
ATOM     62  C   UNL A   1      39.021  31.630  35.990  1.00  0.00     0.148 A 
ATOM     63  C   UNL A   1      40.033  34.247  35.795  1.00  0.00     0.002 A 
ATOM     64  C   UNL A   1      38.634  32.603  36.904  1.00  0.00     0.091 A 
ATOM     65  F   UNL A   1      38.593  30.363  36.083  1.00  0.00    -0.205 F 
ATOM     66  C   UNL A   1      39.150  33.907  36.816  1.00  0.00     0.022 A 
BRANCH  64  67
ATOM     67  S   UNL A   1      37.440  32.272  38.202  1.00  0.00     0.127 S 
ATOM     68  O   UNL A   1      36.294  33.063  37.758  1.00  0.00    -0.237 OA
ATOM     69  O   UNL A   1      37.257  30.823  38.098  1.00  0.00    -0.237 OA
ATOM     70  O   UNL A   1      38.071  32.710  39.439  1.00  0.00    -0.744 OA
ENDBRANCH  64  67
ENDBRANCH  46  60
BRANCH  47  71
ATOM     71  C   UNL A   1      42.657  25.851  27.674  1.00  0.00     0.023 A 
ATOM     72  C   UNL A   1      43.599  26.350  26.752  1.00  0.00     0.012 A 
ATOM     73  C   UNL A   1      42.182  24.534  27.523  1.00  0.00     0.148 A 
ATOM     74  C   UNL A   1      44.032  25.567  25.682  1.00  0.00     0.002 A 
ATOM     75  C   UNL A   1      42.659  23.739  26.487  1.00  0.00     0.091 A 
ATOM     76  F   UNL A   1      41.274  24.080  28.399  1.00  0.00    -0.205 F 
ATOM     77  C   UNL A   1      43.570  24.260  25.554  1.00  0.00     0.022 A 
BRANCH  75  78
ATOM     78  S   UNL A   1      42.222  22.003  26.331  1.00  0.00     0.127 S 
ATOM     79  O   UNL A   1      43.042  21.586  25.197  1.00  0.00    -0.237 OA
ATOM     80  O   UNL A   1      42.641  21.467  27.626  1.00  0.00    -0.237 OA
ATOM     81  O   UNL A   1      40.779  21.974  26.117  1.00  0.00    -0.744 OA
ENDBRANCH  75  78
ENDBRANCH  47  71
BRANCH  59  82
ATOM     82  C   UNL A   1      45.055  27.005  34.153  1.00  0.00     0.023 A 
ATOM     83  C   UNL A   1      46.284  27.691  34.152  1.00  0.00     0.012 A 
ATOM     84  C   UNL A   1      44.882  25.898  35.010  1.00  0.00     0.148 A 
ATOM     85  C   UNL A   1      47.328  27.278  34.982  1.00  0.00     0.002 A 
ATOM     86  C   UNL A   1      45.912  25.519  35.866  1.00  0.00     0.091 A 
ATOM     87  F   UNL A   1      43.711  25.248  34.986  1.00  0.00    -0.205 F 
ATOM     88  C   UNL A   1      47.137  26.204  35.847  1.00  0.00     0.022 A 
BRANCH  86  89
ATOM     89  S   UNL A   1      45.725  24.212  37.086  1.00  0.00     0.127 S 
ATOM     90  O   UNL A   1      46.957  24.348  37.861  1.00  0.00    -0.237 OA
ATOM     91  O   UNL A   1      44.511  24.618  37.794  1.00  0.00    -0.237 OA
ATOM     92  O   UNL A   1      45.598  22.972  36.331  1.00  0.00    -0.744 OA
ENDBRANCH  86  89
ENDBRANCH  59  82
ENDBRANCH  33  34
ENDBRANCH  26  28
ENDBRANCH  25  26
ENDBRANCH  24  25
ENDBRANCH   1  24
TORSDOF 17
ENDMDL
MODEL 2
REMARK VINA RESULT:     -11.9      1.264      1.508
REMARK SMILES O=C(C[C@H]1C[C@H]2CC[C@@H](C1)N2C(=O)c1c[nH]c(=O)[nH]1)OCCOC(=O)c1ccc(-c2c3nc(c(-c4cccc(S(=O)(=O)[O-])c4F)c4ccc([nH]4)c(-c4cccc(S(=O)(=O)[O-])c4F)c4nc(c(-c5cccc(S(=O)(=O)[O-])c5F)c5ccc2[nH]5)C=C4)C=C3)cc1
REMARK SMILES IDX 21 1 20 2 2 3 1 4 3 5 4 6 5 7 10 8 6 9 9 10 7 11 11 12 8 13
REMARK SMILES IDX 12 14 13 15 14 16 15 17 19 18 16 19 17 20 18 23 22 24 23 25
REMARK SMILES IDX 24 26 25 27 26 28 27 29 88 30 28 31 87 32 29 33 30 34 31 35
REMARK SMILES IDX 81 36 32 37 86 38 80 39 82 40 33 41 85 42 79 43 78 44 34 46
REMARK SMILES IDX 66 47 46 48 65 49 47 50 50 51 64 52 83 53 48 54 49 55 63 57
REMARK SMILES IDX 84 58 51 59 35 60 36 61 44 62 37 63 39 64 45 65 38 66 40 67
REMARK SMILES IDX 41 68 42 69 43 70 67 71 68 72 76 73 69 74 71 75 77 76 70 77
REMARK SMILES IDX 72 78 73 79 74 80 75 81 52 82 53 83 61 84 54 85 56 86 62 87
REMARK SMILES IDX 55 88 57 89 58 90 59 91 60 92
REMARK H PARENT 19 21 16 22 82 45 50 56
REMARK Flexibility Score: inf
ROOT
ATOM      1  C   UNL A   1      31.022  29.361  25.210  1.00  0.00     0.274 C 
ENDROOT
BRANCH   1   2
ATOM      2  O   UNL A   1      31.053  29.388  23.777  1.00  0.00    -0.462 OA
BRANCH   2   3
ATOM      3  C   UNL A   1      30.604  28.260  23.179  1.00  0.00     0.306 C 
ATOM      4  O   UNL A   1      30.270  28.193  22.001  1.00  0.00    -0.252 OA
BRANCH   3   5
ATOM      5  C   UNL A   1      30.287  27.168  24.181  1.00  0.00     0.126 C 
BRANCH   5   6
ATOM      6  C   UNL A   1      30.863  25.749  24.006  1.00  0.00     0.004 C 
ATOM      7  C   UNL A   1      32.237  25.606  23.294  1.00  0.00     0.029 C 
ATOM      8  C   UNL A   1      30.882  25.028  25.390  1.00  0.00     0.029 C 
ATOM      9  C   UNL A   1      33.465  25.530  24.207  1.00  0.00     0.086 C 
ATOM     10  C   UNL A   1      32.249  25.033  26.109  1.00  0.00     0.086 C 
ATOM     11  C   UNL A   1      33.631  26.759  25.101  1.00  0.00     0.027 C 
ATOM     12  N   UNL A   1      33.243  24.497  25.191  1.00  0.00    -0.331 N 
ATOM     13  C   UNL A   1      32.796  26.441  26.353  1.00  0.00     0.027 C 
BRANCH  12  14
ATOM     14  C   UNL A   1      34.193  23.528  25.413  1.00  0.00     0.272 C 
ATOM     15  O   UNL A   1      35.399  23.774  25.454  1.00  0.00    -0.267 OA
BRANCH  14  16
ATOM     16  C   UNL A   1      33.720  22.169  25.754  1.00  0.00     0.125 A 
ATOM     17  C   UNL A   1      33.851  21.458  26.884  1.00  0.00     0.119 A 
ATOM     18  N   UNL A   1      33.025  21.413  24.840  1.00  0.00    -0.302 N 
ATOM     19  N   UNL A   1      33.280  20.224  26.688  1.00  0.00    -0.312 N 
ATOM     20  C   UNL A   1      32.739  20.163  25.396  1.00  0.00     0.323 A 
ATOM     21  H   UNL A   1      32.769  21.707  23.936  1.00  0.00     0.172 HD
ATOM     22  H   UNL A   1      33.255  19.496  27.351  1.00  0.00     0.171 HD
ATOM     23  O   UNL A   1      32.147  19.245  24.861  1.00  0.00    -0.248 OA
ENDBRANCH  14  16
ENDBRANCH  12  14
ENDBRANCH   5   6
ENDBRANCH   3   5
ENDBRANCH   2   3
ENDBRANCH   1   2
BRANCH   1  24
ATOM     24  C   UNL A   1      31.505  30.704  25.782  1.00  0.00     0.275 C 
BRANCH  24  25
ATOM     25  O   UNL A   1      32.825  30.612  26.355  1.00  0.00    -0.458 OA
BRANCH  25  26
ATOM     26  C   UNL A   1      33.264  31.604  27.166  1.00  0.00     0.338 C 
ATOM     27  O   UNL A   1      32.725  32.664  27.387  1.00  0.00    -0.246 OA
BRANCH  26  28
ATOM     28  C   UNL A   1      34.537  31.133  27.775  1.00  0.00     0.060 A 
ATOM     29  C   UNL A   1      34.787  29.762  27.895  1.00  0.00     0.016 A 
ATOM     30  C   UNL A   1      35.503  32.054  28.190  1.00  0.00     0.016 A 
ATOM     31  C   UNL A   1      35.999  29.313  28.449  1.00  0.00     0.010 A 
ATOM     32  C   UNL A   1      36.723  31.599  28.716  1.00  0.00     0.010 A 
ATOM     33  C   UNL A   1      36.978  30.224  28.880  1.00  0.00    -0.014 A 
BRANCH  33  34
ATOM     34  C   UNL A   1      38.207  29.767  29.603  1.00  0.00     0.031 A 
ATOM     35  C   UNL A   1      38.444  30.225  31.025  1.00  0.00     0.074 A 
ATOM     36  C   UNL A   1      39.147  28.993  29.018  1.00  0.00     0.049 A 
ATOM     37  N   UNL A   1      39.443  29.957  31.828  1.00  0.00    -0.248 NA
ATOM     38  C   UNL A   1      37.436  31.125  31.607  1.00  0.00     0.031 C 
ATOM     39  C   UNL A   1      39.122  28.519  27.637  1.00  0.00     0.029 A 
ATOM     40  N   UNL A   1      40.331  28.493  29.518  1.00  0.00    -0.354 N 
ATOM     41  C   UNL A   1      39.206  30.687  32.986  1.00  0.00     0.074 A 
ATOM     42  C   UNL A   1      37.990  31.440  32.766  1.00  0.00     0.031 C 
ATOM     43  C   UNL A   1      40.241  27.812  27.395  1.00  0.00     0.029 A 
ATOM     44  C   UNL A   1      41.072  27.783  28.602  1.00  0.00     0.049 A 
ATOM     45  H   UNL A   1      40.619  28.631  30.450  1.00  0.00     0.167 HD
ATOM     46  C   UNL A   1      39.898  30.708  34.150  1.00  0.00     0.034 A 
ATOM     47  C   UNL A   1      42.276  27.179  28.711  1.00  0.00     0.034 A 
ATOM     48  C   UNL A   1      41.063  29.917  34.426  1.00  0.00     0.049 A 
ATOM     49  C   UNL A   1      43.008  27.168  30.034  1.00  0.00     0.074 A 
ATOM     50  C   UNL A   1      41.750  29.789  35.623  1.00  0.00     0.029 A 
ATOM     51  N   UNL A   1      41.722  29.126  33.501  1.00  0.00    -0.354 N 
ATOM     52  N   UNL A   1      42.650  27.691  31.180  1.00  0.00    -0.248 NA
ATOM     53  C   UNL A   1      44.292  26.444  30.090  1.00  0.00     0.031 C 
ATOM     54  C   UNL A   1      42.833  28.930  35.415  1.00  0.00     0.029 A 
ATOM     55  C   UNL A   1      42.812  28.515  34.095  1.00  0.00     0.049 A 
ATOM     56  H   UNL A   1      41.453  29.015  32.561  1.00  0.00     0.167 HD
ATOM     57  C   UNL A   1      43.637  27.328  32.095  1.00  0.00     0.074 A 
ATOM     58  C   UNL A   1      44.603  26.527  31.377  1.00  0.00     0.031 C 
ATOM     59  C   UNL A   1      43.736  27.649  33.409  1.00  0.00     0.034 A 
BRANCH  46  60
ATOM     60  C   UNL A   1      39.362  31.581  35.252  1.00  0.00     0.023 A 
ATOM     61  C   UNL A   1      38.427  31.047  36.163  1.00  0.00     0.012 A 
ATOM     62  C   UNL A   1      39.800  32.910  35.406  1.00  0.00     0.148 A 
ATOM     63  C   UNL A   1      37.900  31.837  37.182  1.00  0.00     0.002 A 
ATOM     64  C   UNL A   1      39.302  33.678  36.452  1.00  0.00     0.091 A 
ATOM     65  F   UNL A   1      40.671  33.407  34.516  1.00  0.00    -0.205 F 
ATOM     66  C   UNL A   1      38.343  33.149  37.331  1.00  0.00     0.022 A 
BRANCH  64  67
ATOM     67  S   UNL A   1      39.876  35.350  36.765  1.00  0.00     0.127 S 
ATOM     68  O   UNL A   1      39.304  36.075  35.632  1.00  0.00    -0.237 OA
ATOM     69  O   UNL A   1      39.260  35.656  38.057  1.00  0.00    -0.237 OA
ATOM     70  O   UNL A   1      41.329  35.268  36.797  1.00  0.00    -0.744 OA
ENDBRANCH  64  67
ENDBRANCH  46  60
BRANCH  47  71
ATOM     71  C   UNL A   1      42.858  26.465  27.537  1.00  0.00     0.023 A 
ATOM     72  C   UNL A   1      43.750  27.142  26.682  1.00  0.00     0.012 A 
ATOM     73  C   UNL A   1      42.535  25.121  27.266  1.00  0.00     0.148 A 
ATOM     74  C   UNL A   1      44.283  26.506  25.560  1.00  0.00     0.002 A 
ATOM     75  C   UNL A   1      43.113  24.475  26.178  1.00  0.00     0.091 A 
ATOM     76  F   UNL A   1      41.672  24.496  28.080  1.00  0.00    -0.205 F 
ATOM     77  C   UNL A   1      43.972  25.171  25.313  1.00  0.00     0.022 A 
BRANCH  75  78
ATOM     78  S   UNL A   1      42.875  22.721  25.868  1.00  0.00     0.127 S 
ATOM     79  O   UNL A   1      43.408  22.580  24.515  1.00  0.00    -0.237 OA
ATOM     80  O   UNL A   1      43.690  22.114  26.920  1.00  0.00    -0.237 OA
ATOM     81  O   UNL A   1      41.443  22.482  26.014  1.00  0.00    -0.744 OA
ENDBRANCH  75  78
ENDBRANCH  47  71
BRANCH  59  82
ATOM     82  C   UNL A   1      44.901  27.113  34.205  1.00  0.00     0.023 A 
ATOM     83  C   UNL A   1      46.073  27.882  34.331  1.00  0.00     0.012 A 
ATOM     84  C   UNL A   1      44.780  25.914  34.939  1.00  0.00     0.148 A 
ATOM     85  C   UNL A   1      47.112  27.462  35.164  1.00  0.00     0.002 A 
ATOM     86  C   UNL A   1      45.801  25.524  35.801  1.00  0.00     0.091 A 
ATOM     87  F   UNL A   1      43.663  25.187  34.794  1.00  0.00    -0.205 F 
ATOM     88  C   UNL A   1      46.970  26.294  35.908  1.00  0.00     0.022 A 
BRANCH  86  89
ATOM     89  S   UNL A   1      45.666  24.088  36.873  1.00  0.00     0.127 S 
ATOM     90  O   UNL A   1      44.527  24.451  37.716  1.00  0.00    -0.237 OA
ATOM     91  O   UNL A   1      45.399  23.011  35.920  1.00  0.00    -0.237 OA
ATOM     92  O   UNL A   1      46.943  23.981  37.565  1.00  0.00    -0.744 OA
ENDBRANCH  86  89
ENDBRANCH  59  82
ENDBRANCH  33  34
ENDBRANCH  26  28
ENDBRANCH  25  26
ENDBRANCH  24  25
ENDBRANCH   1  24
TORSDOF 17
ENDMDL
MODEL 3
REMARK VINA RESULT:     -11.9      5.178     10.221
REMARK SMILES O=C(C[C@H]1C[C@H]2CC[C@@H](C1)N2C(=O)c1c[nH]c(=O)[nH]1)OCCOC(=O)c1ccc(-c2c3nc(c(-c4cccc(S(=O)(=O)[O-])c4F)c4ccc([nH]4)c(-c4cccc(S(=O)(=O)[O-])c4F)c4nc(c(-c5cccc(S(=O)(=O)[O-])c5F)c5ccc2[nH]5)C=C4)C=C3)cc1
REMARK SMILES IDX 21 1 20 2 2 3 1 4 3 5 4 6 5 7 10 8 6 9 9 10 7 11 11 12 8 13
REMARK SMILES IDX 12 14 13 15 14 16 15 17 19 18 16 19 17 20 18 23 22 24 23 25
REMARK SMILES IDX 24 26 25 27 26 28 27 29 88 30 28 31 87 32 29 33 30 34 31 35
REMARK SMILES IDX 81 36 32 37 86 38 80 39 82 40 33 41 85 42 79 43 78 44 34 46
REMARK SMILES IDX 66 47 46 48 65 49 47 50 50 51 64 52 83 53 48 54 49 55 63 57
REMARK SMILES IDX 84 58 51 59 35 60 36 61 44 62 37 63 39 64 45 65 38 66 40 67
REMARK SMILES IDX 41 68 42 69 43 70 67 71 68 72 76 73 69 74 71 75 77 76 70 77
REMARK SMILES IDX 72 78 73 79 74 80 75 81 52 82 53 83 61 84 54 85 56 86 62 87
REMARK SMILES IDX 55 88 57 89 58 90 59 91 60 92
REMARK H PARENT 19 21 16 22 82 45 50 56
REMARK Flexibility Score: inf
ROOT
ATOM      1  C   UNL A   1      35.850  20.591  24.885  1.00  0.00     0.274 C 
ENDROOT
BRANCH   1   2
ATOM      2  O   UNL A   1      35.251  21.184  26.046  1.00  0.00    -0.462 OA
BRANCH   2   3
ATOM      3  C   UNL A   1      33.920  21.412  25.943  1.00  0.00     0.306 C 
ATOM      4  O   UNL A   1      33.152  20.713  25.291  1.00  0.00    -0.252 OA
BRANCH   3   5
ATOM      5  C   UNL A   1      33.530  22.775  26.478  1.00  0.00     0.126 C 
BRANCH   5   6
ATOM      6  C   UNL A   1      34.033  24.062  25.794  1.00  0.00     0.004 C 
ATOM      7  C   UNL A   1      34.680  23.931  24.388  1.00  0.00     0.029 C 
ATOM      8  C   UNL A   1      32.884  25.117  25.776  1.00  0.00     0.029 C 
ATOM      9  C   UNL A   1      33.751  24.169  23.193  1.00  0.00     0.086 C 
ATOM     10  C   UNL A   1      32.113  25.219  24.441  1.00  0.00     0.086 C 
ATOM     11  C   UNL A   1      32.562  23.209  23.151  1.00  0.00     0.027 C 
ATOM     12  N   UNL A   1      33.081  25.435  23.377  1.00  0.00    -0.331 N 
ATOM     13  C   UNL A   1      31.484  23.893  24.007  1.00  0.00     0.027 C 
BRANCH  12  14
ATOM     14  C   UNL A   1      33.065  26.370  22.368  1.00  0.00     0.272 C 
ATOM     15  O   UNL A   1      33.598  26.179  21.275  1.00  0.00    -0.267 OA
BRANCH  14  16
ATOM     16  C   UNL A   1      32.251  27.587  22.574  1.00  0.00     0.125 A 
ATOM     17  C   UNL A   1      32.465  28.657  23.354  1.00  0.00     0.119 A 
ATOM     18  N   UNL A   1      31.057  27.758  21.915  1.00  0.00    -0.302 N 
ATOM     19  N   UNL A   1      31.389  29.502  23.235  1.00  0.00    -0.312 N 
ATOM     20  C   UNL A   1      30.474  28.962  22.321  1.00  0.00     0.323 A 
ATOM     21  H   UNL A   1      30.674  27.132  21.259  1.00  0.00     0.172 HD
ATOM     22  H   UNL A   1      31.277  30.354  23.716  1.00  0.00     0.171 HD
ATOM     23  O   UNL A   1      29.411  29.419  21.946  1.00  0.00    -0.248 OA
ENDBRANCH  14  16
ENDBRANCH  12  14
ENDBRANCH   5   6
ENDBRANCH   3   5
ENDBRANCH   2   3
ENDBRANCH   1   2
BRANCH   1  24
ATOM     24  C   UNL A   1      37.278  20.118  25.201  1.00  0.00     0.275 C 
BRANCH  24  25
ATOM     25  O   UNL A   1      38.186  21.218  25.412  1.00  0.00    -0.458 OA
BRANCH  25  26
ATOM     26  C   UNL A   1      39.335  21.006  26.095  1.00  0.00     0.338 C 
ATOM     27  O   UNL A   1      39.889  19.948  26.287  1.00  0.00    -0.246 OA
BRANCH  26  28
ATOM     28  C   UNL A   1      39.823  22.337  26.546  1.00  0.00     0.060 A 
ATOM     29  C   UNL A   1      39.190  23.500  26.096  1.00  0.00     0.016 A 
ATOM     30  C   UNL A   1      40.884  22.429  27.450  1.00  0.00     0.016 A 
ATOM     31  C   UNL A   1      39.633  24.759  26.539  1.00  0.00     0.010 A 
ATOM     32  C   UNL A   1      41.304  23.688  27.910  1.00  0.00     0.010 A 
ATOM     33  C   UNL A   1      40.705  24.872  27.440  1.00  0.00    -0.014 A 
BRANCH  33  34
ATOM     34  C   UNL A   1      41.282  26.204  27.807  1.00  0.00     0.031 A 
ATOM     35  C   UNL A   1      42.700  26.536  27.399  1.00  0.00     0.074 A 
ATOM     36  C   UNL A   1      40.599  27.116  28.533  1.00  0.00     0.049 A 
ATOM     37  N   UNL A   1      43.395  27.623  27.620  1.00  0.00    -0.248 NA
ATOM     38  C   UNL A   1      43.439  25.494  26.670  1.00  0.00     0.031 C 
ATOM     39  C   UNL A   1      39.253  26.940  29.073  1.00  0.00     0.029 A 
ATOM     40  N   UNL A   1      40.968  28.371  28.968  1.00  0.00    -0.354 N 
ATOM     41  C   UNL A   1      44.660  27.378  27.100  1.00  0.00     0.074 A 
ATOM     42  C   UNL A   1      44.648  26.025  26.588  1.00  0.00     0.031 C 
ATOM     43  C   UNL A   1      38.916  28.036  29.777  1.00  0.00     0.029 A 
ATOM     44  C   UNL A   1      40.022  28.996  29.747  1.00  0.00     0.049 A 
ATOM     45  H   UNL A   1      41.833  28.784  28.740  1.00  0.00     0.167 HD
ATOM     46  C   UNL A   1      45.730  28.203  27.008  1.00  0.00     0.034 A 
ATOM     47  C   UNL A   1      40.035  30.197  30.367  1.00  0.00     0.034 A 
ATOM     48  C   UNL A   1      45.750  29.573  27.437  1.00  0.00     0.049 A 
ATOM     49  C   UNL A   1      41.217  31.127  30.207  1.00  0.00     0.074 A 
ATOM     50  C   UNL A   1      46.755  30.511  27.266  1.00  0.00     0.029 A 
ATOM     51  N   UNL A   1      44.729  30.201  28.128  1.00  0.00    -0.354 N 
ATOM     52  N   UNL A   1      42.320  30.949  29.523  1.00  0.00    -0.248 NA
ATOM     53  C   UNL A   1      41.137  32.441  30.869  1.00  0.00     0.031 C 
ATOM     54  C   UNL A   1      46.344  31.705  27.867  1.00  0.00     0.029 A 
ATOM     55  C   UNL A   1      45.081  31.512  28.400  1.00  0.00     0.049 A 
ATOM     56  H   UNL A   1      43.878  29.778  28.386  1.00  0.00     0.167 HD
ATOM     57  C   UNL A   1      43.041  32.137  29.640  1.00  0.00     0.074 A 
ATOM     58  C   UNL A   1      42.246  33.035  30.447  1.00  0.00     0.031 C 
ATOM     59  C   UNL A   1      44.261  32.441  29.134  1.00  0.00     0.034 A 
BRANCH  46  60
ATOM     60  C   UNL A   1      46.965  27.654  26.346  1.00  0.00     0.023 A 
ATOM     61  C   UNL A   1      47.202  27.936  24.985  1.00  0.00     0.012 A 
ATOM     62  C   UNL A   1      47.900  26.891  27.070  1.00  0.00     0.148 A 
ATOM     63  C   UNL A   1      48.328  27.426  24.342  1.00  0.00     0.002 A 
ATOM     64  C   UNL A   1      49.043  26.423  26.432  1.00  0.00     0.091 A 
ATOM     65  F   UNL A   1      47.645  26.614  28.357  1.00  0.00    -0.205 F 
ATOM     66  C   UNL A   1      49.251  26.678  25.066  1.00  0.00     0.022 A 
BRANCH  64  67
ATOM     67  S   UNL A   1      50.322  25.519  27.309  1.00  0.00     0.127 S 
ATOM     68  O   UNL A   1      51.327  25.341  26.262  1.00  0.00    -0.237 OA
ATOM     69  O   UNL A   1      50.704  26.458  28.364  1.00  0.00    -0.237 OA
ATOM     70  O   UNL A   1      49.685  24.301  27.789  1.00  0.00    -0.744 OA
ENDBRANCH  64  67
ENDBRANCH  46  60
BRANCH  47  71
ATOM     71  C   UNL A   1      38.851  30.636  31.162  1.00  0.00     0.023 A 
ATOM     72  C   UNL A   1      38.835  30.437  32.556  1.00  0.00     0.012 A 
ATOM     73  C   UNL A   1      37.744  31.251  30.545  1.00  0.00     0.148 A 
ATOM     74  C   UNL A   1      37.727  30.809  33.317  1.00  0.00     0.002 A 
ATOM     75  C   UNL A   1      36.665  31.671  31.316  1.00  0.00     0.091 A 
ATOM     76  F   UNL A   1      37.767  31.418  29.214  1.00  0.00    -0.205 F 
ATOM     77  C   UNL A   1      36.647  31.434  32.699  1.00  0.00     0.022 A 
BRANCH  75  78
ATOM     78  S   UNL A   1      35.296  32.605  30.621  1.00  0.00     0.127 S 
ATOM     79  O   UNL A   1      34.370  32.665  31.748  1.00  0.00    -0.237 OA
ATOM     80  O   UNL A   1      35.938  33.875  30.281  1.00  0.00    -0.237 OA
ATOM     81  O   UNL A   1      34.841  31.843  29.463  1.00  0.00    -0.744 OA
ENDBRANCH  75  78
ENDBRANCH  47  71
BRANCH  59  82
ATOM     82  C   UNL A   1      44.832  33.817  29.382  1.00  0.00     0.023 A 
ATOM     83  C   UNL A   1      45.562  34.067  30.560  1.00  0.00     0.012 A 
ATOM     84  C   UNL A   1      44.761  34.815  28.388  1.00  0.00     0.148 A 
ATOM     85  C   UNL A   1      46.202  35.293  30.750  1.00  0.00     0.002 A 
ATOM     86  C   UNL A   1      45.439  36.018  28.566  1.00  0.00     0.091 A 
ATOM     87  F   UNL A   1      44.049  34.564  27.281  1.00  0.00    -0.205 F 
ATOM     88  C   UNL A   1      46.153  36.260  29.749  1.00  0.00     0.022 A 
BRANCH  86  89
ATOM     89  S   UNL A   1      45.515  37.283  27.291  1.00  0.00     0.127 S 
ATOM     90  O   UNL A   1      44.099  37.595  27.095  1.00  0.00    -0.237 OA
ATOM     91  O   UNL A   1      46.287  38.339  27.945  1.00  0.00    -0.237 OA
ATOM     92  O   UNL A   1      46.180  36.666  26.151  1.00  0.00    -0.744 OA
ENDBRANCH  86  89
ENDBRANCH  59  82
ENDBRANCH  33  34
ENDBRANCH  26  28
ENDBRANCH  25  26
ENDBRANCH  24  25
ENDBRANCH   1  24
TORSDOF 17
ENDMDL
