MODEL 1
REMARK VINA RESULT:     -12.0      0.000      0.000
REMARK SMILES O=C(OCCOC(=O)[C@@H]1CCCC[C@H]1C(=O)Nc1ccc(NC(=O)c2ccco2)cc1)c1ccc(-c2c3nc(c(-c4cccc(S(=O)(=O)[O-])c4F)c4ccc([nH]4)c(-c4cccc(S(=O)(=O)[O-])c4F)c4nc(c(-c5cccc(S(=O)(=O)[O-])c5F)c5ccc2[nH]5)C=C4)C=C3)cc1
REMARK SMILES IDX 5 1 4 2 3 3 2 4 1 5 32 6 33 7 94 8 34 9 93 10 35 11 36 12
REMARK SMILES IDX 37 13 87 14 38 15 92 16 86 17 88 18 39 19 91 20 85 21 84 22
REMARK SMILES IDX 40 24 72 25 52 26 71 27 53 28 56 29 70 30 89 31 54 32 55 33
REMARK SMILES IDX 69 35 90 36 57 37 41 38 42 39 50 40 43 41 45 42 51 43 44 44
REMARK SMILES IDX 46 45 47 46 48 47 49 48 73 49 74 50 82 51 75 52 77 53 83 54
REMARK SMILES IDX 76 55 78 56 79 57 80 58 81 59 58 60 59 61 67 62 60 63 62 64
REMARK SMILES IDX 68 65 61 66 63 67 64 68 65 69 66 70 6 71 7 72 8 73 9 74
REMARK SMILES IDX 10 75 14 76 11 77 13 78 12 79 15 80 16 81 17 82 18 84 19 85
REMARK SMILES IDX 31 86 20 87 30 88 21 89 22 90 23 91 24 93 25 94 26 95 29 96
REMARK SMILES IDX 27 97 28 98
REMARK H PARENT 88 23 56 34 17 83 22 92
REMARK Flexibility Score: inf
ROOT
ATOM      1  C   UNL A   1      31.755  29.131  27.192  1.00  0.00     0.274 C 
ENDROOT
BRANCH   1   2
ATOM      2  C   UNL A   1      31.818  30.516  26.549  1.00  0.00     0.275 C 
BRANCH   2   3
ATOM      3  O   UNL A   1      33.137  31.078  26.501  1.00  0.00    -0.458 OA
BRANCH   3   4
ATOM      4  C   UNL A   1      33.696  31.841  27.474  1.00  0.00     0.338 C 
ATOM      5  O   UNL A   1      33.271  32.974  27.684  1.00  0.00    -0.246 OA
BRANCH   4   6
ATOM      6  C   UNL A   1      34.997  31.438  28.088  1.00  0.00     0.060 A 
ATOM      7  C   UNL A   1      36.151  32.226  28.168  1.00  0.00     0.016 A 
ATOM      8  C   UNL A   1      35.037  30.145  28.627  1.00  0.00     0.016 A 
ATOM      9  C   UNL A   1      37.286  31.784  28.868  1.00  0.00     0.010 A 
ATOM     10  C   UNL A   1      36.153  29.716  29.354  1.00  0.00     0.010 A 
ATOM     11  C   UNL A   1      37.289  30.535  29.490  1.00  0.00    -0.014 A 
BRANCH  11  12
ATOM     12  C   UNL A   1      38.512  29.965  30.118  1.00  0.00     0.031 A 
ATOM     13  C   UNL A   1      38.877  30.503  31.479  1.00  0.00     0.074 A 
ATOM     14  C   UNL A   1      39.330  29.094  29.487  1.00  0.00     0.049 A 
ATOM     15  N   UNL A   1      39.948  30.302  32.194  1.00  0.00    -0.248 NA
ATOM     16  C   UNL A   1      37.912  31.438  32.091  1.00  0.00     0.031 C 
ATOM     17  C   UNL A   1      39.124  28.512  28.157  1.00  0.00     0.029 A 
ATOM     18  N   UNL A   1      40.546  28.579  29.872  1.00  0.00    -0.354 N 
ATOM     19  C   UNL A   1      39.800  31.114  33.313  1.00  0.00     0.074 A 
ATOM     20  C   UNL A   1      38.596  31.888  33.128  1.00  0.00     0.031 C 
ATOM     21  C   UNL A   1      40.208  27.788  27.811  1.00  0.00     0.029 A 
ATOM     22  C   UNL A   1      41.168  27.814  28.907  1.00  0.00     0.049 A 
ATOM     23  H   UNL A   1      40.939  28.744  30.759  1.00  0.00     0.167 HD
ATOM     24  C   UNL A   1      40.544  31.155  34.441  1.00  0.00     0.034 A 
ATOM     25  C   UNL A   1      42.365  27.192  28.929  1.00  0.00     0.034 A 
ATOM     26  C   UNL A   1      41.675  30.310  34.664  1.00  0.00     0.049 A 
ATOM     27  C   UNL A   1      43.155  27.206  30.215  1.00  0.00     0.074 A 
ATOM     28  C   UNL A   1      42.437  30.164  35.806  1.00  0.00     0.029 A 
ATOM     29  N   UNL A   1      42.195  29.445  33.713  1.00  0.00    -0.354 N 
ATOM     30  N   UNL A   1      42.906  27.848  31.331  1.00  0.00    -0.248 NA
ATOM     31  C   UNL A   1      44.336  26.329  30.273  1.00  0.00     0.031 C 
ATOM     32  C   UNL A   1      43.415  29.196  35.548  1.00  0.00     0.029 A 
ATOM     33  C   UNL A   1      43.255  28.743  34.247  1.00  0.00     0.049 A 
ATOM     34  H   UNL A   1      41.857  29.346  32.794  1.00  0.00     0.167 HD
ATOM     35  C   UNL A   1      43.858  27.405  32.242  1.00  0.00     0.074 A 
ATOM     36  C   UNL A   1      44.696  26.451  31.544  1.00  0.00     0.031 C 
ATOM     37  C   UNL A   1      44.020  27.747  33.544  1.00  0.00     0.034 A 
BRANCH  24  38
ATOM     38  C   UNL A   1      40.057  32.070  35.531  1.00  0.00     0.023 A 
ATOM     39  C   UNL A   1      39.108  31.582  36.458  1.00  0.00     0.012 A 
ATOM     40  C   UNL A   1      40.459  33.416  35.595  1.00  0.00     0.148 A 
ATOM     41  C   UNL A   1      38.510  32.437  37.380  1.00  0.00     0.002 A 
ATOM     42  C   UNL A   1      39.891  34.252  36.551  1.00  0.00     0.091 A 
ATOM     43  F   UNL A   1      41.342  33.866  34.693  1.00  0.00    -0.205 F 
ATOM     44  C   UNL A   1      38.903  33.770  37.428  1.00  0.00     0.022 A 
BRANCH  42  45
ATOM     45  S   UNL A   1      40.368  35.972  36.735  1.00  0.00     0.127 S 
ATOM     46  O   UNL A   1      39.752  36.578  35.556  1.00  0.00    -0.237 OA
ATOM     47  O   UNL A   1      39.737  36.332  38.006  1.00  0.00    -0.237 OA
ATOM     48  O   UNL A   1      41.824  35.981  36.761  1.00  0.00    -0.744 OA
ENDBRANCH  42  45
ENDBRANCH  24  38
BRANCH  25  49
ATOM     49  C   UNL A   1      42.851  26.348  27.796  1.00  0.00     0.023 A 
ATOM     50  C   UNL A   1      43.537  26.977  26.738  1.00  0.00     0.012 A 
ATOM     51  C   UNL A   1      42.498  24.988  27.675  1.00  0.00     0.148 A 
ATOM     52  C   UNL A   1      43.852  26.273  25.574  1.00  0.00     0.002 A 
ATOM     53  C   UNL A   1      42.801  24.295  26.502  1.00  0.00     0.091 A 
ATOM     54  F   UNL A   1      41.808  24.419  28.675  1.00  0.00    -0.205 F 
ATOM     55  C   UNL A   1      43.484  24.934  25.455  1.00  0.00     0.022 A 
BRANCH  53  56
ATOM     56  S   UNL A   1      42.283  22.589  26.233  1.00  0.00     0.127 S 
ATOM     57  O   UNL A   1      42.855  21.928  27.406  1.00  0.00    -0.237 OA
ATOM     58  O   UNL A   1      40.821  22.676  26.252  1.00  0.00    -0.237 OA
ATOM     59  O   UNL A   1      42.861  22.196  24.953  1.00  0.00    -0.744 OA
ENDBRANCH  53  56
ENDBRANCH  25  49
BRANCH  37  60
ATOM     60  C   UNL A   1      45.097  27.050  34.326  1.00  0.00     0.023 A 
ATOM     61  C   UNL A   1      46.385  27.610  34.395  1.00  0.00     0.012 A 
ATOM     62  C   UNL A   1      44.783  25.919  35.104  1.00  0.00     0.148 A 
ATOM     63  C   UNL A   1      47.351  27.049  35.226  1.00  0.00     0.002 A 
ATOM     64  C   UNL A   1      45.734  25.396  35.967  1.00  0.00     0.091 A 
ATOM     65  F   UNL A   1      43.555  25.388  34.998  1.00  0.00    -0.205 F 
ATOM     66  C   UNL A   1      47.021  25.954  36.026  1.00  0.00     0.022 A 
BRANCH  64  67
ATOM     67  S   UNL A   1      45.352  24.067  37.115  1.00  0.00     0.127 S 
ATOM     68  O   UNL A   1      44.297  24.667  37.929  1.00  0.00    -0.237 OA
ATOM     69  O   UNL A   1      44.904  22.999  36.221  1.00  0.00    -0.237 OA
ATOM     70  O   UNL A   1      46.596  23.777  37.816  1.00  0.00    -0.744 OA
ENDBRANCH  64  67
ENDBRANCH  37  60
ENDBRANCH  11  12
ENDBRANCH   4   6
ENDBRANCH   3   4
ENDBRANCH   2   3
ENDBRANCH   1   2
BRANCH   1  71
ATOM     71  O   UNL A   1      32.616  28.158  26.580  1.00  0.00    -0.462 OA
BRANCH  71  72
ATOM     72  C   UNL A   1      32.024  26.964  26.278  1.00  0.00     0.309 C 
ATOM     73  O   UNL A   1      31.354  26.321  27.075  1.00  0.00    -0.252 OA
BRANCH  72  74
ATOM     74  C   UNL A   1      32.427  26.455  24.893  1.00  0.00     0.111 C 
ATOM     75  C   UNL A   1      33.731  27.048  24.398  1.00  0.00     0.016 C 
ATOM     76  C   UNL A   1      31.297  26.669  23.871  1.00  0.00     0.093 C 
ATOM     77  C   UNL A   1      34.130  26.568  23.013  1.00  0.00     0.001 C 
ATOM     78  C   UNL A   1      31.706  26.420  22.404  1.00  0.00     0.014 C 
ATOM     79  C   UNL A   1      33.065  26.998  22.020  1.00  0.00     0.001 C 
BRANCH  76  80
ATOM     80  C   UNL A   1      29.976  25.939  24.187  1.00  0.00     0.228 C 
ATOM     81  O   UNL A   1      28.898  26.481  23.909  1.00  0.00    -0.274 OA
ATOM     82  N   UNL A   1      29.918  24.665  24.699  1.00  0.00    -0.326 N 
ATOM     83  H   UNL A   1      29.072  24.398  25.128  1.00  0.00     0.169 HD
BRANCH  82  84
ATOM     84  C   UNL A   1      30.936  23.712  24.671  1.00  0.00     0.041 A 
ATOM     85  C   UNL A   1      31.430  23.213  25.868  1.00  0.00     0.028 A 
ATOM     86  C   UNL A   1      31.386  23.196  23.460  1.00  0.00     0.028 A 
ATOM     87  C   UNL A   1      32.206  22.055  25.862  1.00  0.00     0.028 A 
ATOM     88  C   UNL A   1      32.122  22.012  23.460  1.00  0.00     0.028 A 
ATOM     89  C   UNL A   1      32.495  21.403  24.665  1.00  0.00     0.041 A 
BRANCH  89  90
ATOM     90  N   UNL A   1      33.073  20.137  24.550  1.00  0.00    -0.319 N 
ATOM     91  C   UNL A   1      34.354  19.639  24.642  1.00  0.00     0.291 C 
ATOM     92  H   UNL A   1      32.409  19.436  24.358  1.00  0.00     0.170 HD
ATOM     93  O   UNL A   1      34.416  18.417  24.589  1.00  0.00    -0.265 OA
BRANCH  91  94
ATOM     94  C   UNL A   1      35.480  20.530  24.755  1.00  0.00     0.191 A 
ATOM     95  C   UNL A   1      35.602  21.897  24.584  1.00  0.00     0.056 A 
ATOM     96  O   UNL A   1      36.709  19.995  25.046  1.00  0.00    -0.459 OA
ATOM     97  C   UNL A   1      36.973  22.209  24.768  1.00  0.00     0.043 A 
ATOM     98  C   UNL A   1      37.591  21.025  25.094  1.00  0.00     0.196 A 
ENDBRANCH  91  94
ENDBRANCH  89  90
ENDBRANCH  82  84
ENDBRANCH  76  80
ENDBRANCH  72  74
ENDBRANCH  71  72
ENDBRANCH   1  71
TORSDOF 18
ENDMDL
MODEL 2
REMARK VINA RESULT:     -11.9      1.887      2.614
REMARK SMILES O=C(OCCOC(=O)[C@@H]1CCCC[C@H]1C(=O)Nc1ccc(NC(=O)c2ccco2)cc1)c1ccc(-c2c3nc(c(-c4cccc(S(=O)(=O)[O-])c4F)c4ccc([nH]4)c(-c4cccc(S(=O)(=O)[O-])c4F)c4nc(c(-c5cccc(S(=O)(=O)[O-])c5F)c5ccc2[nH]5)C=C4)C=C3)cc1
REMARK SMILES IDX 5 1 4 2 3 3 2 4 1 5 32 6 33 7 94 8 34 9 93 10 35 11 36 12
REMARK SMILES IDX 37 13 87 14 38 15 92 16 86 17 88 18 39 19 91 20 85 21 84 22
REMARK SMILES IDX 40 24 72 25 52 26 71 27 53 28 56 29 70 30 89 31 54 32 55 33
REMARK SMILES IDX 69 35 90 36 57 37 41 38 42 39 50 40 43 41 45 42 51 43 44 44
REMARK SMILES IDX 46 45 47 46 48 47 49 48 73 49 74 50 82 51 75 52 77 53 83 54
REMARK SMILES IDX 76 55 78 56 79 57 80 58 81 59 58 60 59 61 67 62 60 63 62 64
REMARK SMILES IDX 68 65 61 66 63 67 64 68 65 69 66 70 6 71 7 72 8 73 9 74
REMARK SMILES IDX 10 75 14 76 11 77 13 78 12 79 15 80 16 81 17 82 18 84 19 85
REMARK SMILES IDX 31 86 20 87 30 88 21 89 22 90 23 91 24 93 25 94 26 95 29 96
REMARK SMILES IDX 27 97 28 98
REMARK H PARENT 88 23 56 34 17 83 22 92
REMARK Flexibility Score: inf
ROOT
ATOM      1  C   UNL A   1      31.649  30.537  25.730  1.00  0.00     0.274 C 
ENDROOT
BRANCH   1   2
ATOM      2  C   UNL A   1      32.300  31.183  26.954  1.00  0.00     0.275 C 
BRANCH   2   3
ATOM      3  O   UNL A   1      33.564  30.608  27.313  1.00  0.00    -0.458 OA
BRANCH   3   4
ATOM      4  C   UNL A   1      34.649  31.306  27.736  1.00  0.00     0.338 C 
ATOM      5  O   UNL A   1      34.797  32.474  27.390  1.00  0.00    -0.246 OA
BRANCH   4   6
ATOM      6  C   UNL A   1      35.798  30.593  28.368  1.00  0.00     0.060 A 
ATOM      7  C   UNL A   1      35.785  29.941  29.607  1.00  0.00     0.016 A 
ATOM      8  C   UNL A   1      36.990  30.591  27.631  1.00  0.00     0.016 A 
ATOM      9  C   UNL A   1      36.895  29.205  30.054  1.00  0.00     0.010 A 
ATOM     10  C   UNL A   1      38.085  29.832  28.057  1.00  0.00     0.010 A 
ATOM     11  C   UNL A   1      38.048  29.122  29.271  1.00  0.00    -0.014 A 
BRANCH  11  12
ATOM     12  C   UNL A   1      39.295  28.479  29.764  1.00  0.00     0.031 A 
ATOM     13  C   UNL A   1      39.960  29.130  30.951  1.00  0.00     0.074 A 
ATOM     14  C   UNL A   1      39.884  27.433  29.142  1.00  0.00     0.049 A 
ATOM     15  N   UNL A   1      41.115  28.879  31.500  1.00  0.00    -0.248 NA
ATOM     16  C   UNL A   1      39.232  30.256  31.570  1.00  0.00     0.031 C 
ATOM     17  C   UNL A   1      39.376  26.721  27.966  1.00  0.00     0.029 A 
ATOM     18  N   UNL A   1      41.086  26.813  29.391  1.00  0.00    -0.354 N 
ATOM     19  C   UNL A   1      41.264  29.839  32.495  1.00  0.00     0.074 A 
ATOM     20  C   UNL A   1      40.139  30.737  32.401  1.00  0.00     0.031 C 
ATOM     21  C   UNL A   1      40.292  25.820  27.555  1.00  0.00     0.029 A 
ATOM     22  C   UNL A   1      41.433  25.856  28.461  1.00  0.00     0.049 A 
ATOM     23  H   UNL A   1      41.650  27.035  30.167  1.00  0.00     0.167 HD
ATOM     24  C   UNL A   1      42.202  29.923  33.466  1.00  0.00     0.034 A 
ATOM     25  C   UNL A   1      42.539  25.087  28.375  1.00  0.00     0.034 A 
ATOM     26  C   UNL A   1      43.255  28.969  33.620  1.00  0.00     0.049 A 
ATOM     27  C   UNL A   1      43.548  25.158  29.495  1.00  0.00     0.074 A 
ATOM     28  C   UNL A   1      44.192  28.867  34.629  1.00  0.00     0.029 A 
ATOM     29  N   UNL A   1      43.495  27.929  32.735  1.00  0.00    -0.354 N 
ATOM     30  N   UNL A   1      43.579  25.963  30.530  1.00  0.00    -0.248 NA
ATOM     31  C   UNL A   1      44.616  24.145  29.486  1.00  0.00     0.031 C 
ATOM     32  C   UNL A   1      44.995  27.752  34.358  1.00  0.00     0.029 A 
ATOM     33  C   UNL A   1      44.552  27.164  33.183  1.00  0.00     0.049 A 
ATOM     34  H   UNL A   1      42.985  27.761  31.909  1.00  0.00     0.167 HD
ATOM     35  C   UNL A   1      44.627  25.515  31.326  1.00  0.00     0.074 A 
ATOM     36  C   UNL A   1      45.214  24.377  30.648  1.00  0.00     0.031 C 
ATOM     37  C   UNL A   1      45.061  25.994  32.518  1.00  0.00     0.034 A 
BRANCH  24  38
ATOM     38  C   UNL A   1      42.025  31.025  34.474  1.00  0.00     0.023 A 
ATOM     39  C   UNL A   1      41.240  30.779  35.623  1.00  0.00     0.012 A 
ATOM     40  C   UNL A   1      42.552  32.310  34.257  1.00  0.00     0.148 A 
ATOM     41  C   UNL A   1      40.917  31.813  36.498  1.00  0.00     0.002 A 
ATOM     42  C   UNL A   1      42.263  33.326  35.162  1.00  0.00     0.091 A 
ATOM     43  F   UNL A   1      43.275  32.530  33.151  1.00  0.00    -0.205 F 
ATOM     44  C   UNL A   1      41.430  33.085  36.269  1.00  0.00     0.022 A 
BRANCH  42  45
ATOM     45  S   UNL A   1      42.921  34.987  34.991  1.00  0.00     0.127 S 
ATOM     46  O   UNL A   1      44.350  34.725  34.832  1.00  0.00    -0.237 OA
ATOM     47  O   UNL A   1      42.249  35.460  33.779  1.00  0.00    -0.237 OA
ATOM     48  O   UNL A   1      42.541  35.694  36.206  1.00  0.00    -0.744 OA
ENDBRANCH  42  45
ENDBRANCH  24  38
BRANCH  25  49
ATOM     49  C   UNL A   1      42.714  24.050  27.315  1.00  0.00     0.023 A 
ATOM     50  C   UNL A   1      43.281  24.438  26.084  1.00  0.00     0.012 A 
ATOM     51  C   UNL A   1      42.179  22.751  27.448  1.00  0.00     0.148 A 
ATOM     52  C   UNL A   1      43.300  23.559  24.999  1.00  0.00     0.002 A 
ATOM     53  C   UNL A   1      42.187  21.884  26.354  1.00  0.00     0.091 A 
ATOM     54  F   UNL A   1      41.607  22.415  28.613  1.00  0.00    -0.205 F 
ATOM     55  C   UNL A   1      42.754  22.284  25.133  1.00  0.00     0.022 A 
BRANCH  53  56
ATOM     56  S   UNL A   1      41.424  20.251  26.417  1.00  0.00     0.127 S 
ATOM     57  O   UNL A   1      40.013  20.589  26.234  1.00  0.00    -0.237 OA
ATOM     58  O   UNL A   1      42.023  19.557  25.275  1.00  0.00    -0.237 OA
ATOM     59  O   UNL A   1      41.768  19.702  27.723  1.00  0.00    -0.744 OA
ENDBRANCH  53  56
ENDBRANCH  25  49
BRANCH  37  60
ATOM     60  C   UNL A   1      46.180  25.264  33.205  1.00  0.00     0.023 A 
ATOM     61  C   UNL A   1      47.500  25.734  33.084  1.00  0.00     0.012 A 
ATOM     62  C   UNL A   1      45.894  24.199  34.081  1.00  0.00     0.148 A 
ATOM     63  C   UNL A   1      48.524  25.150  33.825  1.00  0.00     0.002 A 
ATOM     64  C   UNL A   1      46.909  23.655  34.853  1.00  0.00     0.091 A 
ATOM     65  F   UNL A   1      44.631  23.752  34.155  1.00  0.00    -0.205 F 
ATOM     66  C   UNL A   1      48.227  24.124  34.722  1.00  0.00     0.022 A 
BRANCH  64  67
ATOM     67  S   UNL A   1      46.589  22.418  36.115  1.00  0.00     0.127 S 
ATOM     68  O   UNL A   1      45.605  23.094  36.957  1.00  0.00    -0.237 OA
ATOM     69  O   UNL A   1      46.061  21.300  35.332  1.00  0.00    -0.237 OA
ATOM     70  O   UNL A   1      47.876  22.150  36.746  1.00  0.00    -0.744 OA
ENDBRANCH  64  67
ENDBRANCH  37  60
ENDBRANCH  11  12
ENDBRANCH   4   6
ENDBRANCH   3   4
ENDBRANCH   2   3
ENDBRANCH   1   2
BRANCH   1  71
ATOM     71  O   UNL A   1      32.391  29.438  25.180  1.00  0.00    -0.462 OA
BRANCH  71  72
ATOM     72  C   UNL A   1      31.638  28.475  24.570  1.00  0.00     0.309 C 
ATOM     73  O   UNL A   1      30.568  28.700  24.021  1.00  0.00    -0.252 OA
BRANCH  72  74
ATOM     74  C   UNL A   1      32.207  27.072  24.791  1.00  0.00     0.111 C 
ATOM     75  C   UNL A   1      32.331  26.706  26.256  1.00  0.00     0.016 C 
ATOM     76  C   UNL A   1      33.549  26.894  24.059  1.00  0.00     0.093 C 
ATOM     77  C   UNL A   1      32.918  25.325  26.491  1.00  0.00     0.001 C 
ATOM     78  C   UNL A   1      34.314  25.607  24.432  1.00  0.00     0.014 C 
ATOM     79  C   UNL A   1      34.326  25.288  25.924  1.00  0.00     0.001 C 
BRANCH  76  80
ATOM     80  C   UNL A   1      33.489  27.055  22.527  1.00  0.00     0.228 C 
ATOM     81  O   UNL A   1      34.113  27.977  21.986  1.00  0.00    -0.274 OA
ATOM     82  N   UNL A   1      32.835  26.175  21.697  1.00  0.00    -0.326 N 
ATOM     83  H   UNL A   1      32.610  26.502  20.796  1.00  0.00     0.169 HD
BRANCH  82  84
ATOM     84  C   UNL A   1      32.461  24.867  22.005  1.00  0.00     0.041 A 
ATOM     85  C   UNL A   1      33.289  23.820  21.624  1.00  0.00     0.028 A 
ATOM     86  C   UNL A   1      31.324  24.619  22.765  1.00  0.00     0.028 A 
ATOM     87  C   UNL A   1      33.102  22.557  22.185  1.00  0.00     0.028 A 
ATOM     88  C   UNL A   1      31.168  23.367  23.361  1.00  0.00     0.028 A 
ATOM     89  C   UNL A   1      32.087  22.340  23.115  1.00  0.00     0.041 A 
BRANCH  89  90
ATOM     90  N   UNL A   1      31.935  21.192  23.896  1.00  0.00    -0.319 N 
ATOM     91  C   UNL A   1      32.714  20.534  24.822  1.00  0.00     0.291 C 
ATOM     92  H   UNL A   1      31.067  20.750  23.752  1.00  0.00     0.170 HD
ATOM     93  O   UNL A   1      32.145  19.601  25.376  1.00  0.00    -0.265 OA
BRANCH  91  94
ATOM     94  C   UNL A   1      34.079  20.933  25.048  1.00  0.00     0.191 A 
ATOM     95  C   UNL A   1      34.636  22.100  25.539  1.00  0.00     0.056 A 
ATOM     96  O   UNL A   1      35.080  20.062  24.699  1.00  0.00    -0.459 OA
ATOM     97  C   UNL A   1      36.043  21.937  25.476  1.00  0.00     0.043 A 
ATOM     98  C   UNL A   1      36.257  20.664  25.003  1.00  0.00     0.196 A 
ENDBRANCH  91  94
ENDBRANCH  89  90
ENDBRANCH  82  84
ENDBRANCH  76  80
ENDBRANCH  72  74
ENDBRANCH  71  72
ENDBRANCH   1  71
TORSDOF 18
ENDMDL
MODEL 3
REMARK VINA RESULT:     -11.9      1.600      2.194
REMARK SMILES O=C(OCCOC(=O)[C@@H]1CCCC[C@H]1C(=O)Nc1ccc(NC(=O)c2ccco2)cc1)c1ccc(-c2c3nc(c(-c4cccc(S(=O)(=O)[O-])c4F)c4ccc([nH]4)c(-c4cccc(S(=O)(=O)[O-])c4F)c4nc(c(-c5cccc(S(=O)(=O)[O-])c5F)c5ccc2[nH]5)C=C4)C=C3)cc1
REMARK SMILES IDX 5 1 4 2 3 3 2 4 1 5 32 6 33 7 94 8 34 9 93 10 35 11 36 12
REMARK SMILES IDX 37 13 87 14 38 15 92 16 86 17 88 18 39 19 91 20 85 21 84 22
REMARK SMILES IDX 40 24 72 25 52 26 71 27 53 28 56 29 70 30 89 31 54 32 55 33
REMARK SMILES IDX 69 35 90 36 57 37 41 38 42 39 50 40 43 41 45 42 51 43 44 44
REMARK SMILES IDX 46 45 47 46 48 47 49 48 73 49 74 50 82 51 75 52 77 53 83 54
REMARK SMILES IDX 76 55 78 56 79 57 80 58 81 59 58 60 59 61 67 62 60 63 62 64
REMARK SMILES IDX 68 65 61 66 63 67 64 68 65 69 66 70 6 71 7 72 8 73 9 74
REMARK SMILES IDX 10 75 14 76 11 77 13 78 12 79 15 80 16 81 17 82 18 84 19 85
REMARK SMILES IDX 31 86 20 87 30 88 21 89 22 90 23 91 24 93 25 94 26 95 29 96
REMARK SMILES IDX 27 97 28 98
REMARK H PARENT 88 23 56 34 17 83 22 92
REMARK Flexibility Score: inf
ROOT
ATOM      1  C   UNL A   1      31.533  30.243  25.286  1.00  0.00     0.274 C 
ENDROOT
BRANCH   1   2
ATOM      2  C   UNL A   1      32.857  30.285  26.051  1.00  0.00     0.275 C 
BRANCH   2   3
ATOM      3  O   UNL A   1      32.812  31.071  27.250  1.00  0.00    -0.458 OA
BRANCH   3   4
ATOM      4  C   UNL A   1      33.742  31.988  27.619  1.00  0.00     0.338 C 
ATOM      5  O   UNL A   1      33.622  33.157  27.265  1.00  0.00    -0.246 OA
BRANCH   4   6
ATOM      6  C   UNL A   1      35.046  31.543  28.195  1.00  0.00     0.060 A 
ATOM      7  C   UNL A   1      36.237  32.280  28.209  1.00  0.00     0.016 A 
ATOM      8  C   UNL A   1      35.050  30.265  28.770  1.00  0.00     0.016 A 
ATOM      9  C   UNL A   1      37.377  31.806  28.880  1.00  0.00     0.010 A 
ATOM     10  C   UNL A   1      36.172  29.805  29.467  1.00  0.00     0.010 A 
ATOM     11  C   UNL A   1      37.348  30.575  29.537  1.00  0.00    -0.014 A 
BRANCH  11  12
ATOM     12  C   UNL A   1      38.568  29.968  30.136  1.00  0.00     0.031 A 
ATOM     13  C   UNL A   1      38.980  30.491  31.488  1.00  0.00     0.074 A 
ATOM     14  C   UNL A   1      39.345  29.075  29.484  1.00  0.00     0.049 A 
ATOM     15  N   UNL A   1      40.061  30.256  32.179  1.00  0.00    -0.248 NA
ATOM     16  C   UNL A   1      38.058  31.453  32.125  1.00  0.00     0.031 C 
ATOM     17  C   UNL A   1      39.091  28.502  28.159  1.00  0.00     0.029 A 
ATOM     18  N   UNL A   1      40.554  28.523  29.840  1.00  0.00    -0.354 N 
ATOM     19  C   UNL A   1      39.963  31.070  33.302  1.00  0.00     0.074 A 
ATOM     20  C   UNL A   1      38.778  31.880  33.146  1.00  0.00     0.031 C 
ATOM     21  C   UNL A   1      40.144  27.746  27.786  1.00  0.00     0.029 A 
ATOM     22  C   UNL A   1      41.130  27.742  28.860  1.00  0.00     0.049 A 
ATOM     23  H   UNL A   1      40.971  28.673  30.718  1.00  0.00     0.167 HD
ATOM     24  C   UNL A   1      40.734  31.086  34.413  1.00  0.00     0.034 A 
ATOM     25  C   UNL A   1      42.308  27.084  28.853  1.00  0.00     0.034 A 
ATOM     26  C   UNL A   1      41.844  30.207  34.608  1.00  0.00     0.049 A 
ATOM     27  C   UNL A   1      43.128  27.071  30.120  1.00  0.00     0.074 A 
ATOM     28  C   UNL A   1      42.627  30.035  35.732  1.00  0.00     0.029 A 
ATOM     29  N   UNL A   1      42.315  29.329  33.644  1.00  0.00    -0.354 N 
ATOM     30  N   UNL A   1      42.923  27.717  31.242  1.00  0.00    -0.248 NA
ATOM     31  C   UNL A   1      44.283  26.160  30.149  1.00  0.00     0.031 C 
ATOM     32  C   UNL A   1      43.569  29.039  35.449  1.00  0.00     0.029 A 
ATOM     33  C   UNL A   1      43.367  28.594  34.151  1.00  0.00     0.049 A 
ATOM     34  H   UNL A   1      41.953  29.243  32.732  1.00  0.00     0.167 HD
ATOM     35  C   UNL A   1      43.883  27.244  32.130  1.00  0.00     0.074 A 
ATOM     36  C   UNL A   1      44.676  26.267  31.412  1.00  0.00     0.031 C 
ATOM     37  C   UNL A   1      44.085  27.577  33.429  1.00  0.00     0.034 A 
BRANCH  24  38
ATOM     38  C   UNL A   1      40.299  32.012  35.515  1.00  0.00     0.023 A 
ATOM     39  C   UNL A   1      41.088  33.149  35.802  1.00  0.00     0.012 A 
ATOM     40  C   UNL A   1      39.179  31.727  36.315  1.00  0.00     0.148 A 
ATOM     41  C   UNL A   1      40.814  33.943  36.913  1.00  0.00     0.002 A 
ATOM     42  C   UNL A   1      38.886  32.553  37.396  1.00  0.00     0.091 A 
ATOM     43  F   UNL A   1      38.457  30.631  36.042  1.00  0.00    -0.205 F 
ATOM     44  C   UNL A   1      39.713  33.645  37.708  1.00  0.00     0.022 A 
BRANCH  42  45
ATOM     45  S   UNL A   1      37.457  32.291  38.450  1.00  0.00     0.127 S 
ATOM     46  O   UNL A   1      37.881  32.939  39.690  1.00  0.00    -0.237 OA
ATOM     47  O   UNL A   1      36.404  33.001  37.721  1.00  0.00    -0.237 OA
ATOM     48  O   UNL A   1      37.273  30.849  38.524  1.00  0.00    -0.744 OA
ENDBRANCH  42  45
ENDBRANCH  24  38
BRANCH  25  49
ATOM     49  C   UNL A   1      42.742  26.229  27.707  1.00  0.00     0.023 A 
ATOM     50  C   UNL A   1      43.353  26.851  26.600  1.00  0.00     0.012 A 
ATOM     51  C   UNL A   1      42.408  24.860  27.631  1.00  0.00     0.148 A 
ATOM     52  C   UNL A   1      43.612  26.132  25.431  1.00  0.00     0.002 A 
ATOM     53  C   UNL A   1      42.655  24.152  26.453  1.00  0.00     0.091 A 
ATOM     54  F   UNL A   1      41.790  24.297  28.679  1.00  0.00    -0.205 F 
ATOM     55  C   UNL A   1      43.263  24.785  25.356  1.00  0.00     0.022 A 
BRANCH  53  56
ATOM     56  S   UNL A   1      42.155  22.433  26.244  1.00  0.00     0.127 S 
ATOM     57  O   UNL A   1      40.699  22.562  26.201  1.00  0.00    -0.237 OA
ATOM     58  O   UNL A   1      42.759  22.062  24.962  1.00  0.00    -0.237 OA
ATOM     59  O   UNL A   1      42.683  21.722  27.402  1.00  0.00    -0.744 OA
ENDBRANCH  53  56
ENDBRANCH  25  49
BRANCH  37  60
ATOM     60  C   UNL A   1      45.158  26.847  34.185  1.00  0.00     0.023 A 
ATOM     61  C   UNL A   1      46.463  27.371  34.229  1.00  0.00     0.012 A 
ATOM     62  C   UNL A   1      44.829  25.721  34.964  1.00  0.00     0.148 A 
ATOM     63  C   UNL A   1      47.430  26.779  35.037  1.00  0.00     0.002 A 
ATOM     64  C   UNL A   1      45.784  25.167  35.804  1.00  0.00     0.091 A 
ATOM     65  F   UNL A   1      43.586  25.225  34.881  1.00  0.00    -0.205 F 
ATOM     66  C   UNL A   1      47.087  25.690  35.838  1.00  0.00     0.022 A 
BRANCH  64  67
ATOM     67  S   UNL A   1      45.390  23.844  36.953  1.00  0.00     0.127 S 
ATOM     68  O   UNL A   1      44.384  24.475  37.805  1.00  0.00    -0.237 OA
ATOM     69  O   UNL A   1      44.873  22.801  36.066  1.00  0.00    -0.237 OA
ATOM     70  O   UNL A   1      46.644  23.501  37.612  1.00  0.00    -0.744 OA
ENDBRANCH  64  67
ENDBRANCH  37  60
ENDBRANCH  11  12
ENDBRANCH   4   6
ENDBRANCH   3   4
ENDBRANCH   2   3
ENDBRANCH   1   2
BRANCH   1  71
ATOM     71  O   UNL A   1      31.586  29.497  24.061  1.00  0.00    -0.462 OA
BRANCH  71  72
ATOM     72  C   UNL A   1      30.799  28.381  24.025  1.00  0.00     0.309 C 
ATOM     73  O   UNL A   1      29.597  28.408  23.799  1.00  0.00    -0.252 OA
BRANCH  72  74
ATOM     74  C   UNL A   1      31.560  27.125  24.453  1.00  0.00     0.111 C 
ATOM     75  C   UNL A   1      31.474  26.857  25.942  1.00  0.00     0.016 C 
ATOM     76  C   UNL A   1      33.024  27.174  23.982  1.00  0.00     0.093 C 
ATOM     77  C   UNL A   1      32.246  25.626  26.384  1.00  0.00     0.001 C 
ATOM     78  C   UNL A   1      33.926  26.075  24.583  1.00  0.00     0.014 C 
ATOM     79  C   UNL A   1      33.718  25.834  26.075  1.00  0.00     0.001 C 
BRANCH  76  80
ATOM     80  C   UNL A   1      33.222  27.249  22.455  1.00  0.00     0.228 C 
ATOM     81  O   UNL A   1      33.875  28.183  21.970  1.00  0.00    -0.274 OA
ATOM     82  N   UNL A   1      32.775  26.285  21.583  1.00  0.00    -0.326 N 
ATOM     83  H   UNL A   1      32.690  26.548  20.638  1.00  0.00     0.169 HD
BRANCH  82  84
ATOM     84  C   UNL A   1      32.430  24.972  21.905  1.00  0.00     0.041 A 
ATOM     85  C   UNL A   1      33.325  23.950  21.623  1.00  0.00     0.028 A 
ATOM     86  C   UNL A   1      31.248  24.700  22.586  1.00  0.00     0.028 A 
ATOM     87  C   UNL A   1      33.145  22.697  22.210  1.00  0.00     0.028 A 
ATOM     88  C   UNL A   1      31.097  23.461  23.210  1.00  0.00     0.028 A 
ATOM     89  C   UNL A   1      32.072  22.466  23.068  1.00  0.00     0.041 A 
BRANCH  89  90
ATOM     90  N   UNL A   1      31.906  21.337  23.873  1.00  0.00    -0.319 N 
ATOM     91  C   UNL A   1      32.632  20.745  24.883  1.00  0.00     0.291 C 
ATOM     92  H   UNL A   1      31.073  20.851  23.672  1.00  0.00     0.170 HD
ATOM     93  O   UNL A   1      32.060  19.804  25.419  1.00  0.00    -0.265 OA
BRANCH  91  94
ATOM     94  C   UNL A   1      33.954  21.216  25.206  1.00  0.00     0.191 A 
ATOM     95  C   UNL A   1      34.399  22.296  25.946  1.00  0.00     0.056 A 
ATOM     96  O   UNL A   1      35.031  20.541  24.690  1.00  0.00    -0.459 OA
ATOM     97  C   UNL A   1      35.815  22.287  25.867  1.00  0.00     0.043 A 
ATOM     98  C   UNL A   1      36.147  21.173  25.133  1.00  0.00     0.196 A 
ENDBRANCH  91  94
ENDBRANCH  89  90
ENDBRANCH  82  84
ENDBRANCH  76  80
ENDBRANCH  72  74
ENDBRANCH  71  72
ENDBRANCH   1  71
TORSDOF 18
ENDMDL
