MODEL 1
REMARK VINA RESULT:     -12.3      0.000      0.000
REMARK SMILES CCCc1cc(OC(F)(F)F)cc2c1O[C@H](C(F)(F)F)C(C(=O)OCCOC(=O)c1ccc(-c3c4nc(c(-c5cccc(S(=O)(=O)[O-])c5F)c5ccc([nH]5)c(-c5cccc(S(=O)(=O)[O-])c5F)c5nc(c(-c6cccc(S(=O)(=O)[O-])c6F)c6ccc3[nH]6)C=C5)C=C4)cc1)=C2
REMARK SMILES IDX 26 1 25 2 24 3 22 4 23 5 21 6 4 7 5 8 14 9 6 10 13 11 15 12
REMARK SMILES IDX 12 13 93 14 16 15 3 16 2 17 1 18 7 19 8 20 9 21 10 22 11 23
REMARK SMILES IDX 17 24 18 25 19 26 20 27 27 28 28 29 29 30 30 31 31 32 92 33
REMARK SMILES IDX 32 34 91 35 33 36 34 37 35 38 85 39 36 40 90 41 84 42 86 43
REMARK SMILES IDX 37 44 89 45 83 46 82 47 38 49 70 50 50 51 69 52 51 53 54 54
REMARK SMILES IDX 68 55 87 56 52 57 53 58 67 60 88 61 55 62 39 63 40 64 48 65
REMARK SMILES IDX 41 66 43 67 49 68 42 69 44 70 45 71 46 72 47 73 71 74 72 75
REMARK SMILES IDX 80 76 73 77 75 78 81 79 74 80 76 81 77 82 78 83 79 84 56 85
REMARK SMILES IDX 57 86 65 87 58 88 60 89 66 90 59 91 61 92 62 93 63 94 64 95
REMARK H PARENT 86 48 54 59
REMARK Flexibility Score: inf
ROOT
ATOM      1  C   UNL A   1      31.440  30.038  25.616  1.00  0.00     0.275 C 
ENDROOT
BRANCH   1   2
ATOM      2  C   UNL A   1      31.249  29.182  24.366  1.00  0.00     0.275 C 
BRANCH   2   3
ATOM      3  O   UNL A   1      30.813  27.843  24.691  1.00  0.00    -0.459 OA
BRANCH   3   4
ATOM      4  C   UNL A   1      30.922  26.946  23.683  1.00  0.00     0.338 C 
ATOM      5  O   UNL A   1      30.397  27.035  22.583  1.00  0.00    -0.246 OA
BRANCH   4   6
ATOM      6  C   UNL A   1      31.762  25.791  24.039  1.00  0.00     0.087 C 
ATOM      7  C   UNL A   1      34.463  22.638  23.776  1.00  0.00    -0.002 A 
ATOM      8  C   UNL A   1      34.061  21.377  24.242  1.00  0.00     0.054 A 
ATOM      9  C   UNL A   1      33.513  23.665  23.781  1.00  0.00     0.131 A 
ATOM     10  C   UNL A   1      32.736  21.136  24.630  1.00  0.00     0.130 A 
ATOM     11  C   UNL A   1      32.186  23.453  24.202  1.00  0.00     0.021 A 
ATOM     12  O   UNL A   1      33.920  24.901  23.343  1.00  0.00    -0.475 OA
ATOM     13  C   UNL A   1      31.804  22.181  24.614  1.00  0.00     0.058 A 
ATOM     14  C   UNL A   1      31.233  24.562  24.143  1.00  0.00     0.027 C 
ATOM     15  C   UNL A   1      33.259  25.992  24.026  1.00  0.00     0.316 C 
BRANCH   7  16
ATOM     16  C   UNL A   1      35.896  22.921  23.373  1.00  0.00     0.039 C 
BRANCH  16  17
ATOM     17  C   UNL A   1      36.932  22.941  24.503  1.00  0.00     0.001 C 
ATOM     18  C   UNL A   1      37.526  21.570  24.790  1.00  0.00     0.004 C 
ENDBRANCH  16  17
ENDBRANCH   7  16
BRANCH  10  19
ATOM     19  O   UNL A   1      32.230  19.939  25.051  1.00  0.00    -0.406 OA
BRANCH  19  20
ATOM     20  C   UNL A   1      32.503  18.802  24.250  1.00  0.00     0.573 C 
ATOM     21  F   UNL A   1      33.817  18.489  24.265  1.00  0.00    -0.132 F 
ATOM     22  F   UNL A   1      31.778  17.737  24.653  1.00  0.00    -0.132 F 
ATOM     23  F   UNL A   1      32.159  19.083  22.972  1.00  0.00    -0.132 F 
ENDBRANCH  19  20
ENDBRANCH  10  19
BRANCH  15  24
ATOM     24  C   UNL A   1      33.879  26.207  25.422  1.00  0.00     0.430 C 
ATOM     25  F   UNL A   1      34.236  27.503  25.593  1.00  0.00    -0.167 F 
ATOM     26  F   UNL A   1      33.010  25.900  26.407  1.00  0.00    -0.167 F 
ATOM     27  F   UNL A   1      34.986  25.458  25.631  1.00  0.00    -0.167 F 
ENDBRANCH  15  24
ENDBRANCH   4   6
ENDBRANCH   3   4
ENDBRANCH   2   3
ENDBRANCH   1   2
BRANCH   1  28
ATOM     28  O   UNL A   1      32.829  30.090  25.985  1.00  0.00    -0.458 OA
BRANCH  28  29
ATOM     29  C   UNL A   1      33.137  31.019  26.919  1.00  0.00     0.338 C 
ATOM     30  O   UNL A   1      32.400  31.883  27.362  1.00  0.00    -0.246 OA
BRANCH  29  31
ATOM     31  C   UNL A   1      34.521  30.831  27.383  1.00  0.00     0.060 A 
ATOM     32  C   UNL A   1      34.992  29.547  27.652  1.00  0.00     0.016 A 
ATOM     33  C   UNL A   1      35.286  31.941  27.722  1.00  0.00     0.016 A 
ATOM     34  C   UNL A   1      36.163  29.370  28.385  1.00  0.00     0.010 A 
ATOM     35  C   UNL A   1      36.527  31.754  28.334  1.00  0.00     0.010 A 
ATOM     36  C   UNL A   1      36.961  30.469  28.715  1.00  0.00    -0.014 A 
BRANCH  36  37
ATOM     37  C   UNL A   1      38.241  30.310  29.462  1.00  0.00     0.031 A 
ATOM     38  C   UNL A   1      39.323  29.423  28.902  1.00  0.00     0.074 A 
ATOM     39  C   UNL A   1      38.410  30.889  30.668  1.00  0.00     0.049 A 
ATOM     40  N   UNL A   1      40.346  28.883  29.509  1.00  0.00    -0.248 NA
ATOM     41  C   UNL A   1      39.222  29.076  27.473  1.00  0.00     0.031 C 
ATOM     42  C   UNL A   1      37.469  31.806  31.314  1.00  0.00     0.029 A 
ATOM     43  N   UNL A   1      39.421  30.754  31.589  1.00  0.00    -0.354 N 
ATOM     44  C   UNL A   1      40.953  28.057  28.567  1.00  0.00     0.074 A 
ATOM     45  C   UNL A   1      40.197  28.187  27.341  1.00  0.00     0.031 C 
ATOM     46  C   UNL A   1      37.939  32.144  32.524  1.00  0.00     0.029 A 
ATOM     47  C   UNL A   1      39.157  31.391  32.782  1.00  0.00     0.049 A 
ATOM     48  H   UNL A   1      40.250  30.253  31.415  1.00  0.00     0.167 HD
ATOM     49  C   UNL A   1      42.039  27.262  28.718  1.00  0.00     0.034 A 
ATOM     50  C   UNL A   1      39.780  31.324  33.975  1.00  0.00     0.034 A 
ATOM     51  C   UNL A   1      42.827  27.206  29.920  1.00  0.00     0.049 A 
ATOM     52  C   UNL A   1      40.982  30.434  34.120  1.00  0.00     0.074 A 
ATOM     53  C   UNL A   1      43.974  26.470  30.163  1.00  0.00     0.029 A 
ATOM     54  N   UNL A   1      42.560  27.926  31.075  1.00  0.00    -0.354 N 
ATOM     55  N   UNL A   1      41.556  29.674  33.220  1.00  0.00    -0.248 NA
ATOM     56  C   UNL A   1      41.631  30.401  35.439  1.00  0.00     0.031 C 
ATOM     57  C   UNL A   1      44.390  26.733  31.472  1.00  0.00     0.029 A 
ATOM     58  C   UNL A   1      43.521  27.655  32.032  1.00  0.00     0.049 A 
ATOM     59  H   UNL A   1      41.800  28.540  31.195  1.00  0.00     0.167 HD
ATOM     60  C   UNL A   1      42.655  29.104  33.850  1.00  0.00     0.074 A 
ATOM     61  C   UNL A   1      42.671  29.612  35.206  1.00  0.00     0.031 C 
ATOM     62  C   UNL A   1      43.563  28.231  33.352  1.00  0.00     0.034 A 
BRANCH  49  63
ATOM     63  C   UNL A   1      42.452  26.392  27.559  1.00  0.00     0.023 A 
ATOM     64  C   UNL A   1      43.330  26.891  26.578  1.00  0.00     0.012 A 
ATOM     65  C   UNL A   1      42.022  25.052  27.482  1.00  0.00     0.148 A 
ATOM     66  C   UNL A   1      43.749  26.082  25.522  1.00  0.00     0.002 A 
ATOM     67  C   UNL A   1      42.479  24.237  26.451  1.00  0.00     0.091 A 
ATOM     68  F   UNL A   1      41.171  24.598  28.414  1.00  0.00    -0.205 F 
ATOM     69  C   UNL A   1      43.332  24.754  25.464  1.00  0.00     0.022 A 
BRANCH  67  70
ATOM     70  S   UNL A   1      42.066  22.492  26.341  1.00  0.00     0.127 S 
ATOM     71  O   UNL A   1      42.733  22.108  25.098  1.00  0.00    -0.237 OA
ATOM     72  O   UNL A   1      42.681  21.951  27.554  1.00  0.00    -0.237 OA
ATOM     73  O   UNL A   1      40.612  22.423  26.319  1.00  0.00    -0.744 OA
ENDBRANCH  67  70
ENDBRANCH  49  63
BRANCH  50  74
ATOM     74  C   UNL A   1      39.267  32.123  35.125  1.00  0.00     0.023 A 
ATOM     75  C   UNL A   1      38.314  31.551  35.990  1.00  0.00     0.012 A 
ATOM     76  C   UNL A   1      39.749  33.418  35.395  1.00  0.00     0.148 A 
ATOM     77  C   UNL A   1      37.833  32.265  37.089  1.00  0.00     0.002 A 
ATOM     78  C   UNL A   1      39.313  34.100  36.526  1.00  0.00     0.091 A 
ATOM     79  F   UNL A   1      40.645  33.953  34.552  1.00  0.00    -0.205 F 
ATOM     80  C   UNL A   1      38.341  33.532  37.364  1.00  0.00     0.022 A 
BRANCH  78  81
ATOM     81  S   UNL A   1      40.019  35.671  37.035  1.00  0.00     0.127 S 
ATOM     82  O   UNL A   1      39.653  36.540  35.921  1.00  0.00    -0.237 OA
ATOM     83  O   UNL A   1      39.303  35.935  38.284  1.00  0.00    -0.237 OA
ATOM     84  O   UNL A   1      41.445  35.423  37.207  1.00  0.00    -0.744 OA
ENDBRANCH  78  81
ENDBRANCH  50  74
BRANCH  62  85
ATOM     85  C   UNL A   1      44.704  27.817  34.242  1.00  0.00     0.023 A 
ATOM     86  C   UNL A   1      45.876  28.593  34.292  1.00  0.00     0.012 A 
ATOM     87  C   UNL A   1      44.556  26.718  35.111  1.00  0.00     0.148 A 
ATOM     88  C   UNL A   1      46.895  28.273  35.189  1.00  0.00     0.002 A 
ATOM     89  C   UNL A   1      45.554  26.434  36.035  1.00  0.00     0.091 A 
ATOM     90  F   UNL A   1      43.437  25.984  35.029  1.00  0.00    -0.205 F 
ATOM     91  C   UNL A   1      46.727  27.204  36.069  1.00  0.00     0.022 A 
BRANCH  89  92
ATOM     92  S   UNL A   1      45.383  25.143  37.271  1.00  0.00     0.127 S 
ATOM     93  O   UNL A   1      44.189  25.579  37.994  1.00  0.00    -0.237 OA
ATOM     94  O   UNL A   1      45.195  23.950  36.445  1.00  0.00    -0.237 OA
ATOM     95  O   UNL A   1      46.617  25.156  38.045  1.00  0.00    -0.744 OA
ENDBRANCH  89  92
ENDBRANCH  62  85
ENDBRANCH  36  37
ENDBRANCH  29  31
ENDBRANCH  28  29
ENDBRANCH   1  28
TORSDOF 19
ENDMDL
MODEL 2
REMARK VINA RESULT:     -12.3      4.742      9.868
REMARK SMILES CCCc1cc(OC(F)(F)F)cc2c1O[C@H](C(F)(F)F)C(C(=O)OCCOC(=O)c1ccc(-c3c4nc(c(-c5cccc(S(=O)(=O)[O-])c5F)c5ccc([nH]5)c(-c5cccc(S(=O)(=O)[O-])c5F)c5nc(c(-c6cccc(S(=O)(=O)[O-])c6F)c6ccc3[nH]6)C=C5)C=C4)cc1)=C2
REMARK SMILES IDX 26 1 25 2 24 3 22 4 23 5 21 6 4 7 5 8 14 9 6 10 13 11 15 12
REMARK SMILES IDX 12 13 93 14 16 15 3 16 2 17 1 18 7 19 8 20 9 21 10 22 11 23
REMARK SMILES IDX 17 24 18 25 19 26 20 27 27 28 28 29 29 30 30 31 31 32 92 33
REMARK SMILES IDX 32 34 91 35 33 36 34 37 35 38 85 39 36 40 90 41 84 42 86 43
REMARK SMILES IDX 37 44 89 45 83 46 82 47 38 49 70 50 50 51 69 52 51 53 54 54
REMARK SMILES IDX 68 55 87 56 52 57 53 58 67 60 88 61 55 62 39 63 40 64 48 65
REMARK SMILES IDX 41 66 43 67 49 68 42 69 44 70 45 71 46 72 47 73 71 74 72 75
REMARK SMILES IDX 80 76 73 77 75 78 81 79 74 80 76 81 77 82 78 83 79 84 56 85
REMARK SMILES IDX 57 86 65 87 58 88 60 89 66 90 59 91 61 92 62 93 63 94 64 95
REMARK H PARENT 86 48 54 59
REMARK Flexibility Score: inf
ROOT
ATOM      1  C   UNL A   1      35.938  20.918  25.392  1.00  0.00     0.275 C 
ENDROOT
BRANCH   1   2
ATOM      2  C   UNL A   1      34.789  21.123  24.407  1.00  0.00     0.275 C 
BRANCH   2   3
ATOM      3  O   UNL A   1      33.676  21.816  25.013  1.00  0.00    -0.459 OA
BRANCH   3   4
ATOM      4  C   UNL A   1      32.738  22.261  24.145  1.00  0.00     0.338 C 
ATOM      5  O   UNL A   1      32.117  21.575  23.347  1.00  0.00    -0.246 OA
BRANCH   4   6
ATOM      6  C   UNL A   1      32.518  23.713  24.240  1.00  0.00     0.087 C 
ATOM      7  C   UNL A   1      31.111  27.424  25.485  1.00  0.00    -0.002 A 
ATOM      8  C   UNL A   1      30.577  28.291  24.519  1.00  0.00     0.054 A 
ATOM      9  C   UNL A   1      31.490  26.144  25.068  1.00  0.00     0.131 A 
ATOM     10  C   UNL A   1      30.366  27.866  23.201  1.00  0.00     0.130 A 
ATOM     11  C   UNL A   1      31.320  25.710  23.740  1.00  0.00     0.021 A 
ATOM     12  O   UNL A   1      32.031  25.308  26.015  1.00  0.00    -0.475 OA
ATOM     13  C   UNL A   1      30.745  26.575  22.815  1.00  0.00     0.058 A 
ATOM     14  C   UNL A   1      31.702  24.343  23.381  1.00  0.00     0.027 C 
ATOM     15  C   UNL A   1      33.031  24.412  25.477  1.00  0.00     0.316 C 
BRANCH   7  16
ATOM     16  C   UNL A   1      31.366  27.875  26.909  1.00  0.00     0.039 C 
BRANCH  16  17
ATOM     17  C   UNL A   1      32.519  28.864  27.116  1.00  0.00     0.001 C 
ATOM     18  C   UNL A   1      32.127  30.305  26.826  1.00  0.00     0.004 C 
ENDBRANCH  16  17
ENDBRANCH   7  16
BRANCH  10  19
ATOM     19  O   UNL A   1      29.810  28.610  22.199  1.00  0.00    -0.406 OA
BRANCH  19  20
ATOM     20  C   UNL A   1      28.559  29.222  22.463  1.00  0.00     0.573 C 
ATOM     21  F   UNL A   1      27.987  29.690  21.333  1.00  0.00    -0.132 F 
ATOM     22  F   UNL A   1      27.717  28.361  23.074  1.00  0.00    -0.132 F 
ATOM     23  F   UNL A   1      28.759  30.272  23.293  1.00  0.00    -0.132 F 
ENDBRANCH  19  20
ENDBRANCH  10  19
BRANCH  15  24
ATOM     24  C   UNL A   1      34.367  25.157  25.273  1.00  0.00     0.430 C 
ATOM     25  F   UNL A   1      34.368  26.331  25.949  1.00  0.00    -0.167 F 
ATOM     26  F   UNL A   1      35.414  24.437  25.725  1.00  0.00    -0.167 F 
ATOM     27  F   UNL A   1      34.621  25.444  23.976  1.00  0.00    -0.167 F 
ENDBRANCH  15  24
ENDBRANCH   4   6
ENDBRANCH   3   4
ENDBRANCH   2   3
ENDBRANCH   1   2
BRANCH   1  28
ATOM     28  O   UNL A   1      37.048  21.769  25.057  1.00  0.00    -0.458 OA
BRANCH  28  29
ATOM     29  C   UNL A   1      38.241  21.374  25.557  1.00  0.00     0.338 C 
ATOM     30  O   UNL A   1      38.771  20.286  25.410  1.00  0.00    -0.246 OA
BRANCH  29  31
ATOM     31  C   UNL A   1      38.869  22.476  26.303  1.00  0.00     0.060 A 
ATOM     32  C   UNL A   1      38.424  23.783  26.111  1.00  0.00     0.016 A 
ATOM     33  C   UNL A   1      40.015  22.232  27.051  1.00  0.00     0.016 A 
ATOM     34  C   UNL A   1      39.194  24.858  26.547  1.00  0.00     0.010 A 
ATOM     35  C   UNL A   1      40.711  23.308  27.605  1.00  0.00     0.010 A 
ATOM     36  C   UNL A   1      40.337  24.636  27.323  1.00  0.00    -0.014 A 
BRANCH  36  37
ATOM     37  C   UNL A   1      41.161  25.765  27.841  1.00  0.00     0.031 A 
ATOM     38  C   UNL A   1      40.512  26.836  28.679  1.00  0.00     0.074 A 
ATOM     39  C   UNL A   1      42.461  25.878  27.503  1.00  0.00     0.049 A 
ATOM     40  N   UNL A   1      40.932  28.044  28.948  1.00  0.00    -0.248 NA
ATOM     41  C   UNL A   1      39.201  26.512  29.267  1.00  0.00     0.031 C 
ATOM     42  C   UNL A   1      43.233  24.898  26.736  1.00  0.00     0.029 A 
ATOM     43  N   UNL A   1      43.357  26.897  27.727  1.00  0.00    -0.354 N 
ATOM     44  C   UNL A   1      39.900  28.656  29.652  1.00  0.00     0.074 A 
ATOM     45  C   UNL A   1      38.842  27.678  29.789  1.00  0.00     0.031 C 
ATOM     46  C   UNL A   1      44.476  25.362  26.546  1.00  0.00     0.029 A 
ATOM     47  C   UNL A   1      44.562  26.712  27.086  1.00  0.00     0.049 A 
ATOM     48  H   UNL A   1      43.158  27.679  28.290  1.00  0.00     0.167 HD
ATOM     49  C   UNL A   1      39.842  29.920  30.134  1.00  0.00     0.034 A 
ATOM     50  C   UNL A   1      45.594  27.554  26.886  1.00  0.00     0.034 A 
ATOM     51  C   UNL A   1      40.934  30.854  30.060  1.00  0.00     0.049 A 
ATOM     52  C   UNL A   1      45.508  28.952  27.429  1.00  0.00     0.074 A 
ATOM     53  C   UNL A   1      40.998  32.143  30.559  1.00  0.00     0.029 A 
ATOM     54  N   UNL A   1      42.159  30.593  29.465  1.00  0.00    -0.354 N 
ATOM     55  N   UNL A   1      44.537  29.514  28.106  1.00  0.00    -0.248 NA
ATOM     56  C   UNL A   1      46.663  29.831  27.192  1.00  0.00     0.031 C 
ATOM     57  C   UNL A   1      42.257  32.668  30.249  1.00  0.00     0.029 A 
ATOM     58  C   UNL A   1      42.986  31.695  29.585  1.00  0.00     0.049 A 
ATOM     59  H   UNL A   1      42.404  29.748  29.023  1.00  0.00     0.167 HD
ATOM     60  C   UNL A   1      44.978  30.795  28.413  1.00  0.00     0.074 A 
ATOM     61  C   UNL A   1      46.307  30.925  27.852  1.00  0.00     0.031 C 
ATOM     62  C   UNL A   1      44.335  31.778  29.087  1.00  0.00     0.034 A 
BRANCH  49  63
ATOM     63  C   UNL A   1      38.565  30.374  30.794  1.00  0.00     0.023 A 
ATOM     64  C   UNL A   1      38.377  30.184  32.176  1.00  0.00     0.012 A 
ATOM     65  C   UNL A   1      37.580  31.055  30.051  1.00  0.00     0.148 A 
ATOM     66  C   UNL A   1      37.215  30.634  32.804  1.00  0.00     0.002 A 
ATOM     67  C   UNL A   1      36.444  31.542  30.691  1.00  0.00     0.091 A 
ATOM     68  F   UNL A   1      37.766  31.212  28.732  1.00  0.00    -0.205 F 
ATOM     69  C   UNL A   1      36.256  31.321  32.064  1.00  0.00     0.022 A 
BRANCH  67  70
ATOM     70  S   UNL A   1      35.194  32.512  29.841  1.00  0.00     0.127 S 
ATOM     71  O   UNL A   1      34.246  32.784  30.919  1.00  0.00    -0.237 OA
ATOM     72  O   UNL A   1      35.958  33.678  29.394  1.00  0.00    -0.237 OA
ATOM     73  O   UNL A   1      34.694  31.669  28.764  1.00  0.00    -0.744 OA
ENDBRANCH  67  70
ENDBRANCH  49  63
BRANCH  50  74
ATOM     74  C   UNL A   1      46.794  27.091  26.131  1.00  0.00     0.023 A 
ATOM     75  C   UNL A   1      46.859  27.309  24.741  1.00  0.00     0.012 A 
ATOM     76  C   UNL A   1      47.885  26.484  26.783  1.00  0.00     0.148 A 
ATOM     77  C   UNL A   1      47.980  26.909  24.012  1.00  0.00     0.002 A 
ATOM     78  C   UNL A   1      49.023  26.144  26.061  1.00  0.00     0.091 A 
ATOM     79  F   UNL A   1      47.799  26.269  28.104  1.00  0.00    -0.205 F 
ATOM     80  C   UNL A   1      49.066  26.340  24.672  1.00  0.00     0.022 A 
BRANCH  78  81
ATOM     81  S   UNL A   1      50.520  25.541  26.850  1.00  0.00     0.127 S 
ATOM     82  O   UNL A   1      51.401  25.334  25.704  1.00  0.00    -0.237 OA
ATOM     83  O   UNL A   1      50.884  26.666  27.712  1.00  0.00    -0.237 OA
ATOM     84  O   UNL A   1      50.124  24.339  27.573  1.00  0.00    -0.744 OA
ENDBRANCH  78  81
ENDBRANCH  50  74
BRANCH  62  85
ATOM     85  C   UNL A   1      45.077  33.064  29.335  1.00  0.00     0.023 A 
ATOM     86  C   UNL A   1      45.926  33.184  30.450  1.00  0.00     0.012 A 
ATOM     87  C   UNL A   1      45.012  34.106  28.390  1.00  0.00     0.148 A 
ATOM     88  C   UNL A   1      46.694  34.334  30.629  1.00  0.00     0.002 A 
ATOM     89  C   UNL A   1      45.816  35.228  28.549  1.00  0.00     0.091 A 
ATOM     90  F   UNL A   1      44.181  33.973  27.346  1.00  0.00    -0.205 F 
ATOM     91  C   UNL A   1      46.650  35.348  29.672  1.00  0.00     0.022 A 
BRANCH  89  92
ATOM     92  S   UNL A   1      45.900  36.535  27.321  1.00  0.00     0.127 S 
ATOM     93  O   UNL A   1      46.294  35.794  26.124  1.00  0.00    -0.237 OA
ATOM     94  O   UNL A   1      44.524  37.033  27.306  1.00  0.00    -0.237 OA
ATOM     95  O   UNL A   1      46.885  37.490  27.811  1.00  0.00    -0.744 OA
ENDBRANCH  89  92
ENDBRANCH  62  85
ENDBRANCH  36  37
ENDBRANCH  29  31
ENDBRANCH  28  29
ENDBRANCH   1  28
TORSDOF 19
ENDMDL
MODEL 3
REMARK VINA RESULT:     -12.3      5.084     10.017
REMARK SMILES CCCc1cc(OC(F)(F)F)cc2c1O[C@H](C(F)(F)F)C(C(=O)OCCOC(=O)c1ccc(-c3c4nc(c(-c5cccc(S(=O)(=O)[O-])c5F)c5ccc([nH]5)c(-c5cccc(S(=O)(=O)[O-])c5F)c5nc(c(-c6cccc(S(=O)(=O)[O-])c6F)c6ccc3[nH]6)C=C5)C=C4)cc1)=C2
REMARK SMILES IDX 26 1 25 2 24 3 22 4 23 5 21 6 4 7 5 8 14 9 6 10 13 11 15 12
REMARK SMILES IDX 12 13 93 14 16 15 3 16 2 17 1 18 7 19 8 20 9 21 10 22 11 23
REMARK SMILES IDX 17 24 18 25 19 26 20 27 27 28 28 29 29 30 30 31 31 32 92 33
REMARK SMILES IDX 32 34 91 35 33 36 34 37 35 38 85 39 36 40 90 41 84 42 86 43
REMARK SMILES IDX 37 44 89 45 83 46 82 47 38 49 70 50 50 51 69 52 51 53 54 54
REMARK SMILES IDX 68 55 87 56 52 57 53 58 67 60 88 61 55 62 39 63 40 64 48 65
REMARK SMILES IDX 41 66 43 67 49 68 42 69 44 70 45 71 46 72 47 73 71 74 72 75
REMARK SMILES IDX 80 76 73 77 75 78 81 79 74 80 76 81 77 82 78 83 79 84 56 85
REMARK SMILES IDX 57 86 65 87 58 88 60 89 66 90 59 91 61 92 62 93 63 94 64 95
REMARK H PARENT 86 48 54 59
REMARK Flexibility Score: inf
ROOT
ATOM      1  C   UNL A   1      36.510  20.808  24.761  1.00  0.00     0.275 C 
ENDROOT
BRANCH   1   2
ATOM      2  C   UNL A   1      34.992  20.858  24.930  1.00  0.00     0.275 C 
BRANCH   2   3
ATOM      3  O   UNL A   1      34.367  21.703  23.938  1.00  0.00    -0.459 OA
BRANCH   3   4
ATOM      4  C   UNL A   1      33.051  21.947  24.142  1.00  0.00     0.338 C 
ATOM      5  O   UNL A   1      32.169  21.104  24.217  1.00  0.00    -0.246 OA
BRANCH   4   6
ATOM      6  C   UNL A   1      32.752  23.382  24.267  1.00  0.00     0.087 C 
ATOM      7  C   UNL A   1      31.112  26.979  25.562  1.00  0.00    -0.002 A 
ATOM      8  C   UNL A   1      30.562  27.843  24.602  1.00  0.00     0.054 A 
ATOM      9  C   UNL A   1      31.571  25.732  25.124  1.00  0.00     0.131 A 
ATOM     10  C   UNL A   1      30.412  27.443  23.267  1.00  0.00     0.130 A 
ATOM     11  C   UNL A   1      31.464  25.326  23.781  1.00  0.00     0.021 A 
ATOM     12  O   UNL A   1      32.127  24.901  26.066  1.00  0.00    -0.475 OA
ATOM     13  C   UNL A   1      30.872  26.184  22.861  1.00  0.00     0.058 A 
ATOM     14  C   UNL A   1      31.929  23.991  23.399  1.00  0.00     0.027 C 
ATOM     15  C   UNL A   1      33.190  24.074  25.537  1.00  0.00     0.316 C 
BRANCH   7  16
ATOM     16  C   UNL A   1      31.301  27.404  27.004  1.00  0.00     0.039 C 
BRANCH  16  17
ATOM     17  C   UNL A   1      31.792  28.837  27.235  1.00  0.00     0.001 C 
ATOM     18  C   UNL A   1      33.305  28.971  27.142  1.00  0.00     0.004 C 
ENDBRANCH  16  17
ENDBRANCH   7  16
BRANCH  10  19
ATOM     19  O   UNL A   1      29.848  28.184  22.268  1.00  0.00    -0.406 OA
BRANCH  19  20
ATOM     20  C   UNL A   1      30.223  29.548  22.182  1.00  0.00     0.573 C 
ATOM     21  F   UNL A   1      29.708  30.136  21.081  1.00  0.00    -0.132 F 
ATOM     22  F   UNL A   1      29.837  30.229  23.282  1.00  0.00    -0.132 F 
ATOM     23  F   UNL A   1      31.572  29.620  22.097  1.00  0.00    -0.132 F 
ENDBRANCH  19  20
ENDBRANCH  10  19
BRANCH  15  24
ATOM     24  C   UNL A   1      34.489  24.893  25.394  1.00  0.00     0.430 C 
ATOM     25  F   UNL A   1      35.530  24.244  25.970  1.00  0.00    -0.167 F 
ATOM     26  F   UNL A   1      34.812  25.095  24.100  1.00  0.00    -0.167 F 
ATOM     27  F   UNL A   1      34.412  26.114  25.971  1.00  0.00    -0.167 F 
ENDBRANCH  15  24
ENDBRANCH   4   6
ENDBRANCH   3   4
ENDBRANCH   2   3
ENDBRANCH   1   2
BRANCH   1  28
ATOM     28  O   UNL A   1      37.153  21.655  25.729  1.00  0.00    -0.458 OA
BRANCH  28  29
ATOM     29  C   UNL A   1      38.488  21.472  25.850  1.00  0.00     0.338 C 
ATOM     30  O   UNL A   1      39.138  20.529  25.431  1.00  0.00    -0.246 OA
BRANCH  29  31
ATOM     31  C   UNL A   1      39.096  22.616  26.548  1.00  0.00     0.060 A 
ATOM     32  C   UNL A   1      38.674  23.911  26.250  1.00  0.00     0.016 A 
ATOM     33  C   UNL A   1      40.205  22.412  27.360  1.00  0.00     0.016 A 
ATOM     34  C   UNL A   1      39.437  25.006  26.647  1.00  0.00     0.010 A 
ATOM     35  C   UNL A   1      40.889  23.518  27.871  1.00  0.00     0.010 A 
ATOM     36  C   UNL A   1      40.543  24.827  27.485  1.00  0.00    -0.014 A 
BRANCH  36  37
ATOM     37  C   UNL A   1      41.357  25.981  27.962  1.00  0.00     0.031 A 
ATOM     38  C   UNL A   1      40.705  27.059  28.788  1.00  0.00     0.074 A 
ATOM     39  C   UNL A   1      42.649  26.108  27.597  1.00  0.00     0.049 A 
ATOM     40  N   UNL A   1      41.109  28.279  29.024  1.00  0.00    -0.248 NA
ATOM     41  C   UNL A   1      39.411  26.726  29.409  1.00  0.00     0.031 C 
ATOM     42  C   UNL A   1      43.422  25.125  26.838  1.00  0.00     0.029 A 
ATOM     43  N   UNL A   1      43.531  27.146  27.782  1.00  0.00    -0.354 N 
ATOM     44  C   UNL A   1      40.079  28.890  29.733  1.00  0.00     0.074 A 
ATOM     45  C   UNL A   1      39.042  27.897  29.911  1.00  0.00     0.031 C 
ATOM     46  C   UNL A   1      44.654  25.605  26.614  1.00  0.00     0.029 A 
ATOM     47  C   UNL A   1      44.726  26.967  27.122  1.00  0.00     0.049 A 
ATOM     48  H   UNL A   1      43.328  27.938  28.332  1.00  0.00     0.167 HD
ATOM     49  C   UNL A   1      40.009  30.163  30.188  1.00  0.00     0.034 A 
ATOM     50  C   UNL A   1      45.740  27.822  26.884  1.00  0.00     0.034 A 
ATOM     51  C   UNL A   1      41.084  31.113  30.073  1.00  0.00     0.049 A 
ATOM     52  C   UNL A   1      45.640  29.231  27.398  1.00  0.00     0.074 A 
ATOM     53  C   UNL A   1      41.134  32.414  30.542  1.00  0.00     0.029 A 
ATOM     54  N   UNL A   1      42.301  30.860  29.461  1.00  0.00    -0.354 N 
ATOM     55  N   UNL A   1      44.672  29.791  28.081  1.00  0.00    -0.248 NA
ATOM     56  C   UNL A   1      46.774  30.123  27.120  1.00  0.00     0.031 C 
ATOM     57  C   UNL A   1      42.378  32.953  30.197  1.00  0.00     0.029 A 
ATOM     58  C   UNL A   1      43.111  31.978  29.541  1.00  0.00     0.049 A 
ATOM     59  H   UNL A   1      42.552  30.010  29.033  1.00  0.00     0.167 HD
ATOM     60  C   UNL A   1      45.096  31.086  28.351  1.00  0.00     0.074 A 
ATOM     61  C   UNL A   1      46.412  31.226  27.762  1.00  0.00     0.031 C 
ATOM     62  C   UNL A   1      44.449  32.072  29.016  1.00  0.00     0.034 A 
BRANCH  49  63
ATOM     63  C   UNL A   1      38.737  30.610  30.862  1.00  0.00     0.023 A 
ATOM     64  C   UNL A   1      38.585  30.463  32.254  1.00  0.00     0.012 A 
ATOM     65  C   UNL A   1      37.719  31.242  30.120  1.00  0.00     0.148 A 
ATOM     66  C   UNL A   1      37.427  30.908  32.893  1.00  0.00     0.002 A 
ATOM     67  C   UNL A   1      36.587  31.724  30.770  1.00  0.00     0.091 A 
ATOM     68  F   UNL A   1      37.871  31.357  28.792  1.00  0.00    -0.205 F 
ATOM     69  C   UNL A   1      36.435  31.547  32.154  1.00  0.00     0.022 A 
BRANCH  67  70
ATOM     70  S   UNL A   1      35.295  32.636  29.916  1.00  0.00     0.127 S 
ATOM     71  O   UNL A   1      34.853  31.660  28.921  1.00  0.00    -0.237 OA
ATOM     72  O   UNL A   1      34.333  32.888  30.990  1.00  0.00    -0.237 OA
ATOM     73  O   UNL A   1      35.932  33.831  29.381  1.00  0.00    -0.744 OA
ENDBRANCH  67  70
ENDBRANCH  49  63
BRANCH  50  74
ATOM     74  C   UNL A   1      46.933  27.363  26.117  1.00  0.00     0.023 A 
ATOM     75  C   UNL A   1      47.855  26.494  26.732  1.00  0.00     0.012 A 
ATOM     76  C   UNL A   1      47.134  27.738  24.774  1.00  0.00     0.148 A 
ATOM     77  C   UNL A   1      48.968  26.027  26.031  1.00  0.00     0.002 A 
ATOM     78  C   UNL A   1      48.210  27.220  24.062  1.00  0.00     0.091 A 
ATOM     79  F   UNL A   1      46.255  28.579  24.209  1.00  0.00    -0.205 F 
ATOM     80  C   UNL A   1      49.138  26.379  24.694  1.00  0.00     0.022 A 
BRANCH  78  81
ATOM     81  S   UNL A   1      48.426  27.504  22.301  1.00  0.00     0.127 S 
ATOM     82  O   UNL A   1      49.631  28.327  22.276  1.00  0.00    -0.237 OA
ATOM     83  O   UNL A   1      48.598  26.142  21.793  1.00  0.00    -0.237 OA
ATOM     84  O   UNL A   1      47.201  28.156  21.856  1.00  0.00    -0.744 OA
ENDBRANCH  78  81
ENDBRANCH  50  74
BRANCH  62  85
ATOM     85  C   UNL A   1      45.173  33.376  29.221  1.00  0.00     0.023 A 
ATOM     86  C   UNL A   1      45.985  33.560  30.354  1.00  0.00     0.012 A 
ATOM     87  C   UNL A   1      45.131  34.369  28.222  1.00  0.00     0.148 A 
ATOM     88  C   UNL A   1      46.739  34.725  30.499  1.00  0.00     0.002 A 
ATOM     89  C   UNL A   1      45.920  35.504  28.350  1.00  0.00     0.091 A 
ATOM     90  F   UNL A   1      44.334  34.175  27.161  1.00  0.00    -0.205 F 
ATOM     91  C   UNL A   1      46.717  35.688  29.491  1.00  0.00     0.022 A 
BRANCH  89  92
ATOM     92  S   UNL A   1      46.034  36.749  27.060  1.00  0.00     0.127 S 
ATOM     93  O   UNL A   1      44.684  37.312  27.071  1.00  0.00    -0.237 OA
ATOM     94  O   UNL A   1      47.070  37.639  27.583  1.00  0.00    -0.237 OA
ATOM     95  O   UNL A   1      46.401  36.039  25.842  1.00  0.00    -0.744 OA
ENDBRANCH  89  92
ENDBRANCH  62  85
ENDBRANCH  36  37
ENDBRANCH  29  31
ENDBRANCH  28  29
ENDBRANCH   1  28
TORSDOF 19
ENDMDL
