MODEL 1
REMARK VINA RESULT:     -10.2      0.000      0.000
REMARK SMILES CCCCCCNC(=O)Oc1cccc(-c2ccc([C@@H](C)C(=O)OCCOC(=O)c3ccc(-c4c5nc(c(-c6cccc(S(=O)(=O)[O-])c6F)c6ccc([nH]6)c(-c6cccc(S(=O)(=O)[O-])c6F)c6nc(c(-c7cccc(S(=O)(=O)[O-])c7F)c7ccc4[nH]7)C=C6)C=C5)cc3)cc2[N+](=O)[O-])c1
REMARK SMILES IDX 20 1 21 2 19 3 16 4 17 5 94 6 18 7 93 8 15 9 11 10 12 11
REMARK SMILES IDX 98 12 13 13 14 14 10 15 8 16 7 17 9 19 6 20 5 21 4 22 3 23
REMARK SMILES IDX 2 24 1 25 95 26 96 27 97 28 22 29 23 30 24 31 25 32 26 33
REMARK SMILES IDX 27 34 28 35 29 36 30 37 31 38 92 39 32 40 91 41 33 42 34 43
REMARK SMILES IDX 35 44 85 45 36 46 90 47 84 48 86 49 37 50 89 51 83 52 82 53
REMARK SMILES IDX 38 55 70 56 50 57 69 58 51 59 54 60 68 61 87 62 52 63 53 64
REMARK SMILES IDX 67 66 88 67 55 68 39 69 40 70 48 71 41 72 43 73 49 74 42 75
REMARK SMILES IDX 44 76 45 77 46 78 47 79 71 80 72 81 80 82 73 83 75 84 81 85
REMARK SMILES IDX 74 86 76 87 77 88 78 89 79 90 56 91 57 92 65 93 58 94 60 95
REMARK SMILES IDX 66 96 59 97 61 98 62 99 63 100 64 101
REMARK H PARENT 7 18 86 54 54 65
REMARK Flexibility Score: inf
ROOT
ATOM      1  C   UNL A   1      35.870  32.326  29.211  1.00  0.00     0.126 C 
ATOM      2  C   UNL A   1      36.943  33.259  28.651  1.00  0.00     0.025 C 
ENDROOT
BRANCH   1   3
ATOM      3  C   UNL A   1      35.475  31.246  28.214  1.00  0.00    -0.027 A 
ATOM      4  C   UNL A   1      34.672  29.153  26.423  1.00  0.00     0.060 A 
ATOM      5  C   UNL A   1      36.013  29.323  26.816  1.00  0.00     0.016 A 
ATOM      6  C   UNL A   1      33.751  30.087  26.932  1.00  0.00     0.277 A 
ATOM      7  C   UNL A   1      36.406  30.336  27.700  1.00  0.00     0.006 A 
ATOM      8  C   UNL A   1      34.138  31.121  27.807  1.00  0.00     0.091 A 
BRANCH   4   9
ATOM      9  C   UNL A   1      34.326  27.995  25.575  1.00  0.00    -0.008 A 
ATOM     10  C   UNL A   1      33.880  26.954  23.433  1.00  0.00     0.133 A 
ATOM     11  C   UNL A   1      33.580  25.741  24.050  1.00  0.00     0.047 A 
ATOM     12  C   UNL A   1      34.257  28.077  24.175  1.00  0.00     0.056 A 
ATOM     13  C   UNL A   1      33.666  25.639  25.432  1.00  0.00     0.004 A 
ATOM     14  C   UNL A   1      34.027  26.758  26.185  1.00  0.00     0.009 A 
BRANCH  10  15
ATOM     15  O   UNL A   1      33.627  27.022  22.052  1.00  0.00    -0.410 OA
BRANCH  15  16
ATOM     16  C   UNL A   1      32.671  26.194  21.485  1.00  0.00     0.412 C 
ATOM     17  N   UNL A   1      31.403  26.697  21.600  1.00  0.00    -0.321 N 
ATOM     18  H   UNL A   1      30.677  26.157  21.211  1.00  0.00     0.167 HD
ATOM     19  O   UNL A   1      32.884  25.112  20.955  1.00  0.00    -0.224 OA
BRANCH  17  20
ATOM     20  C   UNL A   1      31.018  27.943  22.236  1.00  0.00     0.119 C 
BRANCH  20  21
ATOM     21  C   UNL A   1      30.472  27.734  23.648  1.00  0.00     0.021 C 
BRANCH  21  22
ATOM     22  C   UNL A   1      29.413  26.632  23.776  1.00  0.00     0.002 C 
BRANCH  22  23
ATOM     23  C   UNL A   1      29.431  25.844  25.090  1.00  0.00    -0.000 C 
BRANCH  23  24
ATOM     24  C   UNL A   1      30.423  24.680  25.147  1.00  0.00    -0.003 C 
ATOM     25  C   UNL A   1      30.564  23.943  23.824  1.00  0.00     0.004 C 
ENDBRANCH  23  24
ENDBRANCH  22  23
ENDBRANCH  21  22
ENDBRANCH  20  21
ENDBRANCH  17  20
ENDBRANCH  15  16
ENDBRANCH  10  15
ENDBRANCH   4   9
BRANCH   6  26
ATOM     26  N   UNL A   1      32.328  29.979  26.643  1.00  0.00     0.063 N 
ATOM     27  O   UNL A   1      31.645  29.292  27.416  1.00  0.00    -0.258 OA
ATOM     28  O   UNL A   1      31.908  30.529  25.615  1.00  0.00    -0.258 OA
ENDBRANCH   6  26
ENDBRANCH   1   3
BRANCH   1  29
ATOM     29  C   UNL A   1      34.737  33.148  29.813  1.00  0.00     0.313 C 
ATOM     30  O   UNL A   1      34.011  32.703  30.697  1.00  0.00    -0.252 OA
BRANCH  29  31
ATOM     31  O   UNL A   1      34.651  34.410  29.320  1.00  0.00    -0.462 OA
BRANCH  31  32
ATOM     32  C   UNL A   1      33.342  34.863  28.921  1.00  0.00     0.274 C 
BRANCH  32  33
ATOM     33  C   UNL A   1      32.809  35.925  29.886  1.00  0.00     0.275 C 
BRANCH  33  34
ATOM     34  O   UNL A   1      32.422  35.348  31.145  1.00  0.00    -0.458 OA
BRANCH  34  35
ATOM     35  C   UNL A   1      32.874  36.003  32.239  1.00  0.00     0.338 C 
ATOM     36  O   UNL A   1      32.397  37.001  32.751  1.00  0.00    -0.246 OA
BRANCH  35  37
ATOM     37  C   UNL A   1      33.991  35.257  32.834  1.00  0.00     0.060 A 
ATOM     38  C   UNL A   1      35.293  35.689  32.565  1.00  0.00     0.016 A 
ATOM     39  C   UNL A   1      33.763  34.095  33.571  1.00  0.00     0.016 A 
ATOM     40  C   UNL A   1      36.381  34.947  33.013  1.00  0.00     0.010 A 
ATOM     41  C   UNL A   1      34.857  33.355  34.027  1.00  0.00     0.010 A 
ATOM     42  C   UNL A   1      36.170  33.766  33.734  1.00  0.00    -0.014 A 
BRANCH  42  43
ATOM     43  C   UNL A   1      37.319  32.920  34.133  1.00  0.00     0.031 A 
ATOM     44  C   UNL A   1      38.087  33.260  35.379  1.00  0.00     0.074 A 
ATOM     45  C   UNL A   1      37.682  31.874  33.367  1.00  0.00     0.049 A 
ATOM     46  N   UNL A   1      39.200  32.743  35.827  1.00  0.00    -0.248 NA
ATOM     47  C   UNL A   1      37.531  34.328  36.228  1.00  0.00     0.031 C 
ATOM     48  C   UNL A   1      36.998  31.441  32.149  1.00  0.00     0.029 A 
ATOM     49  N   UNL A   1      38.737  31.006  33.486  1.00  0.00    -0.354 N 
ATOM     50  C   UNL A   1      39.505  33.451  36.984  1.00  0.00     0.074 A 
ATOM     51  C   UNL A   1      38.457  34.431  37.171  1.00  0.00     0.031 C 
ATOM     52  C   UNL A   1      37.667  30.406  31.616  1.00  0.00     0.029 A 
ATOM     53  C   UNL A   1      38.846  30.129  32.432  1.00  0.00     0.049 A 
ATOM     54  H   UNL A   1      39.357  31.010  34.252  1.00  0.00     0.167 HD
ATOM     55  C   UNL A   1      40.557  33.286  37.820  1.00  0.00     0.034 A 
ATOM     56  C   UNL A   1      39.806  29.229  32.143  1.00  0.00     0.034 A 
ATOM     57  C   UNL A   1      41.569  32.280  37.650  1.00  0.00     0.049 A 
ATOM     58  C   UNL A   1      40.965  29.070  33.090  1.00  0.00     0.074 A 
ATOM     59  C   UNL A   1      42.666  32.018  38.453  1.00  0.00     0.029 A 
ATOM     60  N   UNL A   1      41.602  31.360  36.613  1.00  0.00    -0.354 N 
ATOM     61  N   UNL A   1      41.202  29.697  34.217  1.00  0.00    -0.248 NA
ATOM     62  C   UNL A   1      41.978  28.061  32.742  1.00  0.00     0.031 C 
ATOM     63  C   UNL A   1      43.365  30.941  37.898  1.00  0.00     0.029 A 
ATOM     64  C   UNL A   1      42.696  30.525  36.758  1.00  0.00     0.049 A 
ATOM     65  H   UNL A   1      40.945  31.309  35.882  1.00  0.00     0.167 HD
ATOM     66  C   UNL A   1      42.365  29.135  34.731  1.00  0.00     0.074 A 
ATOM     67  C   UNL A   1      42.777  28.104  33.800  1.00  0.00     0.031 C 
ATOM     68  C   UNL A   1      43.043  29.454  35.860  1.00  0.00     0.034 A 
BRANCH  55  69
ATOM     69  C   UNL A   1      40.651  34.191  39.019  1.00  0.00     0.023 A 
ATOM     70  C   UNL A   1      41.586  35.245  39.020  1.00  0.00     0.012 A 
ATOM     71  C   UNL A   1      39.770  34.045  40.109  1.00  0.00     0.148 A 
ATOM     72  C   UNL A   1      41.657  36.128  40.096  1.00  0.00     0.002 A 
ATOM     73  C   UNL A   1      39.823  34.950  41.163  1.00  0.00     0.091 A 
ATOM     74  F   UNL A   1      38.903  33.022  40.098  1.00  0.00    -0.205 F 
ATOM     75  C   UNL A   1      40.771  35.988  41.161  1.00  0.00     0.022 A 
BRANCH  73  76
ATOM     76  S   UNL A   1      38.680  34.897  42.547  1.00  0.00     0.127 S 
ATOM     77  O   UNL A   1      39.051  33.637  43.189  1.00  0.00    -0.237 OA
ATOM     78  O   UNL A   1      39.049  36.097  43.300  1.00  0.00    -0.237 OA
ATOM     79  O   UNL A   1      37.345  34.933  41.967  1.00  0.00    -0.744 OA
ENDBRANCH  73  76
ENDBRANCH  55  69
BRANCH  56  80
ATOM     80  C   UNL A   1      39.694  28.384  30.920  1.00  0.00     0.023 A 
ATOM     81  C   UNL A   1      38.925  27.206  30.962  1.00  0.00     0.012 A 
ATOM     82  C   UNL A   1      40.328  28.746  29.715  1.00  0.00     0.148 A 
ATOM     83  C   UNL A   1      38.812  26.389  29.836  1.00  0.00     0.002 A 
ATOM     84  C   UNL A   1      40.168  27.957  28.583  1.00  0.00     0.091 A 
ATOM     85  F   UNL A   1      41.077  29.858  29.697  1.00  0.00    -0.205 F 
ATOM     86  C   UNL A   1      39.424  26.770  28.644  1.00  0.00     0.022 A 
BRANCH  84  87
ATOM     87  S   UNL A   1      40.815  28.452  26.982  1.00  0.00     0.127 S 
ATOM     88  O   UNL A   1      40.848  27.181  26.263  1.00  0.00    -0.237 OA
ATOM     89  O   UNL A   1      39.800  29.397  26.514  1.00  0.00    -0.237 OA
ATOM     90  O   UNL A   1      42.108  29.062  27.265  1.00  0.00    -0.744 OA
ENDBRANCH  84  87
ENDBRANCH  56  80
BRANCH  68  91
ATOM     91  C   UNL A   1      44.274  28.652  36.188  1.00  0.00     0.023 A 
ATOM     92  C   UNL A   1      45.537  29.112  35.770  1.00  0.00     0.012 A 
ATOM     93  C   UNL A   1      44.186  27.497  36.989  1.00  0.00     0.148 A 
ATOM     94  C   UNL A   1      46.694  28.419  36.124  1.00  0.00     0.002 A 
ATOM     95  C   UNL A   1      45.345  26.837  37.375  1.00  0.00     0.091 A 
ATOM     96  F   UNL A   1      42.970  27.065  37.360  1.00  0.00    -0.205 F 
ATOM     97  C   UNL A   1      46.600  27.292  36.937  1.00  0.00     0.022 A 
BRANCH  95  98
ATOM     98  S   UNL A   1      45.322  25.430  38.492  1.00  0.00     0.127 S 
ATOM     99  O   UNL A   1      46.748  25.217  38.736  1.00  0.00    -0.237 OA
ATOM    100  O   UNL A   1      44.578  25.953  39.638  1.00  0.00    -0.237 OA
ATOM    101  O   UNL A   1      44.642  24.361  37.772  1.00  0.00    -0.744 OA
ENDBRANCH  95  98
ENDBRANCH  68  91
ENDBRANCH  42  43
ENDBRANCH  35  37
ENDBRANCH  34  35
ENDBRANCH  33  34
ENDBRANCH  32  33
ENDBRANCH  31  32
ENDBRANCH  29  31
ENDBRANCH   1  29
TORSDOF 24
ENDMDL
MODEL 2
REMARK VINA RESULT:      -9.9      5.799     10.423
REMARK SMILES CCCCCCNC(=O)Oc1cccc(-c2ccc([C@@H](C)C(=O)OCCOC(=O)c3ccc(-c4c5nc(c(-c6cccc(S(=O)(=O)[O-])c6F)c6ccc([nH]6)c(-c6cccc(S(=O)(=O)[O-])c6F)c6nc(c(-c7cccc(S(=O)(=O)[O-])c7F)c7ccc4[nH]7)C=C6)C=C5)cc3)cc2[N+](=O)[O-])c1
REMARK SMILES IDX 20 1 21 2 19 3 16 4 17 5 94 6 18 7 93 8 15 9 11 10 12 11
REMARK SMILES IDX 98 12 13 13 14 14 10 15 8 16 7 17 9 19 6 20 5 21 4 22 3 23
REMARK SMILES IDX 2 24 1 25 95 26 96 27 97 28 22 29 23 30 24 31 25 32 26 33
REMARK SMILES IDX 27 34 28 35 29 36 30 37 31 38 92 39 32 40 91 41 33 42 34 43
REMARK SMILES IDX 35 44 85 45 36 46 90 47 84 48 86 49 37 50 89 51 83 52 82 53
REMARK SMILES IDX 38 55 70 56 50 57 69 58 51 59 54 60 68 61 87 62 52 63 53 64
REMARK SMILES IDX 67 66 88 67 55 68 39 69 40 70 48 71 41 72 43 73 49 74 42 75
REMARK SMILES IDX 44 76 45 77 46 78 47 79 71 80 72 81 80 82 73 83 75 84 81 85
REMARK SMILES IDX 74 86 76 87 77 88 78 89 79 90 56 91 57 92 65 93 58 94 60 95
REMARK SMILES IDX 66 96 59 97 61 98 62 99 63 100 64 101
REMARK H PARENT 7 18 86 54 54 65
REMARK Flexibility Score: inf
ROOT
ATOM      1  C   UNL A   1      32.696  20.091  24.412  1.00  0.00     0.126 C 
ATOM      2  C   UNL A   1      32.303  19.252  23.196  1.00  0.00     0.025 C 
ENDROOT
BRANCH   1   3
ATOM      3  C   UNL A   1      32.273  21.546  24.262  1.00  0.00    -0.027 A 
ATOM      4  C   UNL A   1      31.582  24.321  24.027  1.00  0.00     0.060 A 
ATOM      5  C   UNL A   1      30.960  23.476  24.966  1.00  0.00     0.016 A 
ATOM      6  C   UNL A   1      32.538  23.721  23.187  1.00  0.00     0.277 A 
ATOM      7  C   UNL A   1      31.305  22.124  25.092  1.00  0.00     0.006 A 
ATOM      8  C   UNL A   1      32.878  22.358  23.292  1.00  0.00     0.091 A 
BRANCH   4   9
ATOM      9  C   UNL A   1      31.239  25.756  24.033  1.00  0.00    -0.008 A 
ATOM     10  C   UNL A   1      31.419  28.008  24.912  1.00  0.00     0.133 A 
ATOM     11  C   UNL A   1      30.458  28.469  24.014  1.00  0.00     0.047 A 
ATOM     12  C   UNL A   1      31.819  26.669  24.929  1.00  0.00     0.056 A 
ATOM     13  C   UNL A   1      29.891  27.582  23.107  1.00  0.00     0.004 A 
ATOM     14  C   UNL A   1      30.274  26.239  23.124  1.00  0.00     0.009 A 
BRANCH  10  15
ATOM     15  O   UNL A   1      31.835  28.924  25.893  1.00  0.00    -0.410 OA
BRANCH  15  16
ATOM     16  C   UNL A   1      31.916  28.526  27.217  1.00  0.00     0.412 C 
ATOM     17  N   UNL A   1      32.983  29.081  27.871  1.00  0.00    -0.321 N 
ATOM     18  H   UNL A   1      33.093  28.842  28.820  1.00  0.00     0.167 HD
ATOM     19  O   UNL A   1      31.159  27.745  27.779  1.00  0.00    -0.224 OA
BRANCH  17  20
ATOM     20  C   UNL A   1      33.968  29.986  27.310  1.00  0.00     0.119 C 
BRANCH  20  21
ATOM     21  C   UNL A   1      33.540  31.450  27.407  1.00  0.00     0.021 C 
BRANCH  21  22
ATOM     22  C   UNL A   1      34.575  32.385  28.045  1.00  0.00     0.002 C 
BRANCH  22  23
ATOM     23  C   UNL A   1      34.445  32.584  29.559  1.00  0.00    -0.000 C 
BRANCH  23  24
ATOM     24  C   UNL A   1      34.478  34.037  30.038  1.00  0.00    -0.003 C 
ATOM     25  C   UNL A   1      33.569  34.956  29.236  1.00  0.00     0.004 C 
ENDBRANCH  23  24
ENDBRANCH  22  23
ENDBRANCH  21  22
ENDBRANCH  20  21
ENDBRANCH  17  20
ENDBRANCH  15  16
ENDBRANCH  10  15
ENDBRANCH   4   9
BRANCH   6  26
ATOM     26  N   UNL A   1      33.289  24.505  22.216  1.00  0.00     0.063 N 
ATOM     27  O   UNL A   1      34.299  25.093  22.625  1.00  0.00    -0.258 OA
ATOM     28  O   UNL A   1      32.834  24.580  21.065  1.00  0.00    -0.258 OA
ENDBRANCH   6  26
ENDBRANCH   1   3
BRANCH   1  29
ATOM     29  C   UNL A   1      34.157  19.837  24.761  1.00  0.00     0.313 C 
ATOM     30  O   UNL A   1      34.709  18.770  24.509  1.00  0.00    -0.252 OA
BRANCH  29  31
ATOM     31  O   UNL A   1      34.784  20.905  25.318  1.00  0.00    -0.462 OA
BRANCH  31  32
ATOM     32  C   UNL A   1      36.225  20.874  25.340  1.00  0.00     0.274 C 
BRANCH  32  33
ATOM     33  C   UNL A   1      36.795  22.165  25.933  1.00  0.00     0.275 C 
BRANCH  33  34
ATOM     34  O   UNL A   1      38.123  22.427  25.449  1.00  0.00    -0.458 OA
BRANCH  34  35
ATOM     35  C   UNL A   1      39.121  22.056  26.284  1.00  0.00     0.338 C 
ATOM     36  O   UNL A   1      39.489  20.922  26.538  1.00  0.00    -0.246 OA
BRANCH  35  37
ATOM     37  C   UNL A   1      39.819  23.251  26.777  1.00  0.00     0.060 A 
ATOM     38  C   UNL A   1      39.666  24.447  26.068  1.00  0.00     0.016 A 
ATOM     39  C   UNL A   1      40.684  23.175  27.868  1.00  0.00     0.016 A 
ATOM     40  C   UNL A   1      40.398  25.572  26.432  1.00  0.00     0.010 A 
ATOM     41  C   UNL A   1      41.412  24.309  28.238  1.00  0.00     0.010 A 
ATOM     42  C   UNL A   1      41.288  25.506  27.510  1.00  0.00    -0.014 A 
BRANCH  42  43
ATOM     43  C   UNL A   1      42.141  26.671  27.846  1.00  0.00     0.031 A 
ATOM     44  C   UNL A   1      41.555  27.812  28.629  1.00  0.00     0.074 A 
ATOM     45  C   UNL A   1      43.419  26.712  27.427  1.00  0.00     0.049 A 
ATOM     46  N   UNL A   1      42.078  28.977  28.903  1.00  0.00    -0.248 NA
ATOM     47  C   UNL A   1      40.198  27.616  29.168  1.00  0.00     0.031 C 
ATOM     48  C   UNL A   1      44.096  25.654  26.678  1.00  0.00     0.029 A 
ATOM     49  N   UNL A   1      44.365  27.697  27.545  1.00  0.00    -0.354 N 
ATOM     50  C   UNL A   1      41.101  29.672  29.606  1.00  0.00     0.074 A 
ATOM     51  C   UNL A   1      39.955  28.797  29.720  1.00  0.00     0.031 C 
ATOM     52  C   UNL A   1      45.342  26.058  26.379  1.00  0.00     0.029 A 
ATOM     53  C   UNL A   1      45.535  27.416  26.880  1.00  0.00     0.049 A 
ATOM     54  H   UNL A   1      44.221  28.526  28.058  1.00  0.00     0.167 HD
ATOM     55  C   UNL A   1      41.163  30.924  30.121  1.00  0.00     0.034 A 
ATOM     56  C   UNL A   1      46.625  28.180  26.670  1.00  0.00     0.034 A 
ATOM     57  C   UNL A   1      42.323  31.769  30.042  1.00  0.00     0.049 A 
ATOM     58  C   UNL A   1      46.663  29.569  27.253  1.00  0.00     0.074 A 
ATOM     59  C   UNL A   1      42.493  33.046  30.548  1.00  0.00     0.029 A 
ATOM     60  N   UNL A   1      43.515  31.419  29.427  1.00  0.00    -0.354 N 
ATOM     61  N   UNL A   1      45.760  30.186  27.976  1.00  0.00    -0.248 NA
ATOM     62  C   UNL A   1      47.882  30.358  27.015  1.00  0.00     0.031 C 
ATOM     63  C   UNL A   1      43.789  33.469  30.235  1.00  0.00     0.029 A 
ATOM     64  C   UNL A   1      44.428  32.451  29.546  1.00  0.00     0.049 A 
ATOM     65  H   UNL A   1      43.686  30.563  28.972  1.00  0.00     0.167 HD
ATOM     66  C   UNL A   1      46.313  31.416  28.311  1.00  0.00     0.074 A 
ATOM     67  C   UNL A   1      47.638  31.451  27.725  1.00  0.00     0.031 C 
ATOM     68  C   UNL A   1      45.770  32.433  29.022  1.00  0.00     0.034 A 
BRANCH  55  69
ATOM     69  C   UNL A   1      39.954  31.444  30.850  1.00  0.00     0.023 A 
ATOM     70  C   UNL A   1      38.910  32.045  30.120  1.00  0.00     0.012 A 
ATOM     71  C   UNL A   1      39.818  31.276  32.243  1.00  0.00     0.148 A 
ATOM     72  C   UNL A   1      37.757  32.489  30.766  1.00  0.00     0.002 A 
ATOM     73  C   UNL A   1      38.651  31.688  32.875  1.00  0.00     0.091 A 
ATOM     74  F   UNL A   1      40.833  30.721  32.921  1.00  0.00    -0.205 F 
ATOM     75  C   UNL A   1      37.623  32.302  32.140  1.00  0.00     0.022 A 
BRANCH  73  76
ATOM     76  S   UNL A   1      38.353  31.430  34.627  1.00  0.00     0.127 S 
ATOM     77  O   UNL A   1      37.044  32.058  34.801  1.00  0.00    -0.237 OA
ATOM     78  O   UNL A   1      38.345  29.969  34.728  1.00  0.00    -0.237 OA
ATOM     79  O   UNL A   1      39.455  32.079  35.323  1.00  0.00    -0.744 OA
ENDBRANCH  73  76
ENDBRANCH  55  69
BRANCH  56  80
ATOM     80  C   UNL A   1      47.782  27.639  25.903  1.00  0.00     0.023 A 
ATOM     81  C   UNL A   1      48.787  26.923  26.582  1.00  0.00     0.012 A 
ATOM     82  C   UNL A   1      47.887  27.813  24.509  1.00  0.00     0.148 A 
ATOM     83  C   UNL A   1      49.887  26.415  25.892  1.00  0.00     0.002 A 
ATOM     84  C   UNL A   1      48.958  27.257  23.820  1.00  0.00     0.091 A 
ATOM     85  F   UNL A   1      46.935  28.518  23.881  1.00  0.00    -0.205 F 
ATOM     86  C   UNL A   1      49.968  26.572  24.510  1.00  0.00     0.022 A 
BRANCH  84  87
ATOM     87  S   UNL A   1      49.060  27.306  22.027  1.00  0.00     0.127 S 
ATOM     88  O   UNL A   1      50.485  27.537  21.811  1.00  0.00    -0.237 OA
ATOM     89  O   UNL A   1      48.590  25.971  21.652  1.00  0.00    -0.237 OA
ATOM     90  O   UNL A   1      48.166  28.384  21.623  1.00  0.00    -0.744 OA
ENDBRANCH  84  87
ENDBRANCH  56  80
BRANCH  68  91
ATOM     91  C   UNL A   1      46.616  33.656  29.257  1.00  0.00     0.023 A 
ATOM     92  C   UNL A   1      47.405  33.744  30.420  1.00  0.00     0.012 A 
ATOM     93  C   UNL A   1      46.700  34.668  28.281  1.00  0.00     0.148 A 
ATOM     94  C   UNL A   1      48.248  34.836  30.620  1.00  0.00     0.002 A 
ATOM     95  C   UNL A   1      47.575  35.731  28.467  1.00  0.00     0.091 A 
ATOM     96  F   UNL A   1      45.925  34.573  27.191  1.00  0.00    -0.205 F 
ATOM     97  C   UNL A   1      48.343  35.822  29.639  1.00  0.00     0.022 A 
BRANCH  95  98
ATOM     98  S   UNL A   1      47.826  36.997  27.216  1.00  0.00     0.127 S 
ATOM     99  O   UNL A   1      48.200  36.196  26.052  1.00  0.00    -0.237 OA
ATOM    100  O   UNL A   1      46.504  37.618  27.131  1.00  0.00    -0.237 OA
ATOM    101  O   UNL A   1      48.868  37.872  27.738  1.00  0.00    -0.744 OA
ENDBRANCH  95  98
ENDBRANCH  68  91
ENDBRANCH  42  43
ENDBRANCH  35  37
ENDBRANCH  34  35
ENDBRANCH  33  34
ENDBRANCH  32  33
ENDBRANCH  31  32
ENDBRANCH  29  31
ENDBRANCH   1  29
TORSDOF 24
ENDMDL
MODEL 3
REMARK VINA RESULT:      -9.7      1.373      2.470
REMARK SMILES CCCCCCNC(=O)Oc1cccc(-c2ccc([C@@H](C)C(=O)OCCOC(=O)c3ccc(-c4c5nc(c(-c6cccc(S(=O)(=O)[O-])c6F)c6ccc([nH]6)c(-c6cccc(S(=O)(=O)[O-])c6F)c6nc(c(-c7cccc(S(=O)(=O)[O-])c7F)c7ccc4[nH]7)C=C6)C=C5)cc3)cc2[N+](=O)[O-])c1
REMARK SMILES IDX 20 1 21 2 19 3 16 4 17 5 94 6 18 7 93 8 15 9 11 10 12 11
REMARK SMILES IDX 98 12 13 13 14 14 10 15 8 16 7 17 9 19 6 20 5 21 4 22 3 23
REMARK SMILES IDX 2 24 1 25 95 26 96 27 97 28 22 29 23 30 24 31 25 32 26 33
REMARK SMILES IDX 27 34 28 35 29 36 30 37 31 38 92 39 32 40 91 41 33 42 34 43
REMARK SMILES IDX 35 44 85 45 36 46 90 47 84 48 86 49 37 50 89 51 83 52 82 53
REMARK SMILES IDX 38 55 70 56 50 57 69 58 51 59 54 60 68 61 87 62 52 63 53 64
REMARK SMILES IDX 67 66 88 67 55 68 39 69 40 70 48 71 41 72 43 73 49 74 42 75
REMARK SMILES IDX 44 76 45 77 46 78 47 79 71 80 72 81 80 82 73 83 75 84 81 85
REMARK SMILES IDX 74 86 76 87 77 88 78 89 79 90 56 91 57 92 65 93 58 94 60 95
REMARK SMILES IDX 66 96 59 97 61 98 62 99 63 100 64 101
REMARK H PARENT 7 18 86 54 54 65
REMARK Flexibility Score: inf
ROOT
ATOM      1  C   UNL A   1      34.997  32.089  28.510  1.00  0.00     0.126 C 
ATOM      2  C   UNL A   1      35.941  32.913  27.637  1.00  0.00     0.025 C 
ENDROOT
BRANCH   1   3
ATOM      3  C   UNL A   1      34.013  31.277  27.680  1.00  0.00    -0.027 A 
ATOM      4  C   UNL A   1      32.219  29.778  26.015  1.00  0.00     0.060 A 
ATOM      5  C   UNL A   1      31.820  30.963  26.662  1.00  0.00     0.016 A 
ATOM      6  C   UNL A   1      33.538  29.352  26.256  1.00  0.00     0.277 A 
ATOM      7  C   UNL A   1      32.697  31.704  27.464  1.00  0.00     0.006 A 
ATOM      8  C   UNL A   1      34.423  30.078  27.077  1.00  0.00     0.091 A 
BRANCH   4   9
ATOM      9  C   UNL A   1      31.268  29.118  25.101  1.00  0.00    -0.008 A 
ATOM     10  C   UNL A   1      30.096  27.174  24.252  1.00  0.00     0.133 A 
ATOM     11  C   UNL A   1      29.490  27.936  23.254  1.00  0.00     0.047 A 
ATOM     12  C   UNL A   1      30.973  27.747  25.176  1.00  0.00     0.056 A 
ATOM     13  C   UNL A   1      29.755  29.297  23.181  1.00  0.00     0.004 A 
ATOM     14  C   UNL A   1      30.640  29.878  24.091  1.00  0.00     0.009 A 
BRANCH  10  15
ATOM     15  O   UNL A   1      29.898  25.785  24.171  1.00  0.00    -0.410 OA
BRANCH  15  16
ATOM     16  C   UNL A   1      30.369  24.962  25.181  1.00  0.00     0.412 C 
ATOM     17  N   UNL A   1      31.178  23.962  24.714  1.00  0.00    -0.321 N 
ATOM     18  H   UNL A   1      31.551  23.345  25.385  1.00  0.00     0.167 HD
ATOM     19  O   UNL A   1      30.098  25.061  26.371  1.00  0.00    -0.224 OA
BRANCH  17  20
ATOM     20  C   UNL A   1      31.543  23.716  23.332  1.00  0.00     0.119 C 
BRANCH  20  21
ATOM     21  C   UNL A   1      32.011  22.280  23.097  1.00  0.00     0.021 C 
BRANCH  21  22
ATOM     22  C   UNL A   1      33.385  21.943  23.690  1.00  0.00     0.002 C 
BRANCH  22  23
ATOM     23  C   UNL A   1      34.470  23.007  23.494  1.00  0.00    -0.000 C 
BRANCH  23  24
ATOM     24  C   UNL A   1      35.890  22.578  23.871  1.00  0.00    -0.003 C 
ATOM     25  C   UNL A   1      36.605  23.582  24.763  1.00  0.00     0.004 C 
ENDBRANCH  23  24
ENDBRANCH  22  23
ENDBRANCH  21  22
ENDBRANCH  20  21
ENDBRANCH  17  20
ENDBRANCH  15  16
ENDBRANCH  10  15
ENDBRANCH   4   9
BRANCH   6  26
ATOM     26  N   UNL A   1      34.083  28.173  25.598  1.00  0.00     0.063 N 
ATOM     27  O   UNL A   1      34.403  28.289  24.406  1.00  0.00    -0.258 OA
ATOM     28  O   UNL A   1      34.133  27.122  26.252  1.00  0.00    -0.258 OA
ENDBRANCH   6  26
ENDBRANCH   1   3
BRANCH   1  29
ATOM     29  C   UNL A   1      34.405  32.971  29.602  1.00  0.00     0.313 C 
ATOM     30  O   UNL A   1      34.068  32.518  30.692  1.00  0.00    -0.252 OA
BRANCH  29  31
ATOM     31  O   UNL A   1      34.338  34.286  29.271  1.00  0.00    -0.462 OA
BRANCH  31  32
ATOM     32  C   UNL A   1      33.022  34.864  29.166  1.00  0.00     0.274 C 
BRANCH  32  33
ATOM     33  C   UNL A   1      32.870  36.065  30.102  1.00  0.00     0.275 C 
BRANCH  33  34
ATOM     34  O   UNL A   1      32.301  35.681  31.366  1.00  0.00    -0.458 OA
BRANCH  34  35
ATOM     35  C   UNL A   1      32.991  36.093  32.454  1.00  0.00     0.338 C 
ATOM     36  O   UNL A   1      32.700  37.001  33.212  1.00  0.00    -0.246 OA
BRANCH  35  37
ATOM     37  C   UNL A   1      34.125  35.188  32.689  1.00  0.00     0.060 A 
ATOM     38  C   UNL A   1      33.897  34.017  33.417  1.00  0.00     0.016 A 
ATOM     39  C   UNL A   1      35.412  35.532  32.278  1.00  0.00     0.016 A 
ATOM     40  C   UNL A   1      34.961  33.190  33.761  1.00  0.00     0.010 A 
ATOM     41  C   UNL A   1      36.479  34.697  32.616  1.00  0.00     0.010 A 
ATOM     42  C   UNL A   1      36.262  33.533  33.376  1.00  0.00    -0.014 A 
BRANCH  42  43
ATOM     43  C   UNL A   1      37.413  32.709  33.817  1.00  0.00     0.031 A 
ATOM     44  C   UNL A   1      38.148  33.083  35.073  1.00  0.00     0.074 A 
ATOM     45  C   UNL A   1      37.807  31.654  33.080  1.00  0.00     0.049 A 
ATOM     46  N   UNL A   1      39.257  32.590  35.556  1.00  0.00    -0.248 NA
ATOM     47  C   UNL A   1      37.560  34.159  35.889  1.00  0.00     0.031 C 
ATOM     48  C   UNL A   1      37.156  31.190  31.855  1.00  0.00     0.029 A 
ATOM     49  N   UNL A   1      38.869  30.802  33.239  1.00  0.00    -0.354 N 
ATOM     50  C   UNL A   1      39.527  33.322  36.705  1.00  0.00     0.074 A 
ATOM     51  C   UNL A   1      38.462  34.292  36.850  1.00  0.00     0.031 C 
ATOM     52  C   UNL A   1      37.849  30.153  31.357  1.00  0.00     0.029 A 
ATOM     53  C   UNL A   1      39.012  29.907  32.205  1.00  0.00     0.049 A 
ATOM     54  H   UNL A   1      39.472  30.829  34.018  1.00  0.00     0.167 HD
ATOM     55  C   UNL A   1      40.562  33.188  37.568  1.00  0.00     0.034 A 
ATOM     56  C   UNL A   1      39.990  29.014  31.954  1.00  0.00     0.034 A 
ATOM     57  C   UNL A   1      41.590  32.191  37.440  1.00  0.00     0.049 A 
ATOM     58  C   UNL A   1      41.130  28.889  32.930  1.00  0.00     0.074 A 
ATOM     59  C   UNL A   1      42.672  31.959  38.271  1.00  0.00     0.029 A 
ATOM     60  N   UNL A   1      41.658  31.253  36.422  1.00  0.00    -0.354 N 
ATOM     61  N   UNL A   1      41.334  29.540  34.050  1.00  0.00    -0.248 NA
ATOM     62  C   UNL A   1      42.163  27.887  32.623  1.00  0.00     0.031 C 
ATOM     63  C   UNL A   1      43.397  30.881  37.753  1.00  0.00     0.029 A 
ATOM     64  C   UNL A   1      42.759  30.435  36.606  1.00  0.00     0.049 A 
ATOM     65  H   UNL A   1      41.018  31.180  35.677  1.00  0.00     0.167 HD
ATOM     66  C   UNL A   1      42.491  29.003  34.600  1.00  0.00     0.074 A 
ATOM     67  C   UNL A   1      42.937  27.960  33.698  1.00  0.00     0.031 C 
ATOM     68  C   UNL A   1      43.140  29.352  35.738  1.00  0.00     0.034 A 
BRANCH  55  69
ATOM     69  C   UNL A   1      40.617  34.116  38.751  1.00  0.00     0.023 A 
ATOM     70  C   UNL A   1      41.493  35.219  38.726  1.00  0.00     0.012 A 
ATOM     71  C   UNL A   1      39.755  33.941  39.852  1.00  0.00     0.148 A 
ATOM     72  C   UNL A   1      41.526  36.122  39.787  1.00  0.00     0.002 A 
ATOM     73  C   UNL A   1      39.768  34.865  40.890  1.00  0.00     0.091 A 
ATOM     74  F   UNL A   1      38.944  32.873  39.865  1.00  0.00    -0.205 F 
ATOM     75  C   UNL A   1      40.658  35.952  40.863  1.00  0.00     0.022 A 
BRANCH  73  76
ATOM     76  S   UNL A   1      38.642  34.774  42.286  1.00  0.00     0.127 S 
ATOM     77  O   UNL A   1      37.341  34.792  41.619  1.00  0.00    -0.237 OA
ATOM     78  O   UNL A   1      38.999  33.488  42.888  1.00  0.00    -0.237 OA
ATOM     79  O   UNL A   1      38.935  35.934  43.116  1.00  0.00    -0.744 OA
ENDBRANCH  73  76
ENDBRANCH  55  69
BRANCH  56  80
ATOM     80  C   UNL A   1      39.917  28.146  30.745  1.00  0.00     0.023 A 
ATOM     81  C   UNL A   1      39.025  27.056  30.731  1.00  0.00     0.012 A 
ATOM     82  C   UNL A   1      40.709  28.399  29.608  1.00  0.00     0.148 A 
ATOM     83  C   UNL A   1      38.944  26.219  29.618  1.00  0.00     0.002 A 
ATOM     84  C   UNL A   1      40.584  27.593  28.483  1.00  0.00     0.091 A 
ATOM     85  F   UNL A   1      41.571  29.425  29.646  1.00  0.00    -0.205 F 
ATOM     86  C   UNL A   1      39.714  26.493  28.490  1.00  0.00     0.022 A 
BRANCH  84  87
ATOM     87  S   UNL A   1      41.445  27.963  26.950  1.00  0.00     0.127 S 
ATOM     88  O   UNL A   1      40.881  29.262  26.593  1.00  0.00    -0.237 OA
ATOM     89  O   UNL A   1      42.844  27.997  27.379  1.00  0.00    -0.237 OA
ATOM     90  O   UNL A   1      41.126  26.858  26.056  1.00  0.00    -0.744 OA
ENDBRANCH  84  87
ENDBRANCH  56  80
BRANCH  68  91
ATOM     91  C   UNL A   1      44.373  28.573  36.109  1.00  0.00     0.023 A 
ATOM     92  C   UNL A   1      45.636  29.022  35.679  1.00  0.00     0.012 A 
ATOM     93  C   UNL A   1      44.286  27.453  36.958  1.00  0.00     0.148 A 
ATOM     94  C   UNL A   1      46.795  28.353  36.071  1.00  0.00     0.002 A 
ATOM     95  C   UNL A   1      45.447  26.817  37.380  1.00  0.00     0.091 A 
ATOM     96  F   UNL A   1      43.070  27.030  37.338  1.00  0.00    -0.205 F 
ATOM     97  C   UNL A   1      46.701  27.260  36.931  1.00  0.00     0.022 A 
BRANCH  95  98
ATOM     98  S   UNL A   1      45.424  25.459  38.556  1.00  0.00     0.127 S 
ATOM     99  O   UNL A   1      44.712  24.425  37.806  1.00  0.00    -0.237 OA
ATOM    100  O   UNL A   1      46.849  25.194  38.756  1.00  0.00    -0.237 OA
ATOM    101  O   UNL A   1      44.735  25.965  39.736  1.00  0.00    -0.744 OA
ENDBRANCH  95  98
ENDBRANCH  68  91
ENDBRANCH  42  43
ENDBRANCH  35  37
ENDBRANCH  34  35
ENDBRANCH  33  34
ENDBRANCH  32  33
ENDBRANCH  31  32
ENDBRANCH  29  31
ENDBRANCH   1  29
TORSDOF 24
ENDMDL
