MODEL 1
REMARK VINA RESULT:     -12.7      0.000      0.000
REMARK SMILES O=C(OCCOC(=O)[C@@]1(Cc2ccnc3ccccc23)C[C@H]2CC[C@@H]1O2)c1ccc(-c2c3nc(c(-c4cccc(S(=O)(=O)[O-])c4F)c4ccc([nH]4)c(-c4cccc(S(=O)(=O)[O-])c4F)c4nc(c(-c5cccc(S(=O)(=O)[O-])c5F)c5ccc2[nH]5)C=C4)C=C3)cc1
REMARK SMILES IDX 4 1 3 2 2 3 1 4 27 5 28 6 89 7 29 8 88 9 30 10 31 11 32 12
REMARK SMILES IDX 82 13 33 14 87 15 81 16 83 17 34 18 86 19 80 20 79 21 35 23
REMARK SMILES IDX 67 24 47 25 66 26 48 27 51 28 65 29 84 30 49 31 50 32 64 34
REMARK SMILES IDX 85 35 52 36 36 37 37 38 45 39 38 40 40 41 46 42 39 43 41 44
REMARK SMILES IDX 42 45 43 46 44 47 68 48 69 49 77 50 70 51 72 52 78 53 71 54
REMARK SMILES IDX 73 55 74 56 75 57 76 58 53 59 54 60 62 61 55 62 57 63 63 64
REMARK SMILES IDX 56 65 58 66 59 67 60 68 61 69 5 70 6 71 7 72 8 73 9 74 21 75
REMARK SMILES IDX 25 76 22 77 24 78 26 79 23 80 10 81 11 82 12 83 20 84 13 85
REMARK SMILES IDX 15 86 19 87 14 88 16 89 18 90 17 91
REMARK H PARENT 83 22 51 33
REMARK Flexibility Score: inf
ROOT
ATOM      1  C   UNL A   1      36.361  20.816  25.303  1.00  0.00     0.275 C 
ENDROOT
BRANCH   1   2
ATOM      2  O   UNL A   1      37.775  20.807  24.981  1.00  0.00    -0.458 OA
BRANCH   2   3
ATOM      3  C   UNL A   1      38.919  20.882  25.712  1.00  0.00     0.338 C 
ATOM      4  O   UNL A   1      39.520  19.829  25.931  1.00  0.00    -0.246 OA
BRANCH   3   5
ATOM      5  C   UNL A   1      39.417  22.109  26.438  1.00  0.00     0.060 A 
ATOM      6  C   UNL A   1      40.482  22.162  27.333  1.00  0.00     0.016 A 
ATOM      7  C   UNL A   1      38.811  23.344  26.092  1.00  0.00     0.016 A 
ATOM      8  C   UNL A   1      41.023  23.410  27.732  1.00  0.00     0.010 A 
ATOM      9  C   UNL A   1      39.357  24.592  26.483  1.00  0.00     0.010 A 
ATOM     10  C   UNL A   1      40.514  24.646  27.267  1.00  0.00    -0.014 A 
BRANCH  10  11
ATOM     11  C   UNL A   1      41.086  25.928  27.829  1.00  0.00     0.031 A 
ATOM     12  C   UNL A   1      42.448  26.241  27.299  1.00  0.00     0.074 A 
ATOM     13  C   UNL A   1      40.503  26.832  28.667  1.00  0.00     0.049 A 
ATOM     14  N   UNL A   1      43.126  27.351  27.349  1.00  0.00    -0.248 NA
ATOM     15  C   UNL A   1      43.144  25.119  26.642  1.00  0.00     0.031 C 
ATOM     16  C   UNL A   1      39.311  26.649  29.480  1.00  0.00     0.029 A 
ATOM     17  N   UNL A   1      40.814  28.152  28.949  1.00  0.00    -0.354 N 
ATOM     18  C   UNL A   1      44.342  27.051  26.763  1.00  0.00     0.074 A 
ATOM     19  C   UNL A   1      44.300  25.671  26.337  1.00  0.00     0.031 C 
ATOM     20  C   UNL A   1      38.826  27.822  29.907  1.00  0.00     0.029 A 
ATOM     21  C   UNL A   1      39.829  28.831  29.659  1.00  0.00     0.049 A 
ATOM     22  H   UNL A   1      41.659  28.574  28.669  1.00  0.00     0.167 HD
ATOM     23  C   UNL A   1      45.430  27.837  26.636  1.00  0.00     0.034 A 
ATOM     24  C   UNL A   1      39.755  30.084  30.156  1.00  0.00     0.034 A 
ATOM     25  C   UNL A   1      45.534  29.144  27.206  1.00  0.00     0.049 A 
ATOM     26  C   UNL A   1      40.989  30.923  30.034  1.00  0.00     0.074 A 
ATOM     27  C   UNL A   1      46.621  29.994  27.205  1.00  0.00     0.029 A 
ATOM     28  N   UNL A   1      44.534  29.759  27.946  1.00  0.00    -0.354 N 
ATOM     29  N   UNL A   1      42.104  30.641  29.409  1.00  0.00    -0.248 NA
ATOM     30  C   UNL A   1      40.980  32.225  30.713  1.00  0.00     0.031 C 
ATOM     31  C   UNL A   1      46.296  31.102  27.993  1.00  0.00     0.029 A 
ATOM     32  C   UNL A   1      44.981  30.978  28.416  1.00  0.00     0.049 A 
ATOM     33  H   UNL A   1      43.640  29.382  28.112  1.00  0.00     0.167 HD
ATOM     34  C   UNL A   1      42.929  31.734  29.603  1.00  0.00     0.074 A 
ATOM     35  C   UNL A   1      42.175  32.695  30.388  1.00  0.00     0.031 C 
ATOM     36  C   UNL A   1      44.198  31.921  29.173  1.00  0.00     0.034 A 
BRANCH  23  37
ATOM     37  C   UNL A   1      46.602  27.189  25.963  1.00  0.00     0.023 A 
ATOM     38  C   UNL A   1      47.467  26.355  26.704  1.00  0.00     0.012 A 
ATOM     39  C   UNL A   1      46.936  27.553  24.648  1.00  0.00     0.148 A 
ATOM     40  C   UNL A   1      48.689  25.956  26.167  1.00  0.00     0.002 A 
ATOM     41  C   UNL A   1      48.130  27.108  24.102  1.00  0.00     0.091 A 
ATOM     42  F   UNL A   1      46.120  28.386  23.988  1.00  0.00    -0.205 F 
ATOM     43  C   UNL A   1      49.018  26.332  24.867  1.00  0.00     0.022 A 
BRANCH  41  44
ATOM     44  S   UNL A   1      48.625  27.503  22.425  1.00  0.00     0.127 S 
ATOM     45  O   UNL A   1      48.697  26.174  21.817  1.00  0.00    -0.237 OA
ATOM     46  O   UNL A   1      47.502  28.323  21.970  1.00  0.00    -0.237 OA
ATOM     47  O   UNL A   1      49.893  28.207  22.531  1.00  0.00    -0.744 OA
ENDBRANCH  41  44
ENDBRANCH  23  37
BRANCH  24  48
ATOM     48  C   UNL A   1      38.536  30.626  30.853  1.00  0.00     0.023 A 
ATOM     49  C   UNL A   1      38.387  30.395  32.239  1.00  0.00     0.012 A 
ATOM     50  C   UNL A   1      37.512  31.325  30.180  1.00  0.00     0.148 A 
ATOM     51  C   UNL A   1      37.251  30.834  32.929  1.00  0.00     0.002 A 
ATOM     52  C   UNL A   1      36.400  31.797  30.882  1.00  0.00     0.091 A 
ATOM     53  F   UNL A   1      37.645  31.528  28.861  1.00  0.00    -0.205 F 
ATOM     54  C   UNL A   1      36.265  31.545  32.254  1.00  0.00     0.022 A 
BRANCH  52  55
ATOM     55  S   UNL A   1      35.100  32.793  30.133  1.00  0.00     0.127 S 
ATOM     56  O   UNL A   1      35.843  33.949  29.636  1.00  0.00    -0.237 OA
ATOM     57  O   UNL A   1      34.606  31.888  29.095  1.00  0.00    -0.237 OA
ATOM     58  O   UNL A   1      34.157  33.078  31.202  1.00  0.00    -0.744 OA
ENDBRANCH  52  55
ENDBRANCH  24  48
BRANCH  36  59
ATOM     59  C   UNL A   1      44.815  33.255  29.451  1.00  0.00     0.023 A 
ATOM     60  C   UNL A   1      45.568  33.481  30.618  1.00  0.00     0.012 A 
ATOM     61  C   UNL A   1      44.681  34.274  28.490  1.00  0.00     0.148 A 
ATOM     62  C   UNL A   1      46.158  34.724  30.836  1.00  0.00     0.002 A 
ATOM     63  C   UNL A   1      45.324  35.483  28.684  1.00  0.00     0.091 A 
ATOM     64  F   UNL A   1      43.927  34.035  27.408  1.00  0.00    -0.205 F 
ATOM     65  C   UNL A   1      46.050  35.717  29.863  1.00  0.00     0.022 A 
BRANCH  63  66
ATOM     66  S   UNL A   1      45.330  36.760  27.427  1.00  0.00     0.127 S 
ATOM     67  O   UNL A   1      43.902  36.929  27.167  1.00  0.00    -0.237 OA
ATOM     68  O   UNL A   1      45.962  37.878  28.129  1.00  0.00    -0.237 OA
ATOM     69  O   UNL A   1      46.108  36.231  26.314  1.00  0.00    -0.744 OA
ENDBRANCH  63  66
ENDBRANCH  36  59
ENDBRANCH  10  11
ENDBRANCH   3   5
ENDBRANCH   2   3
ENDBRANCH   1   2
BRANCH   1  70
ATOM     70  C   UNL A   1      35.553  21.835  24.485  1.00  0.00     0.274 C 
BRANCH  70  71
ATOM     71  O   UNL A   1      34.310  22.100  25.132  1.00  0.00    -0.462 OA
BRANCH  71  72
ATOM     72  C   UNL A   1      33.272  22.754  24.519  1.00  0.00     0.315 C 
ATOM     73  O   UNL A   1      32.666  22.346  23.550  1.00  0.00    -0.251 OA
BRANCH  72  74
ATOM     74  C   UNL A   1      33.022  24.078  25.256  1.00  0.00     0.101 C 
ATOM     75  C   UNL A   1      31.734  24.651  24.689  1.00  0.00     0.054 C 
ATOM     76  C   UNL A   1      32.604  23.803  26.727  1.00  0.00     0.136 C 
ATOM     77  C   UNL A   1      30.845  24.673  25.896  1.00  0.00     0.120 C 
ATOM     78  C   UNL A   1      31.523  22.743  27.007  1.00  0.00     0.036 C 
ATOM     79  O   UNL A   1      31.761  24.950  26.952  1.00  0.00    -0.374 OA
ATOM     80  C   UNL A   1      30.287  23.352  26.360  1.00  0.00     0.035 C 
BRANCH  74  81
ATOM     81  C   UNL A   1      34.159  25.170  25.080  1.00  0.00     0.058 C 
BRANCH  81  82
ATOM     82  C   UNL A   1      33.766  26.520  24.415  1.00  0.00    -0.036 A 
ATOM     83  C   UNL A   1      33.618  26.580  23.018  1.00  0.00     0.024 A 
ATOM     84  C   UNL A   1      33.321  27.639  25.167  1.00  0.00     0.003 A 
ATOM     85  C   UNL A   1      32.933  27.647  22.454  1.00  0.00     0.112 A 
ATOM     86  C   UNL A   1      32.530  28.612  24.504  1.00  0.00     0.070 A 
ATOM     87  C   UNL A   1      33.538  27.776  26.554  1.00  0.00     0.010 A 
ATOM     88  N   UNL A   1      32.361  28.628  23.171  1.00  0.00    -0.256 NA
ATOM     89  C   UNL A   1      31.842  29.540  25.267  1.00  0.00     0.029 A 
ATOM     90  C   UNL A   1      32.817  28.695  27.304  1.00  0.00     0.001 A 
ATOM     91  C   UNL A   1      31.943  29.550  26.658  1.00  0.00     0.002 A 
ENDBRANCH  81  82
ENDBRANCH  74  81
ENDBRANCH  72  74
ENDBRANCH  71  72
ENDBRANCH  70  71
ENDBRANCH   1  70
TORSDOF 16
ENDMDL
MODEL 2
REMARK VINA RESULT:     -12.7      5.100     10.301
REMARK SMILES O=C(OCCOC(=O)[C@@]1(Cc2ccnc3ccccc23)C[C@H]2CC[C@@H]1O2)c1ccc(-c2c3nc(c(-c4cccc(S(=O)(=O)[O-])c4F)c4ccc([nH]4)c(-c4cccc(S(=O)(=O)[O-])c4F)c4nc(c(-c5cccc(S(=O)(=O)[O-])c5F)c5ccc2[nH]5)C=C4)C=C3)cc1
REMARK SMILES IDX 4 1 3 2 2 3 1 4 27 5 28 6 89 7 29 8 88 9 30 10 31 11 32 12
REMARK SMILES IDX 82 13 33 14 87 15 81 16 83 17 34 18 86 19 80 20 79 21 35 23
REMARK SMILES IDX 67 24 47 25 66 26 48 27 51 28 65 29 84 30 49 31 50 32 64 34
REMARK SMILES IDX 85 35 52 36 36 37 37 38 45 39 38 40 40 41 46 42 39 43 41 44
REMARK SMILES IDX 42 45 43 46 44 47 68 48 69 49 77 50 70 51 72 52 78 53 71 54
REMARK SMILES IDX 73 55 74 56 75 57 76 58 53 59 54 60 62 61 55 62 57 63 63 64
REMARK SMILES IDX 56 65 58 66 59 67 60 68 61 69 5 70 6 71 7 72 8 73 9 74 21 75
REMARK SMILES IDX 25 76 22 77 24 78 26 79 23 80 10 81 11 82 12 83 20 84 13 85
REMARK SMILES IDX 15 86 19 87 14 88 16 89 18 90 17 91
REMARK H PARENT 83 22 51 33
REMARK Flexibility Score: inf
ROOT
ATOM      1  C   UNL A   1      31.842  30.154  26.819  1.00  0.00     0.275 C 
ENDROOT
BRANCH   1   2
ATOM      2  O   UNL A   1      32.511  31.434  26.681  1.00  0.00    -0.458 OA
BRANCH   2   3
ATOM      3  C   UNL A   1      33.408  32.126  27.433  1.00  0.00     0.338 C 
ATOM      4  O   UNL A   1      33.131  33.294  27.709  1.00  0.00    -0.246 OA
BRANCH   3   5
ATOM      5  C   UNL A   1      34.795  31.655  27.799  1.00  0.00     0.060 A 
ATOM      6  C   UNL A   1      35.912  32.460  28.005  1.00  0.00     0.016 A 
ATOM      7  C   UNL A   1      34.948  30.270  28.067  1.00  0.00     0.016 A 
ATOM      8  C   UNL A   1      37.079  31.929  28.610  1.00  0.00     0.010 A 
ATOM      9  C   UNL A   1      36.109  29.741  28.681  1.00  0.00     0.010 A 
ATOM     10  C   UNL A   1      37.179  30.577  29.017  1.00  0.00    -0.014 A 
BRANCH  10  11
ATOM     11  C   UNL A   1      38.499  30.074  29.557  1.00  0.00     0.031 A 
ATOM     12  C   UNL A   1      38.736  30.469  30.979  1.00  0.00     0.074 A 
ATOM     13  C   UNL A   1      39.423  29.275  28.952  1.00  0.00     0.049 A 
ATOM     14  N   UNL A   1      39.608  30.018  31.833  1.00  0.00    -0.248 NA
ATOM     15  C   UNL A   1      37.874  31.552  31.487  1.00  0.00     0.031 C 
ATOM     16  C   UNL A   1      39.532  28.955  27.538  1.00  0.00     0.029 A 
ATOM     17  N   UNL A   1      40.457  28.514  29.475  1.00  0.00    -0.354 N 
ATOM     18  C   UNL A   1      39.423  30.786  32.969  1.00  0.00     0.074 A 
ATOM     19  C   UNL A   1      38.340  31.707  32.708  1.00  0.00     0.031 C 
ATOM     20  C   UNL A   1      40.320  27.891  27.336  1.00  0.00     0.029 A 
ATOM     21  C   UNL A   1      41.022  27.622  28.569  1.00  0.00     0.049 A 
ATOM     22  H   UNL A   1      40.765  28.598  30.407  1.00  0.00     0.167 HD
ATOM     23  C   UNL A   1      40.128  30.771  34.117  1.00  0.00     0.034 A 
ATOM     24  C   UNL A   1      42.050  26.752  28.659  1.00  0.00     0.034 A 
ATOM     25  C   UNL A   1      41.304  29.982  34.315  1.00  0.00     0.049 A 
ATOM     26  C   UNL A   1      42.839  26.782  29.931  1.00  0.00     0.074 A 
ATOM     27  C   UNL A   1      42.140  29.952  35.412  1.00  0.00     0.029 A 
ATOM     28  N   UNL A   1      41.853  29.138  33.359  1.00  0.00    -0.354 N 
ATOM     29  N   UNL A   1      42.598  27.466  31.020  1.00  0.00    -0.248 NA
ATOM     30  C   UNL A   1      44.056  25.961  29.980  1.00  0.00     0.031 C 
ATOM     31  C   UNL A   1      43.227  29.130  35.098  1.00  0.00     0.029 A 
ATOM     32  C   UNL A   1      43.024  28.587  33.838  1.00  0.00     0.049 A 
ATOM     33  H   UNL A   1      41.465  28.960  32.472  1.00  0.00     0.167 HD
ATOM     34  C   UNL A   1      43.622  27.152  31.895  1.00  0.00     0.074 A 
ATOM     35  C   UNL A   1      44.477  26.196  31.214  1.00  0.00     0.031 C 
ATOM     36  C   UNL A   1      43.837  27.619  33.146  1.00  0.00     0.034 A 
BRANCH  23  37
ATOM     37  C   UNL A   1      39.674  31.758  35.150  1.00  0.00     0.023 A 
ATOM     38  C   UNL A   1      40.289  33.027  35.230  1.00  0.00     0.012 A 
ATOM     39  C   UNL A   1      38.767  31.355  36.144  1.00  0.00     0.148 A 
ATOM     40  C   UNL A   1      40.061  33.849  36.332  1.00  0.00     0.002 A 
ATOM     41  C   UNL A   1      38.505  32.202  37.209  1.00  0.00     0.091 A 
ATOM     42  F   UNL A   1      38.238  30.126  36.066  1.00  0.00    -0.205 F 
ATOM     43  C   UNL A   1      39.169  33.436  37.319  1.00  0.00     0.022 A 
BRANCH  41  44
ATOM     44  S   UNL A   1      37.344  31.780  38.508  1.00  0.00     0.127 S 
ATOM     45  O   UNL A   1      36.257  32.725  38.251  1.00  0.00    -0.237 OA
ATOM     46  O   UNL A   1      37.033  30.387  38.186  1.00  0.00    -0.237 OA
ATOM     47  O   UNL A   1      38.052  31.975  39.764  1.00  0.00    -0.744 OA
ENDBRANCH  41  44
ENDBRANCH  23  37
BRANCH  24  48
ATOM     48  C   UNL A   1      42.450  25.826  27.541  1.00  0.00     0.023 A 
ATOM     49  C   UNL A   1      43.231  26.338  26.482  1.00  0.00     0.012 A 
ATOM     50  C   UNL A   1      42.048  24.475  27.480  1.00  0.00     0.148 A 
ATOM     51  C   UNL A   1      43.592  25.536  25.393  1.00  0.00     0.002 A 
ATOM     52  C   UNL A   1      42.445  23.668  26.411  1.00  0.00     0.091 A 
ATOM     53  F   UNL A   1      41.290  23.994  28.477  1.00  0.00    -0.205 F 
ATOM     54  C   UNL A   1      43.209  24.200  25.364  1.00  0.00     0.022 A 
BRANCH  52  55
ATOM     55  S   UNL A   1      42.077  21.908  26.303  1.00  0.00     0.127 S 
ATOM     56  O   UNL A   1      42.956  21.472  25.221  1.00  0.00    -0.237 OA
ATOM     57  O   UNL A   1      42.469  21.450  27.636  1.00  0.00    -0.237 OA
ATOM     58  O   UNL A   1      40.653  21.821  26.016  1.00  0.00    -0.744 OA
ENDBRANCH  52  55
ENDBRANCH  24  48
BRANCH  36  59
ATOM     59  C   UNL A   1      44.982  27.023  33.901  1.00  0.00     0.023 A 
ATOM     60  C   UNL A   1      46.263  27.604  33.860  1.00  0.00     0.012 A 
ATOM     61  C   UNL A   1      44.745  25.897  34.710  1.00  0.00     0.148 A 
ATOM     62  C   UNL A   1      47.305  27.047  34.598  1.00  0.00     0.002 A 
ATOM     63  C   UNL A   1      45.768  25.389  35.490  1.00  0.00     0.091 A 
ATOM     64  F   UNL A   1      43.522  25.349  34.696  1.00  0.00    -0.205 F 
ATOM     65  C   UNL A   1      47.053  25.951  35.424  1.00  0.00     0.022 A 
BRANCH  63  66
ATOM     66  S   UNL A   1      45.491  24.062  36.662  1.00  0.00     0.127 S 
ATOM     67  O   UNL A   1      46.833  23.858  37.204  1.00  0.00    -0.237 OA
ATOM     68  O   UNL A   1      44.540  24.670  37.593  1.00  0.00    -0.237 OA
ATOM     69  O   UNL A   1      44.953  22.948  35.894  1.00  0.00    -0.744 OA
ENDBRANCH  63  66
ENDBRANCH  36  59
ENDBRANCH  10  11
ENDBRANCH   3   5
ENDBRANCH   2   3
ENDBRANCH   1   2
BRANCH   1  70
ATOM     70  C   UNL A   1      31.679  29.402  25.489  1.00  0.00     0.274 C 
BRANCH  70  71
ATOM     71  O   UNL A   1      31.698  27.995  25.723  1.00  0.00    -0.462 OA
BRANCH  71  72
ATOM     72  C   UNL A   1      32.820  27.224  25.556  1.00  0.00     0.315 C 
ATOM     73  O   UNL A   1      33.949  27.563  25.846  1.00  0.00    -0.251 OA
BRANCH  72  74
ATOM     74  C   UNL A   1      32.405  25.881  24.937  1.00  0.00     0.101 C 
ATOM     75  C   UNL A   1      30.902  25.952  24.721  1.00  0.00     0.054 C 
ATOM     76  C   UNL A   1      32.913  25.786  23.472  1.00  0.00     0.136 C 
ATOM     77  C   UNL A   1      30.796  25.823  23.230  1.00  0.00     0.120 C 
ATOM     78  C   UNL A   1      32.689  26.981  22.528  1.00  0.00     0.036 C 
ATOM     79  O   UNL A   1      31.879  24.951  22.916  1.00  0.00    -0.374 OA
ATOM     80  C   UNL A   1      31.173  27.030  22.410  1.00  0.00     0.035 C 
BRANCH  74  81
ATOM     81  C   UNL A   1      32.708  24.607  25.830  1.00  0.00     0.058 C 
BRANCH  81  82
ATOM     82  C   UNL A   1      33.959  23.754  25.471  1.00  0.00    -0.036 A 
ATOM     83  C   UNL A   1      35.235  24.219  25.835  1.00  0.00     0.024 A 
ATOM     84  C   UNL A   1      33.861  22.419  25.000  1.00  0.00     0.003 A 
ATOM     85  C   UNL A   1      36.301  23.331  25.850  1.00  0.00     0.112 A 
ATOM     86  C   UNL A   1      34.984  21.569  25.173  1.00  0.00     0.070 A 
ATOM     87  C   UNL A   1      32.676  21.870  24.466  1.00  0.00     0.010 A 
ATOM     88  N   UNL A   1      36.186  22.024  25.568  1.00  0.00    -0.256 NA
ATOM     89  C   UNL A   1      34.818  20.206  25.002  1.00  0.00     0.029 A 
ATOM     90  C   UNL A   1      32.522  20.497  24.329  1.00  0.00     0.001 A 
ATOM     91  C   UNL A   1      33.585  19.669  24.634  1.00  0.00     0.002 A 
ENDBRANCH  81  82
ENDBRANCH  74  81
ENDBRANCH  72  74
ENDBRANCH  71  72
ENDBRANCH  70  71
ENDBRANCH   1  70
TORSDOF 16
ENDMDL
MODEL 3
REMARK VINA RESULT:     -12.6      5.160     10.118
REMARK SMILES O=C(OCCOC(=O)[C@@]1(Cc2ccnc3ccccc23)C[C@H]2CC[C@@H]1O2)c1ccc(-c2c3nc(c(-c4cccc(S(=O)(=O)[O-])c4F)c4ccc([nH]4)c(-c4cccc(S(=O)(=O)[O-])c4F)c4nc(c(-c5cccc(S(=O)(=O)[O-])c5F)c5ccc2[nH]5)C=C4)C=C3)cc1
REMARK SMILES IDX 4 1 3 2 2 3 1 4 27 5 28 6 89 7 29 8 88 9 30 10 31 11 32 12
REMARK SMILES IDX 82 13 33 14 87 15 81 16 83 17 34 18 86 19 80 20 79 21 35 23
REMARK SMILES IDX 67 24 47 25 66 26 48 27 51 28 65 29 84 30 49 31 50 32 64 34
REMARK SMILES IDX 85 35 52 36 36 37 37 38 45 39 38 40 40 41 46 42 39 43 41 44
REMARK SMILES IDX 42 45 43 46 44 47 68 48 69 49 77 50 70 51 72 52 78 53 71 54
REMARK SMILES IDX 73 55 74 56 75 57 76 58 53 59 54 60 62 61 55 62 57 63 63 64
REMARK SMILES IDX 56 65 58 66 59 67 60 68 61 69 5 70 6 71 7 72 8 73 9 74 21 75
REMARK SMILES IDX 25 76 22 77 24 78 26 79 23 80 10 81 11 82 12 83 20 84 13 85
REMARK SMILES IDX 15 86 19 87 14 88 16 89 18 90 17 91
REMARK H PARENT 83 22 51 33
REMARK Flexibility Score: inf
ROOT
ATOM      1  C   UNL A   1      31.504  30.445  26.827  1.00  0.00     0.275 C 
ENDROOT
BRANCH   1   2
ATOM      2  O   UNL A   1      32.693  31.258  26.655  1.00  0.00    -0.458 OA
BRANCH   2   3
ATOM      3  C   UNL A   1      33.533  31.908  27.505  1.00  0.00     0.338 C 
ATOM      4  O   UNL A   1      33.208  33.041  27.864  1.00  0.00    -0.246 OA
BRANCH   3   5
ATOM      5  C   UNL A   1      34.917  31.446  27.895  1.00  0.00     0.060 A 
ATOM      6  C   UNL A   1      36.030  32.256  28.101  1.00  0.00     0.016 A 
ATOM      7  C   UNL A   1      35.069  30.066  28.186  1.00  0.00     0.016 A 
ATOM      8  C   UNL A   1      37.190  31.738  28.729  1.00  0.00     0.010 A 
ATOM      9  C   UNL A   1      36.224  29.548  28.822  1.00  0.00     0.010 A 
ATOM     10  C   UNL A   1      37.287  30.392  29.159  1.00  0.00    -0.014 A 
BRANCH  10  11
ATOM     11  C   UNL A   1      38.602  29.901  29.722  1.00  0.00     0.031 A 
ATOM     12  C   UNL A   1      38.784  30.245  31.165  1.00  0.00     0.074 A 
ATOM     13  C   UNL A   1      39.565  29.148  29.118  1.00  0.00     0.049 A 
ATOM     14  N   UNL A   1      39.638  29.783  32.031  1.00  0.00    -0.248 NA
ATOM     15  C   UNL A   1      37.878  31.287  31.685  1.00  0.00     0.031 C 
ATOM     16  C   UNL A   1      39.727  28.886  27.698  1.00  0.00     0.029 A 
ATOM     17  N   UNL A   1      40.601  28.393  29.646  1.00  0.00    -0.354 N 
ATOM     18  C   UNL A   1      39.398  30.502  33.188  1.00  0.00     0.074 A 
ATOM     19  C   UNL A   1      38.301  31.405  32.926  1.00  0.00     0.031 C 
ATOM     20  C   UNL A   1      40.548  27.850  27.482  1.00  0.00     0.029 A 
ATOM     21  C   UNL A   1      41.217  27.551  28.726  1.00  0.00     0.049 A 
ATOM     22  H   UNL A   1      40.876  28.448  30.590  1.00  0.00     0.167 HD
ATOM     23  C   UNL A   1      40.066  30.459  34.357  1.00  0.00     0.034 A 
ATOM     24  C   UNL A   1      42.263  26.703  28.816  1.00  0.00     0.034 A 
ATOM     25  C   UNL A   1      41.254  29.691  34.563  1.00  0.00     0.049 A 
ATOM     26  C   UNL A   1      43.010  26.702  30.114  1.00  0.00     0.074 A 
ATOM     27  C   UNL A   1      42.055  29.639  35.686  1.00  0.00     0.029 A 
ATOM     28  N   UNL A   1      41.854  28.898  33.595  1.00  0.00    -0.354 N 
ATOM     29  N   UNL A   1      42.717  27.338  31.220  1.00  0.00    -0.248 NA
ATOM     30  C   UNL A   1      44.245  25.910  30.172  1.00  0.00     0.031 C 
ATOM     31  C   UNL A   1      43.171  28.855  35.377  1.00  0.00     0.029 A 
ATOM     32  C   UNL A   1      43.024  28.358  34.091  1.00  0.00     0.049 A 
ATOM     33  H   UNL A   1      41.500  28.746  32.689  1.00  0.00     0.167 HD
ATOM     34  C   UNL A   1      43.720  27.015  32.115  1.00  0.00     0.074 A 
ATOM     35  C   UNL A   1      44.620  26.107  31.428  1.00  0.00     0.031 C 
ATOM     36  C   UNL A   1      43.882  27.438  33.390  1.00  0.00     0.034 A 
BRANCH  23  37
ATOM     37  C   UNL A   1      39.553  31.393  35.411  1.00  0.00     0.023 A 
ATOM     38  C   UNL A   1      38.493  30.993  36.253  1.00  0.00     0.012 A 
ATOM     39  C   UNL A   1      40.006  32.723  35.440  1.00  0.00     0.148 A 
ATOM     40  C   UNL A   1      37.841  31.927  37.054  1.00  0.00     0.002 A 
ATOM     41  C   UNL A   1      39.387  33.634  36.280  1.00  0.00     0.091 A 
ATOM     42  F   UNL A   1      40.980  33.085  34.594  1.00  0.00    -0.205 F 
ATOM     43  C   UNL A   1      38.289  33.246  37.068  1.00  0.00     0.022 A 
BRANCH  41  44
ATOM     44  S   UNL A   1      39.915  35.343  36.400  1.00  0.00     0.127 S 
ATOM     45  O   UNL A   1      41.369  35.199  36.460  1.00  0.00    -0.237 OA
ATOM     46  O   UNL A   1      39.406  35.899  35.146  1.00  0.00    -0.237 OA
ATOM     47  O   UNL A   1      39.293  35.877  37.603  1.00  0.00    -0.744 OA
ENDBRANCH  41  44
ENDBRANCH  23  37
BRANCH  24  48
ATOM     48  C   UNL A   1      42.722  25.831  27.677  1.00  0.00     0.023 A 
ATOM     49  C   UNL A   1      43.632  26.365  26.738  1.00  0.00     0.012 A 
ATOM     50  C   UNL A   1      42.256  24.514  27.481  1.00  0.00     0.148 A 
ATOM     51  C   UNL A   1      44.056  25.617  25.633  1.00  0.00     0.002 A 
ATOM     52  C   UNL A   1      42.714  23.758  26.399  1.00  0.00     0.091 A 
ATOM     53  F   UNL A   1      41.378  24.015  28.363  1.00  0.00    -0.205 F 
ATOM     54  C   UNL A   1      43.607  24.311  25.471  1.00  0.00     0.022 A 
BRANCH  52  55
ATOM     55  S   UNL A   1      42.264  22.035  26.130  1.00  0.00     0.127 S 
ATOM     56  O   UNL A   1      43.115  21.664  25.001  1.00  0.00    -0.237 OA
ATOM     57  O   UNL A   1      42.644  21.434  27.408  1.00  0.00    -0.237 OA
ATOM     58  O   UNL A   1      40.837  22.040  25.851  1.00  0.00    -0.744 OA
ENDBRANCH  52  55
ENDBRANCH  24  48
BRANCH  36  59
ATOM     59  C   UNL A   1      45.018  26.840  34.159  1.00  0.00     0.023 A 
ATOM     60  C   UNL A   1      46.302  27.414  34.127  1.00  0.00     0.012 A 
ATOM     61  C   UNL A   1      44.767  25.721  34.973  1.00  0.00     0.148 A 
ATOM     62  C   UNL A   1      47.334  26.856  34.878  1.00  0.00     0.002 A 
ATOM     63  C   UNL A   1      45.780  25.212  35.765  1.00  0.00     0.091 A 
ATOM     64  F   UNL A   1      43.541  25.179  34.951  1.00  0.00    -0.205 F 
ATOM     65  C   UNL A   1      47.069  25.767  35.708  1.00  0.00     0.022 A 
BRANCH  63  66
ATOM     66  S   UNL A   1      45.485  23.894  36.943  1.00  0.00     0.127 S 
ATOM     67  O   UNL A   1      44.524  24.516  37.852  1.00  0.00    -0.237 OA
ATOM     68  O   UNL A   1      44.932  22.841  36.092  1.00  0.00    -0.237 OA
ATOM     69  O   UNL A   1      46.781  23.577  37.529  1.00  0.00    -0.744 OA
ENDBRANCH  63  66
ENDBRANCH  36  59
ENDBRANCH  10  11
ENDBRANCH   3   5
ENDBRANCH   2   3
ENDBRANCH   1   2
BRANCH   1  70
ATOM     70  C   UNL A   1      31.810  28.979  27.171  1.00  0.00     0.274 C 
BRANCH  70  71
ATOM     71  O   UNL A   1      31.501  28.146  26.056  1.00  0.00    -0.462 OA
BRANCH  71  72
ATOM     72  C   UNL A   1      32.429  27.784  25.113  1.00  0.00     0.315 C 
ATOM     73  O   UNL A   1      33.618  28.024  25.176  1.00  0.00    -0.251 OA
BRANCH  72  74
ATOM     74  C   UNL A   1      31.711  27.044  23.975  1.00  0.00     0.101 C 
ATOM     75  C   UNL A   1      30.222  27.212  24.224  1.00  0.00     0.054 C 
ATOM     76  C   UNL A   1      31.880  27.820  22.640  1.00  0.00     0.136 C 
ATOM     77  C   UNL A   1      29.785  27.969  23.005  1.00  0.00     0.120 C 
ATOM     78  C   UNL A   1      31.628  29.339  22.625  1.00  0.00     0.036 C 
ATOM     79  O   UNL A   1      30.646  27.452  21.994  1.00  0.00    -0.374 OA
ATOM     80  C   UNL A   1      30.143  29.432  22.943  1.00  0.00     0.035 C 
BRANCH  74  81
ATOM     81  C   UNL A   1      32.017  25.491  23.884  1.00  0.00     0.058 C 
BRANCH  81  82
ATOM     82  C   UNL A   1      32.223  24.717  25.218  1.00  0.00    -0.036 A 
ATOM     83  C   UNL A   1      31.098  24.244  25.919  1.00  0.00     0.024 A 
ATOM     84  C   UNL A   1      33.497  24.260  25.645  1.00  0.00     0.003 A 
ATOM     85  C   UNL A   1      31.266  23.267  26.889  1.00  0.00     0.112 A 
ATOM     86  C   UNL A   1      33.541  23.174  26.558  1.00  0.00     0.070 A 
ATOM     87  C   UNL A   1      34.712  24.760  25.131  1.00  0.00     0.010 A 
ATOM     88  N   UNL A   1      32.449  22.705  27.185  1.00  0.00    -0.256 NA
ATOM     89  C   UNL A   1      34.747  22.522  26.755  1.00  0.00     0.029 A 
ATOM     90  C   UNL A   1      35.904  24.074  25.319  1.00  0.00     0.001 A 
ATOM     91  C   UNL A   1      35.907  22.935  26.102  1.00  0.00     0.002 A 
ENDBRANCH  81  82
ENDBRANCH  74  81
ENDBRANCH  72  74
ENDBRANCH  71  72
ENDBRANCH  70  71
ENDBRANCH   1  70
TORSDOF 16
ENDMDL
