MODEL 1
REMARK VINA RESULT:     -11.5      0.000      0.000
REMARK SMILES COc1c(C)cc([C@H](C(=O)OCCOC(=O)c2ccc(-c3c4nc(c(-c5cccc(S(=O)(=O)[O-])c5F)c5ccc([nH]5)c(-c5cccc(S(=O)(=O)[O-])c5F)c5nc(c(-c6cccc(S(=O)(=O)[O-])c6F)c6ccc3[nH]6)C=C5)C=C4)cc2)[N@@H+](C)CCN2CCCCC2=O)cc1C
REMARK SMILES IDX 12 1 11 2 9 3 10 4 8 5 7 6 3 7 4 8 92 9 5 10 6 11 91 12
REMARK SMILES IDX 93 13 2 14 1 15 80 16 81 17 82 19 83 20 84 21 85 22 89 23
REMARK SMILES IDX 86 24 88 25 90 26 87 27 13 28 14 29 15 30 16 31 17 32 18 33
REMARK SMILES IDX 79 34 19 35 78 36 20 37 21 38 22 39 72 40 23 41 77 42 71 43
REMARK SMILES IDX 73 44 24 45 76 46 70 47 69 48 25 50 57 51 37 52 56 53 38 54
REMARK SMILES IDX 41 55 55 56 74 57 39 58 40 59 54 61 75 62 42 63 26 64 27 65
REMARK SMILES IDX 35 66 28 67 30 68 36 69 29 70 31 71 32 72 33 73 34 74 58 75
REMARK SMILES IDX 59 76 67 77 60 78 62 79 68 80 61 81 63 82 64 83 65 84 66 85
REMARK SMILES IDX 43 86 44 87 52 88 45 89 47 90 53 91 46 92 48 93 49 94 50 95
REMARK SMILES IDX 51 96
REMARK H PARENT 80 18 73 49 41 60
REMARK Flexibility Score: inf
ROOT
ATOM      1  C   UNL A   1      35.573  21.559  25.962  1.00  0.00     0.274 C 
ENDROOT
BRANCH   1   2
ATOM      2  O   UNL A   1      35.245  22.861  25.380  1.00  0.00    -0.457 OA
BRANCH   2   3
ATOM      3  C   UNL A   1      34.756  22.967  24.098  1.00  0.00     0.370 C 
ATOM      4  O   UNL A   1      35.452  23.341  23.158  1.00  0.00    -0.245 OA
BRANCH   3   5
ATOM      5  C   UNL A   1      33.206  22.708  23.965  1.00  0.00     0.326 C 
BRANCH   5   6
ATOM      6  C   UNL A   1      32.626  21.292  23.750  1.00  0.00     0.022 A 
ATOM      7  C   UNL A   1      32.424  18.483  23.511  1.00  0.00     0.124 A 
ATOM      8  C   UNL A   1      32.529  19.055  24.774  1.00  0.00    -0.008 A 
ATOM      9  C   UNL A   1      32.207  19.300  22.390  1.00  0.00    -0.008 A 
ATOM     10  C   UNL A   1      32.756  18.257  26.024  1.00  0.00     0.048 C 
ATOM     11  C   UNL A   1      32.520  20.452  24.875  1.00  0.00     0.017 A 
ATOM     12  C   UNL A   1      32.288  20.709  22.527  1.00  0.00     0.017 A 
ATOM     13  C   UNL A   1      32.006  18.680  21.038  1.00  0.00     0.048 C 
BRANCH   7  14
ATOM     14  O   UNL A   1      32.786  17.172  23.351  1.00  0.00    -0.496 OA
ATOM     15  C   UNL A   1      34.183  16.961  23.215  1.00  0.00     0.278 C 
ENDBRANCH   7  14
ENDBRANCH   5   6
BRANCH   5  16
ATOM     16  N   UNL A   1      32.435  23.529  24.950  1.00  0.00    -0.320 N 
ATOM     17  C   UNL A   1      33.201  24.551  25.654  1.00  0.00     0.333 C 
ATOM     18  H   UNL A   1      32.277  22.720  25.550  1.00  0.00     0.348 HD
BRANCH  16  19
ATOM     19  C   UNL A   1      31.015  23.886  24.778  1.00  0.00     0.284 C 
BRANCH  19  20
ATOM     20  C   UNL A   1      30.374  24.595  23.544  1.00  0.00     0.180 C 
BRANCH  20  21
ATOM     21  N   UNL A   1      30.588  26.024  23.317  1.00  0.00    -0.337 N 
ATOM     22  C   UNL A   1      31.769  26.530  22.676  1.00  0.00     0.119 C 
ATOM     23  C   UNL A   1      29.563  26.939  23.558  1.00  0.00     0.222 C 
ATOM     24  C   UNL A   1      32.322  27.568  23.605  1.00  0.00     0.022 C 
ATOM     25  C   UNL A   1      29.948  28.414  23.413  1.00  0.00     0.100 C 
ATOM     26  O   UNL A   1      28.403  26.604  23.784  1.00  0.00    -0.275 OA
ATOM     27  C   UNL A   1      31.391  28.747  23.759  1.00  0.00     0.012 C 
ENDBRANCH  20  21
ENDBRANCH  19  20
ENDBRANCH  16  19
ENDBRANCH   5  16
ENDBRANCH   3   5
ENDBRANCH   2   3
ENDBRANCH   1   2
BRANCH   1  28
ATOM     28  C   UNL A   1      36.424  20.613  25.083  1.00  0.00     0.275 C 
BRANCH  28  29
ATOM     29  O   UNL A   1      37.716  21.214  24.866  1.00  0.00    -0.458 OA
BRANCH  29  30
ATOM     30  C   UNL A   1      38.729  20.916  25.721  1.00  0.00     0.338 C 
ATOM     31  O   UNL A   1      39.238  19.803  25.866  1.00  0.00    -0.246 OA
BRANCH  30  32
ATOM     32  C   UNL A   1      39.333  22.196  26.214  1.00  0.00     0.060 A 
ATOM     33  C   UNL A   1      40.382  22.135  27.134  1.00  0.00     0.016 A 
ATOM     34  C   UNL A   1      38.738  23.441  25.965  1.00  0.00     0.016 A 
ATOM     35  C   UNL A   1      40.768  23.259  27.861  1.00  0.00     0.010 A 
ATOM     36  C   UNL A   1      39.221  24.604  26.607  1.00  0.00     0.010 A 
ATOM     37  C   UNL A   1      40.253  24.528  27.558  1.00  0.00    -0.014 A 
BRANCH  37  38
ATOM     38  C   UNL A   1      40.957  25.739  28.083  1.00  0.00     0.031 A 
ATOM     39  C   UNL A   1      40.272  26.862  28.824  1.00  0.00     0.074 A 
ATOM     40  C   UNL A   1      42.287  25.828  27.850  1.00  0.00     0.049 A 
ATOM     41  N   UNL A   1      40.774  28.006  29.222  1.00  0.00    -0.248 NA
ATOM     42  C   UNL A   1      38.863  26.677  29.198  1.00  0.00     0.031 C 
ATOM     43  C   UNL A   1      43.098  24.807  27.176  1.00  0.00     0.029 A 
ATOM     44  N   UNL A   1      43.186  26.833  28.116  1.00  0.00    -0.354 N 
ATOM     45  C   UNL A   1      39.755  28.677  29.892  1.00  0.00     0.074 A 
ATOM     46  C   UNL A   1      38.602  27.800  29.864  1.00  0.00     0.031 C 
ATOM     47  C   UNL A   1      44.357  25.235  27.071  1.00  0.00     0.029 A 
ATOM     48  C   UNL A   1      44.411  26.613  27.528  1.00  0.00     0.049 A 
ATOM     49  H   UNL A   1      42.978  27.623  28.665  1.00  0.00     0.167 HD
ATOM     50  C   UNL A   1      39.777  29.910  30.459  1.00  0.00     0.034 A 
ATOM     51  C   UNL A   1      45.435  27.441  27.254  1.00  0.00     0.034 A 
ATOM     52  C   UNL A   1      40.908  30.810  30.417  1.00  0.00     0.049 A 
ATOM     53  C   UNL A   1      45.362  28.861  27.704  1.00  0.00     0.074 A 
ATOM     54  C   UNL A   1      41.015  32.084  30.953  1.00  0.00     0.029 A 
ATOM     55  N   UNL A   1      42.102  30.560  29.761  1.00  0.00    -0.354 N 
ATOM     56  N   UNL A   1      44.418  29.455  28.388  1.00  0.00    -0.248 NA
ATOM     57  C   UNL A   1      46.500  29.720  27.360  1.00  0.00     0.031 C 
ATOM     58  C   UNL A   1      42.243  32.629  30.560  1.00  0.00     0.029 A 
ATOM     59  C   UNL A   1      42.929  31.672  29.830  1.00  0.00     0.049 A 
ATOM     60  H   UNL A   1      42.332  29.715  29.310  1.00  0.00     0.167 HD
ATOM     61  C   UNL A   1      44.857  30.756  28.583  1.00  0.00     0.074 A 
ATOM     62  C   UNL A   1      46.162  30.854  27.958  1.00  0.00     0.031 C 
ATOM     63  C   UNL A   1      44.230  31.773  29.220  1.00  0.00     0.034 A 
BRANCH  50  64
ATOM     64  C   UNL A   1      38.535  30.408  31.164  1.00  0.00     0.023 A 
ATOM     65  C   UNL A   1      38.429  30.295  32.565  1.00  0.00     0.012 A 
ATOM     66  C   UNL A   1      37.539  31.113  30.454  1.00  0.00     0.148 A 
ATOM     67  C   UNL A   1      37.350  30.867  33.245  1.00  0.00     0.002 A 
ATOM     68  C   UNL A   1      36.485  31.706  31.141  1.00  0.00     0.091 A 
ATOM     69  F   UNL A   1      37.653  31.205  29.122  1.00  0.00    -0.205 F 
ATOM     70  C   UNL A   1      36.386  31.579  32.536  1.00  0.00     0.022 A 
BRANCH  68  71
ATOM     71  S   UNL A   1      35.231  32.703  30.325  1.00  0.00     0.127 S 
ATOM     72  O   UNL A   1      34.743  31.782  29.301  1.00  0.00    -0.237 OA
ATOM     73  O   UNL A   1      34.285  32.963  31.412  1.00  0.00    -0.237 OA
ATOM     74  O   UNL A   1      35.920  33.883  29.824  1.00  0.00    -0.744 OA
ENDBRANCH  68  71
ENDBRANCH  50  64
BRANCH  51  75
ATOM     75  C   UNL A   1      46.564  26.928  26.432  1.00  0.00     0.023 A 
ATOM     76  C   UNL A   1      46.581  27.151  25.045  1.00  0.00     0.012 A 
ATOM     77  C   UNL A   1      47.680  26.328  27.052  1.00  0.00     0.148 A 
ATOM     78  C   UNL A   1      47.697  26.789  24.290  1.00  0.00     0.002 A 
ATOM     79  C   UNL A   1      48.815  26.042  26.309  1.00  0.00     0.091 A 
ATOM     80  F   UNL A   1      47.629  26.103  28.374  1.00  0.00    -0.205 F 
ATOM     81  C   UNL A   1      48.820  26.257  24.923  1.00  0.00     0.022 A 
BRANCH  79  82
ATOM     82  S   UNL A   1      50.360  25.542  27.080  1.00  0.00     0.127 S 
ATOM     83  O   UNL A   1      49.986  24.276  27.703  1.00  0.00    -0.237 OA
ATOM     84  O   UNL A   1      51.251  25.423  25.926  1.00  0.00    -0.237 OA
ATOM     85  O   UNL A   1      50.710  26.622  27.992  1.00  0.00    -0.744 OA
ENDBRANCH  79  82
ENDBRANCH  51  75
BRANCH  63  86
ATOM     86  C   UNL A   1      44.970  33.080  29.304  1.00  0.00     0.023 A 
ATOM     87  C   UNL A   1      45.845  33.329  30.382  1.00  0.00     0.012 A 
ATOM     88  C   UNL A   1      44.799  34.065  28.311  1.00  0.00     0.148 A 
ATOM     89  C   UNL A   1      46.499  34.554  30.494  1.00  0.00     0.002 A 
ATOM     90  C   UNL A   1      45.495  35.263  28.402  1.00  0.00     0.091 A 
ATOM     91  F   UNL A   1      43.946  33.818  27.307  1.00  0.00    -0.205 F 
ATOM     92  C   UNL A   1      46.332  35.517  29.502  1.00  0.00     0.022 A 
BRANCH  90  93
ATOM     93  S   UNL A   1      45.407  36.528  27.131  1.00  0.00     0.127 S 
ATOM     94  O   UNL A   1      43.964  36.647  26.928  1.00  0.00    -0.237 OA
ATOM     95  O   UNL A   1      46.027  37.675  27.793  1.00  0.00    -0.237 OA
ATOM     96  O   UNL A   1      46.156  36.008  25.994  1.00  0.00    -0.744 OA
ENDBRANCH  90  93
ENDBRANCH  63  86
ENDBRANCH  37  38
ENDBRANCH  30  32
ENDBRANCH  29  30
ENDBRANCH  28  29
ENDBRANCH   1  28
TORSDOF 20
ENDMDL
MODEL 2
REMARK VINA RESULT:     -11.0      1.847      4.464
REMARK SMILES COc1c(C)cc([C@H](C(=O)OCCOC(=O)c2ccc(-c3c4nc(c(-c5cccc(S(=O)(=O)[O-])c5F)c5ccc([nH]5)c(-c5cccc(S(=O)(=O)[O-])c5F)c5nc(c(-c6cccc(S(=O)(=O)[O-])c6F)c6ccc3[nH]6)C=C5)C=C4)cc2)[N@@H+](C)CCN2CCCCC2=O)cc1C
REMARK SMILES IDX 12 1 11 2 9 3 10 4 8 5 7 6 3 7 4 8 92 9 5 10 6 11 91 12
REMARK SMILES IDX 93 13 2 14 1 15 80 16 81 17 82 19 83 20 84 21 85 22 89 23
REMARK SMILES IDX 86 24 88 25 90 26 87 27 13 28 14 29 15 30 16 31 17 32 18 33
REMARK SMILES IDX 79 34 19 35 78 36 20 37 21 38 22 39 72 40 23 41 77 42 71 43
REMARK SMILES IDX 73 44 24 45 76 46 70 47 69 48 25 50 57 51 37 52 56 53 38 54
REMARK SMILES IDX 41 55 55 56 74 57 39 58 40 59 54 61 75 62 42 63 26 64 27 65
REMARK SMILES IDX 35 66 28 67 30 68 36 69 29 70 31 71 32 72 33 73 34 74 58 75
REMARK SMILES IDX 59 76 67 77 60 78 62 79 68 80 61 81 63 82 64 83 65 84 66 85
REMARK SMILES IDX 43 86 44 87 52 88 45 89 47 90 53 91 46 92 48 93 49 94 50 95
REMARK SMILES IDX 51 96
REMARK H PARENT 80 18 73 49 41 60
REMARK Flexibility Score: inf
ROOT
ATOM      1  C   UNL A   1      36.630  22.471  25.674  1.00  0.00     0.274 C 
ENDROOT
BRANCH   1   2
ATOM      2  O   UNL A   1      36.344  23.616  24.808  1.00  0.00    -0.457 OA
BRANCH   2   3
ATOM      3  C   UNL A   1      35.461  23.512  23.757  1.00  0.00     0.370 C 
ATOM      4  O   UNL A   1      35.804  23.109  22.650  1.00  0.00    -0.245 OA
BRANCH   3   5
ATOM      5  C   UNL A   1      34.022  24.084  24.053  1.00  0.00     0.326 C 
BRANCH   5   6
ATOM      6  C   UNL A   1      33.788  25.565  24.424  1.00  0.00     0.022 A 
ATOM      7  C   UNL A   1      32.517  28.048  24.884  1.00  0.00     0.124 A 
ATOM      8  C   UNL A   1      32.363  27.020  25.808  1.00  0.00    -0.008 A 
ATOM      9  C   UNL A   1      33.460  27.923  23.851  1.00  0.00    -0.008 A 
ATOM     10  C   UNL A   1      31.384  27.073  26.943  1.00  0.00     0.048 C 
ATOM     11  C   UNL A   1      33.087  25.837  25.615  1.00  0.00     0.017 A 
ATOM     12  C   UNL A   1      34.109  26.679  23.645  1.00  0.00     0.017 A 
ATOM     13  C   UNL A   1      33.691  29.065  22.904  1.00  0.00     0.048 C 
BRANCH   7  14
ATOM     14  O   UNL A   1      31.578  29.044  24.846  1.00  0.00    -0.496 OA
ATOM     15  C   UNL A   1      31.849  30.139  25.707  1.00  0.00     0.278 C 
ENDBRANCH   7  14
ENDBRANCH   5   6
BRANCH   5  16
ATOM     16  N   UNL A   1      33.016  23.540  23.089  1.00  0.00    -0.320 N 
ATOM     17  C   UNL A   1      32.887  24.273  21.835  1.00  0.00     0.333 C 
ATOM     18  H   UNL A   1      32.245  23.763  23.717  1.00  0.00     0.348 HD
BRANCH  16  19
ATOM     19  C   UNL A   1      32.708  22.105  22.954  1.00  0.00     0.284 C 
BRANCH  19  20
ATOM     20  C   UNL A   1      32.318  21.123  24.103  1.00  0.00     0.180 C 
BRANCH  20  21
ATOM     21  N   UNL A   1      32.715  19.717  24.043  1.00  0.00    -0.337 N 
ATOM     22  C   UNL A   1      33.194  19.005  25.195  1.00  0.00     0.119 C 
ATOM     23  C   UNL A   1      32.473  18.962  22.895  1.00  0.00     0.222 C 
ATOM     24  C   UNL A   1      34.505  18.404  24.784  1.00  0.00     0.022 C 
ATOM     25  C   UNL A   1      33.054  17.546  22.902  1.00  0.00     0.100 C 
ATOM     26  O   UNL A   1      31.770  19.357  21.968  1.00  0.00    -0.275 OA
ATOM     27  C   UNL A   1      34.341  17.374  23.694  1.00  0.00     0.012 C 
ENDBRANCH  20  21
ENDBRANCH  19  20
ENDBRANCH  16  19
ENDBRANCH   5  16
ENDBRANCH   3   5
ENDBRANCH   2   3
ENDBRANCH   1   2
BRANCH   1  28
ATOM     28  C   UNL A   1      37.879  21.633  25.308  1.00  0.00     0.275 C 
BRANCH  28  29
ATOM     29  O   UNL A   1      38.743  21.557  26.459  1.00  0.00    -0.458 OA
BRANCH  29  30
ATOM     30  C   UNL A   1      40.080  21.720  26.286  1.00  0.00     0.338 C 
ATOM     31  O   UNL A   1      40.811  20.981  25.623  1.00  0.00    -0.246 OA
BRANCH  30  32
ATOM     32  C   UNL A   1      40.461  23.093  26.753  1.00  0.00     0.060 A 
ATOM     33  C   UNL A   1      41.187  23.224  27.939  1.00  0.00     0.016 A 
ATOM     34  C   UNL A   1      39.922  24.250  26.172  1.00  0.00     0.016 A 
ATOM     35  C   UNL A   1      41.295  24.454  28.584  1.00  0.00     0.010 A 
ATOM     36  C   UNL A   1      40.147  25.515  26.759  1.00  0.00     0.010 A 
ATOM     37  C   UNL A   1      40.848  25.633  27.971  1.00  0.00    -0.014 A 
BRANCH  37  38
ATOM     38  C   UNL A   1      41.317  26.950  28.507  1.00  0.00     0.031 A 
ATOM     39  C   UNL A   1      40.401  28.007  29.074  1.00  0.00     0.074 A 
ATOM     40  C   UNL A   1      42.646  27.200  28.451  1.00  0.00     0.049 A 
ATOM     41  N   UNL A   1      40.698  29.225  29.462  1.00  0.00    -0.248 NA
ATOM     42  C   UNL A   1      38.986  27.658  29.266  1.00  0.00     0.031 C 
ATOM     43  C   UNL A   1      43.663  26.263  27.960  1.00  0.00     0.029 A 
ATOM     44  N   UNL A   1      43.368  28.325  28.769  1.00  0.00    -0.354 N 
ATOM     45  C   UNL A   1      39.519  29.787  29.943  1.00  0.00     0.074 A 
ATOM     46  C   UNL A   1      38.499  28.767  29.817  1.00  0.00     0.031 C 
ATOM     47  C   UNL A   1      44.862  26.845  27.998  1.00  0.00     0.029 A 
ATOM     48  C   UNL A   1      44.681  28.239  28.367  1.00  0.00     0.049 A 
ATOM     49  H   UNL A   1      42.989  29.106  29.233  1.00  0.00     0.167 HD
ATOM     50  C   UNL A   1      39.309  31.038  30.427  1.00  0.00     0.034 A 
ATOM     51  C   UNL A   1      45.625  29.180  28.182  1.00  0.00     0.034 A 
ATOM     52  C   UNL A   1      40.316  32.075  30.479  1.00  0.00     0.049 A 
ATOM     53  C   UNL A   1      45.315  30.598  28.524  1.00  0.00     0.074 A 
ATOM     54  C   UNL A   1      40.189  33.376  30.942  1.00  0.00     0.029 A 
ATOM     55  N   UNL A   1      41.613  31.952  30.008  1.00  0.00    -0.354 N 
ATOM     56  N   UNL A   1      44.218  31.095  29.035  1.00  0.00    -0.248 NA
ATOM     57  C   UNL A   1      46.376  31.580  28.282  1.00  0.00     0.031 C 
ATOM     58  C   UNL A   1      41.384  34.057  30.684  1.00  0.00     0.029 A 
ATOM     59  C   UNL A   1      42.279  33.165  30.116  1.00  0.00     0.049 A 
ATOM     60  H   UNL A   1      42.006  31.124  29.649  1.00  0.00     0.167 HD
ATOM     61  C   UNL A   1      44.462  32.450  29.203  1.00  0.00     0.074 A 
ATOM     62  C   UNL A   1      45.821  32.688  28.754  1.00  0.00     0.031 C 
ATOM     63  C   UNL A   1      43.632  33.405  29.682  1.00  0.00     0.034 A 
BRANCH  50  64
ATOM     64  C   UNL A   1      37.929  31.403  30.925  1.00  0.00     0.023 A 
ATOM     65  C   UNL A   1      37.592  31.199  32.278  1.00  0.00     0.012 A 
ATOM     66  C   UNL A   1      37.016  32.076  30.084  1.00  0.00     0.148 A 
ATOM     67  C   UNL A   1      36.370  31.650  32.783  1.00  0.00     0.002 A 
ATOM     68  C   UNL A   1      35.814  32.550  30.601  1.00  0.00     0.091 A 
ATOM     69  F   UNL A   1      37.350  32.256  28.798  1.00  0.00    -0.205 F 
ATOM     70  C   UNL A   1      35.487  32.333  31.949  1.00  0.00     0.022 A 
BRANCH  68  71
ATOM     71  S   UNL A   1      34.643  33.502  29.624  1.00  0.00     0.127 S 
ATOM     72  O   UNL A   1      35.524  34.465  28.965  1.00  0.00    -0.237 OA
ATOM     73  O   UNL A   1      34.080  32.484  28.735  1.00  0.00    -0.237 OA
ATOM     74  O   UNL A   1      33.697  34.071  30.572  1.00  0.00    -0.744 OA
ENDBRANCH  68  71
ENDBRANCH  50  64
BRANCH  51  75
ATOM     75  C   UNL A   1      46.913  28.780  27.554  1.00  0.00     0.023 A 
ATOM     76  C   UNL A   1      48.055  28.594  28.349  1.00  0.00     0.012 A 
ATOM     77  C   UNL A   1      46.966  28.463  26.179  1.00  0.00     0.148 A 
ATOM     78  C   UNL A   1      49.229  28.093  27.787  1.00  0.00     0.002 A 
ATOM     79  C   UNL A   1      48.111  27.893  25.644  1.00  0.00     0.091 A 
ATOM     80  F   UNL A   1      45.869  28.672  25.435  1.00  0.00    -0.205 F 
ATOM     81  C   UNL A   1      49.251  27.721  26.443  1.00  0.00     0.022 A 
BRANCH  79  82
ATOM     82  S   UNL A   1      48.148  27.212  23.981  1.00  0.00     0.127 S 
ATOM     83  O   UNL A   1      49.544  26.799  23.859  1.00  0.00    -0.237 OA
ATOM     84  O   UNL A   1      47.187  26.113  24.080  1.00  0.00    -0.237 OA
ATOM     85  O   UNL A   1      47.726  28.294  23.104  1.00  0.00    -0.744 OA
ENDBRANCH  79  82
ENDBRANCH  51  75
BRANCH  63  86
ATOM     86  C   UNL A   1      44.186  34.800  29.780  1.00  0.00     0.023 A 
ATOM     87  C   UNL A   1      44.750  35.253  30.991  1.00  0.00     0.012 A 
ATOM     88  C   UNL A   1      44.150  35.665  28.668  1.00  0.00     0.148 A 
ATOM     89  C   UNL A   1      45.224  36.558  31.107  1.00  0.00     0.002 A 
ATOM     90  C   UNL A   1      44.671  36.948  28.776  1.00  0.00     0.091 A 
ATOM     91  F   UNL A   1      43.589  35.224  27.534  1.00  0.00    -0.205 F 
ATOM     92  C   UNL A   1      45.193  37.402  29.999  1.00  0.00     0.022 A 
BRANCH  90  93
ATOM     93  S   UNL A   1      44.751  38.076  27.382  1.00  0.00     0.127 S 
ATOM     94  O   UNL A   1      45.620  37.348  26.459  1.00  0.00    -0.237 OA
ATOM     95  O   UNL A   1      43.350  38.155  26.968  1.00  0.00    -0.237 OA
ATOM     96  O   UNL A   1      45.299  39.321  27.903  1.00  0.00    -0.744 OA
ENDBRANCH  90  93
ENDBRANCH  63  86
ENDBRANCH  37  38
ENDBRANCH  30  32
ENDBRANCH  29  30
ENDBRANCH  28  29
ENDBRANCH   1  28
TORSDOF 20
ENDMDL
MODEL 3
REMARK VINA RESULT:     -10.8      2.306      4.963
REMARK SMILES COc1c(C)cc([C@H](C(=O)OCCOC(=O)c2ccc(-c3c4nc(c(-c5cccc(S(=O)(=O)[O-])c5F)c5ccc([nH]5)c(-c5cccc(S(=O)(=O)[O-])c5F)c5nc(c(-c6cccc(S(=O)(=O)[O-])c6F)c6ccc3[nH]6)C=C5)C=C4)cc2)[N@@H+](C)CCN2CCCCC2=O)cc1C
REMARK SMILES IDX 12 1 11 2 9 3 10 4 8 5 7 6 3 7 4 8 92 9 5 10 6 11 91 12
REMARK SMILES IDX 93 13 2 14 1 15 80 16 81 17 82 19 83 20 84 21 85 22 89 23
REMARK SMILES IDX 86 24 88 25 90 26 87 27 13 28 14 29 15 30 16 31 17 32 18 33
REMARK SMILES IDX 79 34 19 35 78 36 20 37 21 38 22 39 72 40 23 41 77 42 71 43
REMARK SMILES IDX 73 44 24 45 76 46 70 47 69 48 25 50 57 51 37 52 56 53 38 54
REMARK SMILES IDX 41 55 55 56 74 57 39 58 40 59 54 61 75 62 42 63 26 64 27 65
REMARK SMILES IDX 35 66 28 67 30 68 36 69 29 70 31 71 32 72 33 73 34 74 58 75
REMARK SMILES IDX 59 76 67 77 60 78 62 79 68 80 61 81 63 82 64 83 65 84 66 85
REMARK SMILES IDX 43 86 44 87 52 88 45 89 47 90 53 91 46 92 48 93 49 94 50 95
REMARK SMILES IDX 51 96
REMARK H PARENT 80 18 73 49 41 60
REMARK Flexibility Score: inf
ROOT
ATOM      1  C   UNL A   1      36.751  23.214  25.776  1.00  0.00     0.274 C 
ENDROOT
BRANCH   1   2
ATOM      2  O   UNL A   1      36.188  24.043  24.710  1.00  0.00    -0.457 OA
BRANCH   2   3
ATOM      3  C   UNL A   1      35.190  23.569  23.888  1.00  0.00     0.370 C 
ATOM      4  O   UNL A   1      35.429  23.006  22.824  1.00  0.00    -0.245 OA
BRANCH   3   5
ATOM      5  C   UNL A   1      33.729  23.931  24.357  1.00  0.00     0.326 C 
BRANCH   5   6
ATOM      6  C   UNL A   1      33.201  25.383  24.346  1.00  0.00     0.022 A 
ATOM      7  C   UNL A   1      32.087  27.840  25.191  1.00  0.00     0.124 A 
ATOM      8  C   UNL A   1      33.401  27.533  25.528  1.00  0.00    -0.008 A 
ATOM      9  C   UNL A   1      31.398  27.038  24.267  1.00  0.00    -0.008 A 
ATOM     10  C   UNL A   1      34.211  28.338  26.501  1.00  0.00     0.048 C 
ATOM     11  C   UNL A   1      33.966  26.362  25.009  1.00  0.00     0.017 A 
ATOM     12  C   UNL A   1      31.978  25.819  23.832  1.00  0.00     0.017 A 
ATOM     13  C   UNL A   1      30.011  27.415  23.835  1.00  0.00     0.048 C 
BRANCH   7  14
ATOM     14  O   UNL A   1      31.411  28.757  25.950  1.00  0.00    -0.496 OA
ATOM     15  C   UNL A   1      31.416  30.074  25.421  1.00  0.00     0.278 C 
ENDBRANCH   7  14
ENDBRANCH   5   6
BRANCH   5  16
ATOM     16  N   UNL A   1      32.738  22.927  23.860  1.00  0.00    -0.320 N 
ATOM     17  C   UNL A   1      32.876  22.547  22.459  1.00  0.00     0.333 C 
ATOM     18  H   UNL A   1      31.965  23.582  23.981  1.00  0.00     0.348 HD
BRANCH  16  19
ATOM     19  C   UNL A   1      32.175  21.853  24.699  1.00  0.00     0.284 C 
BRANCH  19  20
ATOM     20  C   UNL A   1      32.974  20.846  25.584  1.00  0.00     0.180 C 
BRANCH  20  21
ATOM     21  N   UNL A   1      33.315  19.518  25.073  1.00  0.00    -0.337 N 
ATOM     22  C   UNL A   1      32.313  18.563  24.692  1.00  0.00     0.119 C 
ATOM     23  C   UNL A   1      34.638  19.195  24.770  1.00  0.00     0.222 C 
ATOM     24  C   UNL A   1      32.639  17.309  25.447  1.00  0.00     0.022 C 
ATOM     25  C   UNL A   1      34.887  17.738  24.373  1.00  0.00     0.100 C 
ATOM     26  O   UNL A   1      35.540  20.028  24.731  1.00  0.00    -0.275 OA
ATOM     27  C   UNL A   1      33.963  16.720  25.024  1.00  0.00     0.012 C 
ENDBRANCH  20  21
ENDBRANCH  19  20
ENDBRANCH  16  19
ENDBRANCH   5  16
ENDBRANCH   3   5
ENDBRANCH   2   3
ENDBRANCH   1   2
BRANCH   1  28
ATOM     28  C   UNL A   1      37.973  22.346  25.393  1.00  0.00     0.275 C 
BRANCH  28  29
ATOM     29  O   UNL A   1      38.828  22.210  26.546  1.00  0.00    -0.458 OA
BRANCH  29  30
ATOM     30  C   UNL A   1      40.159  22.443  26.406  1.00  0.00     0.338 C 
ATOM     31  O   UNL A   1      40.942  21.746  25.758  1.00  0.00    -0.246 OA
BRANCH  30  32
ATOM     32  C   UNL A   1      40.456  23.831  26.888  1.00  0.00     0.060 A 
ATOM     33  C   UNL A   1      40.492  24.074  28.263  1.00  0.00     0.016 A 
ATOM     34  C   UNL A   1      40.471  24.930  26.018  1.00  0.00     0.016 A 
ATOM     35  C   UNL A   1      40.445  25.372  28.766  1.00  0.00     0.010 A 
ATOM     36  C   UNL A   1      40.558  26.244  26.530  1.00  0.00     0.010 A 
ATOM     37  C   UNL A   1      40.557  26.481  27.915  1.00  0.00    -0.014 A 
BRANCH  37  38
ATOM     38  C   UNL A   1      40.886  27.816  28.506  1.00  0.00     0.031 A 
ATOM     39  C   UNL A   1      39.852  28.830  28.933  1.00  0.00     0.074 A 
ATOM     40  C   UNL A   1      42.196  28.127  28.637  1.00  0.00     0.049 A 
ATOM     41  N   UNL A   1      40.035  30.059  29.353  1.00  0.00    -0.248 NA
ATOM     42  C   UNL A   1      38.441  28.417  28.924  1.00  0.00     0.031 C 
ATOM     43  C   UNL A   1      43.314  27.237  28.300  1.00  0.00     0.029 A 
ATOM     44  N   UNL A   1      42.815  29.282  29.051  1.00  0.00    -0.354 N 
ATOM     45  C   UNL A   1      38.776  30.567  29.660  1.00  0.00     0.074 A 
ATOM     46  C   UNL A   1      37.831  29.502  29.394  1.00  0.00     0.031 C 
ATOM     47  C   UNL A   1      44.468  27.873  28.506  1.00  0.00     0.029 A 
ATOM     48  C   UNL A   1      44.174  29.256  28.840  1.00  0.00     0.049 A 
ATOM     49  H   UNL A   1      42.338  30.044  29.453  1.00  0.00     0.167 HD
ATOM     50  C   UNL A   1      38.443  31.806  30.104  1.00  0.00     0.034 A 
ATOM     51  C   UNL A   1      45.091  30.239  28.785  1.00  0.00     0.034 A 
ATOM     52  C   UNL A   1      39.385  32.887  30.294  1.00  0.00     0.049 A 
ATOM     53  C   UNL A   1      44.673  31.641  29.074  1.00  0.00     0.074 A 
ATOM     54  C   UNL A   1      39.135  34.180  30.727  1.00  0.00     0.029 A 
ATOM     55  N   UNL A   1      40.740  32.824  30.012  1.00  0.00    -0.354 N 
ATOM     56  N   UNL A   1      43.492  32.087  29.422  1.00  0.00    -0.248 NA
ATOM     57  C   UNL A   1      45.712  32.671  28.981  1.00  0.00     0.031 C 
ATOM     58  C   UNL A   1      40.323  34.915  30.639  1.00  0.00     0.029 A 
ATOM     59  C   UNL A   1      41.328  34.065  30.207  1.00  0.00     0.049 A 
ATOM     60  H   UNL A   1      41.217  32.015  29.715  1.00  0.00     0.167 HD
ATOM     61  C   UNL A   1      43.650  33.451  29.617  1.00  0.00     0.074 A 
ATOM     62  C   UNL A   1      45.046  33.751  29.364  1.00  0.00     0.031 C 
ATOM     63  C   UNL A   1      42.717  34.367  29.969  1.00  0.00     0.034 A 
BRANCH  50  64
ATOM     64  C   UNL A   1      36.991  32.107  30.398  1.00  0.00     0.023 A 
ATOM     65  C   UNL A   1      36.470  31.864  31.685  1.00  0.00     0.012 A 
ATOM     66  C   UNL A   1      36.184  32.760  29.442  1.00  0.00     0.148 A 
ATOM     67  C   UNL A   1      35.169  32.257  32.012  1.00  0.00     0.002 A 
ATOM     68  C   UNL A   1      34.901  33.176  29.784  1.00  0.00     0.091 A 
ATOM     69  F   UNL A   1      36.693  32.977  28.221  1.00  0.00    -0.205 F 
ATOM     70  C   UNL A   1      34.390  32.921  31.066  1.00  0.00     0.022 A 
BRANCH  68  71
ATOM     71  S   UNL A   1      33.846  34.100  28.658  1.00  0.00     0.127 S 
ATOM     72  O   UNL A   1      32.812  34.596  29.565  1.00  0.00    -0.237 OA
ATOM     73  O   UNL A   1      34.757  35.128  28.152  1.00  0.00    -0.237 OA
ATOM     74  O   UNL A   1      33.392  33.145  27.658  1.00  0.00    -0.744 OA
ENDBRANCH  68  71
ENDBRANCH  50  64
BRANCH  51  75
ATOM     75  C   UNL A   1      46.472  29.899  28.348  1.00  0.00     0.023 A 
ATOM     76  C   UNL A   1      46.814  29.963  26.988  1.00  0.00     0.012 A 
ATOM     77  C   UNL A   1      47.476  29.635  29.305  1.00  0.00     0.148 A 
ATOM     78  C   UNL A   1      48.138  29.774  26.587  1.00  0.00     0.002 A 
ATOM     79  C   UNL A   1      48.799  29.525  28.908  1.00  0.00     0.091 A 
ATOM     80  F   UNL A   1      47.119  29.555  30.596  1.00  0.00    -0.205 F 
ATOM     81  C   UNL A   1      49.132  29.578  27.546  1.00  0.00     0.022 A 
BRANCH  79  82
ATOM     82  S   UNL A   1      50.149  29.470  30.093  1.00  0.00     0.127 S 
ATOM     83  O   UNL A   1      49.939  30.706  30.843  1.00  0.00    -0.237 OA
ATOM     84  O   UNL A   1      49.854  28.243  30.833  1.00  0.00    -0.237 OA
ATOM     85  O   UNL A   1      51.367  29.407  29.298  1.00  0.00    -0.744 OA
ENDBRANCH  79  82
ENDBRANCH  51  75
BRANCH  63  86
ATOM     86  C   UNL A   1      43.189  35.786  30.138  1.00  0.00     0.023 A 
ATOM     87  C   UNL A   1      43.768  36.196  31.356  1.00  0.00     0.012 A 
ATOM     88  C   UNL A   1      43.059  36.714  29.087  1.00  0.00     0.148 A 
ATOM     89  C   UNL A   1      44.165  37.520  31.541  1.00  0.00     0.002 A 
ATOM     90  C   UNL A   1      43.505  38.018  29.260  1.00  0.00     0.091 A 
ATOM     91  F   UNL A   1      42.484  36.310  27.945  1.00  0.00    -0.205 F 
ATOM     92  C   UNL A   1      44.043  38.427  30.492  1.00  0.00     0.022 A 
BRANCH  90  93
ATOM     93  S   UNL A   1      43.464  39.234  27.939  1.00  0.00     0.127 S 
ATOM     94  O   UNL A   1      44.162  40.363  28.552  1.00  0.00    -0.237 OA
ATOM     95  O   UNL A   1      44.208  38.560  26.876  1.00  0.00    -0.237 OA
ATOM     96  O   UNL A   1      42.055  39.458  27.642  1.00  0.00    -0.744 OA
ENDBRANCH  90  93
ENDBRANCH  63  86
ENDBRANCH  37  38
ENDBRANCH  30  32
ENDBRANCH  29  30
ENDBRANCH  28  29
ENDBRANCH   1  28
TORSDOF 20
ENDMDL
