MODEL 1
REMARK VINA RESULT:     -11.4      0.000      0.000
REMARK SMILES CC[C@@H](C)N(C)S(=O)(=O)c1cc(C(=O)OCCOC(=O)c2ccc(-c3c4nc(c(-c5cccc(S(=O)(=O)[O-])c5F)c5ccc([nH]5)c(-c5cccc(S(=O)(=O)[O-])c5F)c5nc(c(-c6cccc(S(=O)(=O)[O-])c6F)c6ccc3[nH]6)C=C5)C=C4)cc2)c(C)cc1C
REMARK SMILES IDX 16 1 15 2 13 3 14 4 12 5 10 6 11 7 87 8 86 9 88 10 84 11
REMARK SMILES IDX 85 12 7 13 8 14 9 15 5 16 6 17 3 18 4 19 2 20 1 21 17 22
REMARK SMILES IDX 18 23 19 24 20 25 21 26 22 27 83 28 23 29 82 30 24 31 25 32
REMARK SMILES IDX 26 33 76 34 27 35 81 36 75 37 77 38 28 39 80 40 74 41 73 42
REMARK SMILES IDX 29 44 61 45 41 46 60 47 42 48 45 49 59 50 78 51 43 52 44 53
REMARK SMILES IDX 58 55 79 56 46 57 30 58 31 59 39 60 32 61 34 62 40 63 33 64
REMARK SMILES IDX 35 65 36 66 37 67 38 68 62 69 63 70 71 71 64 72 66 73 72 74
REMARK SMILES IDX 65 75 67 76 68 77 69 78 70 79 47 80 48 81 56 82 49 83 51 84
REMARK SMILES IDX 57 85 50 86 52 87 53 88 54 89 55 90
REMARK H PARENT 77 43 45 54
REMARK Flexibility Score: inf
ROOT
ATOM      1  C   UNL A   1      31.785  28.571  27.432  1.00  0.00     0.275 C 
ENDROOT
BRANCH   1   2
ATOM      2  O   UNL A   1      32.472  27.381  26.989  1.00  0.00    -0.458 OA
BRANCH   2   3
ATOM      3  C   UNL A   1      31.768  26.546  26.188  1.00  0.00     0.338 C 
ATOM      4  O   UNL A   1      30.554  26.495  26.076  1.00  0.00    -0.246 OA
BRANCH   3   5
ATOM      5  C   UNL A   1      32.662  25.693  25.365  1.00  0.00     0.064 A 
ATOM      6  C   UNL A   1      33.794  23.528  25.215  1.00  0.00     0.086 A 
ATOM      7  C   UNL A   1      32.859  24.371  25.815  1.00  0.00     0.038 A 
ATOM      8  C   UNL A   1      34.507  23.984  24.089  1.00  0.00    -0.031 A 
ATOM      9  C   UNL A   1      34.296  25.303  23.640  1.00  0.00     0.009 A 
ATOM     10  C   UNL A   1      35.538  23.157  23.368  1.00  0.00     0.046 C 
ATOM     11  C   UNL A   1      33.393  26.177  24.270  1.00  0.00    -0.036 A 
ATOM     12  C   UNL A   1      33.324  27.585  23.746  1.00  0.00     0.045 C 
BRANCH   6  13
ATOM     13  S   UNL A   1      34.091  21.867  25.836  1.00  0.00     0.243 S 
ATOM     14  O   UNL A   1      33.127  21.665  26.902  1.00  0.00    -0.207 OA
ATOM     15  O   UNL A   1      35.514  21.842  26.094  1.00  0.00    -0.207 OA
BRANCH  13  16
ATOM     16  N   UNL A   1      33.727  20.713  24.605  1.00  0.00    -0.198 NA
ATOM     17  C   UNL A   1      32.447  20.959  23.867  1.00  0.00     0.124 C 
BRANCH  16  18
ATOM     18  C   UNL A   1      33.784  19.228  25.029  1.00  0.00     0.069 C 
ATOM     19  C   UNL A   1      35.074  18.544  24.563  1.00  0.00     0.026 C 
BRANCH  18  20
ATOM     20  C   UNL A   1      32.531  18.430  24.623  1.00  0.00     0.016 C 
ATOM     21  C   UNL A   1      32.395  17.096  25.354  1.00  0.00     0.005 C 
ENDBRANCH  18  20
ENDBRANCH  16  18
ENDBRANCH  13  16
ENDBRANCH   6  13
ENDBRANCH   3   5
ENDBRANCH   2   3
ENDBRANCH   1   2
BRANCH   1  22
ATOM     22  C   UNL A   1      31.806  29.641  26.344  1.00  0.00     0.275 C 
BRANCH  22  23
ATOM     23  O   UNL A   1      33.145  30.139  26.198  1.00  0.00    -0.458 OA
BRANCH  23  24
ATOM     24  C   UNL A   1      33.498  31.118  27.061  1.00  0.00     0.338 C 
ATOM     25  O   UNL A   1      32.807  32.031  27.476  1.00  0.00    -0.246 OA
BRANCH  24  26
ATOM     26  C   UNL A   1      34.862  30.860  27.540  1.00  0.00     0.060 A 
ATOM     27  C   UNL A   1      35.226  29.541  27.781  1.00  0.00     0.016 A 
ATOM     28  C   UNL A   1      35.719  31.898  27.887  1.00  0.00     0.016 A 
ATOM     29  C   UNL A   1      36.390  29.256  28.486  1.00  0.00     0.010 A 
ATOM     30  C   UNL A   1      36.951  31.599  28.485  1.00  0.00     0.010 A 
ATOM     31  C   UNL A   1      37.283  30.276  28.838  1.00  0.00    -0.014 A 
BRANCH  31  32
ATOM     32  C   UNL A   1      38.525  29.957  29.605  1.00  0.00     0.031 A 
ATOM     33  C   UNL A   1      39.567  29.034  29.020  1.00  0.00     0.074 A 
ATOM     34  C   UNL A   1      38.749  30.507  30.817  1.00  0.00     0.049 A 
ATOM     35  N   UNL A   1      40.622  28.509  29.591  1.00  0.00    -0.248 NA
ATOM     36  C   UNL A   1      39.395  28.640  27.613  1.00  0.00     0.031 C 
ATOM     37  C   UNL A   1      37.857  31.447  31.501  1.00  0.00     0.029 A 
ATOM     38  N   UNL A   1      39.801  30.363  31.691  1.00  0.00    -0.354 N 
ATOM     39  C   UNL A   1      41.182  27.655  28.648  1.00  0.00     0.074 A 
ATOM     40  C   UNL A   1      40.362  27.747  27.459  1.00  0.00     0.031 C 
ATOM     41  C   UNL A   1      38.417  31.826  32.659  1.00  0.00     0.029 A 
ATOM     42  C   UNL A   1      39.653  31.080  32.856  1.00  0.00     0.049 A 
ATOM     43  H   UNL A   1      40.585  29.798  31.502  1.00  0.00     0.167 HD
ATOM     44  C   UNL A   1      42.280  26.868  28.758  1.00  0.00     0.034 A 
ATOM     45  C   UNL A   1      40.395  31.103  33.983  1.00  0.00     0.034 A 
ATOM     46  C   UNL A   1      43.149  26.844  29.905  1.00  0.00     0.049 A 
ATOM     47  C   UNL A   1      41.611  30.226  34.078  1.00  0.00     0.074 A 
ATOM     48  C   UNL A   1      44.304  26.105  30.093  1.00  0.00     0.029 A 
ATOM     49  N   UNL A   1      42.970  27.602  31.051  1.00  0.00    -0.354 N 
ATOM     50  N   UNL A   1      42.133  29.440  33.169  1.00  0.00    -0.248 NA
ATOM     51  C   UNL A   1      42.341  30.242  35.354  1.00  0.00     0.031 C 
ATOM     52  C   UNL A   1      44.814  26.403  31.361  1.00  0.00     0.029 A 
ATOM     53  C   UNL A   1      43.989  27.345  31.953  1.00  0.00     0.049 A 
ATOM     54  H   UNL A   1      42.228  28.231  31.201  1.00  0.00     0.167 HD
ATOM     55  C   UNL A   1      43.259  28.876  33.758  1.00  0.00     0.074 A 
ATOM     56  C   UNL A   1      43.364  29.441  35.088  1.00  0.00     0.031 C 
ATOM     57  C   UNL A   1      44.114  27.953  33.253  1.00  0.00     0.034 A 
BRANCH  44  58
ATOM     58  C   UNL A   1      42.614  25.961  27.601  1.00  0.00     0.023 A 
ATOM     59  C   UNL A   1      43.486  26.399  26.585  1.00  0.00     0.012 A 
ATOM     60  C   UNL A   1      42.103  24.648  27.555  1.00  0.00     0.148 A 
ATOM     61  C   UNL A   1      43.817  25.555  25.523  1.00  0.00     0.002 A 
ATOM     62  C   UNL A   1      42.473  23.798  26.518  1.00  0.00     0.091 A 
ATOM     63  F   UNL A   1      41.259  24.255  28.520  1.00  0.00    -0.205 F 
ATOM     64  C   UNL A   1      43.320  24.254  25.496  1.00  0.00     0.022 A 
BRANCH  62  65
ATOM     65  S   UNL A   1      41.948  22.081  26.442  1.00  0.00     0.127 S 
ATOM     66  O   UNL A   1      40.507  22.222  26.243  1.00  0.00    -0.237 OA
ATOM     67  O   UNL A   1      42.679  21.585  25.276  1.00  0.00    -0.237 OA
ATOM     68  O   UNL A   1      42.352  21.483  27.707  1.00  0.00    -0.744 OA
ENDBRANCH  62  65
ENDBRANCH  44  58
BRANCH  45  69
ATOM     69  C   UNL A   1      39.994  31.983  35.118  1.00  0.00     0.023 A 
ATOM     70  C   UNL A   1      40.439  33.318  35.156  1.00  0.00     0.012 A 
ATOM     71  C   UNL A   1      39.142  31.516  36.139  1.00  0.00     0.148 A 
ATOM     72  C   UNL A   1      40.057  34.166  36.196  1.00  0.00     0.002 A 
ATOM     73  C   UNL A   1      38.708  32.385  37.133  1.00  0.00     0.091 A 
ATOM     74  F   UNL A   1      38.753  30.234  36.106  1.00  0.00    -0.205 F 
ATOM     75  C   UNL A   1      39.178  33.706  37.174  1.00  0.00     0.022 A 
BRANCH  73  76
ATOM     76  S   UNL A   1      37.452  31.917  38.328  1.00  0.00     0.127 S 
ATOM     77  O   UNL A   1      37.168  30.538  37.938  1.00  0.00    -0.237 OA
ATOM     78  O   UNL A   1      38.169  32.065  39.595  1.00  0.00    -0.237 OA
ATOM     79  O   UNL A   1      36.364  32.868  38.142  1.00  0.00    -0.744 OA
ENDBRANCH  73  76
ENDBRANCH  45  69
BRANCH  57  80
ATOM     80  C   UNL A   1      45.260  27.513  34.125  1.00  0.00     0.023 A 
ATOM     81  C   UNL A   1      46.483  28.212  34.078  1.00  0.00     0.012 A 
ATOM     82  C   UNL A   1      45.105  26.450  35.036  1.00  0.00     0.148 A 
ATOM     83  C   UNL A   1      47.544  27.840  34.902  1.00  0.00     0.002 A 
ATOM     84  C   UNL A   1      46.151  26.115  35.887  1.00  0.00     0.091 A 
ATOM     85  F   UNL A   1      43.941  25.784  35.051  1.00  0.00    -0.205 F 
ATOM     86  C   UNL A   1      47.375  26.800  35.814  1.00  0.00     0.022 A 
BRANCH  84  87
ATOM     87  S   UNL A   1      45.993  24.851  37.154  1.00  0.00     0.127 S 
ATOM     88  O   UNL A   1      45.784  23.647  36.351  1.00  0.00    -0.237 OA
ATOM     89  O   UNL A   1      47.291  24.918  37.826  1.00  0.00    -0.237 OA
ATOM     90  O   UNL A   1      44.864  25.255  37.982  1.00  0.00    -0.744 OA
ENDBRANCH  84  87
ENDBRANCH  57  80
ENDBRANCH  31  32
ENDBRANCH  24  26
ENDBRANCH  23  24
ENDBRANCH  22  23
ENDBRANCH   1  22
TORSDOF 18
ENDMDL
MODEL 2
REMARK VINA RESULT:     -11.2      1.255      7.703
REMARK SMILES CC[C@@H](C)N(C)S(=O)(=O)c1cc(C(=O)OCCOC(=O)c2ccc(-c3c4nc(c(-c5cccc(S(=O)(=O)[O-])c5F)c5ccc([nH]5)c(-c5cccc(S(=O)(=O)[O-])c5F)c5nc(c(-c6cccc(S(=O)(=O)[O-])c6F)c6ccc3[nH]6)C=C5)C=C4)cc2)c(C)cc1C
REMARK SMILES IDX 16 1 15 2 13 3 14 4 12 5 10 6 11 7 87 8 86 9 88 10 84 11
REMARK SMILES IDX 85 12 7 13 8 14 9 15 5 16 6 17 3 18 4 19 2 20 1 21 17 22
REMARK SMILES IDX 18 23 19 24 20 25 21 26 22 27 83 28 23 29 82 30 24 31 25 32
REMARK SMILES IDX 26 33 76 34 27 35 81 36 75 37 77 38 28 39 80 40 74 41 73 42
REMARK SMILES IDX 29 44 61 45 41 46 60 47 42 48 45 49 59 50 78 51 43 52 44 53
REMARK SMILES IDX 58 55 79 56 46 57 30 58 31 59 39 60 32 61 34 62 40 63 33 64
REMARK SMILES IDX 35 65 36 66 37 67 38 68 62 69 63 70 71 71 64 72 66 73 72 74
REMARK SMILES IDX 65 75 67 76 68 77 69 78 70 79 47 80 48 81 56 82 49 83 51 84
REMARK SMILES IDX 57 85 50 86 52 87 53 88 54 89 55 90
REMARK H PARENT 77 43 45 54
REMARK Flexibility Score: inf
ROOT
ATOM      1  C   UNL A   1      31.356  29.545  25.420  1.00  0.00     0.275 C 
ENDROOT
BRANCH   1   2
ATOM      2  O   UNL A   1      32.582  28.786  25.337  1.00  0.00    -0.458 OA
BRANCH   2   3
ATOM      3  C   UNL A   1      33.035  28.513  24.090  1.00  0.00     0.338 C 
ATOM      4  O   UNL A   1      33.602  29.286  23.335  1.00  0.00    -0.246 OA
BRANCH   3   5
ATOM      5  C   UNL A   1      32.821  27.089  23.729  1.00  0.00     0.064 A 
ATOM      6  C   UNL A   1      33.806  24.849  23.722  1.00  0.00     0.086 A 
ATOM      7  C   UNL A   1      33.819  26.181  24.136  1.00  0.00     0.038 A 
ATOM      8  C   UNL A   1      32.733  24.384  22.937  1.00  0.00    -0.031 A 
ATOM      9  C   UNL A   1      31.735  25.297  22.542  1.00  0.00     0.009 A 
ATOM     10  C   UNL A   1      32.623  22.969  22.435  1.00  0.00     0.046 C 
ATOM     11  C   UNL A   1      31.767  26.653  22.912  1.00  0.00    -0.036 A 
ATOM     12  C   UNL A   1      30.688  27.541  22.355  1.00  0.00     0.045 C 
BRANCH   6  13
ATOM     13  S   UNL A   1      35.118  23.711  24.188  1.00  0.00     0.243 S 
ATOM     14  O   UNL A   1      35.892  24.395  25.206  1.00  0.00    -0.207 OA
ATOM     15  O   UNL A   1      35.709  23.327  22.925  1.00  0.00    -0.207 OA
BRANCH  13  16
ATOM     16  N   UNL A   1      34.435  22.311  24.932  1.00  0.00    -0.198 NA
ATOM     17  C   UNL A   1      34.214  22.426  26.409  1.00  0.00     0.124 C 
BRANCH  16  18
ATOM     18  C   UNL A   1      35.143  20.970  24.634  1.00  0.00     0.069 C 
ATOM     19  C   UNL A   1      34.206  19.771  24.812  1.00  0.00     0.026 C 
BRANCH  18  20
ATOM     20  C   UNL A   1      36.460  20.790  25.412  1.00  0.00     0.016 C 
ATOM     21  C   UNL A   1      37.537  20.047  24.624  1.00  0.00     0.005 C 
ENDBRANCH  18  20
ENDBRANCH  16  18
ENDBRANCH  13  16
ENDBRANCH   6  13
ENDBRANCH   3   5
ENDBRANCH   2   3
ENDBRANCH   1   2
BRANCH   1  22
ATOM     22  C   UNL A   1      31.640  30.981  25.851  1.00  0.00     0.275 C 
BRANCH  22  23
ATOM     23  O   UNL A   1      32.352  30.967  27.099  1.00  0.00    -0.458 OA
BRANCH  23  24
ATOM     24  C   UNL A   1      33.154  32.032  27.319  1.00  0.00     0.338 C 
ATOM     25  O   UNL A   1      32.865  33.212  27.248  1.00  0.00    -0.246 OA
BRANCH  24  26
ATOM     26  C   UNL A   1      34.462  31.552  27.786  1.00  0.00     0.060 A 
ATOM     27  C   UNL A   1      34.619  30.185  27.983  1.00  0.00     0.016 A 
ATOM     28  C   UNL A   1      35.468  32.434  28.162  1.00  0.00     0.016 A 
ATOM     29  C   UNL A   1      35.723  29.702  28.675  1.00  0.00     0.010 A 
ATOM     30  C   UNL A   1      36.638  31.930  28.747  1.00  0.00     0.010 A 
ATOM     31  C   UNL A   1      36.762  30.561  29.056  1.00  0.00    -0.014 A 
BRANCH  31  32
ATOM     32  C   UNL A   1      37.939  30.030  29.809  1.00  0.00     0.031 A 
ATOM     33  C   UNL A   1      38.184  30.450  31.238  1.00  0.00     0.074 A 
ATOM     34  C   UNL A   1      38.784  29.147  29.235  1.00  0.00     0.049 A 
ATOM     35  N   UNL A   1      39.229  30.232  31.997  1.00  0.00    -0.248 NA
ATOM     36  C   UNL A   1      37.122  31.227  31.897  1.00  0.00     0.031 C 
ATOM     37  C   UNL A   1      38.662  28.614  27.876  1.00  0.00     0.029 A 
ATOM     38  N   UNL A   1      39.914  28.533  29.724  1.00  0.00    -0.354 N 
ATOM     39  C   UNL A   1      38.990  30.920  33.181  1.00  0.00     0.074 A 
ATOM     40  C   UNL A   1      37.693  31.548  33.049  1.00  0.00     0.031 C 
ATOM     41  C   UNL A   1      39.643  27.727  27.658  1.00  0.00     0.029 A 
ATOM     42  C   UNL A   1      40.528  27.703  28.815  1.00  0.00     0.049 A 
ATOM     43  H   UNL A   1      40.252  28.677  30.638  1.00  0.00     0.167 HD
ATOM     44  C   UNL A   1      39.777  31.021  34.280  1.00  0.00     0.034 A 
ATOM     45  C   UNL A   1      41.698  27.034  28.876  1.00  0.00     0.034 A 
ATOM     46  C   UNL A   1      41.024  30.324  34.451  1.00  0.00     0.049 A 
ATOM     47  C   UNL A   1      42.550  27.156  30.108  1.00  0.00     0.074 A 
ATOM     48  C   UNL A   1      41.874  30.336  35.544  1.00  0.00     0.029 A 
ATOM     49  N   UNL A   1      41.596  29.480  33.513  1.00  0.00    -0.354 N 
ATOM     50  N   UNL A   1      42.299  27.798  31.223  1.00  0.00    -0.248 NA
ATOM     51  C   UNL A   1      43.844  26.460  30.092  1.00  0.00     0.031 C 
ATOM     52  C   UNL A   1      42.968  29.513  35.259  1.00  0.00     0.029 A 
ATOM     53  C   UNL A   1      42.788  28.969  33.998  1.00  0.00     0.049 A 
ATOM     54  H   UNL A   1      41.210  29.273  32.631  1.00  0.00     0.167 HD
ATOM     55  C   UNL A   1      43.397  27.573  32.045  1.00  0.00     0.074 A 
ATOM     56  C   UNL A   1      44.298  26.706  31.314  1.00  0.00     0.031 C 
ATOM     57  C   UNL A   1      43.651  28.064  33.283  1.00  0.00     0.034 A 
BRANCH  44  58
ATOM     58  C   UNL A   1      39.312  31.918  35.399  1.00  0.00     0.023 A 
ATOM     59  C   UNL A   1      39.576  33.302  35.355  1.00  0.00     0.012 A 
ATOM     60  C   UNL A   1      38.561  31.393  36.470  1.00  0.00     0.148 A 
ATOM     61  C   UNL A   1      39.129  34.141  36.376  1.00  0.00     0.002 A 
ATOM     62  C   UNL A   1      38.081  32.242  37.460  1.00  0.00     0.091 A 
ATOM     63  F   UNL A   1      38.337  30.070  36.505  1.00  0.00    -0.205 F 
ATOM     64  C   UNL A   1      38.373  33.614  37.421  1.00  0.00     0.022 A 
BRANCH  62  65
ATOM     65  S   UNL A   1      37.031  31.665  38.801  1.00  0.00     0.127 S 
ATOM     66  O   UNL A   1      37.895  31.873  39.962  1.00  0.00    -0.237 OA
ATOM     67  O   UNL A   1      35.892  32.580  38.717  1.00  0.00    -0.237 OA
ATOM     68  O   UNL A   1      36.715  30.278  38.493  1.00  0.00    -0.744 OA
ENDBRANCH  62  65
ENDBRANCH  44  58
BRANCH  45  69
ATOM     69  C   UNL A   1      42.136  26.197  27.722  1.00  0.00     0.023 A 
ATOM     70  C   UNL A   1      42.994  26.746  26.749  1.00  0.00     0.012 A 
ATOM     71  C   UNL A   1      41.740  24.850  27.605  1.00  0.00     0.148 A 
ATOM     72  C   UNL A   1      43.435  25.973  25.674  1.00  0.00     0.002 A 
ATOM     73  C   UNL A   1      42.240  24.067  26.572  1.00  0.00     0.091 A 
ATOM     74  F   UNL A   1      40.898  24.353  28.522  1.00  0.00    -0.205 F 
ATOM     75  C   UNL A   1      43.073  24.630  25.595  1.00  0.00     0.022 A 
BRANCH  73  76
ATOM     76  S   UNL A   1      41.955  22.295  26.495  1.00  0.00     0.127 S 
ATOM     77  O   UNL A   1      42.504  21.848  27.772  1.00  0.00    -0.237 OA
ATOM     78  O   UNL A   1      40.497  22.227  26.391  1.00  0.00    -0.237 OA
ATOM     79  O   UNL A   1      42.660  21.839  25.304  1.00  0.00    -0.744 OA
ENDBRANCH  73  76
ENDBRANCH  45  69
BRANCH  57  80
ATOM     80  C   UNL A   1      44.939  27.653  33.945  1.00  0.00     0.023 A 
ATOM     81  C   UNL A   1      46.089  28.454  33.794  1.00  0.00     0.012 A 
ATOM     82  C   UNL A   1      44.994  26.510  34.767  1.00  0.00     0.148 A 
ATOM     83  C   UNL A   1      47.282  28.107  34.428  1.00  0.00     0.002 A 
ATOM     84  C   UNL A   1      46.173  26.196  35.432  1.00  0.00     0.091 A 
ATOM     85  F   UNL A   1      43.895  25.750  34.880  1.00  0.00    -0.205 F 
ATOM     86  C   UNL A   1      47.321  26.985  35.254  1.00  0.00     0.022 A 
BRANCH  84  87
ATOM     87  S   UNL A   1      46.291  24.825  36.586  1.00  0.00     0.127 S 
ATOM     88  O   UNL A   1      46.476  23.690  35.684  1.00  0.00    -0.237 OA
ATOM     89  O   UNL A   1      47.473  25.179  37.372  1.00  0.00    -0.237 OA
ATOM     90  O   UNL A   1      45.044  24.829  37.339  1.00  0.00    -0.744 OA
ENDBRANCH  84  87
ENDBRANCH  57  80
ENDBRANCH  31  32
ENDBRANCH  24  26
ENDBRANCH  23  24
ENDBRANCH  22  23
ENDBRANCH   1  22
TORSDOF 18
ENDMDL
MODEL 3
REMARK VINA RESULT:     -11.0      5.264     10.142
REMARK SMILES CC[C@@H](C)N(C)S(=O)(=O)c1cc(C(=O)OCCOC(=O)c2ccc(-c3c4nc(c(-c5cccc(S(=O)(=O)[O-])c5F)c5ccc([nH]5)c(-c5cccc(S(=O)(=O)[O-])c5F)c5nc(c(-c6cccc(S(=O)(=O)[O-])c6F)c6ccc3[nH]6)C=C5)C=C4)cc2)c(C)cc1C
REMARK SMILES IDX 16 1 15 2 13 3 14 4 12 5 10 6 11 7 87 8 86 9 88 10 84 11
REMARK SMILES IDX 85 12 7 13 8 14 9 15 5 16 6 17 3 18 4 19 2 20 1 21 17 22
REMARK SMILES IDX 18 23 19 24 20 25 21 26 22 27 83 28 23 29 82 30 24 31 25 32
REMARK SMILES IDX 26 33 76 34 27 35 81 36 75 37 77 38 28 39 80 40 74 41 73 42
REMARK SMILES IDX 29 44 61 45 41 46 60 47 42 48 45 49 59 50 78 51 43 52 44 53
REMARK SMILES IDX 58 55 79 56 46 57 30 58 31 59 39 60 32 61 34 62 40 63 33 64
REMARK SMILES IDX 35 65 36 66 37 67 38 68 62 69 63 70 71 71 64 72 66 73 72 74
REMARK SMILES IDX 65 75 67 76 68 77 69 78 70 79 47 80 48 81 56 82 49 83 51 84
REMARK SMILES IDX 57 85 50 86 52 87 53 88 54 89 55 90
REMARK H PARENT 77 43 45 54
REMARK Flexibility Score: inf
ROOT
ATOM      1  C   UNL A   1      34.999  21.209  24.811  1.00  0.00     0.275 C 
ENDROOT
BRANCH   1   2
ATOM      2  O   UNL A   1      35.101  22.649  24.766  1.00  0.00    -0.458 OA
BRANCH   2   3
ATOM      3  C   UNL A   1      34.656  23.245  23.635  1.00  0.00     0.338 C 
ATOM      4  O   UNL A   1      35.191  23.219  22.538  1.00  0.00    -0.246 OA
BRANCH   3   5
ATOM      5  C   UNL A   1      33.351  23.919  23.846  1.00  0.00     0.064 A 
ATOM      6  C   UNL A   1      32.190  25.724  25.025  1.00  0.00     0.086 A 
ATOM      7  C   UNL A   1      33.369  25.092  24.629  1.00  0.00     0.038 A 
ATOM      8  C   UNL A   1      30.956  25.218  24.574  1.00  0.00    -0.031 A 
ATOM      9  C   UNL A   1      30.947  24.051  23.785  1.00  0.00     0.009 A 
ATOM     10  C   UNL A   1      29.626  25.821  24.943  1.00  0.00     0.046 C 
ATOM     11  C   UNL A   1      32.128  23.378  23.423  1.00  0.00    -0.036 A 
ATOM     12  C   UNL A   1      31.977  22.097  22.651  1.00  0.00     0.045 C 
BRANCH   6  13
ATOM     13  S   UNL A   1      32.217  27.180  26.079  1.00  0.00     0.243 S 
ATOM     14  O   UNL A   1      33.615  27.426  26.379  1.00  0.00    -0.207 OA
ATOM     15  O   UNL A   1      31.267  26.869  27.125  1.00  0.00    -0.207 OA
BRANCH  13  16
ATOM     16  N   UNL A   1      31.644  28.548  25.196  1.00  0.00    -0.198 NA
ATOM     17  C   UNL A   1      31.931  28.515  23.726  1.00  0.00     0.124 C 
BRANCH  16  18
ATOM     18  C   UNL A   1      32.043  29.932  25.754  1.00  0.00     0.069 C 
ATOM     19  C   UNL A   1      32.364  29.879  27.252  1.00  0.00     0.026 C 
BRANCH  18  20
ATOM     20  C   UNL A   1      31.026  31.039  25.423  1.00  0.00     0.016 C 
ATOM     21  C   UNL A   1      31.070  32.218  26.393  1.00  0.00     0.005 C 
ENDBRANCH  18  20
ENDBRANCH  16  18
ENDBRANCH  13  16
ENDBRANCH   6  13
ENDBRANCH   3   5
ENDBRANCH   2   3
ENDBRANCH   1   2
BRANCH   1  22
ATOM     22  C   UNL A   1      36.385  20.573  24.871  1.00  0.00     0.275 C 
BRANCH  22  23
ATOM     23  O   UNL A   1      37.129  21.161  25.950  1.00  0.00    -0.458 OA
BRANCH  23  24
ATOM     24  C   UNL A   1      38.473  21.059  25.851  1.00  0.00     0.338 C 
ATOM     25  O   UNL A   1      39.115  20.212  25.256  1.00  0.00    -0.246 OA
BRANCH  24  26
ATOM     26  C   UNL A   1      39.087  22.224  26.501  1.00  0.00     0.060 A 
ATOM     27  C   UNL A   1      38.597  23.482  26.173  1.00  0.00     0.016 A 
ATOM     28  C   UNL A   1      40.216  22.099  27.302  1.00  0.00     0.016 A 
ATOM     29  C   UNL A   1      39.304  24.623  26.535  1.00  0.00     0.010 A 
ATOM     30  C   UNL A   1      40.855  23.254  27.771  1.00  0.00     0.010 A 
ATOM     31  C   UNL A   1      40.437  24.534  27.353  1.00  0.00    -0.014 A 
BRANCH  31  32
ATOM     32  C   UNL A   1      41.194  25.767  27.726  1.00  0.00     0.031 A 
ATOM     33  C   UNL A   1      40.546  26.832  28.578  1.00  0.00     0.074 A 
ATOM     34  C   UNL A   1      42.475  25.936  27.334  1.00  0.00     0.049 A 
ATOM     35  N   UNL A   1      40.975  28.035  28.866  1.00  0.00    -0.248 NA
ATOM     36  C   UNL A   1      39.239  26.509  29.172  1.00  0.00     0.031 C 
ATOM     37  C   UNL A   1      43.254  24.982  26.542  1.00  0.00     0.029 A 
ATOM     38  N   UNL A   1      43.355  26.971  27.554  1.00  0.00    -0.354 N 
ATOM     39  C   UNL A   1      39.955  28.640  29.593  1.00  0.00     0.074 A 
ATOM     40  C   UNL A   1      38.893  27.666  29.718  1.00  0.00     0.031 C 
ATOM     41  C   UNL A   1      44.499  25.452  26.381  1.00  0.00     0.029 A 
ATOM     42  C   UNL A   1      44.583  26.785  26.962  1.00  0.00     0.049 A 
ATOM     43  H   UNL A   1      43.126  27.769  28.083  1.00  0.00     0.167 HD
ATOM     44  C   UNL A   1      39.905  29.892  30.111  1.00  0.00     0.034 A 
ATOM     45  C   UNL A   1      45.645  27.609  26.849  1.00  0.00     0.034 A 
ATOM     46  C   UNL A   1      40.995  30.831  30.067  1.00  0.00     0.049 A 
ATOM     47  C   UNL A   1      45.569  28.989  27.438  1.00  0.00     0.074 A 
ATOM     48  C   UNL A   1      41.050  32.109  30.596  1.00  0.00     0.029 A 
ATOM     49  N   UNL A   1      42.225  30.591  29.476  1.00  0.00    -0.354 N 
ATOM     50  N   UNL A   1      44.603  29.536  28.135  1.00  0.00    -0.248 NA
ATOM     51  C   UNL A   1      46.730  29.866  27.226  1.00  0.00     0.031 C 
ATOM     52  C   UNL A   1      42.308  32.649  30.308  1.00  0.00     0.029 A 
ATOM     53  C   UNL A   1      43.045  31.699  29.620  1.00  0.00     0.049 A 
ATOM     54  H   UNL A   1      42.479  29.757  29.020  1.00  0.00     0.167 HD
ATOM     55  C   UNL A   1      45.044  30.815  28.455  1.00  0.00     0.074 A 
ATOM     56  C   UNL A   1      46.378  30.948  27.908  1.00  0.00     0.031 C 
ATOM     57  C   UNL A   1      44.391  31.800  29.119  1.00  0.00     0.034 A 
BRANCH  44  58
ATOM     58  C   UNL A   1      38.627  30.327  30.779  1.00  0.00     0.023 A 
ATOM     59  C   UNL A   1      38.410  30.050  32.144  1.00  0.00     0.012 A 
ATOM     60  C   UNL A   1      37.661  31.063  30.063  1.00  0.00     0.148 A 
ATOM     61  C   UNL A   1      37.238  30.469  32.775  1.00  0.00     0.002 A 
ATOM     62  C   UNL A   1      36.517  31.516  30.709  1.00  0.00     0.091 A 
ATOM     63  F   UNL A   1      37.876  31.300  28.760  1.00  0.00    -0.205 F 
ATOM     64  C   UNL A   1      36.299  31.211  32.061  1.00  0.00     0.022 A 
BRANCH  62  65
ATOM     65  S   UNL A   1      35.291  32.546  29.892  1.00  0.00     0.127 S 
ATOM     66  O   UNL A   1      34.304  32.729  30.955  1.00  0.00    -0.237 OA
ATOM     67  O   UNL A   1      36.063  33.746  29.566  1.00  0.00    -0.237 OA
ATOM     68  O   UNL A   1      34.836  31.787  28.736  1.00  0.00    -0.744 OA
ENDBRANCH  62  65
ENDBRANCH  44  58
BRANCH  45  69
ATOM     69  C   UNL A   1      46.871  27.148  26.135  1.00  0.00     0.023 A 
ATOM     70  C   UNL A   1      47.021  27.419  24.762  1.00  0.00     0.012 A 
ATOM     71  C   UNL A   1      47.905  26.477  26.818  1.00  0.00     0.148 A 
ATOM     72  C   UNL A   1      48.170  27.017  24.080  1.00  0.00     0.002 A 
ATOM     73  C   UNL A   1      49.076  26.143  26.150  1.00  0.00     0.091 A 
ATOM     74  F   UNL A   1      47.732  26.198  28.118  1.00  0.00    -0.205 F 
ATOM     75  C   UNL A   1      49.205  26.396  24.776  1.00  0.00     0.022 A 
BRANCH  73  76
ATOM     76  S   UNL A   1      50.514  25.493  27.009  1.00  0.00     0.127 S 
ATOM     77  O   UNL A   1      49.981  24.268  27.597  1.00  0.00    -0.237 OA
ATOM     78  O   UNL A   1      51.458  25.291  25.909  1.00  0.00    -0.237 OA
ATOM     79  O   UNL A   1      50.907  26.533  27.950  1.00  0.00    -0.744 OA
ENDBRANCH  73  76
ENDBRANCH  45  69
BRANCH  57  80
ATOM     80  C   UNL A   1      45.118  33.104  29.321  1.00  0.00     0.023 A 
ATOM     81  C   UNL A   1      45.828  33.330  30.518  1.00  0.00     0.012 A 
ATOM     82  C   UNL A   1      45.150  34.076  28.303  1.00  0.00     0.148 A 
ATOM     83  C   UNL A   1      46.534  34.517  30.709  1.00  0.00     0.002 A 
ATOM     84  C   UNL A   1      45.893  35.236  28.482  1.00  0.00     0.091 A 
ATOM     85  F   UNL A   1      44.450  33.852  27.181  1.00  0.00    -0.205 F 
ATOM     86  C   UNL A   1      46.576  35.464  29.688  1.00  0.00     0.022 A 
BRANCH  84  87
ATOM     87  S   UNL A   1      46.080  36.469  27.189  1.00  0.00     0.127 S 
ATOM     88  O   UNL A   1      44.989  37.392  27.497  1.00  0.00    -0.237 OA
ATOM     89  O   UNL A   1      47.418  36.998  27.451  1.00  0.00    -0.237 OA
ATOM     90  O   UNL A   1      45.952  35.749  25.929  1.00  0.00    -0.744 OA
ENDBRANCH  84  87
ENDBRANCH  57  80
ENDBRANCH  31  32
ENDBRANCH  24  26
ENDBRANCH  23  24
ENDBRANCH  22  23
ENDBRANCH   1  22
TORSDOF 18
ENDMDL
