MODEL 1
REMARK VINA RESULT:     -12.0      0.000      0.000
REMARK SMILES O=C(OCCOC(=O)c1cccnc1C(=O)Nc1ccc([N+](=O)[O-])cc1)c1ccc(-c2c3nc(c(-c4cccc(S(=O)(=O)[O-])c4F)c4ccc([nH]4)c(-c4cccc(S(=O)(=O)[O-])c4F)c4nc(c(-c5cccc(S(=O)(=O)[O-])c5F)c5ccc2[nH]5)C=C4)C=C3)cc1
REMARK SMILES IDX 4 1 3 2 2 3 1 4 27 5 28 6 89 7 29 8 88 9 30 10 31 11 32 12
REMARK SMILES IDX 82 13 33 14 87 15 81 16 83 17 34 18 86 19 80 20 79 21 35 23
REMARK SMILES IDX 67 24 47 25 66 26 48 27 51 28 65 29 84 30 49 31 50 32 64 34
REMARK SMILES IDX 85 35 52 36 36 37 37 38 45 39 38 40 40 41 46 42 39 43 41 44
REMARK SMILES IDX 42 45 43 46 44 47 68 48 69 49 77 50 70 51 72 52 78 53 71 54
REMARK SMILES IDX 73 55 74 56 75 57 76 58 53 59 54 60 62 61 55 62 57 63 63 64
REMARK SMILES IDX 56 65 58 66 59 67 60 68 61 69 5 70 6 71 7 72 8 73 9 74 10 75
REMARK SMILES IDX 14 76 11 77 13 78 12 79 15 80 16 81 17 82 18 84 19 85 26 86
REMARK SMILES IDX 20 87 25 88 21 89 22 90 23 91 24 92
REMARK H PARENT 83 22 51 33 17 83
REMARK Flexibility Score: inf
ROOT
ATOM      1  C   UNL A   1      38.533  20.656  25.400  1.00  0.00     0.275 C 
ENDROOT
BRANCH   1   2
ATOM      2  O   UNL A   1      39.486  20.124  26.353  1.00  0.00    -0.458 OA
BRANCH   2   3
ATOM      3  C   UNL A   1      40.844  20.199  26.205  1.00  0.00     0.338 C 
ATOM      4  O   UNL A   1      41.537  19.243  25.941  1.00  0.00    -0.246 OA
BRANCH   3   5
ATOM      5  C   UNL A   1      41.419  21.499  26.608  1.00  0.00     0.060 A 
ATOM      6  C   UNL A   1      41.863  22.395  25.639  1.00  0.00     0.016 A 
ATOM      7  C   UNL A   1      41.349  21.874  27.953  1.00  0.00     0.016 A 
ATOM      8  C   UNL A   1      42.016  23.731  25.979  1.00  0.00     0.010 A 
ATOM      9  C   UNL A   1      41.546  23.206  28.305  1.00  0.00     0.010 A 
ATOM     10  C   UNL A   1      41.835  24.144  27.306  1.00  0.00    -0.014 A 
BRANCH  10  11
ATOM     11  C   UNL A   1      42.220  25.520  27.651  1.00  0.00     0.031 A 
ATOM     12  C   UNL A   1      43.640  25.886  27.389  1.00  0.00     0.074 A 
ATOM     13  C   UNL A   1      41.335  26.434  28.086  1.00  0.00     0.049 A 
ATOM     14  N   UNL A   1      44.172  27.072  27.359  1.00  0.00    -0.248 NA
ATOM     15  C   UNL A   1      44.549  24.790  27.005  1.00  0.00     0.031 C 
ATOM     16  C   UNL A   1      39.904  26.219  28.247  1.00  0.00     0.029 A 
ATOM     17  N   UNL A   1      41.519  27.727  28.496  1.00  0.00    -0.354 N 
ATOM     18  C   UNL A   1      45.448  26.877  26.864  1.00  0.00     0.074 A 
ATOM     19  C   UNL A   1      45.627  25.461  26.637  1.00  0.00     0.031 C 
ATOM     20  C   UNL A   1      39.359  27.288  28.856  1.00  0.00     0.029 A 
ATOM     21  C   UNL A   1      40.403  28.279  29.081  1.00  0.00     0.049 A 
ATOM     22  H   UNL A   1      42.367  28.215  28.383  1.00  0.00     0.167 HD
ATOM     23  C   UNL A   1      46.377  27.815  26.600  1.00  0.00     0.034 A 
ATOM     24  C   UNL A   1      40.268  29.446  29.738  1.00  0.00     0.034 A 
ATOM     25  C   UNL A   1      46.224  29.190  26.961  1.00  0.00     0.049 A 
ATOM     26  C   UNL A   1      41.434  30.396  29.707  1.00  0.00     0.074 A 
ATOM     27  C   UNL A   1      47.112  30.231  26.785  1.00  0.00     0.029 A 
ATOM     28  N   UNL A   1      45.131  29.693  27.652  1.00  0.00    -0.354 N 
ATOM     29  N   UNL A   1      42.570  30.267  29.064  1.00  0.00    -0.248 NA
ATOM     30  C   UNL A   1      41.292  31.667  30.429  1.00  0.00     0.031 C 
ATOM     31  C   UNL A   1      46.580  31.353  27.431  1.00  0.00     0.029 A 
ATOM     32  C   UNL A   1      45.349  31.016  27.977  1.00  0.00     0.049 A 
ATOM     33  H   UNL A   1      44.321  29.181  27.877  1.00  0.00     0.167 HD
ATOM     34  C   UNL A   1      43.252  31.460  29.249  1.00  0.00     0.074 A 
ATOM     35  C   UNL A   1      42.406  32.297  30.078  1.00  0.00     0.031 C 
ATOM     36  C   UNL A   1      44.464  31.833  28.769  1.00  0.00     0.034 A 
BRANCH  23  37
ATOM     37  C   UNL A   1      47.626  27.336  25.937  1.00  0.00     0.023 A 
ATOM     38  C   UNL A   1      48.683  26.840  26.727  1.00  0.00     0.012 A 
ATOM     39  C   UNL A   1      47.782  27.449  24.546  1.00  0.00     0.148 A 
ATOM     40  C   UNL A   1      49.891  26.477  26.137  1.00  0.00     0.002 A 
ATOM     41  C   UNL A   1      48.980  27.066  23.963  1.00  0.00     0.091 A 
ATOM     42  F   UNL A   1      46.771  27.966  23.833  1.00  0.00    -0.205 F 
ATOM     43  C   UNL A   1      50.039  26.587  24.757  1.00  0.00     0.022 A 
BRANCH  41  44
ATOM     44  S   UNL A   1      49.271  27.169  22.197  1.00  0.00     0.127 S 
ATOM     45  O   UNL A   1      50.722  26.997  22.127  1.00  0.00    -0.237 OA
ATOM     46  O   UNL A   1      48.494  26.035  21.698  1.00  0.00    -0.237 OA
ATOM     47  O   UNL A   1      48.788  28.479  21.783  1.00  0.00    -0.744 OA
ENDBRANCH  41  44
ENDBRANCH  23  37
BRANCH  24  48
ATOM     48  C   UNL A   1      39.019  29.773  30.484  1.00  0.00     0.023 A 
ATOM     49  C   UNL A   1      38.759  29.196  31.740  1.00  0.00     0.012 A 
ATOM     50  C   UNL A   1      38.053  30.625  29.911  1.00  0.00     0.148 A 
ATOM     51  C   UNL A   1      37.543  29.428  32.392  1.00  0.00     0.002 A 
ATOM     52  C   UNL A   1      36.860  30.878  30.579  1.00  0.00     0.091 A 
ATOM     53  F   UNL A   1      38.305  31.155  28.705  1.00  0.00    -0.205 F 
ATOM     54  C   UNL A   1      36.595  30.269  31.814  1.00  0.00     0.022 A 
BRANCH  52  55
ATOM     55  S   UNL A   1      35.639  32.022  29.922  1.00  0.00     0.127 S 
ATOM     56  O   UNL A   1      35.098  31.268  28.795  1.00  0.00    -0.237 OA
ATOM     57  O   UNL A   1      34.725  32.185  31.053  1.00  0.00    -0.237 OA
ATOM     58  O   UNL A   1      36.394  33.225  29.590  1.00  0.00    -0.744 OA
ENDBRANCH  52  55
ENDBRANCH  24  48
BRANCH  36  59
ATOM     59  C   UNL A   1      44.942  33.216  29.097  1.00  0.00     0.023 A 
ATOM     60  C   UNL A   1      45.695  33.434  30.266  1.00  0.00     0.012 A 
ATOM     61  C   UNL A   1      44.758  34.263  28.176  1.00  0.00     0.148 A 
ATOM     62  C   UNL A   1      46.255  34.684  30.516  1.00  0.00     0.002 A 
ATOM     63  C   UNL A   1      45.366  35.489  28.403  1.00  0.00     0.091 A 
ATOM     64  F   UNL A   1      44.015  34.030  27.082  1.00  0.00    -0.205 F 
ATOM     65  C   UNL A   1      46.107  35.705  29.577  1.00  0.00     0.022 A 
BRANCH  63  66
ATOM     66  S   UNL A   1      45.329  36.812  27.192  1.00  0.00     0.127 S 
ATOM     67  O   UNL A   1      46.027  37.883  27.900  1.00  0.00    -0.237 OA
ATOM     68  O   UNL A   1      46.075  36.229  26.075  1.00  0.00    -0.237 OA
ATOM     69  O   UNL A   1      43.922  37.062  26.911  1.00  0.00    -0.744 OA
ENDBRANCH  63  66
ENDBRANCH  36  59
ENDBRANCH  10  11
ENDBRANCH   3   5
ENDBRANCH   2   3
ENDBRANCH   1   2
BRANCH   1  70
ATOM     70  C   UNL A   1      38.075  22.119  25.598  1.00  0.00     0.275 C 
BRANCH  70  71
ATOM     71  O   UNL A   1      36.644  22.255  25.493  1.00  0.00    -0.458 OA
BRANCH  71  72
ATOM     72  C   UNL A   1      36.107  22.258  24.248  1.00  0.00     0.340 C 
ATOM     73  O   UNL A   1      36.646  22.672  23.239  1.00  0.00    -0.246 OA
BRANCH  72  74
ATOM     74  C   UNL A   1      34.740  21.724  24.294  1.00  0.00     0.091 A 
ATOM     75  C   UNL A   1      34.638  20.533  25.037  1.00  0.00     0.020 A 
ATOM     76  C   UNL A   1      33.636  22.152  23.560  1.00  0.00     0.142 A 
ATOM     77  C   UNL A   1      33.548  19.692  24.878  1.00  0.00     0.021 A 
ATOM     78  N   UNL A   1      32.552  21.318  23.413  1.00  0.00    -0.250 NA
ATOM     79  C   UNL A   1      32.554  20.106  24.022  1.00  0.00     0.112 A 
BRANCH  76  80
ATOM     80  C   UNL A   1      33.409  23.430  22.760  1.00  0.00     0.275 C 
ATOM     81  O   UNL A   1      33.809  23.448  21.587  1.00  0.00    -0.267 OA
ATOM     82  N   UNL A   1      32.464  24.409  23.064  1.00  0.00    -0.321 N 
ATOM     83  H   UNL A   1      31.769  24.515  22.374  1.00  0.00     0.170 HD
BRANCH  82  84
ATOM     84  C   UNL A   1      32.305  25.276  24.157  1.00  0.00     0.042 A 
ATOM     85  C   UNL A   1      31.131  25.998  24.355  1.00  0.00     0.033 A 
ATOM     86  C   UNL A   1      33.365  25.594  24.970  1.00  0.00     0.033 A 
ATOM     87  C   UNL A   1      31.042  26.946  25.399  1.00  0.00     0.088 A 
ATOM     88  C   UNL A   1      33.309  26.465  26.049  1.00  0.00     0.088 A 
ATOM     89  C   UNL A   1      32.131  27.156  26.259  1.00  0.00     0.269 A 
BRANCH  89  90
ATOM     90  N   UNL A   1      32.088  28.157  27.326  1.00  0.00     0.062 N 
ATOM     91  O   UNL A   1      32.955  29.042  27.320  1.00  0.00    -0.258 OA
ATOM     92  O   UNL A   1      31.200  28.050  28.186  1.00  0.00    -0.258 OA
ENDBRANCH  89  90
ENDBRANCH  82  84
ENDBRANCH  76  80
ENDBRANCH  72  74
ENDBRANCH  71  72
ENDBRANCH  70  71
ENDBRANCH   1  70
TORSDOF 17
ENDMDL
MODEL 2
REMARK VINA RESULT:     -12.0      5.380     10.659
REMARK SMILES O=C(OCCOC(=O)c1cccnc1C(=O)Nc1ccc([N+](=O)[O-])cc1)c1ccc(-c2c3nc(c(-c4cccc(S(=O)(=O)[O-])c4F)c4ccc([nH]4)c(-c4cccc(S(=O)(=O)[O-])c4F)c4nc(c(-c5cccc(S(=O)(=O)[O-])c5F)c5ccc2[nH]5)C=C4)C=C3)cc1
REMARK SMILES IDX 4 1 3 2 2 3 1 4 27 5 28 6 89 7 29 8 88 9 30 10 31 11 32 12
REMARK SMILES IDX 82 13 33 14 87 15 81 16 83 17 34 18 86 19 80 20 79 21 35 23
REMARK SMILES IDX 67 24 47 25 66 26 48 27 51 28 65 29 84 30 49 31 50 32 64 34
REMARK SMILES IDX 85 35 52 36 36 37 37 38 45 39 38 40 40 41 46 42 39 43 41 44
REMARK SMILES IDX 42 45 43 46 44 47 68 48 69 49 77 50 70 51 72 52 78 53 71 54
REMARK SMILES IDX 73 55 74 56 75 57 76 58 53 59 54 60 62 61 55 62 57 63 63 64
REMARK SMILES IDX 56 65 58 66 59 67 60 68 61 69 5 70 6 71 7 72 8 73 9 74 10 75
REMARK SMILES IDX 14 76 11 77 13 78 12 79 15 80 16 81 17 82 18 84 19 85 26 86
REMARK SMILES IDX 20 87 25 88 21 89 22 90 23 91 24 92
REMARK H PARENT 83 22 51 33 17 83
REMARK Flexibility Score: inf
ROOT
ATOM      1  C   UNL A   1      32.947  30.870  27.238  1.00  0.00     0.275 C 
ENDROOT
BRANCH   1   2
ATOM      2  O   UNL A   1      33.151  32.293  27.064  1.00  0.00    -0.458 OA
BRANCH   2   3
ATOM      3  C   UNL A   1      33.580  33.135  28.053  1.00  0.00     0.338 C 
ATOM      4  O   UNL A   1      33.099  34.228  28.250  1.00  0.00    -0.246 OA
BRANCH   3   5
ATOM      5  C   UNL A   1      34.820  32.692  28.721  1.00  0.00     0.060 A 
ATOM      6  C   UNL A   1      34.751  31.966  29.908  1.00  0.00     0.016 A 
ATOM      7  C   UNL A   1      36.038  32.864  28.056  1.00  0.00     0.016 A 
ATOM      8  C   UNL A   1      35.852  31.222  30.306  1.00  0.00     0.010 A 
ATOM      9  C   UNL A   1      37.158  32.153  28.479  1.00  0.00     0.010 A 
ATOM     10  C   UNL A   1      37.049  31.294  29.579  1.00  0.00    -0.014 A 
BRANCH  10  11
ATOM     11  C   UNL A   1      38.240  30.661  30.163  1.00  0.00     0.031 A 
ATOM     12  C   UNL A   1      38.671  31.180  31.492  1.00  0.00     0.074 A 
ATOM     13  C   UNL A   1      38.858  29.612  29.593  1.00  0.00     0.049 A 
ATOM     14  N   UNL A   1      39.510  30.647  32.330  1.00  0.00    -0.248 NA
ATOM     15  C   UNL A   1      37.989  32.391  31.985  1.00  0.00     0.031 C 
ATOM     16  C   UNL A   1      38.440  28.945  28.368  1.00  0.00     0.029 A 
ATOM     17  N   UNL A   1      39.991  28.938  29.961  1.00  0.00    -0.354 N 
ATOM     18  C   UNL A   1      39.390  31.401  33.482  1.00  0.00     0.074 A 
ATOM     19  C   UNL A   1      38.424  32.447  33.232  1.00  0.00     0.031 C 
ATOM     20  C   UNL A   1      39.378  28.052  28.005  1.00  0.00     0.029 A 
ATOM     21  C   UNL A   1      40.438  28.057  29.004  1.00  0.00     0.049 A 
ATOM     22  H   UNL A   1      40.442  29.070  30.827  1.00  0.00     0.167 HD
ATOM     23  C   UNL A   1      40.020  31.209  34.657  1.00  0.00     0.034 A 
ATOM     24  C   UNL A   1      41.589  27.361  28.951  1.00  0.00     0.034 A 
ATOM     25  C   UNL A   1      41.068  30.254  34.835  1.00  0.00     0.049 A 
ATOM     26  C   UNL A   1      42.469  27.384  30.171  1.00  0.00     0.074 A 
ATOM     27  C   UNL A   1      41.813  29.993  35.965  1.00  0.00     0.029 A 
ATOM     28  N   UNL A   1      41.572  29.458  33.816  1.00  0.00    -0.354 N 
ATOM     29  N   UNL A   1      42.237  27.956  31.329  1.00  0.00    -0.248 NA
ATOM     30  C   UNL A   1      43.728  26.632  30.113  1.00  0.00     0.031 C 
ATOM     31  C   UNL A   1      42.815  29.082  35.609  1.00  0.00     0.029 A 
ATOM     32  C   UNL A   1      42.669  28.753  34.269  1.00  0.00     0.049 A 
ATOM     33  H   UNL A   1      41.202  29.404  32.905  1.00  0.00     0.167 HD
ATOM     34  C   UNL A   1      43.285  27.582  32.157  1.00  0.00     0.074 A 
ATOM     35  C   UNL A   1      44.162  26.744  31.362  1.00  0.00     0.031 C 
ATOM     36  C   UNL A   1      43.496  27.894  33.459  1.00  0.00     0.034 A 
BRANCH  23  37
ATOM     37  C   UNL A   1      39.595  32.093  35.783  1.00  0.00     0.023 A 
ATOM     38  C   UNL A   1      40.259  33.320  35.988  1.00  0.00     0.012 A 
ATOM     39  C   UNL A   1      38.598  31.675  36.678  1.00  0.00     0.148 A 
ATOM     40  C   UNL A   1      39.944  34.114  37.088  1.00  0.00     0.002 A 
ATOM     41  C   UNL A   1      38.274  32.481  37.760  1.00  0.00     0.091 A 
ATOM     42  F   UNL A   1      38.020  30.483  36.475  1.00  0.00    -0.205 F 
ATOM     43  C   UNL A   1      38.951  33.697  37.970  1.00  0.00     0.022 A 
BRANCH  41  44
ATOM     44  S   UNL A   1      37.013  32.035  38.952  1.00  0.00     0.127 S 
ATOM     45  O   UNL A   1      36.962  30.581  38.797  1.00  0.00    -0.237 OA
ATOM     46  O   UNL A   1      37.608  32.497  40.206  1.00  0.00    -0.237 OA
ATOM     47  O   UNL A   1      35.805  32.738  38.546  1.00  0.00    -0.744 OA
ENDBRANCH  41  44
ENDBRANCH  23  37
BRANCH  24  48
ATOM     48  C   UNL A   1      41.985  26.614  27.722  1.00  0.00     0.023 A 
ATOM     49  C   UNL A   1      42.523  27.289  26.612  1.00  0.00     0.012 A 
ATOM     50  C   UNL A   1      41.770  25.223  27.638  1.00  0.00     0.148 A 
ATOM     51  C   UNL A   1      42.801  26.600  25.427  1.00  0.00     0.002 A 
ATOM     52  C   UNL A   1      42.080  24.538  26.468  1.00  0.00     0.091 A 
ATOM     53  F   UNL A   1      41.241  24.594  28.698  1.00  0.00    -0.205 F 
ATOM     54  C   UNL A   1      42.582  25.226  25.354  1.00  0.00     0.022 A 
BRANCH  52  55
ATOM     55  S   UNL A   1      41.899  22.754  26.348  1.00  0.00     0.127 S 
ATOM     56  O   UNL A   1      42.506  22.478  25.049  1.00  0.00    -0.237 OA
ATOM     57  O   UNL A   1      42.666  22.285  27.502  1.00  0.00    -0.237 OA
ATOM     58  O   UNL A   1      40.464  22.515  26.452  1.00  0.00    -0.744 OA
ENDBRANCH  52  55
ENDBRANCH  24  48
BRANCH  36  59
ATOM     59  C   UNL A   1      44.706  27.308  34.124  1.00  0.00     0.023 A 
ATOM     60  C   UNL A   1      45.898  28.054  34.183  1.00  0.00     0.012 A 
ATOM     61  C   UNL A   1      44.612  26.079  34.803  1.00  0.00     0.148 A 
ATOM     62  C   UNL A   1      46.986  27.577  34.909  1.00  0.00     0.002 A 
ATOM     63  C   UNL A   1      45.680  25.639  35.569  1.00  0.00     0.091 A 
ATOM     64  F   UNL A   1      43.470  25.381  34.707  1.00  0.00    -0.205 F 
ATOM     65  C   UNL A   1      46.872  26.381  35.617  1.00  0.00     0.022 A 
BRANCH  63  66
ATOM     66  S   UNL A   1      45.572  24.178  36.606  1.00  0.00     0.127 S 
ATOM     67  O   UNL A   1      46.979  23.924  36.909  1.00  0.00    -0.237 OA
ATOM     68  O   UNL A   1      44.780  24.660  37.738  1.00  0.00    -0.237 OA
ATOM     69  O   UNL A   1      44.913  23.160  35.800  1.00  0.00    -0.744 OA
ENDBRANCH  63  66
ENDBRANCH  36  59
ENDBRANCH  10  11
ENDBRANCH   3   5
ENDBRANCH   2   3
ENDBRANCH   1   2
BRANCH   1  70
ATOM     70  C   UNL A   1      34.091  29.930  26.792  1.00  0.00     0.275 C 
BRANCH  70  71
ATOM     71  O   UNL A   1      33.603  28.625  26.422  1.00  0.00    -0.458 OA
BRANCH  71  72
ATOM     72  C   UNL A   1      33.428  28.376  25.101  1.00  0.00     0.340 C 
ATOM     73  O   UNL A   1      33.376  29.211  24.217  1.00  0.00    -0.246 OA
BRANCH  72  74
ATOM     74  C   UNL A   1      33.260  26.934  24.884  1.00  0.00     0.091 A 
ATOM     75  C   UNL A   1      33.482  26.172  26.046  1.00  0.00     0.020 A 
ATOM     76  C   UNL A   1      33.097  26.271  23.670  1.00  0.00     0.142 A 
ATOM     77  C   UNL A   1      33.748  24.814  25.961  1.00  0.00     0.021 A 
ATOM     78  N   UNL A   1      33.352  24.921  23.592  1.00  0.00    -0.250 NA
ATOM     79  C   UNL A   1      33.715  24.245  24.710  1.00  0.00     0.112 A 
BRANCH  76  80
ATOM     80  C   UNL A   1      32.741  26.803  22.286  1.00  0.00     0.275 C 
ATOM     81  O   UNL A   1      33.538  26.576  21.365  1.00  0.00    -0.267 OA
ATOM     82  N   UNL A   1      31.459  27.158  21.867  1.00  0.00    -0.321 N 
ATOM     83  H   UNL A   1      31.117  26.601  21.131  1.00  0.00     0.170 HD
BRANCH  82  84
ATOM     84  C   UNL A   1      30.558  28.150  22.286  1.00  0.00     0.042 A 
ATOM     85  C   UNL A   1      29.357  27.831  22.915  1.00  0.00     0.033 A 
ATOM     86  C   UNL A   1      30.731  29.464  21.925  1.00  0.00     0.033 A 
ATOM     87  C   UNL A   1      28.420  28.842  23.224  1.00  0.00     0.088 A 
ATOM     88  C   UNL A   1      29.875  30.502  22.263  1.00  0.00     0.088 A 
ATOM     89  C   UNL A   1      28.700  30.183  22.915  1.00  0.00     0.269 A 
BRANCH  89  90
ATOM     90  N   UNL A   1      27.736  31.251  23.184  1.00  0.00     0.062 N 
ATOM     91  O   UNL A   1      27.843  32.300  22.534  1.00  0.00    -0.258 OA
ATOM     92  O   UNL A   1      26.883  31.055  24.063  1.00  0.00    -0.258 OA
ENDBRANCH  89  90
ENDBRANCH  82  84
ENDBRANCH  76  80
ENDBRANCH  72  74
ENDBRANCH  71  72
ENDBRANCH  70  71
ENDBRANCH   1  70
TORSDOF 17
ENDMDL
MODEL 3
REMARK VINA RESULT:     -11.8      2.099      3.908
REMARK SMILES O=C(OCCOC(=O)c1cccnc1C(=O)Nc1ccc([N+](=O)[O-])cc1)c1ccc(-c2c3nc(c(-c4cccc(S(=O)(=O)[O-])c4F)c4ccc([nH]4)c(-c4cccc(S(=O)(=O)[O-])c4F)c4nc(c(-c5cccc(S(=O)(=O)[O-])c5F)c5ccc2[nH]5)C=C4)C=C3)cc1
REMARK SMILES IDX 4 1 3 2 2 3 1 4 27 5 28 6 89 7 29 8 88 9 30 10 31 11 32 12
REMARK SMILES IDX 82 13 33 14 87 15 81 16 83 17 34 18 86 19 80 20 79 21 35 23
REMARK SMILES IDX 67 24 47 25 66 26 48 27 51 28 65 29 84 30 49 31 50 32 64 34
REMARK SMILES IDX 85 35 52 36 36 37 37 38 45 39 38 40 40 41 46 42 39 43 41 44
REMARK SMILES IDX 42 45 43 46 44 47 68 48 69 49 77 50 70 51 72 52 78 53 71 54
REMARK SMILES IDX 73 55 74 56 75 57 76 58 53 59 54 60 62 61 55 62 57 63 63 64
REMARK SMILES IDX 56 65 58 66 59 67 60 68 61 69 5 70 6 71 7 72 8 73 9 74 10 75
REMARK SMILES IDX 14 76 11 77 13 78 12 79 15 80 16 81 17 82 18 84 19 85 26 86
REMARK SMILES IDX 20 87 25 88 21 89 22 90 23 91 24 92
REMARK H PARENT 83 22 51 33 17 83
REMARK Flexibility Score: inf
ROOT
ATOM      1  C   UNL A   1      37.725  20.264  24.963  1.00  0.00     0.275 C 
ENDROOT
BRANCH   1   2
ATOM      2  O   UNL A   1      38.539  21.404  25.330  1.00  0.00    -0.458 OA
BRANCH   2   3
ATOM      3  C   UNL A   1      39.497  21.382  26.306  1.00  0.00     0.338 C 
ATOM      4  O   UNL A   1      39.904  20.362  26.815  1.00  0.00    -0.246 OA
BRANCH   3   5
ATOM      5  C   UNL A   1      39.837  22.716  26.840  1.00  0.00     0.060 A 
ATOM      6  C   UNL A   1      40.845  22.850  27.793  1.00  0.00     0.016 A 
ATOM      7  C   UNL A   1      39.254  23.843  26.252  1.00  0.00     0.016 A 
ATOM      8  C   UNL A   1      41.427  24.094  27.986  1.00  0.00     0.010 A 
ATOM      9  C   UNL A   1      39.808  25.100  26.477  1.00  0.00     0.010 A 
ATOM     10  C   UNL A   1      40.926  25.216  27.311  1.00  0.00    -0.014 A 
BRANCH  10  11
ATOM     11  C   UNL A   1      41.434  26.536  27.714  1.00  0.00     0.031 A 
ATOM     12  C   UNL A   1      42.857  26.819  27.376  1.00  0.00     0.074 A 
ATOM     13  C   UNL A   1      40.650  27.477  28.267  1.00  0.00     0.049 A 
ATOM     14  N   UNL A   1      43.472  27.965  27.383  1.00  0.00    -0.248 NA
ATOM     15  C   UNL A   1      43.655  25.692  26.860  1.00  0.00     0.031 C 
ATOM     16  C   UNL A   1      39.221  27.351  28.516  1.00  0.00     0.029 A 
ATOM     17  N   UNL A   1      40.956  28.723  28.744  1.00  0.00    -0.354 N 
ATOM     18  C   UNL A   1      44.694  27.715  26.787  1.00  0.00     0.074 A 
ATOM     19  C   UNL A   1      44.753  26.309  26.459  1.00  0.00     0.031 C 
ATOM     20  C   UNL A   1      38.798  28.412  29.228  1.00  0.00     0.029 A 
ATOM     21  C   UNL A   1      39.925  29.310  29.440  1.00  0.00     0.049 A 
ATOM     22  H   UNL A   1      41.829  29.158  28.602  1.00  0.00     0.167 HD
ATOM     23  C   UNL A   1      45.671  28.603  26.518  1.00  0.00     0.034 A 
ATOM     24  C   UNL A   1      39.920  30.437  30.177  1.00  0.00     0.034 A 
ATOM     25  C   UNL A   1      45.645  29.957  26.974  1.00  0.00     0.049 A 
ATOM     26  C   UNL A   1      41.149  31.304  30.124  1.00  0.00     0.074 A 
ATOM     27  C   UNL A   1      46.593  30.943  26.802  1.00  0.00     0.029 A 
ATOM     28  N   UNL A   1      44.640  30.487  27.772  1.00  0.00    -0.354 N 
ATOM     29  N   UNL A   1      42.227  31.140  29.395  1.00  0.00    -0.248 NA
ATOM     30  C   UNL A   1      41.149  32.529  30.933  1.00  0.00     0.031 C 
ATOM     31  C   UNL A   1      46.190  32.053  27.553  1.00  0.00     0.029 A 
ATOM     32  C   UNL A   1      44.976  31.766  28.163  1.00  0.00     0.049 A 
ATOM     33  H   UNL A   1      43.811  30.018  28.021  1.00  0.00     0.167 HD
ATOM     34  C   UNL A   1      43.007  32.267  29.606  1.00  0.00     0.074 A 
ATOM     35  C   UNL A   1      42.281  33.103  30.544  1.00  0.00     0.031 C 
ATOM     36  C   UNL A   1      44.208  32.587  29.066  1.00  0.00     0.034 A 
BRANCH  23  37
ATOM     37  C   UNL A   1      46.835  28.084  25.739  1.00  0.00     0.023 A 
ATOM     38  C   UNL A   1      46.777  28.080  24.330  1.00  0.00     0.012 A 
ATOM     39  C   UNL A   1      47.945  27.534  26.398  1.00  0.00     0.148 A 
ATOM     40  C   UNL A   1      47.809  27.515  23.586  1.00  0.00     0.002 A 
ATOM     41  C   UNL A   1      48.979  26.991  25.650  1.00  0.00     0.091 A 
ATOM     42  F   UNL A   1      47.944  27.516  27.738  1.00  0.00    -0.205 F 
ATOM     43  C   UNL A   1      48.910  26.973  24.245  1.00  0.00     0.022 A 
BRANCH  41  44
ATOM     44  S   UNL A   1      50.438  26.270  26.401  1.00  0.00     0.127 S 
ATOM     45  O   UNL A   1      49.872  25.110  27.091  1.00  0.00    -0.237 OA
ATOM     46  O   UNL A   1      51.252  25.949  25.230  1.00  0.00    -0.237 OA
ATOM     47  O   UNL A   1      50.991  27.294  27.276  1.00  0.00    -0.744 OA
ENDBRANCH  41  44
ENDBRANCH  23  37
BRANCH  24  48
ATOM     48  C   UNL A   1      38.751  30.798  31.029  1.00  0.00     0.023 A 
ATOM     49  C   UNL A   1      38.693  30.402  32.377  1.00  0.00     0.012 A 
ATOM     50  C   UNL A   1      37.659  31.497  30.475  1.00  0.00     0.148 A 
ATOM     51  C   UNL A   1      37.552  30.658  33.146  1.00  0.00     0.002 A 
ATOM     52  C   UNL A   1      36.542  31.778  31.254  1.00  0.00     0.091 A 
ATOM     53  F   UNL A   1      37.720  31.855  29.184  1.00  0.00    -0.205 F 
ATOM     54  C   UNL A   1      36.478  31.346  32.586  1.00  0.00     0.022 A 
BRANCH  52  55
ATOM     55  S   UNL A   1      35.165  32.737  30.611  1.00  0.00     0.127 S 
ATOM     56  O   UNL A   1      34.234  32.717  31.735  1.00  0.00    -0.237 OA
ATOM     57  O   UNL A   1      35.786  34.034  30.345  1.00  0.00    -0.237 OA
ATOM     58  O   UNL A   1      34.740  32.025  29.410  1.00  0.00    -0.744 OA
ENDBRANCH  52  55
ENDBRANCH  24  48
BRANCH  36  59
ATOM     59  C   UNL A   1      44.808  33.908  29.446  1.00  0.00     0.023 A 
ATOM     60  C   UNL A   1      45.663  33.990  30.561  1.00  0.00     0.012 A 
ATOM     61  C   UNL A   1      44.629  35.029  28.615  1.00  0.00     0.148 A 
ATOM     62  C   UNL A   1      46.328  35.179  30.847  1.00  0.00     0.002 A 
ATOM     63  C   UNL A   1      45.339  36.192  28.874  1.00  0.00     0.091 A 
ATOM     64  F   UNL A   1      43.789  34.926  27.573  1.00  0.00    -0.205 F 
ATOM     65  C   UNL A   1      46.182  36.273  29.995  1.00  0.00     0.022 A 
BRANCH  63  66
ATOM     66  S   UNL A   1      45.303  37.599  27.761  1.00  0.00     0.127 S 
ATOM     67  O   UNL A   1      46.119  38.572  28.485  1.00  0.00    -0.237 OA
ATOM     68  O   UNL A   1      45.927  37.055  26.555  1.00  0.00    -0.237 OA
ATOM     69  O   UNL A   1      43.899  37.954  27.605  1.00  0.00    -0.744 OA
ENDBRANCH  63  66
ENDBRANCH  36  59
ENDBRANCH  10  11
ENDBRANCH   3   5
ENDBRANCH   2   3
ENDBRANCH   1   2
BRANCH   1  70
ATOM     70  C   UNL A   1      36.190  20.440  25.027  1.00  0.00     0.275 C 
BRANCH  70  71
ATOM     71  O   UNL A   1      35.774  21.727  24.529  1.00  0.00    -0.458 OA
BRANCH  71  72
ATOM     72  C   UNL A   1      35.425  22.667  25.442  1.00  0.00     0.340 C 
ATOM     73  O   UNL A   1      35.924  22.814  26.542  1.00  0.00    -0.246 OA
BRANCH  72  74
ATOM     74  C   UNL A   1      34.310  23.471  24.928  1.00  0.00     0.091 A 
ATOM     75  C   UNL A   1      34.722  24.484  24.041  1.00  0.00     0.020 A 
ATOM     76  C   UNL A   1      32.984  23.453  25.353  1.00  0.00     0.142 A 
ATOM     77  C   UNL A   1      33.894  25.560  23.764  1.00  0.00     0.021 A 
ATOM     78  N   UNL A   1      32.162  24.519  25.066  1.00  0.00    -0.250 NA
ATOM     79  C   UNL A   1      32.643  25.554  24.335  1.00  0.00     0.112 A 
BRANCH  76  80
ATOM     80  C   UNL A   1      32.227  22.441  26.207  1.00  0.00     0.275 C 
ATOM     81  O   UNL A   1      31.717  22.851  27.259  1.00  0.00    -0.267 OA
ATOM     82  N   UNL A   1      31.712  21.229  25.748  1.00  0.00    -0.321 N 
ATOM     83  H   UNL A   1      30.730  21.172  25.801  1.00  0.00     0.170 HD
BRANCH  82  84
ATOM     84  C   UNL A   1      32.314  20.072  25.227  1.00  0.00     0.042 A 
ATOM     85  C   UNL A   1      32.449  19.871  23.856  1.00  0.00     0.033 A 
ATOM     86  C   UNL A   1      32.622  19.006  26.036  1.00  0.00     0.033 A 
ATOM     87  C   UNL A   1      32.956  18.650  23.358  1.00  0.00     0.088 A 
ATOM     88  C   UNL A   1      33.185  17.815  25.603  1.00  0.00     0.088 A 
ATOM     89  C   UNL A   1      33.345  17.633  24.243  1.00  0.00     0.269 A 
BRANCH  89  90
ATOM     90  N   UNL A   1      33.837  16.341  23.762  1.00  0.00     0.062 N 
ATOM     91  O   UNL A   1      33.913  15.414  24.580  1.00  0.00    -0.258 OA
ATOM     92  O   UNL A   1      34.171  16.255  22.570  1.00  0.00    -0.258 OA
ENDBRANCH  89  90
ENDBRANCH  82  84
ENDBRANCH  76  80
ENDBRANCH  72  74
ENDBRANCH  71  72
ENDBRANCH  70  71
ENDBRANCH   1  70
TORSDOF 17
ENDMDL
