MODEL 1
REMARK VINA RESULT:     -12.1      0.000      0.000
REMARK SMILES NS(=O)(=O)c1ccc(-n2nc(C(F)(F)F)cc2-c2ccc(C(=O)OCCOC(=O)c3ccc(-c4c5nc(c(-c6cccc(S(=O)(=O)[O-])c6F)c6ccc([nH]6)c(-c6cccc(S(=O)(=O)[O-])c6F)c6nc(c(-c7cccc(S(=O)(=O)[O-])c7F)c7ccc4[nH]7)C=C6)C=C5)cc3)cc2)cc1
REMARK SMILES IDX 25 1 24 2 22 3 23 4 21 5 18 6 19 7 94 8 20 9 93 10 17 11
REMARK SMILES IDX 9 12 10 13 11 14 16 15 8 16 5 17 6 18 96 19 7 20 95 21 2 22
REMARK SMILES IDX 3 23 4 24 1 25 12 28 13 29 14 30 15 31 26 32 27 33 28 34
REMARK SMILES IDX 29 35 30 36 31 37 92 38 32 39 91 40 33 41 34 42 35 43 85 44
REMARK SMILES IDX 36 45 90 46 84 47 86 48 37 49 89 50 83 51 82 52 38 54 70 55
REMARK SMILES IDX 50 56 69 57 51 58 54 59 68 60 87 61 52 62 53 63 67 65 88 66
REMARK SMILES IDX 55 67 39 68 40 69 48 70 41 71 43 72 49 73 42 74 44 75 45 76
REMARK SMILES IDX 46 77 47 78 71 79 72 80 80 81 73 82 75 83 81 84 74 85 76 86
REMARK SMILES IDX 77 87 78 88 79 89 56 90 57 91 65 92 58 93 60 94 66 95 59 96
REMARK SMILES IDX 61 97 62 98 63 99 64 100
REMARK H PARENT 1 26 1 27 86 53 54 64
REMARK Flexibility Score: inf
ROOT
ATOM      1  C   UNL A   1      35.769  32.527  28.614  1.00  0.00     0.275 C 
ENDROOT
BRANCH   1   2
ATOM      2  O   UNL A   1      35.309  31.250  28.139  1.00  0.00    -0.458 OA
BRANCH   2   3
ATOM      3  C   UNL A   1      34.028  31.225  27.689  1.00  0.00     0.338 C 
ATOM      4  O   UNL A   1      33.291  32.189  27.546  1.00  0.00    -0.246 OA
BRANCH   3   5
ATOM      5  C   UNL A   1      33.633  29.847  27.305  1.00  0.00     0.060 A 
ATOM      6  C   UNL A   1      32.922  27.294  26.395  1.00  0.00     0.000 A 
ATOM      7  C   UNL A   1      34.209  27.797  26.156  1.00  0.00     0.011 A 
ATOM      8  C   UNL A   1      32.012  28.058  27.135  1.00  0.00     0.011 A 
ATOM      9  C   UNL A   1      34.564  29.068  26.609  1.00  0.00     0.016 A 
ATOM     10  C   UNL A   1      32.368  29.327  27.598  1.00  0.00     0.016 A 
BRANCH   6  11
ATOM     11  C   UNL A   1      32.504  26.032  25.788  1.00  0.00     0.075 A 
ATOM     12  N   UNL A   1      31.421  25.853  24.938  1.00  0.00    -0.233 N 
ATOM     13  N   UNL A   1      31.072  24.540  24.837  1.00  0.00    -0.163 NA
ATOM     14  C   UNL A   1      32.058  23.868  25.463  1.00  0.00     0.167 A 
ATOM     15  C   UNL A   1      32.962  24.763  26.080  1.00  0.00     0.064 A 
BRANCH  12  16
ATOM     16  C   UNL A   1      30.692  26.848  24.240  1.00  0.00     0.065 A 
ATOM     17  C   UNL A   1      29.231  28.875  23.017  1.00  0.00     0.082 A 
ATOM     18  C   UNL A   1      30.621  28.978  23.081  1.00  0.00     0.024 A 
ATOM     19  C   UNL A   1      28.569  27.755  23.536  1.00  0.00     0.024 A 
ATOM     20  C   UNL A   1      31.353  27.967  23.707  1.00  0.00     0.030 A 
ATOM     21  C   UNL A   1      29.303  26.721  24.120  1.00  0.00     0.030 A 
BRANCH  17  22
ATOM     22  S   UNL A   1      28.246  30.168  22.311  1.00  0.00     0.238 S 
ATOM     23  O   UNL A   1      27.051  30.283  23.107  1.00  0.00    -0.207 OA
ATOM     24  O   UNL A   1      28.240  29.964  20.880  1.00  0.00    -0.207 OA
BRANCH  22  25
ATOM     25  N   UNL A   1      29.122  31.576  22.593  1.00  0.00    -0.225 NA
ATOM     26  H   UNL A   1      30.118  31.383  22.491  1.00  0.00     0.137 HD
ATOM     27  H   UNL A   1      28.936  31.908  23.540  1.00  0.00     0.137 HD
ENDBRANCH  22  25
ENDBRANCH  17  22
ENDBRANCH  12  16
BRANCH  14  28
ATOM     28  C   UNL A   1      32.135  22.367  25.512  1.00  0.00     0.435 C 
ATOM     29  F   UNL A   1      30.918  21.764  25.525  1.00  0.00    -0.164 F 
ATOM     30  F   UNL A   1      32.827  21.853  24.459  1.00  0.00    -0.164 F 
ATOM     31  F   UNL A   1      32.784  21.935  26.632  1.00  0.00    -0.164 F 
ENDBRANCH  14  28
ENDBRANCH   6  11
ENDBRANCH   3   5
ENDBRANCH   2   3
ENDBRANCH   1   2
BRANCH   1  32
ATOM     32  C   UNL A   1      35.544  32.670  30.112  1.00  0.00     0.275 C 
BRANCH  32  33
ATOM     33  O   UNL A   1      36.690  32.258  30.852  1.00  0.00    -0.458 OA
BRANCH  33  34
ATOM     34  C   UNL A   1      36.663  30.976  31.273  1.00  0.00     0.338 C 
ATOM     35  O   UNL A   1      35.898  30.471  32.078  1.00  0.00    -0.246 OA
BRANCH  34  36
ATOM     36  C   UNL A   1      37.864  30.298  30.791  1.00  0.00     0.060 A 
ATOM     37  C   UNL A   1      37.844  28.903  30.731  1.00  0.00     0.016 A 
ATOM     38  C   UNL A   1      39.055  31.034  30.696  1.00  0.00     0.016 A 
ATOM     39  C   UNL A   1      39.050  28.238  30.729  1.00  0.00     0.010 A 
ATOM     40  C   UNL A   1      40.253  30.367  30.718  1.00  0.00     0.010 A 
ATOM     41  C   UNL A   1      40.232  28.981  30.816  1.00  0.00    -0.014 A 
BRANCH  41  42
ATOM     42  C   UNL A   1      41.486  28.261  30.875  1.00  0.00     0.031 A 
ATOM     43  C   UNL A   1      41.985  28.113  32.263  1.00  0.00     0.074 A 
ATOM     44  C   UNL A   1      42.031  27.685  29.786  1.00  0.00     0.049 A 
ATOM     45  N   UNL A   1      43.075  28.594  32.759  1.00  0.00    -0.248 NA
ATOM     46  C   UNL A   1      41.068  27.537  33.262  1.00  0.00     0.031 C 
ATOM     47  C   UNL A   1      41.441  27.544  28.450  1.00  0.00     0.029 A 
ATOM     48  N   UNL A   1      43.167  26.943  29.693  1.00  0.00    -0.354 N 
ATOM     49  C   UNL A   1      43.091  28.156  34.080  1.00  0.00     0.074 A 
ATOM     50  C   UNL A   1      41.757  27.718  34.387  1.00  0.00     0.031 C 
ATOM     51  C   UNL A   1      42.067  26.539  27.799  1.00  0.00     0.029 A 
ATOM     52  C   UNL A   1      43.162  26.055  28.622  1.00  0.00     0.049 A 
ATOM     53  H   UNL A   1      43.919  27.027  30.323  1.00  0.00     0.167 HD
ATOM     54  C   UNL A   1      44.262  27.914  34.726  1.00  0.00     0.034 A 
ATOM     55  C   UNL A   1      43.917  24.931  28.507  1.00  0.00     0.034 A 
ATOM     56  C   UNL A   1      45.370  28.562  34.075  1.00  0.00     0.049 A 
ATOM     57  C   UNL A   1      45.053  25.065  29.454  1.00  0.00     0.074 A 
ATOM     58  C   UNL A   1      45.649  29.869  33.722  1.00  0.00     0.029 A 
ATOM     59  N   UNL A   1      46.200  27.778  33.310  1.00  0.00    -0.354 N 
ATOM     60  N   UNL A   1      45.986  25.969  29.327  1.00  0.00    -0.248 NA
ATOM     61  C   UNL A   1      44.879  24.524  30.794  1.00  0.00     0.031 C 
ATOM     62  C   UNL A   1      46.242  29.775  32.430  1.00  0.00     0.029 A 
ATOM     63  C   UNL A   1      46.365  28.421  32.111  1.00  0.00     0.049 A 
ATOM     64  H   UNL A   1      46.599  26.917  33.572  1.00  0.00     0.167 HD
ATOM     65  C   UNL A   1      46.180  26.442  30.619  1.00  0.00     0.074 A 
ATOM     66  C   UNL A   1      45.538  25.455  31.489  1.00  0.00     0.031 C 
ATOM     67  C   UNL A   1      46.559  27.732  30.855  1.00  0.00     0.034 A 
BRANCH  54  68
ATOM     68  C   UNL A   1      44.453  26.786  35.708  1.00  0.00     0.023 A 
ATOM     69  C   UNL A   1      44.061  25.494  35.303  1.00  0.00     0.012 A 
ATOM     70  C   UNL A   1      44.742  26.969  37.081  1.00  0.00     0.148 A 
ATOM     71  C   UNL A   1      43.930  24.449  36.223  1.00  0.00     0.002 A 
ATOM     72  C   UNL A   1      44.698  25.909  37.975  1.00  0.00     0.091 A 
ATOM     73  F   UNL A   1      44.921  28.200  37.571  1.00  0.00    -0.205 F 
ATOM     74  C   UNL A   1      44.262  24.652  37.558  1.00  0.00     0.022 A 
BRANCH  72  75
ATOM     75  S   UNL A   1      45.171  26.112  39.697  1.00  0.00     0.127 S 
ATOM     76  O   UNL A   1      44.093  26.957  40.200  1.00  0.00    -0.237 OA
ATOM     77  O   UNL A   1      45.152  24.729  40.176  1.00  0.00    -0.237 OA
ATOM     78  O   UNL A   1      46.500  26.713  39.669  1.00  0.00    -0.744 OA
ENDBRANCH  72  75
ENDBRANCH  54  68
BRANCH  55  79
ATOM     79  C   UNL A   1      43.540  23.626  27.904  1.00  0.00     0.023 A 
ATOM     80  C   UNL A   1      42.311  23.021  28.233  1.00  0.00     0.012 A 
ATOM     81  C   UNL A   1      44.263  23.093  26.811  1.00  0.00     0.148 A 
ATOM     82  C   UNL A   1      41.816  21.936  27.495  1.00  0.00     0.002 A 
ATOM     83  C   UNL A   1      43.779  22.003  26.093  1.00  0.00     0.091 A 
ATOM     84  F   UNL A   1      45.379  23.712  26.408  1.00  0.00    -0.205 F 
ATOM     85  C   UNL A   1      42.548  21.428  26.424  1.00  0.00     0.022 A 
BRANCH  83  86
ATOM     86  S   UNL A   1      44.681  21.308  24.702  1.00  0.00     0.127 S 
ATOM     87  O   UNL A   1      43.977  20.044  24.483  1.00  0.00    -0.237 OA
ATOM     88  O   UNL A   1      44.468  22.315  23.667  1.00  0.00    -0.237 OA
ATOM     89  O   UNL A   1      46.056  21.151  25.159  1.00  0.00    -0.744 OA
ENDBRANCH  83  86
ENDBRANCH  55  79
BRANCH  67  90
ATOM     90  C   UNL A   1      46.979  28.590  29.687  1.00  0.00     0.023 A 
ATOM     91  C   UNL A   1      48.273  28.536  29.127  1.00  0.00     0.012 A 
ATOM     92  C   UNL A   1      45.981  29.316  29.017  1.00  0.00     0.148 A 
ATOM     93  C   UNL A   1      48.567  29.206  27.936  1.00  0.00     0.002 A 
ATOM     94  C   UNL A   1      46.264  29.942  27.811  1.00  0.00     0.091 A 
ATOM     95  F   UNL A   1      44.754  29.354  29.560  1.00  0.00    -0.205 F 
ATOM     96  C   UNL A   1      47.557  29.897  27.269  1.00  0.00     0.022 A 
BRANCH  94  97
ATOM     97  S   UNL A   1      44.979  30.747  26.854  1.00  0.00     0.127 S 
ATOM     98  O   UNL A   1      44.076  29.635  26.564  1.00  0.00    -0.237 OA
ATOM     99  O   UNL A   1      44.452  31.731  27.800  1.00  0.00    -0.237 OA
ATOM    100  O   UNL A   1      45.646  31.331  25.697  1.00  0.00    -0.744 OA
ENDBRANCH  94  97
ENDBRANCH  67  90
ENDBRANCH  41  42
ENDBRANCH  34  36
ENDBRANCH  33  34
ENDBRANCH  32  33
ENDBRANCH   1  32
TORSDOF 19
ENDMDL
MODEL 2
REMARK VINA RESULT:     -12.0      2.072      2.370
REMARK SMILES NS(=O)(=O)c1ccc(-n2nc(C(F)(F)F)cc2-c2ccc(C(=O)OCCOC(=O)c3ccc(-c4c5nc(c(-c6cccc(S(=O)(=O)[O-])c6F)c6ccc([nH]6)c(-c6cccc(S(=O)(=O)[O-])c6F)c6nc(c(-c7cccc(S(=O)(=O)[O-])c7F)c7ccc4[nH]7)C=C6)C=C5)cc3)cc2)cc1
REMARK SMILES IDX 25 1 24 2 22 3 23 4 21 5 18 6 19 7 94 8 20 9 93 10 17 11
REMARK SMILES IDX 9 12 10 13 11 14 16 15 8 16 5 17 6 18 96 19 7 20 95 21 2 22
REMARK SMILES IDX 3 23 4 24 1 25 12 28 13 29 14 30 15 31 26 32 27 33 28 34
REMARK SMILES IDX 29 35 30 36 31 37 92 38 32 39 91 40 33 41 34 42 35 43 85 44
REMARK SMILES IDX 36 45 90 46 84 47 86 48 37 49 89 50 83 51 82 52 38 54 70 55
REMARK SMILES IDX 50 56 69 57 51 58 54 59 68 60 87 61 52 62 53 63 67 65 88 66
REMARK SMILES IDX 55 67 39 68 40 69 48 70 41 71 43 72 49 73 42 74 44 75 45 76
REMARK SMILES IDX 46 77 47 78 71 79 72 80 80 81 73 82 75 83 81 84 74 85 76 86
REMARK SMILES IDX 77 87 78 88 79 89 56 90 57 91 65 92 58 93 60 94 66 95 59 96
REMARK SMILES IDX 61 97 62 98 63 99 64 100
REMARK H PARENT 1 26 1 27 86 53 54 64
REMARK Flexibility Score: inf
ROOT
ATOM      1  C   UNL A   1      35.529  33.044  28.220  1.00  0.00     0.275 C 
ENDROOT
BRANCH   1   2
ATOM      2  O   UNL A   1      35.115  31.714  27.866  1.00  0.00    -0.458 OA
BRANCH   2   3
ATOM      3  C   UNL A   1      33.782  31.557  27.658  1.00  0.00     0.338 C 
ATOM      4  O   UNL A   1      32.924  32.419  27.770  1.00  0.00    -0.246 OA
BRANCH   3   5
ATOM      5  C   UNL A   1      33.483  30.182  27.186  1.00  0.00     0.060 A 
ATOM      6  C   UNL A   1      32.979  27.640  26.118  1.00  0.00     0.000 A 
ATOM      7  C   UNL A   1      34.273  28.178  26.082  1.00  0.00     0.011 A 
ATOM      8  C   UNL A   1      31.952  28.362  26.737  1.00  0.00     0.011 A 
ATOM      9  C   UNL A   1      34.525  29.443  26.613  1.00  0.00     0.016 A 
ATOM     10  C   UNL A   1      32.204  29.625  27.279  1.00  0.00     0.016 A 
BRANCH   6  11
ATOM     11  C   UNL A   1      32.687  26.387  25.425  1.00  0.00     0.075 A 
ATOM     12  N   UNL A   1      31.655  26.174  24.522  1.00  0.00    -0.233 N 
ATOM     13  N   UNL A   1      31.416  24.846  24.334  1.00  0.00    -0.163 NA
ATOM     14  C   UNL A   1      32.428  24.218  24.963  1.00  0.00     0.167 A 
ATOM     15  C   UNL A   1      33.233  25.143  25.667  1.00  0.00     0.064 A 
BRANCH  12  16
ATOM     16  C   UNL A   1      30.875  27.149  23.849  1.00  0.00     0.065 A 
ATOM     17  C   UNL A   1      29.338  29.147  22.673  1.00  0.00     0.082 A 
ATOM     18  C   UNL A   1      30.727  29.191  22.548  1.00  0.00     0.024 A 
ATOM     19  C   UNL A   1      28.711  28.098  23.358  1.00  0.00     0.024 A 
ATOM     20  C   UNL A   1      31.499  28.195  23.150  1.00  0.00     0.030 A 
ATOM     21  C   UNL A   1      29.479  27.077  23.921  1.00  0.00     0.030 A 
BRANCH  17  22
ATOM     22  S   UNL A   1      28.316  30.429  22.002  1.00  0.00     0.238 S 
ATOM     23  O   UNL A   1      27.283  30.706  22.969  1.00  0.00    -0.207 OA
ATOM     24  O   UNL A   1      28.053  30.086  20.624  1.00  0.00    -0.207 OA
BRANCH  22  25
ATOM     25  N   UNL A   1      29.299  31.794  21.980  1.00  0.00    -0.225 NA
ATOM     26  H   UNL A   1      30.137  31.618  22.533  1.00  0.00     0.137 HD
ATOM     27  H   UNL A   1      28.791  32.585  22.375  1.00  0.00     0.137 HD
ENDBRANCH  22  25
ENDBRANCH  17  22
ENDBRANCH  12  16
BRANCH  14  28
ATOM     28  C   UNL A   1      32.622  22.727  24.932  1.00  0.00     0.435 C 
ATOM     29  F   UNL A   1      32.792  22.179  26.163  1.00  0.00    -0.164 F 
ATOM     30  F   UNL A   1      31.577  22.084  24.346  1.00  0.00    -0.164 F 
ATOM     31  F   UNL A   1      33.727  22.381  24.207  1.00  0.00    -0.164 F 
ENDBRANCH  14  28
ENDBRANCH   6  11
ENDBRANCH   3   5
ENDBRANCH   2   3
ENDBRANCH   1   2
BRANCH   1  32
ATOM     32  C   UNL A   1      35.153  33.373  29.657  1.00  0.00     0.275 C 
BRANCH  32  33
ATOM     33  O   UNL A   1      36.247  33.158  30.543  1.00  0.00    -0.458 OA
BRANCH  33  34
ATOM     34  C   UNL A   1      36.374  31.890  30.990  1.00  0.00     0.338 C 
ATOM     35  O   UNL A   1      35.747  31.350  31.887  1.00  0.00    -0.246 OA
BRANCH  34  36
ATOM     36  C   UNL A   1      37.566  31.296  30.390  1.00  0.00     0.060 A 
ATOM     37  C   UNL A   1      37.576  29.914  30.194  1.00  0.00     0.016 A 
ATOM     38  C   UNL A   1      38.733  32.072  30.314  1.00  0.00     0.016 A 
ATOM     39  C   UNL A   1      38.796  29.287  30.071  1.00  0.00     0.010 A 
ATOM     40  C   UNL A   1      39.946  31.440  30.216  1.00  0.00     0.010 A 
ATOM     41  C   UNL A   1      39.964  30.051  30.177  1.00  0.00    -0.014 A 
BRANCH  41  42
ATOM     42  C   UNL A   1      41.235  29.364  30.107  1.00  0.00     0.031 A 
ATOM     43  C   UNL A   1      41.764  29.023  31.449  1.00  0.00     0.074 A 
ATOM     44  C   UNL A   1      41.773  28.974  28.936  1.00  0.00     0.049 A 
ATOM     45  N   UNL A   1      42.852  29.453  31.996  1.00  0.00    -0.248 NA
ATOM     46  C   UNL A   1      40.881  28.279  32.364  1.00  0.00     0.031 C 
ATOM     47  C   UNL A   1      41.161  29.019  27.603  1.00  0.00     0.029 A 
ATOM     48  N   UNL A   1      42.925  28.286  28.715  1.00  0.00    -0.354 N 
ATOM     49  C   UNL A   1      42.904  28.823  33.236  1.00  0.00     0.074 A 
ATOM     50  C   UNL A   1      41.587  28.307  33.493  1.00  0.00     0.031 C 
ATOM     51  C   UNL A   1      41.799  28.141  26.798  1.00  0.00     0.029 A 
ATOM     52  C   UNL A   1      42.921  27.569  27.522  1.00  0.00     0.049 A 
ATOM     53  H   UNL A   1      43.686  28.294  29.339  1.00  0.00     0.167 HD
ATOM     54  C   UNL A   1      44.093  28.518  33.819  1.00  0.00     0.034 A 
ATOM     55  C   UNL A   1      43.701  26.496  27.227  1.00  0.00     0.034 A 
ATOM     56  C   UNL A   1      45.172  29.286  33.257  1.00  0.00     0.049 A 
ATOM     57  C   UNL A   1      44.851  26.516  28.166  1.00  0.00     0.074 A 
ATOM     58  C   UNL A   1      45.412  30.638  33.101  1.00  0.00     0.029 A 
ATOM     59  N   UNL A   1      46.005  28.649  32.370  1.00  0.00    -0.354 N 
ATOM     60  N   UNL A   1      45.760  27.454  28.163  1.00  0.00    -0.248 NA
ATOM     61  C   UNL A   1      44.717  25.776  29.412  1.00  0.00     0.031 C 
ATOM     62  C   UNL A   1      45.982  30.755  31.800  1.00  0.00     0.029 A 
ATOM     63  C   UNL A   1      46.131  29.469  31.279  1.00  0.00     0.049 A 
ATOM     64  H   UNL A   1      46.430  27.769  32.493  1.00  0.00     0.167 HD
ATOM     65  C   UNL A   1      45.966  27.732  29.508  1.00  0.00     0.074 A 
ATOM     66  C   UNL A   1      45.366  26.609  30.229  1.00  0.00     0.031 C 
ATOM     67  C   UNL A   1      46.319  28.982  29.930  1.00  0.00     0.034 A 
BRANCH  54  68
ATOM     68  C   UNL A   1      44.330  27.261  34.616  1.00  0.00     0.023 A 
ATOM     69  C   UNL A   1      45.059  27.376  35.817  1.00  0.00     0.012 A 
ATOM     70  C   UNL A   1      44.111  25.953  34.121  1.00  0.00     0.148 A 
ATOM     71  C   UNL A   1      45.572  26.251  36.471  1.00  0.00     0.002 A 
ATOM     72  C   UNL A   1      44.544  24.835  34.820  1.00  0.00     0.091 A 
ATOM     73  F   UNL A   1      43.609  25.775  32.895  1.00  0.00    -0.205 F 
ATOM     74  C   UNL A   1      45.304  24.978  35.980  1.00  0.00     0.022 A 
BRANCH  72  75
ATOM     75  S   UNL A   1      44.171  23.170  34.253  1.00  0.00     0.127 S 
ATOM     76  O   UNL A   1      42.712  23.165  34.297  1.00  0.00    -0.237 OA
ATOM     77  O   UNL A   1      44.752  23.178  32.909  1.00  0.00    -0.237 OA
ATOM     78  O   UNL A   1      44.846  22.278  35.187  1.00  0.00    -0.744 OA
ENDBRANCH  72  75
ENDBRANCH  54  68
BRANCH  55  79
ATOM     79  C   UNL A   1      43.345  25.286  26.441  1.00  0.00     0.023 A 
ATOM     80  C   UNL A   1      44.110  24.922  25.314  1.00  0.00     0.012 A 
ATOM     81  C   UNL A   1      42.415  24.343  26.936  1.00  0.00     0.148 A 
ATOM     82  C   UNL A   1      43.963  23.663  24.714  1.00  0.00     0.002 A 
ATOM     83  C   UNL A   1      42.257  23.102  26.326  1.00  0.00     0.091 A 
ATOM     84  F   UNL A   1      41.753  24.617  28.067  1.00  0.00    -0.205 F 
ATOM     85  C   UNL A   1      43.038  22.752  25.220  1.00  0.00     0.022 A 
BRANCH  83  86
ATOM     86  S   UNL A   1      41.080  21.887  26.939  1.00  0.00     0.127 S 
ATOM     87  O   UNL A   1      41.145  22.104  28.385  1.00  0.00    -0.237 OA
ATOM     88  O   UNL A   1      39.838  22.323  26.310  1.00  0.00    -0.237 OA
ATOM     89  O   UNL A   1      41.588  20.590  26.509  1.00  0.00    -0.744 OA
ENDBRANCH  83  86
ENDBRANCH  55  79
BRANCH  67  90
ATOM     90  C   UNL A   1      46.694  30.016  28.899  1.00  0.00     0.023 A 
ATOM     91  C   UNL A   1      47.987  30.101  28.339  1.00  0.00     0.012 A 
ATOM     92  C   UNL A   1      45.663  30.788  28.340  1.00  0.00     0.148 A 
ATOM     93  C   UNL A   1      48.246  30.947  27.257  1.00  0.00     0.002 A 
ATOM     94  C   UNL A   1      45.913  31.593  27.237  1.00  0.00     0.091 A 
ATOM     95  F   UNL A   1      44.439  30.694  28.881  1.00  0.00    -0.205 F 
ATOM     96  C   UNL A   1      47.204  31.683  26.696  1.00  0.00     0.022 A 
BRANCH  94  97
ATOM     97  S   UNL A   1      44.589  32.471  26.405  1.00  0.00     0.127 S 
ATOM     98  O   UNL A   1      43.672  31.385  26.065  1.00  0.00    -0.237 OA
ATOM     99  O   UNL A   1      44.105  33.374  27.450  1.00  0.00    -0.237 OA
ATOM    100  O   UNL A   1      45.207  33.149  25.272  1.00  0.00    -0.744 OA
ENDBRANCH  94  97
ENDBRANCH  67  90
ENDBRANCH  41  42
ENDBRANCH  34  36
ENDBRANCH  33  34
ENDBRANCH  32  33
ENDBRANCH   1  32
TORSDOF 19
ENDMDL
MODEL 3
REMARK VINA RESULT:     -12.0      3.943      6.036
REMARK SMILES NS(=O)(=O)c1ccc(-n2nc(C(F)(F)F)cc2-c2ccc(C(=O)OCCOC(=O)c3ccc(-c4c5nc(c(-c6cccc(S(=O)(=O)[O-])c6F)c6ccc([nH]6)c(-c6cccc(S(=O)(=O)[O-])c6F)c6nc(c(-c7cccc(S(=O)(=O)[O-])c7F)c7ccc4[nH]7)C=C6)C=C5)cc3)cc2)cc1
REMARK SMILES IDX 25 1 24 2 22 3 23 4 21 5 18 6 19 7 94 8 20 9 93 10 17 11
REMARK SMILES IDX 9 12 10 13 11 14 16 15 8 16 5 17 6 18 96 19 7 20 95 21 2 22
REMARK SMILES IDX 3 23 4 24 1 25 12 28 13 29 14 30 15 31 26 32 27 33 28 34
REMARK SMILES IDX 29 35 30 36 31 37 92 38 32 39 91 40 33 41 34 42 35 43 85 44
REMARK SMILES IDX 36 45 90 46 84 47 86 48 37 49 89 50 83 51 82 52 38 54 70 55
REMARK SMILES IDX 50 56 69 57 51 58 54 59 68 60 87 61 52 62 53 63 67 65 88 66
REMARK SMILES IDX 55 67 39 68 40 69 48 70 41 71 43 72 49 73 42 74 44 75 45 76
REMARK SMILES IDX 46 77 47 78 71 79 72 80 80 81 73 82 75 83 81 84 74 85 76 86
REMARK SMILES IDX 77 87 78 88 79 89 56 90 57 91 65 92 58 93 60 94 66 95 59 96
REMARK SMILES IDX 61 97 62 98 63 99 64 100
REMARK H PARENT 1 26 1 27 86 53 54 64
REMARK Flexibility Score: inf
ROOT
ATOM      1  C   UNL A   1      31.819  28.130  25.762  1.00  0.00     0.275 C 
ENDROOT
BRANCH   1   2
ATOM      2  O   UNL A   1      32.061  27.347  24.580  1.00  0.00    -0.458 OA
BRANCH   2   3
ATOM      3  C   UNL A   1      31.706  26.039  24.667  1.00  0.00     0.338 C 
ATOM      4  O   UNL A   1      30.574  25.589  24.586  1.00  0.00    -0.246 OA
BRANCH   3   5
ATOM      5  C   UNL A   1      32.906  25.177  24.803  1.00  0.00     0.060 A 
ATOM      6  C   UNL A   1      35.249  23.686  25.178  1.00  0.00     0.000 A 
ATOM      7  C   UNL A   1      34.443  24.023  26.274  1.00  0.00     0.011 A 
ATOM      8  C   UNL A   1      34.847  24.057  23.889  1.00  0.00     0.011 A 
ATOM      9  C   UNL A   1      33.276  24.766  26.089  1.00  0.00     0.016 A 
ATOM     10  C   UNL A   1      33.675  24.793  23.700  1.00  0.00     0.016 A 
BRANCH   6  11
ATOM     11  C   UNL A   1      36.545  23.045  25.391  1.00  0.00     0.075 A 
ATOM     12  N   UNL A   1      36.772  21.680  25.508  1.00  0.00    -0.233 N 
ATOM     13  N   UNL A   1      37.990  21.418  26.058  1.00  0.00    -0.163 NA
ATOM     14  C   UNL A   1      38.616  22.610  26.104  1.00  0.00     0.167 A 
ATOM     15  C   UNL A   1      37.743  23.651  25.709  1.00  0.00     0.064 A 
BRANCH  12  16
ATOM     16  C   UNL A   1      35.900  20.621  25.150  1.00  0.00     0.065 A 
ATOM     17  C   UNL A   1      34.196  18.597  24.290  1.00  0.00     0.082 A 
ATOM     18  C   UNL A   1      35.559  18.331  24.426  1.00  0.00     0.024 A 
ATOM     19  C   UNL A   1      33.676  19.859  24.606  1.00  0.00     0.024 A 
ATOM     20  C   UNL A   1      36.416  19.351  24.844  1.00  0.00     0.030 A 
ATOM     21  C   UNL A   1      34.524  20.866  25.070  1.00  0.00     0.030 A 
BRANCH  17  22
ATOM     22  S   UNL A   1      33.077  17.366  23.681  1.00  0.00     0.238 S 
ATOM     23  O   UNL A   1      33.707  16.082  23.866  1.00  0.00    -0.207 OA
ATOM     24  O   UNL A   1      32.578  17.838  22.410  1.00  0.00    -0.207 OA
BRANCH  22  25
ATOM     25  N   UNL A   1      31.780  17.399  24.751  1.00  0.00    -0.225 NA
ATOM     26  H   UNL A   1      31.943  18.113  25.460  1.00  0.00     0.137 HD
ATOM     27  H   UNL A   1      31.688  16.488  25.201  1.00  0.00     0.137 HD
ENDBRANCH  22  25
ENDBRANCH  17  22
ENDBRANCH  12  16
BRANCH  14  28
ATOM     28  C   UNL A   1      40.041  22.780  26.555  1.00  0.00     0.435 C 
ATOM     29  F   UNL A   1      40.511  24.044  26.394  1.00  0.00    -0.164 F 
ATOM     30  F   UNL A   1      40.207  22.453  27.865  1.00  0.00    -0.164 F 
ATOM     31  F   UNL A   1      40.887  21.968  25.857  1.00  0.00    -0.164 F 
ENDBRANCH  14  28
ENDBRANCH   6  11
ENDBRANCH   3   5
ENDBRANCH   2   3
ENDBRANCH   1   2
BRANCH   1  32
ATOM     32  C   UNL A   1      32.859  29.229  25.917  1.00  0.00     0.275 C 
BRANCH  32  33
ATOM     33  O   UNL A   1      33.561  29.110  27.152  1.00  0.00    -0.458 OA
BRANCH  33  34
ATOM     34  C   UNL A   1      34.053  30.269  27.638  1.00  0.00     0.338 C 
ATOM     35  O   UNL A   1      33.435  31.286  27.910  1.00  0.00    -0.246 OA
BRANCH  34  36
ATOM     36  C   UNL A   1      35.512  30.223  27.578  1.00  0.00     0.060 A 
ATOM     37  C   UNL A   1      36.122  28.968  27.537  1.00  0.00     0.016 A 
ATOM     38  C   UNL A   1      36.230  31.396  27.858  1.00  0.00     0.016 A 
ATOM     39  C   UNL A   1      37.438  28.875  27.933  1.00  0.00     0.010 A 
ATOM     40  C   UNL A   1      37.532  31.295  28.274  1.00  0.00     0.010 A 
ATOM     41  C   UNL A   1      38.092  30.027  28.383  1.00  0.00    -0.014 A 
BRANCH  41  42
ATOM     42  C   UNL A   1      39.455  29.897  28.852  1.00  0.00     0.031 A 
ATOM     43  C   UNL A   1      39.627  30.420  30.228  1.00  0.00     0.074 A 
ATOM     44  C   UNL A   1      40.395  29.242  28.143  1.00  0.00     0.049 A 
ATOM     45  N   UNL A   1      40.364  31.412  30.602  1.00  0.00    -0.248 NA
ATOM     46  C   UNL A   1      38.723  29.910  31.272  1.00  0.00     0.031 C 
ATOM     47  C   UNL A   1      40.215  28.453  26.920  1.00  0.00     0.029 A 
ATOM     48  N   UNL A   1      41.692  28.999  28.471  1.00  0.00    -0.354 N 
ATOM     49  C   UNL A   1      40.198  31.481  31.983  1.00  0.00     0.074 A 
ATOM     50  C   UNL A   1      39.032  30.701  32.299  1.00  0.00     0.031 C 
ATOM     51  C   UNL A   1      41.258  27.603  26.790  1.00  0.00     0.029 A 
ATOM     52  C   UNL A   1      42.219  27.872  27.846  1.00  0.00     0.049 A 
ATOM     53  H   UNL A   1      42.207  29.565  29.090  1.00  0.00     0.167 HD
ATOM     54  C   UNL A   1      41.196  31.928  32.789  1.00  0.00     0.034 A 
ATOM     55  C   UNL A   1      43.289  27.148  28.265  1.00  0.00     0.034 A 
ATOM     56  C   UNL A   1      42.171  32.689  32.053  1.00  0.00     0.049 A 
ATOM     57  C   UNL A   1      44.066  28.007  29.193  1.00  0.00     0.074 A 
ATOM     58  C   UNL A   1      42.108  33.806  31.242  1.00  0.00     0.029 A 
ATOM     59  N   UNL A   1      43.360  32.069  31.752  1.00  0.00    -0.354 N 
ATOM     60  N   UNL A   1      44.676  29.098  28.816  1.00  0.00    -0.248 NA
ATOM     61  C   UNL A   1      43.754  27.921  30.612  1.00  0.00     0.031 C 
ATOM     62  C   UNL A   1      42.992  33.518  30.162  1.00  0.00     0.029 A 
ATOM     63  C   UNL A   1      43.599  32.288  30.420  1.00  0.00     0.049 A 
ATOM     64  H   UNL A   1      43.931  31.563  32.374  1.00  0.00     0.167 HD
ATOM     65  C   UNL A   1      44.399  30.010  29.825  1.00  0.00     0.074 A 
ATOM     66  C   UNL A   1      43.906  29.206  30.945  1.00  0.00     0.031 C 
ATOM     67  C   UNL A   1      44.293  31.347  29.569  1.00  0.00     0.034 A 
BRANCH  54  68
ATOM     68  C   UNL A   1      41.486  31.352  34.152  1.00  0.00     0.023 A 
ATOM     69  C   UNL A   1      41.725  32.257  35.206  1.00  0.00     0.012 A 
ATOM     70  C   UNL A   1      41.798  29.992  34.389  1.00  0.00     0.148 A 
ATOM     71  C   UNL A   1      42.276  31.835  36.420  1.00  0.00     0.002 A 
ATOM     72  C   UNL A   1      42.261  29.563  35.625  1.00  0.00     0.091 A 
ATOM     73  F   UNL A   1      41.791  29.116  33.380  1.00  0.00    -0.205 F 
ATOM     74  C   UNL A   1      42.533  30.485  36.636  1.00  0.00     0.022 A 
BRANCH  72  75
ATOM     75  S   UNL A   1      42.552  27.823  35.967  1.00  0.00     0.127 S 
ATOM     76  O   UNL A   1      41.223  27.257  35.758  1.00  0.00    -0.237 OA
ATOM     77  O   UNL A   1      43.542  27.481  34.944  1.00  0.00    -0.237 OA
ATOM     78  O   UNL A   1      43.066  27.772  37.330  1.00  0.00    -0.744 OA
ENDBRANCH  72  75
ENDBRANCH  54  68
BRANCH  55  79
ATOM     79  C   UNL A   1      43.490  25.677  28.194  1.00  0.00     0.023 A 
ATOM     80  C   UNL A   1      43.030  24.847  29.237  1.00  0.00     0.012 A 
ATOM     81  C   UNL A   1      43.901  25.055  26.992  1.00  0.00     0.148 A 
ATOM     82  C   UNL A   1      42.971  23.454  29.082  1.00  0.00     0.002 A 
ATOM     83  C   UNL A   1      43.861  23.671  26.849  1.00  0.00     0.091 A 
ATOM     84  F   UNL A   1      44.240  25.822  25.949  1.00  0.00    -0.205 F 
ATOM     85  C   UNL A   1      43.384  22.866  27.889  1.00  0.00     0.022 A 
BRANCH  83  86
ATOM     86  S   UNL A   1      44.380  22.860  25.331  1.00  0.00     0.127 S 
ATOM     87  O   UNL A   1      43.272  23.171  24.426  1.00  0.00    -0.237 OA
ATOM     88  O   UNL A   1      45.630  23.550  25.028  1.00  0.00    -0.237 OA
ATOM     89  O   UNL A   1      44.499  21.444  25.658  1.00  0.00    -0.744 OA
ENDBRANCH  83  86
ENDBRANCH  55  79
BRANCH  67  90
ATOM     90  C   UNL A   1      44.692  31.857  28.207  1.00  0.00     0.023 A 
ATOM     91  C   UNL A   1      43.783  31.952  27.131  1.00  0.00     0.012 A 
ATOM     92  C   UNL A   1      45.962  32.441  28.073  1.00  0.00     0.148 A 
ATOM     93  C   UNL A   1      44.141  32.600  25.945  1.00  0.00     0.002 A 
ATOM     94  C   UNL A   1      46.299  33.123  26.911  1.00  0.00     0.091 A 
ATOM     95  F   UNL A   1      46.814  32.346  29.106  1.00  0.00    -0.205 F 
ATOM     96  C   UNL A   1      45.395  33.199  25.841  1.00  0.00     0.022 A 
BRANCH  94  97
ATOM     97  S   UNL A   1      47.851  34.009  26.767  1.00  0.00     0.127 S 
ATOM     98  O   UNL A   1      47.801  34.484  25.386  1.00  0.00    -0.237 OA
ATOM     99  O   UNL A   1      47.710  35.057  27.779  1.00  0.00    -0.237 OA
ATOM    100  O   UNL A   1      48.897  33.036  27.058  1.00  0.00    -0.744 OA
ENDBRANCH  94  97
ENDBRANCH  67  90
ENDBRANCH  41  42
ENDBRANCH  34  36
ENDBRANCH  33  34
ENDBRANCH  32  33
ENDBRANCH   1  32
TORSDOF 19
ENDMDL
