MODEL 1
REMARK VINA RESULT:     -13.3      0.000      0.000
REMARK SMILES O=C(OCCOC(=O)[C@H](c1c[nH]c2cc(F)ccc12)[NH+]1CC[NH+](CC(=O)N2CCOCC2)CC1)c1ccc(-c2c3nc(c(-c4cccc(S(=O)(=O)[O-])c4F)c4ccc([nH]4)c(-c4cccc(S(=O)(=O)[O-])c4F)c4nc(c(-c5cccc(S(=O)(=O)[O-])c5F)c5ccc2[nH]5)C=C4)C=C3)cc1
REMARK SMILES IDX 4 1 3 2 2 3 1 4 35 5 36 6 97 7 37 8 96 9 38 10 39 11 40 12
REMARK SMILES IDX 90 13 41 14 95 15 89 16 91 17 42 18 94 19 88 20 87 21 43 23
REMARK SMILES IDX 75 24 55 25 74 26 56 27 59 28 73 29 92 30 57 31 58 32 72 34
REMARK SMILES IDX 93 35 60 36 44 37 45 38 53 39 46 40 48 41 54 42 47 43 49 44
REMARK SMILES IDX 50 45 51 46 52 47 76 48 77 49 85 50 78 51 80 52 86 53 79 54
REMARK SMILES IDX 81 55 82 56 83 57 84 58 61 59 62 60 70 61 63 62 65 63 71 64
REMARK SMILES IDX 64 65 66 66 67 67 68 68 69 69 5 70 6 71 7 72 8 73 9 74 20 75
REMARK SMILES IDX 21 76 34 77 22 79 33 80 23 81 24 83 25 84 26 85 27 86 28 87
REMARK SMILES IDX 32 88 29 89 31 90 30 91 10 92 11 93 19 94 12 95 13 96 18 97
REMARK SMILES IDX 14 99 17 100 15 101 16 102
REMARK H PARENT 91 22 59 33 20 78 23 82 12 98
REMARK Flexibility Score: inf
ROOT
ATOM      1  C   UNL A   1      37.080  21.443  24.428  1.00  0.00     0.275 C 
ENDROOT
BRANCH   1   2
ATOM      2  O   UNL A   1      37.686  21.569  25.727  1.00  0.00    -0.458 OA
BRANCH   2   3
ATOM      3  C   UNL A   1      38.994  21.634  26.074  1.00  0.00     0.338 C 
ATOM      4  O   UNL A   1      39.671  20.612  25.978  1.00  0.00    -0.246 OA
BRANCH   3   5
ATOM      5  C   UNL A   1      39.638  22.844  26.685  1.00  0.00     0.060 A 
ATOM      6  C   UNL A   1      40.611  22.861  27.688  1.00  0.00     0.016 A 
ATOM      7  C   UNL A   1      39.224  24.082  26.173  1.00  0.00     0.016 A 
ATOM      8  C   UNL A   1      41.206  24.058  28.109  1.00  0.00     0.010 A 
ATOM      9  C   UNL A   1      39.846  25.273  26.566  1.00  0.00     0.010 A 
ATOM     10  C   UNL A   1      40.843  25.281  27.544  1.00  0.00    -0.014 A 
BRANCH  10  11
ATOM     11  C   UNL A   1      41.405  26.550  28.082  1.00  0.00     0.031 A 
ATOM     12  C   UNL A   1      42.853  26.872  27.813  1.00  0.00     0.074 A 
ATOM     13  C   UNL A   1      40.632  27.430  28.755  1.00  0.00     0.049 A 
ATOM     14  N   UNL A   1      43.514  27.969  28.072  1.00  0.00    -0.248 NA
ATOM     15  C   UNL A   1      43.669  25.827  27.167  1.00  0.00     0.031 C 
ATOM     16  C   UNL A   1      39.223  27.233  29.107  1.00  0.00     0.029 A 
ATOM     17  N   UNL A   1      40.916  28.674  29.264  1.00  0.00    -0.354 N 
ATOM     18  C   UNL A   1      44.805  27.744  27.612  1.00  0.00     0.074 A 
ATOM     19  C   UNL A   1      44.869  26.377  27.160  1.00  0.00     0.031 C 
ATOM     20  C   UNL A   1      38.777  28.301  29.790  1.00  0.00     0.029 A 
ATOM     21  C   UNL A   1      39.854  29.279  29.898  1.00  0.00     0.049 A 
ATOM     22  H   UNL A   1      41.803  29.096  29.182  1.00  0.00     0.167 HD
ATOM     23  C   UNL A   1      45.831  28.616  27.491  1.00  0.00     0.034 A 
ATOM     24  C   UNL A   1      39.749  30.497  30.471  1.00  0.00     0.034 A 
ATOM     25  C   UNL A   1      45.763  29.985  27.906  1.00  0.00     0.049 A 
ATOM     26  C   UNL A   1      40.914  31.447  30.347  1.00  0.00     0.074 A 
ATOM     27  C   UNL A   1      46.731  30.966  27.809  1.00  0.00     0.029 A 
ATOM     28  N   UNL A   1      44.656  30.564  28.505  1.00  0.00    -0.354 N 
ATOM     29  N   UNL A   1      42.072  31.258  29.760  1.00  0.00    -0.248 NA
ATOM     30  C   UNL A   1      40.735  32.798  30.898  1.00  0.00     0.031 C 
ATOM     31  C   UNL A   1      46.214  32.137  28.371  1.00  0.00     0.029 A 
ATOM     32  C   UNL A   1      44.914  31.891  28.787  1.00  0.00     0.049 A 
ATOM     33  H   UNL A   1      43.811  30.099  28.700  1.00  0.00     0.167 HD
ATOM     34  C   UNL A   1      42.738  32.476  29.830  1.00  0.00     0.074 A 
ATOM     35  C   UNL A   1      41.843  33.403  30.490  1.00  0.00     0.031 C 
ATOM     36  C   UNL A   1      43.982  32.802  29.399  1.00  0.00     0.034 A 
BRANCH  23  37
ATOM     37  C   UNL A   1      47.080  28.106  26.822  1.00  0.00     0.023 A 
ATOM     38  C   UNL A   1      48.183  27.725  27.616  1.00  0.00     0.012 A 
ATOM     39  C   UNL A   1      47.174  28.025  25.422  1.00  0.00     0.148 A 
ATOM     40  C   UNL A   1      49.380  27.325  27.025  1.00  0.00     0.002 A 
ATOM     41  C   UNL A   1      48.354  27.578  24.841  1.00  0.00     0.091 A 
ATOM     42  F   UNL A   1      46.120  28.410  24.688  1.00  0.00    -0.205 F 
ATOM     43  C   UNL A   1      49.463  27.246  25.640  1.00  0.00     0.022 A 
BRANCH  41  44
ATOM     44  S   UNL A   1      48.547  27.375  23.069  1.00  0.00     0.127 S 
ATOM     45  O   UNL A   1      47.457  28.205  22.555  1.00  0.00    -0.237 OA
ATOM     46  O   UNL A   1      49.886  27.920  22.847  1.00  0.00    -0.237 OA
ATOM     47  O   UNL A   1      48.413  25.949  22.808  1.00  0.00    -0.744 OA
ENDBRANCH  41  44
ENDBRANCH  23  37
BRANCH  24  48
ATOM     48  C   UNL A   1      38.483  30.929  31.138  1.00  0.00     0.023 A 
ATOM     49  C   UNL A   1      38.282  30.679  32.510  1.00  0.00     0.012 A 
ATOM     50  C   UNL A   1      37.460  31.563  30.408  1.00  0.00     0.148 A 
ATOM     51  C   UNL A   1      37.068  30.992  33.127  1.00  0.00     0.002 A 
ATOM     52  C   UNL A   1      36.274  31.926  31.041  1.00  0.00     0.091 A 
ATOM     53  F   UNL A   1      37.660  31.795  29.102  1.00  0.00    -0.205 F 
ATOM     54  C   UNL A   1      36.065  31.619  32.393  1.00  0.00     0.022 A 
BRANCH  52  55
ATOM     55  S   UNL A   1      34.997  32.872  30.205  1.00  0.00     0.127 S 
ATOM     56  O   UNL A   1      34.094  33.196  31.307  1.00  0.00    -0.237 OA
ATOM     57  O   UNL A   1      35.762  34.005  29.678  1.00  0.00    -0.237 OA
ATOM     58  O   UNL A   1      34.472  31.988  29.178  1.00  0.00    -0.744 OA
ENDBRANCH  52  55
ENDBRANCH  24  48
BRANCH  36  59
ATOM     59  C   UNL A   1      44.435  34.223  29.593  1.00  0.00     0.023 A 
ATOM     60  C   UNL A   1      45.099  34.593  30.779  1.00  0.00     0.012 A 
ATOM     61  C   UNL A   1      44.273  35.168  28.562  1.00  0.00     0.148 A 
ATOM     62  C   UNL A   1      45.559  35.896  30.952  1.00  0.00     0.002 A 
ATOM     63  C   UNL A   1      44.787  36.449  28.718  1.00  0.00     0.091 A 
ATOM     64  F   UNL A   1      43.620  34.799  27.450  1.00  0.00    -0.205 F 
ATOM     65  C   UNL A   1      45.416  36.819  29.917  1.00  0.00     0.022 A 
BRANCH  63  66
ATOM     66  S   UNL A   1      44.747  37.663  27.397  1.00  0.00     0.127 S 
ATOM     67  O   UNL A   1      44.992  38.905  28.126  1.00  0.00    -0.237 OA
ATOM     68  O   UNL A   1      45.854  37.227  26.543  1.00  0.00    -0.237 OA
ATOM     69  O   UNL A   1      43.431  37.544  26.784  1.00  0.00    -0.744 OA
ENDBRANCH  63  66
ENDBRANCH  36  59
ENDBRANCH  10  11
ENDBRANCH   3   5
ENDBRANCH   2   3
ENDBRANCH   1   2
BRANCH   1  70
ATOM     70  C   UNL A   1      36.782  22.775  23.735  1.00  0.00     0.274 C 
BRANCH  70  71
ATOM     71  O   UNL A   1      35.584  23.393  24.222  1.00  0.00    -0.457 OA
BRANCH  71  72
ATOM     72  C   UNL A   1      34.462  23.328  23.421  1.00  0.00     0.370 C 
ATOM     73  O   UNL A   1      34.394  23.823  22.301  1.00  0.00    -0.245 OA
BRANCH  72  74
ATOM     74  C   UNL A   1      33.369  22.517  24.155  1.00  0.00     0.328 C 
BRANCH  74  75
ATOM     75  N   UNL A   1      32.320  23.385  24.698  1.00  0.00    -0.310 N 
ATOM     76  C   UNL A   1      31.202  22.771  25.413  1.00  0.00     0.325 C 
ATOM     77  C   UNL A   1      32.779  24.716  25.096  1.00  0.00     0.325 C 
ATOM     78  H   UNL A   1      31.761  23.602  23.874  1.00  0.00     0.349 HD
ATOM     79  C   UNL A   1      30.762  23.483  26.713  1.00  0.00     0.325 C 
ATOM     80  C   UNL A   1      32.191  25.363  26.355  1.00  0.00     0.325 C 
ATOM     81  N   UNL A   1      30.840  24.942  26.689  1.00  0.00    -0.318 N 
ATOM     82  H   UNL A   1      30.623  25.227  27.644  1.00  0.00     0.348 HD
BRANCH  81  83
ATOM     83  C   UNL A   1      29.773  25.686  25.984  1.00  0.00     0.364 C 
BRANCH  83  84
ATOM     84  C   UNL A   1      29.998  25.981  24.490  1.00  0.00     0.277 C 
ATOM     85  O   UNL A   1      29.782  25.082  23.662  1.00  0.00    -0.268 OA
ATOM     86  N   UNL A   1      30.421  27.235  24.057  1.00  0.00    -0.333 N 
ATOM     87  C   UNL A   1      30.967  28.297  24.903  1.00  0.00     0.148 C 
ATOM     88  C   UNL A   1      30.718  27.396  22.634  1.00  0.00     0.148 C 
ATOM     89  C   UNL A   1      30.781  29.701  24.324  1.00  0.00     0.181 C 
ATOM     90  C   UNL A   1      30.549  28.841  22.155  1.00  0.00     0.181 C 
ATOM     91  O   UNL A   1      31.278  29.763  22.975  1.00  0.00    -0.378 OA
ENDBRANCH  83  84
ENDBRANCH  81  83
ENDBRANCH  74  75
BRANCH  74  92
ATOM     92  C   UNL A   1      32.809  21.325  23.407  1.00  0.00     0.046 A 
ATOM     93  C   UNL A   1      31.980  21.318  22.298  1.00  0.00     0.094 A 
ATOM     94  C   UNL A   1      33.078  19.942  23.712  1.00  0.00     0.009 A 
ATOM     95  N   UNL A   1      31.783  20.023  21.905  1.00  0.00    -0.361 N 
ATOM     96  C   UNL A   1      32.472  19.164  22.726  1.00  0.00     0.049 A 
ATOM     97  C   UNL A   1      33.826  19.276  24.709  1.00  0.00     0.014 A 
ATOM     98  H   UNL A   1      31.226  19.745  21.142  1.00  0.00     0.166 HD
ATOM     99  C   UNL A   1      32.617  17.772  22.671  1.00  0.00     0.065 A 
ATOM    100  C   UNL A   1      33.997  17.892  24.665  1.00  0.00     0.040 A 
ATOM    101  C   UNL A   1      33.403  17.164  23.650  1.00  0.00     0.125 A 
ATOM    102  F   UNL A   1      33.594  15.839  23.603  1.00  0.00    -0.207 F 
ENDBRANCH  74  92
ENDBRANCH  72  74
ENDBRANCH  71  72
ENDBRANCH  70  71
ENDBRANCH   1  70
TORSDOF 18
ENDMDL
MODEL 2
REMARK VINA RESULT:     -13.3      4.965     10.550
REMARK SMILES O=C(OCCOC(=O)[C@H](c1c[nH]c2cc(F)ccc12)[NH+]1CC[NH+](CC(=O)N2CCOCC2)CC1)c1ccc(-c2c3nc(c(-c4cccc(S(=O)(=O)[O-])c4F)c4ccc([nH]4)c(-c4cccc(S(=O)(=O)[O-])c4F)c4nc(c(-c5cccc(S(=O)(=O)[O-])c5F)c5ccc2[nH]5)C=C4)C=C3)cc1
REMARK SMILES IDX 4 1 3 2 2 3 1 4 35 5 36 6 97 7 37 8 96 9 38 10 39 11 40 12
REMARK SMILES IDX 90 13 41 14 95 15 89 16 91 17 42 18 94 19 88 20 87 21 43 23
REMARK SMILES IDX 75 24 55 25 74 26 56 27 59 28 73 29 92 30 57 31 58 32 72 34
REMARK SMILES IDX 93 35 60 36 44 37 45 38 53 39 46 40 48 41 54 42 47 43 49 44
REMARK SMILES IDX 50 45 51 46 52 47 76 48 77 49 85 50 78 51 80 52 86 53 79 54
REMARK SMILES IDX 81 55 82 56 83 57 84 58 61 59 62 60 70 61 63 62 65 63 71 64
REMARK SMILES IDX 64 65 66 66 67 67 68 68 69 69 5 70 6 71 7 72 8 73 9 74 20 75
REMARK SMILES IDX 21 76 34 77 22 79 33 80 23 81 24 83 25 84 26 85 27 86 28 87
REMARK SMILES IDX 32 88 29 89 31 90 30 91 10 92 11 93 19 94 12 95 13 96 18 97
REMARK SMILES IDX 14 99 17 100 15 101 16 102
REMARK H PARENT 91 22 59 33 20 78 23 82 12 98
REMARK Flexibility Score: inf
ROOT
ATOM      1  C   UNL A   1      32.322  30.267  26.618  1.00  0.00     0.275 C 
ENDROOT
BRANCH   1   2
ATOM      2  O   UNL A   1      32.886  31.589  26.643  1.00  0.00    -0.458 OA
BRANCH   2   3
ATOM      3  C   UNL A   1      33.611  32.209  27.606  1.00  0.00     0.338 C 
ATOM      4  O   UNL A   1      33.288  33.350  27.931  1.00  0.00    -0.246 OA
BRANCH   3   5
ATOM      5  C   UNL A   1      34.857  31.635  28.213  1.00  0.00     0.060 A 
ATOM      6  C   UNL A   1      35.017  30.355  28.751  1.00  0.00     0.016 A 
ATOM      7  C   UNL A   1      35.980  32.477  28.218  1.00  0.00     0.016 A 
ATOM      8  C   UNL A   1      36.264  29.903  29.203  1.00  0.00     0.010 A 
ATOM      9  C   UNL A   1      37.232  32.011  28.634  1.00  0.00     0.010 A 
ATOM     10  C   UNL A   1      37.394  30.719  29.139  1.00  0.00    -0.014 A 
BRANCH  10  11
ATOM     11  C   UNL A   1      38.682  30.261  29.725  1.00  0.00     0.031 A 
ATOM     12  C   UNL A   1      39.095  30.794  31.073  1.00  0.00     0.074 A 
ATOM     13  C   UNL A   1      39.453  29.346  29.096  1.00  0.00     0.049 A 
ATOM     14  N   UNL A   1      40.104  30.439  31.825  1.00  0.00    -0.248 NA
ATOM     15  C   UNL A   1      38.269  31.865  31.658  1.00  0.00     0.031 C 
ATOM     16  C   UNL A   1      39.186  28.766  27.777  1.00  0.00     0.029 A 
ATOM     17  N   UNL A   1      40.621  28.733  29.483  1.00  0.00    -0.354 N 
ATOM     18  C   UNL A   1      40.019  31.232  32.962  1.00  0.00     0.074 A 
ATOM     19  C   UNL A   1      38.935  32.160  32.760  1.00  0.00     0.031 C 
ATOM     20  C   UNL A   1      40.168  27.906  27.456  1.00  0.00     0.029 A 
ATOM     21  C   UNL A   1      41.121  27.841  28.559  1.00  0.00     0.049 A 
ATOM     22  H   UNL A   1      41.062  28.915  30.345  1.00  0.00     0.167 HD
ATOM     23  C   UNL A   1      40.720  31.149  34.115  1.00  0.00     0.034 A 
ATOM     24  C   UNL A   1      42.204  27.039  28.609  1.00  0.00     0.034 A 
ATOM     25  C   UNL A   1      41.776  30.206  34.335  1.00  0.00     0.049 A 
ATOM     26  C   UNL A   1      42.989  26.977  29.896  1.00  0.00     0.074 A 
ATOM     27  C   UNL A   1      42.538  30.013  35.471  1.00  0.00     0.029 A 
ATOM     28  N   UNL A   1      42.220  29.297  33.389  1.00  0.00    -0.354 N 
ATOM     29  N   UNL A   1      42.784  27.627  31.017  1.00  0.00    -0.248 NA
ATOM     30  C   UNL A   1      44.106  26.023  29.951  1.00  0.00     0.031 C 
ATOM     31  C   UNL A   1      43.461  28.998  35.203  1.00  0.00     0.029 A 
ATOM     32  C   UNL A   1      43.250  28.539  33.911  1.00  0.00     0.049 A 
ATOM     33  H   UNL A   1      41.856  29.205  32.479  1.00  0.00     0.167 HD
ATOM     34  C   UNL A   1      43.714  27.128  31.922  1.00  0.00     0.074 A 
ATOM     35  C   UNL A   1      44.463  26.102  31.226  1.00  0.00     0.031 C 
ATOM     36  C   UNL A   1      43.941  27.489  33.210  1.00  0.00     0.034 A 
BRANCH  23  37
ATOM     37  C   UNL A   1      40.303  32.068  35.231  1.00  0.00     0.023 A 
ATOM     38  C   UNL A   1      41.026  33.261  35.451  1.00  0.00     0.012 A 
ATOM     39  C   UNL A   1      39.223  31.748  36.072  1.00  0.00     0.148 A 
ATOM     40  C   UNL A   1      40.715  34.093  36.525  1.00  0.00     0.002 A 
ATOM     41  C   UNL A   1      38.887  32.607  37.111  1.00  0.00     0.091 A 
ATOM     42  F   UNL A   1      38.563  30.601  35.856  1.00  0.00    -0.205 F 
ATOM     43  C   UNL A   1      39.643  33.769  37.350  1.00  0.00     0.022 A 
BRANCH  41  44
ATOM     44  S   UNL A   1      37.485  32.321  38.193  1.00  0.00     0.127 S 
ATOM     45  O   UNL A   1      37.344  30.867  38.116  1.00  0.00    -0.237 OA
ATOM     46  O   UNL A   1      37.986  32.819  39.473  1.00  0.00    -0.237 OA
ATOM     47  O   UNL A   1      36.378  33.080  37.629  1.00  0.00    -0.744 OA
ENDBRANCH  41  44
ENDBRANCH  23  37
BRANCH  24  48
ATOM     48  C   UNL A   1      42.571  26.166  27.452  1.00  0.00     0.023 A 
ATOM     49  C   UNL A   1      43.316  26.690  26.376  1.00  0.00     0.012 A 
ATOM     50  C   UNL A   1      42.159  24.821  27.399  1.00  0.00     0.148 A 
ATOM     51  C   UNL A   1      43.587  25.915  25.246  1.00  0.00     0.002 A 
ATOM     52  C   UNL A   1      42.482  24.036  26.295  1.00  0.00     0.091 A 
ATOM     53  F   UNL A   1      41.450  24.333  28.427  1.00  0.00    -0.205 F 
ATOM     54  C   UNL A   1      43.174  24.587  25.207  1.00  0.00     0.022 A 
BRANCH  52  55
ATOM     55  S   UNL A   1      42.119  22.278  26.236  1.00  0.00     0.127 S 
ATOM     56  O   UNL A   1      42.631  21.823  27.527  1.00  0.00    -0.237 OA
ATOM     57  O   UNL A   1      40.660  22.279  26.114  1.00  0.00    -0.237 OA
ATOM     58  O   UNL A   1      42.809  21.782  25.057  1.00  0.00    -0.744 OA
ENDBRANCH  52  55
ENDBRANCH  24  48
BRANCH  36  59
ATOM     59  C   UNL A   1      45.013  26.750  33.961  1.00  0.00     0.023 A 
ATOM     60  C   UNL A   1      46.330  27.250  33.981  1.00  0.00     0.012 A 
ATOM     61  C   UNL A   1      44.694  25.603  34.712  1.00  0.00     0.148 A 
ATOM     62  C   UNL A   1      47.322  26.596  34.707  1.00  0.00     0.002 A 
ATOM     63  C   UNL A   1      45.675  24.990  35.481  1.00  0.00     0.091 A 
ATOM     64  F   UNL A   1      43.439  25.132  34.661  1.00  0.00    -0.205 F 
ATOM     65  C   UNL A   1      46.991  25.476  35.467  1.00  0.00     0.022 A 
BRANCH  63  66
ATOM     66  S   UNL A   1      45.311  23.614  36.574  1.00  0.00     0.127 S 
ATOM     67  O   UNL A   1      44.512  22.749  35.709  1.00  0.00    -0.237 OA
ATOM     68  O   UNL A   1      46.648  23.104  36.883  1.00  0.00    -0.237 OA
ATOM     69  O   UNL A   1      44.606  24.184  37.714  1.00  0.00    -0.744 OA
ENDBRANCH  63  66
ENDBRANCH  36  59
ENDBRANCH  10  11
ENDBRANCH   3   5
ENDBRANCH   2   3
ENDBRANCH   1   2
BRANCH   1  70
ATOM     70  C   UNL A   1      33.184  29.222  25.903  1.00  0.00     0.274 C 
BRANCH  70  71
ATOM     71  O   UNL A   1      33.138  27.941  26.544  1.00  0.00    -0.457 OA
BRANCH  71  72
ATOM     72  C   UNL A   1      31.955  27.234  26.474  1.00  0.00     0.370 C 
ATOM     73  O   UNL A   1      31.172  27.121  27.411  1.00  0.00    -0.245 OA
BRANCH  72  74
ATOM     74  C   UNL A   1      31.793  26.670  25.044  1.00  0.00     0.328 C 
BRANCH  74  75
ATOM     75  N   UNL A   1      32.378  25.332  24.917  1.00  0.00    -0.310 N 
ATOM     76  C   UNL A   1      33.614  25.177  24.152  1.00  0.00     0.325 C 
ATOM     77  C   UNL A   1      32.125  24.448  26.055  1.00  0.00     0.325 C 
ATOM     78  H   UNL A   1      31.799  24.903  24.195  1.00  0.00     0.349 HD
ATOM     79  C   UNL A   1      34.681  24.248  24.778  1.00  0.00     0.325 C 
ATOM     80  C   UNL A   1      33.232  23.496  26.522  1.00  0.00     0.325 C 
ATOM     81  N   UNL A   1      34.162  23.079  25.484  1.00  0.00    -0.318 N 
ATOM     82  H   UNL A   1      34.982  22.655  25.916  1.00  0.00     0.348 HD
BRANCH  81  83
ATOM     83  C   UNL A   1      33.706  21.925  24.680  1.00  0.00     0.364 C 
BRANCH  83  84
ATOM     84  C   UNL A   1      34.591  20.666  24.701  1.00  0.00     0.277 C 
ATOM     85  O   UNL A   1      35.821  20.799  24.813  1.00  0.00    -0.268 OA
ATOM     86  N   UNL A   1      34.037  19.391  24.615  1.00  0.00    -0.333 N 
ATOM     87  C   UNL A   1      32.665  19.077  24.217  1.00  0.00     0.148 C 
ATOM     88  C   UNL A   1      34.956  18.257  24.529  1.00  0.00     0.148 C 
ATOM     89  C   UNL A   1      32.154  17.744  24.770  1.00  0.00     0.181 C 
ATOM     90  C   UNL A   1      34.345  16.959  25.063  1.00  0.00     0.181 C 
ATOM     91  O   UNL A   1      33.074  16.681  24.461  1.00  0.00    -0.378 OA
ENDBRANCH  83  84
ENDBRANCH  81  83
ENDBRANCH  74  75
BRANCH  74  92
ATOM     92  C   UNL A   1      30.404  26.757  24.447  1.00  0.00     0.046 A 
ATOM     93  C   UNL A   1      29.421  25.783  24.411  1.00  0.00     0.094 A 
ATOM     94  C   UNL A   1      29.833  27.923  23.819  1.00  0.00     0.009 A 
ATOM     95  N   UNL A   1      28.295  26.316  23.844  1.00  0.00    -0.361 N 
ATOM     96  C   UNL A   1      28.505  27.630  23.509  1.00  0.00     0.049 A 
ATOM     97  C   UNL A   1      30.306  29.223  23.529  1.00  0.00     0.014 A 
ATOM     98  H   UNL A   1      27.453  25.826  23.698  1.00  0.00     0.166 HD
ATOM     99  C   UNL A   1      27.631  28.584  22.970  1.00  0.00     0.065 A 
ATOM    100  C   UNL A   1      29.450  30.191  23.007  1.00  0.00     0.040 A 
ATOM    101  C   UNL A   1      28.131  29.866  22.744  1.00  0.00     0.125 A 
ATOM    102  F   UNL A   1      27.311  30.810  22.266  1.00  0.00    -0.207 F 
ENDBRANCH  74  92
ENDBRANCH  72  74
ENDBRANCH  71  72
ENDBRANCH  70  71
ENDBRANCH   1  70
TORSDOF 18
ENDMDL
MODEL 3
REMARK VINA RESULT:     -12.7      5.105     10.145
REMARK SMILES O=C(OCCOC(=O)[C@H](c1c[nH]c2cc(F)ccc12)[NH+]1CC[NH+](CC(=O)N2CCOCC2)CC1)c1ccc(-c2c3nc(c(-c4cccc(S(=O)(=O)[O-])c4F)c4ccc([nH]4)c(-c4cccc(S(=O)(=O)[O-])c4F)c4nc(c(-c5cccc(S(=O)(=O)[O-])c5F)c5ccc2[nH]5)C=C4)C=C3)cc1
REMARK SMILES IDX 4 1 3 2 2 3 1 4 35 5 36 6 97 7 37 8 96 9 38 10 39 11 40 12
REMARK SMILES IDX 90 13 41 14 95 15 89 16 91 17 42 18 94 19 88 20 87 21 43 23
REMARK SMILES IDX 75 24 55 25 74 26 56 27 59 28 73 29 92 30 57 31 58 32 72 34
REMARK SMILES IDX 93 35 60 36 44 37 45 38 53 39 46 40 48 41 54 42 47 43 49 44
REMARK SMILES IDX 50 45 51 46 52 47 76 48 77 49 85 50 78 51 80 52 86 53 79 54
REMARK SMILES IDX 81 55 82 56 83 57 84 58 61 59 62 60 70 61 63 62 65 63 71 64
REMARK SMILES IDX 64 65 66 66 67 67 68 68 69 69 5 70 6 71 7 72 8 73 9 74 20 75
REMARK SMILES IDX 21 76 34 77 22 79 33 80 23 81 24 83 25 84 26 85 27 86 28 87
REMARK SMILES IDX 32 88 29 89 31 90 30 91 10 92 11 93 19 94 12 95 13 96 18 97
REMARK SMILES IDX 14 99 17 100 15 101 16 102
REMARK H PARENT 91 22 59 33 20 78 23 82 12 98
REMARK Flexibility Score: inf
ROOT
ATOM      1  C   UNL A   1      32.328  30.412  26.845  1.00  0.00     0.275 C 
ENDROOT
BRANCH   1   2
ATOM      2  O   UNL A   1      33.761  30.313  26.909  1.00  0.00    -0.458 OA
BRANCH   2   3
ATOM      3  C   UNL A   1      34.648  30.998  27.670  1.00  0.00     0.338 C 
ATOM      4  O   UNL A   1      34.474  32.207  27.818  1.00  0.00    -0.246 OA
BRANCH   3   5
ATOM      5  C   UNL A   1      35.899  30.398  28.242  1.00  0.00     0.060 A 
ATOM      6  C   UNL A   1      36.007  29.644  29.415  1.00  0.00     0.016 A 
ATOM      7  C   UNL A   1      37.072  30.604  27.503  1.00  0.00     0.016 A 
ATOM      8  C   UNL A   1      37.220  29.054  29.794  1.00  0.00     0.010 A 
ATOM      9  C   UNL A   1      38.274  29.982  27.861  1.00  0.00     0.010 A 
ATOM     10  C   UNL A   1      38.369  29.202  29.016  1.00  0.00    -0.014 A 
BRANCH  10  11
ATOM     11  C   UNL A   1      39.671  28.662  29.493  1.00  0.00     0.031 A 
ATOM     12  C   UNL A   1      40.306  29.274  30.715  1.00  0.00     0.074 A 
ATOM     13  C   UNL A   1      40.259  27.609  28.882  1.00  0.00     0.049 A 
ATOM     14  N   UNL A   1      41.363  28.883  31.376  1.00  0.00    -0.248 NA
ATOM     15  C   UNL A   1      39.673  30.483  31.271  1.00  0.00     0.031 C 
ATOM     16  C   UNL A   1      39.766  26.937  27.677  1.00  0.00     0.029 A 
ATOM     17  N   UNL A   1      41.400  26.909  29.193  1.00  0.00    -0.354 N 
ATOM     18  C   UNL A   1      41.506  29.788  32.421  1.00  0.00     0.074 A 
ATOM     19  C   UNL A   1      40.502  30.808  32.246  1.00  0.00     0.031 C 
ATOM     20  C   UNL A   1      40.608  25.945  27.339  1.00  0.00     0.029 A 
ATOM     21  C   UNL A   1      41.685  25.881  28.321  1.00  0.00     0.049 A 
ATOM     22  H   UNL A   1      41.965  27.124  29.971  1.00  0.00     0.167 HD
ATOM     23  C   UNL A   1      42.339  29.739  33.484  1.00  0.00     0.034 A 
ATOM     24  C   UNL A   1      42.680  24.970  28.331  1.00  0.00     0.034 A 
ATOM     25  C   UNL A   1      43.315  28.710  33.681  1.00  0.00     0.049 A 
ATOM     26  C   UNL A   1      43.616  24.947  29.514  1.00  0.00     0.074 A 
ATOM     27  C   UNL A   1      44.195  28.545  34.733  1.00  0.00     0.029 A 
ATOM     28  N   UNL A   1      43.541  27.669  32.795  1.00  0.00    -0.354 N 
ATOM     29  N   UNL A   1      43.623  25.723  30.573  1.00  0.00    -0.248 NA
ATOM     30  C   UNL A   1      44.630  23.884  29.543  1.00  0.00     0.031 C 
ATOM     31  C   UNL A   1      44.970  27.411  34.471  1.00  0.00     0.029 A 
ATOM     32  C   UNL A   1      44.549  26.855  33.272  1.00  0.00     0.049 A 
ATOM     33  H   UNL A   1      43.054  27.530  31.950  1.00  0.00     0.167 HD
ATOM     34  C   UNL A   1      44.608  25.213  31.411  1.00  0.00     0.074 A 
ATOM     35  C   UNL A   1      45.155  24.046  30.750  1.00  0.00     0.031 C 
ATOM     36  C   UNL A   1      45.035  25.670  32.614  1.00  0.00     0.034 A 
BRANCH  23  37
ATOM     37  C   UNL A   1      42.164  30.804  34.533  1.00  0.00     0.023 A 
ATOM     38  C   UNL A   1      41.245  30.595  35.584  1.00  0.00     0.012 A 
ATOM     39  C   UNL A   1      42.880  32.012  34.470  1.00  0.00     0.148 A 
ATOM     40  C   UNL A   1      41.001  31.594  36.525  1.00  0.00     0.002 A 
ATOM     41  C   UNL A   1      42.668  32.984  35.440  1.00  0.00     0.091 A 
ATOM     42  F   UNL A   1      43.733  32.197  33.453  1.00  0.00    -0.205 F 
ATOM     43  C   UNL A   1      41.716  32.784  36.456  1.00  0.00     0.022 A 
BRANCH  41  44
ATOM     44  S   UNL A   1      43.583  34.527  35.485  1.00  0.00     0.127 S 
ATOM     45  O   UNL A   1      44.964  34.050  35.568  1.00  0.00    -0.237 OA
ATOM     46  O   UNL A   1      43.222  35.128  34.202  1.00  0.00    -0.237 OA
ATOM     47  O   UNL A   1      43.105  35.246  36.657  1.00  0.00    -0.744 OA
ENDBRANCH  41  44
ENDBRANCH  23  37
BRANCH  24  48
ATOM     48  C   UNL A   1      42.806  23.953  27.243  1.00  0.00     0.023 A 
ATOM     49  C   UNL A   1      43.567  24.237  26.090  1.00  0.00     0.012 A 
ATOM     50  C   UNL A   1      42.147  22.713  27.331  1.00  0.00     0.148 A 
ATOM     51  C   UNL A   1      43.617  23.336  25.024  1.00  0.00     0.002 A 
ATOM     52  C   UNL A   1      42.249  21.793  26.290  1.00  0.00     0.091 A 
ATOM     53  F   UNL A   1      41.425  22.453  28.431  1.00  0.00    -0.205 F 
ATOM     54  C   UNL A   1      42.962  22.113  25.125  1.00  0.00     0.022 A 
BRANCH  52  55
ATOM     55  S   UNL A   1      41.562  20.138  26.408  1.00  0.00     0.127 S 
ATOM     56  O   UNL A   1      42.207  19.466  25.282  1.00  0.00    -0.237 OA
ATOM     57  O   UNL A   1      42.028  19.716  27.730  1.00  0.00    -0.237 OA
ATOM     58  O   UNL A   1      40.122  20.311  26.318  1.00  0.00    -0.744 OA
ENDBRANCH  52  55
ENDBRANCH  24  48
BRANCH  36  59
ATOM     59  C   UNL A   1      46.117  24.891  33.310  1.00  0.00     0.023 A 
ATOM     60  C   UNL A   1      47.458  25.311  33.213  1.00  0.00     0.012 A 
ATOM     61  C   UNL A   1      45.790  23.792  34.126  1.00  0.00     0.148 A 
ATOM     62  C   UNL A   1      48.464  24.622  33.887  1.00  0.00     0.002 A 
ATOM     63  C   UNL A   1      46.790  23.146  34.842  1.00  0.00     0.091 A 
ATOM     64  F   UNL A   1      44.509  23.398  34.187  1.00  0.00    -0.205 F 
ATOM     65  C   UNL A   1      48.127  23.549  34.712  1.00  0.00     0.022 A 
BRANCH  63  66
ATOM     66  S   UNL A   1      46.432  21.832  36.011  1.00  0.00     0.127 S 
ATOM     67  O   UNL A   1      45.544  22.508  36.956  1.00  0.00    -0.237 OA
ATOM     68  O   UNL A   1      45.777  20.834  35.163  1.00  0.00    -0.237 OA
ATOM     69  O   UNL A   1      47.719  21.414  36.549  1.00  0.00    -0.744 OA
ENDBRANCH  63  66
ENDBRANCH  36  59
ENDBRANCH  10  11
ENDBRANCH   3   5
ENDBRANCH   2   3
ENDBRANCH   1   2
BRANCH   1  70
ATOM     70  C   UNL A   1      31.584  29.144  27.276  1.00  0.00     0.274 C 
BRANCH  70  71
ATOM     71  O   UNL A   1      32.368  27.958  27.091  1.00  0.00    -0.457 OA
BRANCH  71  72
ATOM     72  C   UNL A   1      31.870  26.991  26.242  1.00  0.00     0.370 C 
ATOM     73  O   UNL A   1      30.895  26.294  26.500  1.00  0.00    -0.245 OA
BRANCH  72  74
ATOM     74  C   UNL A   1      32.715  26.979  24.947  1.00  0.00     0.328 C 
BRANCH  74  75
ATOM     75  N   UNL A   1      32.826  25.632  24.382  1.00  0.00    -0.310 N 
ATOM     76  C   UNL A   1      31.948  25.262  23.273  1.00  0.00     0.325 C 
ATOM     77  C   UNL A   1      34.166  25.050  24.457  1.00  0.00     0.325 C 
ATOM     78  H   UNL A   1      32.320  25.063  25.060  1.00  0.00     0.349 HD
ATOM     79  C   UNL A   1      32.613  24.475  22.120  1.00  0.00     0.325 C 
ATOM     80  C   UNL A   1      34.679  24.201  23.288  1.00  0.00     0.325 C 
ATOM     81  N   UNL A   1      33.645  23.523  22.522  1.00  0.00    -0.318 N 
ATOM     82  H   UNL A   1      34.041  23.187  21.644  1.00  0.00     0.348 HD
BRANCH  81  83
ATOM     83  C   UNL A   1      33.215  22.226  23.087  1.00  0.00     0.364 C 
BRANCH  83  84
ATOM     84  C   UNL A   1      33.924  21.752  24.368  1.00  0.00     0.277 C 
ATOM     85  O   UNL A   1      35.008  21.154  24.267  1.00  0.00    -0.268 OA
ATOM     86  N   UNL A   1      33.382  21.997  25.627  1.00  0.00    -0.333 N 
ATOM     87  C   UNL A   1      32.014  22.439  25.902  1.00  0.00     0.148 C 
ATOM     88  C   UNL A   1      34.063  21.414  26.783  1.00  0.00     0.148 C 
ATOM     89  C   UNL A   1      31.866  23.189  27.228  1.00  0.00     0.181 C 
ATOM     90  C   UNL A   1      33.821  22.205  28.072  1.00  0.00     0.181 C 
ATOM     91  O   UNL A   1      32.424  22.421  28.310  1.00  0.00    -0.378 OA
ENDBRANCH  83  84
ENDBRANCH  81  83
ENDBRANCH  74  75
BRANCH  74  92
ATOM     92  C   UNL A   1      32.353  28.019  23.908  1.00  0.00     0.046 A 
ATOM     93  C   UNL A   1      33.201  28.775  23.116  1.00  0.00     0.094 A 
ATOM     94  C   UNL A   1      31.014  28.394  23.527  1.00  0.00     0.009 A 
ATOM     95  N   UNL A   1      32.447  29.534  22.263  1.00  0.00    -0.361 N 
ATOM     96  C   UNL A   1      31.110  29.293  22.465  1.00  0.00     0.049 A 
ATOM     97  C   UNL A   1      29.721  28.012  23.951  1.00  0.00     0.014 A 
ATOM     98  H   UNL A   1      32.810  30.163  21.599  1.00  0.00     0.166 HD
ATOM     99  C   UNL A   1      29.985  29.785  21.791  1.00  0.00     0.065 A 
ATOM    100  C   UNL A   1      28.587  28.478  23.286  1.00  0.00     0.040 A 
ATOM    101  C   UNL A   1      28.732  29.345  22.217  1.00  0.00     0.125 A 
ATOM    102  F   UNL A   1      27.638  29.766  21.569  1.00  0.00    -0.207 F 
ENDBRANCH  74  92
ENDBRANCH  72  74
ENDBRANCH  71  72
ENDBRANCH  70  71
ENDBRANCH   1  70
TORSDOF 18
ENDMDL
