MODEL 1
REMARK VINA RESULT:     -12.0      0.000      0.000
REMARK SMILES O=C(N[C@@H](Cc1ccc(O)cc1)C(=O)N[C@@H](CO)C(=O)OCCOC(=O)c1ccc(-c2c3nc(c(-c4cccc(S(=O)(=O)[O-])c4F)c4ccc([nH]4)c(-c4cccc(S(=O)(=O)[O-])c4F)c4nc(c(-c5cccc(S(=O)(=O)[O-])c5F)c5ccc2[nH]5)C=C4)C=C3)cc1)c1ccc(F)cc1
REMARK SMILES IDX 22 1 21 2 19 3 20 4 16 5 15 6 13 7 14 8 4 10 3 11 1 12 2 13
REMARK SMILES IDX 90 15 91 16 96 17 92 18 95 19 93 20 94 21 5 22 6 23 7 24
REMARK SMILES IDX 12 25 8 26 11 27 9 28 10 29 17 31 18 32 23 34 24 35 25 36
REMARK SMILES IDX 26 37 27 38 28 39 89 40 29 41 88 42 30 43 31 44 32 45 82 46
REMARK SMILES IDX 33 47 87 48 81 49 83 50 34 51 86 52 80 53 79 54 35 56 67 57
REMARK SMILES IDX 47 58 66 59 48 60 51 61 65 62 84 63 49 64 50 65 64 67 85 68
REMARK SMILES IDX 52 69 36 70 37 71 45 72 38 73 40 74 46 75 39 76 41 77 42 78
REMARK SMILES IDX 43 79 44 80 68 81 69 82 77 83 70 84 72 85 78 86 71 87 73 88
REMARK SMILES IDX 74 89 75 90 76 91 53 92 54 93 62 94 55 95 57 96 63 97 56 98
REMARK SMILES IDX 58 99 59 100 60 101 61 102
REMARK H PARENT 15 9 3 14 10 30 18 33 83 55 51 66
REMARK Flexibility Score: inf
ROOT
ATOM      1  C   UNL A   1      34.734  20.939  24.623  1.00  0.00     0.274 C 
ENDROOT
BRANCH   1   2
ATOM      2  O   UNL A   1      34.014  22.182  24.507  1.00  0.00    -0.460 OA
BRANCH   2   3
ATOM      3  C   UNL A   1      34.206  22.961  23.414  1.00  0.00     0.331 C 
ATOM      4  O   UNL A   1      35.242  23.025  22.765  1.00  0.00    -0.250 OA
BRANCH   3   5
ATOM      5  C   UNL A   1      32.946  23.774  23.110  1.00  0.00     0.218 C 
BRANCH   5   6
ATOM      6  N   UNL A   1      33.245  24.778  22.104  1.00  0.00    -0.339 N 
ATOM      7  C   UNL A   1      33.019  26.114  22.123  1.00  0.00     0.243 C 
ATOM      8  O   UNL A   1      33.652  26.741  21.262  1.00  0.00    -0.273 OA
ATOM      9  H   UNL A   1      33.676  24.437  21.288  1.00  0.00     0.164 HD
BRANCH   7  10
ATOM     10  C   UNL A   1      31.942  26.851  22.988  1.00  0.00     0.176 C 
BRANCH  10  11
ATOM     11  N   UNL A   1      32.522  27.535  24.137  1.00  0.00    -0.340 N 
ATOM     12  O   UNL A   1      32.836  28.087  26.288  1.00  0.00    -0.269 OA
ATOM     13  C   UNL A   1      32.374  27.282  25.481  1.00  0.00     0.251 C 
ATOM     14  H   UNL A   1      33.111  28.292  23.918  1.00  0.00     0.164 HD
BRANCH  13  15
ATOM     15  C   UNL A   1      31.674  26.077  25.999  1.00  0.00     0.040 A 
ATOM     16  C   UNL A   1      30.280  25.967  25.956  1.00  0.00     0.017 A 
ATOM     17  C   UNL A   1      32.438  24.968  26.393  1.00  0.00     0.017 A 
ATOM     18  C   UNL A   1      29.650  24.784  26.355  1.00  0.00     0.040 A 
ATOM     19  C   UNL A   1      31.807  23.778  26.774  1.00  0.00     0.040 A 
ATOM     20  C   UNL A   1      30.419  23.699  26.755  1.00  0.00     0.123 A 
ATOM     21  F   UNL A   1      29.813  22.553  27.097  1.00  0.00    -0.207 F 
ENDBRANCH  13  15
ENDBRANCH  10  11
BRANCH  10  22
ATOM     22  C   UNL A   1      30.731  27.575  22.351  1.00  0.00     0.070 C 
BRANCH  22  23
ATOM     23  C   UNL A   1      29.790  28.614  22.932  1.00  0.00    -0.045 A 
ATOM     24  C   UNL A   1      28.412  28.308  22.874  1.00  0.00     0.007 A 
ATOM     25  C   UNL A   1      30.151  29.864  23.437  1.00  0.00     0.007 A 
ATOM     26  C   UNL A   1      27.428  29.262  23.124  1.00  0.00     0.046 A 
ATOM     27  C   UNL A   1      29.165  30.836  23.669  1.00  0.00     0.046 A 
ATOM     28  C   UNL A   1      27.819  30.542  23.468  1.00  0.00     0.115 A 
BRANCH  28  29
ATOM     29  O   UNL A   1      26.905  31.544  23.600  1.00  0.00    -0.508 OA
ATOM     30  H   UNL A   1      27.188  32.437  23.617  1.00  0.00     0.293 HD
ENDBRANCH  28  29
ENDBRANCH  22  23
ENDBRANCH  10  22
ENDBRANCH   7  10
ENDBRANCH   5   6
BRANCH   5  31
ATOM     31  C   UNL A   1      31.747  22.897  22.766  1.00  0.00     0.193 C 
BRANCH  31  32
ATOM     32  O   UNL A   1      30.515  23.463  23.197  1.00  0.00    -0.394 OA
ATOM     33  H   UNL A   1      30.097  23.931  22.457  1.00  0.00     0.210 HD
ENDBRANCH  31  32
ENDBRANCH   5  31
ENDBRANCH   3   5
ENDBRANCH   2   3
ENDBRANCH   1   2
BRANCH   1  34
ATOM     34  C   UNL A   1      35.837  20.876  25.686  1.00  0.00     0.275 C 
BRANCH  34  35
ATOM     35  O   UNL A   1      36.837  21.877  25.450  1.00  0.00    -0.458 OA
BRANCH  35  36
ATOM     36  C   UNL A   1      38.106  21.469  25.743  1.00  0.00     0.338 C 
ATOM     37  O   UNL A   1      38.547  20.344  25.702  1.00  0.00    -0.246 OA
BRANCH  36  38
ATOM     38  C   UNL A   1      38.854  22.661  26.183  1.00  0.00     0.060 A 
ATOM     39  C   UNL A   1      40.054  22.491  26.872  1.00  0.00     0.016 A 
ATOM     40  C   UNL A   1      38.401  23.938  25.860  1.00  0.00     0.016 A 
ATOM     41  C   UNL A   1      40.884  23.586  27.103  1.00  0.00     0.010 A 
ATOM     42  C   UNL A   1      39.197  25.049  26.165  1.00  0.00     0.010 A 
ATOM     43  C   UNL A   1      40.458  24.875  26.760  1.00  0.00    -0.014 A 
BRANCH  43  44
ATOM     44  C   UNL A   1      41.274  26.035  27.191  1.00  0.00     0.031 A 
ATOM     45  C   UNL A   1      40.630  27.064  28.073  1.00  0.00     0.074 A 
ATOM     46  C   UNL A   1      42.577  26.135  26.868  1.00  0.00     0.049 A 
ATOM     47  N   UNL A   1      41.127  28.174  28.548  1.00  0.00    -0.248 NA
ATOM     48  C   UNL A   1      39.251  26.783  28.512  1.00  0.00     0.031 C 
ATOM     49  C   UNL A   1      43.350  25.128  26.142  1.00  0.00     0.029 A 
ATOM     50  N   UNL A   1      43.486  27.136  27.120  1.00  0.00    -0.354 N 
ATOM     51  C   UNL A   1      40.121  28.727  29.329  1.00  0.00     0.074 A 
ATOM     52  C   UNL A   1      39.002  27.814  29.302  1.00  0.00     0.031 C 
ATOM     53  C   UNL A   1      44.612  25.573  25.988  1.00  0.00     0.029 A 
ATOM     54  C   UNL A   1      44.723  26.915  26.556  1.00  0.00     0.049 A 
ATOM     55  H   UNL A   1      43.271  27.935  27.653  1.00  0.00     0.167 HD
ATOM     56  C   UNL A   1      40.115  29.907  29.989  1.00  0.00     0.034 A 
ATOM     57  C   UNL A   1      45.800  27.726  26.478  1.00  0.00     0.034 A 
ATOM     58  C   UNL A   1      41.196  30.849  29.949  1.00  0.00     0.049 A 
ATOM     59  C   UNL A   1      45.712  29.104  27.093  1.00  0.00     0.074 A 
ATOM     60  C   UNL A   1      41.246  32.125  30.475  1.00  0.00     0.029 A 
ATOM     61  N   UNL A   1      42.409  30.622  29.318  1.00  0.00    -0.354 N 
ATOM     62  N   UNL A   1      44.757  29.622  27.828  1.00  0.00    -0.248 NA
ATOM     63  C   UNL A   1      46.847  30.013  26.865  1.00  0.00     0.031 C 
ATOM     64  C   UNL A   1      42.483  32.683  30.137  1.00  0.00     0.029 A 
ATOM     65  C   UNL A   1      43.212  31.741  29.426  1.00  0.00     0.049 A 
ATOM     66  H   UNL A   1      42.660  29.788  28.860  1.00  0.00     0.167 HD
ATOM     67  C   UNL A   1      45.181  30.904  28.165  1.00  0.00     0.074 A 
ATOM     68  C   UNL A   1      46.493  31.075  27.577  1.00  0.00     0.031 C 
ATOM     69  C   UNL A   1      44.537  31.864  28.873  1.00  0.00     0.034 A 
BRANCH  56  70
ATOM     70  C   UNL A   1      38.862  30.255  30.738  1.00  0.00     0.023 A 
ATOM     71  C   UNL A   1      38.679  29.788  32.055  1.00  0.00     0.012 A 
ATOM     72  C   UNL A   1      37.850  31.012  30.121  1.00  0.00     0.148 A 
ATOM     73  C   UNL A   1      37.490  30.045  32.736  1.00  0.00     0.002 A 
ATOM     74  C   UNL A   1      36.680  31.291  30.816  1.00  0.00     0.091 A 
ATOM     75  F   UNL A   1      38.035  31.414  28.855  1.00  0.00    -0.205 F 
ATOM     76  C   UNL A   1      36.495  30.801  32.120  1.00  0.00     0.022 A 
BRANCH  74  77
ATOM     77  S   UNL A   1      35.355  32.283  30.121  1.00  0.00     0.127 S 
ATOM     78  O   UNL A   1      34.404  32.320  31.231  1.00  0.00    -0.237 OA
ATOM     79  O   UNL A   1      36.032  33.551  29.852  1.00  0.00    -0.237 OA
ATOM     80  O   UNL A   1      34.899  31.571  28.936  1.00  0.00    -0.744 OA
ENDBRANCH  74  77
ENDBRANCH  56  70
BRANCH  57  81
ATOM     81  C   UNL A   1      47.042  27.291  25.767  1.00  0.00     0.023 A 
ATOM     82  C   UNL A   1      48.037  26.578  26.464  1.00  0.00     0.012 A 
ATOM     83  C   UNL A   1      47.260  27.606  24.411  1.00  0.00     0.148 A 
ATOM     84  C   UNL A   1      49.231  26.213  25.835  1.00  0.00     0.002 A 
ATOM     85  C   UNL A   1      48.423  27.188  23.773  1.00  0.00     0.091 A 
ATOM     86  F   UNL A   1      46.329  28.324  23.766  1.00  0.00    -0.205 F 
ATOM     87  C   UNL A   1      49.420  26.507  24.487  1.00  0.00     0.022 A 
BRANCH  85  88
ATOM     88  S   UNL A   1      48.679  27.417  22.009  1.00  0.00     0.127 S 
ATOM     89  O   UNL A   1      49.980  28.078  21.976  1.00  0.00    -0.237 OA
ATOM     90  O   UNL A   1      48.675  26.039  21.516  1.00  0.00    -0.237 OA
ATOM     91  O   UNL A   1      47.546  28.213  21.555  1.00  0.00    -0.744 OA
ENDBRANCH  85  88
ENDBRANCH  57  81
BRANCH  69  92
ATOM     92  C   UNL A   1      45.236  33.182  29.075  1.00  0.00     0.023 A 
ATOM     93  C   UNL A   1      46.083  33.358  30.185  1.00  0.00     0.012 A 
ATOM     94  C   UNL A   1      45.149  34.193  28.098  1.00  0.00     0.148 A 
ATOM     95  C   UNL A   1      46.825  34.530  30.329  1.00  0.00     0.002 A 
ATOM     96  C   UNL A   1      45.927  35.337  28.224  1.00  0.00     0.091 A 
ATOM     97  F   UNL A   1      44.322  34.010  27.059  1.00  0.00    -0.205 F 
ATOM     98  C   UNL A   1      46.759  35.511  29.342  1.00  0.00     0.022 A 
BRANCH  96  99
ATOM     99  S   UNL A   1      45.985  36.606  26.953  1.00  0.00     0.127 S 
ATOM    100  O   UNL A   1      44.591  37.045  26.906  1.00  0.00    -0.237 OA
ATOM    101  O   UNL A   1      46.913  37.579  27.529  1.00  0.00    -0.237 OA
ATOM    102  O   UNL A   1      46.472  35.945  25.748  1.00  0.00    -0.744 OA
ENDBRANCH  96  99
ENDBRANCH  69  92
ENDBRANCH  43  44
ENDBRANCH  36  38
ENDBRANCH  35  36
ENDBRANCH  34  35
ENDBRANCH   1  34
TORSDOF 23
ENDMDL
MODEL 2
REMARK VINA RESULT:     -11.8      1.878      7.792
REMARK SMILES O=C(N[C@@H](Cc1ccc(O)cc1)C(=O)N[C@@H](CO)C(=O)OCCOC(=O)c1ccc(-c2c3nc(c(-c4cccc(S(=O)(=O)[O-])c4F)c4ccc([nH]4)c(-c4cccc(S(=O)(=O)[O-])c4F)c4nc(c(-c5cccc(S(=O)(=O)[O-])c5F)c5ccc2[nH]5)C=C4)C=C3)cc1)c1ccc(F)cc1
REMARK SMILES IDX 22 1 21 2 19 3 20 4 16 5 15 6 13 7 14 8 4 10 3 11 1 12 2 13
REMARK SMILES IDX 90 15 91 16 96 17 92 18 95 19 93 20 94 21 5 22 6 23 7 24
REMARK SMILES IDX 12 25 8 26 11 27 9 28 10 29 17 31 18 32 23 34 24 35 25 36
REMARK SMILES IDX 26 37 27 38 28 39 89 40 29 41 88 42 30 43 31 44 32 45 82 46
REMARK SMILES IDX 33 47 87 48 81 49 83 50 34 51 86 52 80 53 79 54 35 56 67 57
REMARK SMILES IDX 47 58 66 59 48 60 51 61 65 62 84 63 49 64 50 65 64 67 85 68
REMARK SMILES IDX 52 69 36 70 37 71 45 72 38 73 40 74 46 75 39 76 41 77 42 78
REMARK SMILES IDX 43 79 44 80 68 81 69 82 77 83 70 84 72 85 78 86 71 87 73 88
REMARK SMILES IDX 74 89 75 90 76 91 53 92 54 93 62 94 55 95 57 96 63 97 56 98
REMARK SMILES IDX 58 99 59 100 60 101 61 102
REMARK H PARENT 15 9 3 14 10 30 18 33 83 55 51 66
REMARK Flexibility Score: inf
ROOT
ATOM      1  C   UNL A   1      38.805  20.364  25.163  1.00  0.00     0.274 C 
ENDROOT
BRANCH   1   2
ATOM      2  O   UNL A   1      37.603  20.909  25.742  1.00  0.00    -0.460 OA
BRANCH   2   3
ATOM      3  C   UNL A   1      37.416  22.252  25.741  1.00  0.00     0.331 C 
ATOM      4  O   UNL A   1      38.305  23.090  25.818  1.00  0.00    -0.250 OA
BRANCH   3   5
ATOM      5  C   UNL A   1      35.925  22.583  25.651  1.00  0.00     0.218 C 
BRANCH   5   6
ATOM      6  N   UNL A   1      35.526  22.660  24.257  1.00  0.00    -0.339 N 
ATOM      7  C   UNL A   1      34.764  23.587  23.626  1.00  0.00     0.243 C 
ATOM      8  O   UNL A   1      34.852  23.549  22.390  1.00  0.00    -0.273 OA
ATOM      9  H   UNL A   1      35.858  21.931  23.685  1.00  0.00     0.164 HD
BRANCH   7  10
ATOM     10  C   UNL A   1      33.709  24.524  24.304  1.00  0.00     0.176 C 
BRANCH  10  11
ATOM     11  N   UNL A   1      32.508  23.806  24.712  1.00  0.00    -0.340 N 
ATOM     12  O   UNL A   1      30.342  23.481  25.194  1.00  0.00    -0.269 OA
ATOM     13  C   UNL A   1      31.187  24.186  24.647  1.00  0.00     0.251 C 
ATOM     14  H   UNL A   1      32.665  22.912  25.093  1.00  0.00     0.164 HD
BRANCH  13  15
ATOM     15  C   UNL A   1      30.741  25.417  23.942  1.00  0.00     0.040 A 
ATOM     16  C   UNL A   1      29.861  26.324  24.543  1.00  0.00     0.017 A 
ATOM     17  C   UNL A   1      31.336  25.748  22.716  1.00  0.00     0.017 A 
ATOM     18  C   UNL A   1      29.534  27.524  23.903  1.00  0.00     0.040 A 
ATOM     19  C   UNL A   1      31.023  26.958  22.085  1.00  0.00     0.040 A 
ATOM     20  C   UNL A   1      30.122  27.832  22.683  1.00  0.00     0.123 A 
ATOM     21  F   UNL A   1      29.838  29.001  22.093  1.00  0.00    -0.207 F 
ENDBRANCH  13  15
ENDBRANCH  10  11
BRANCH  10  22
ATOM     22  C   UNL A   1      34.121  25.680  25.246  1.00  0.00     0.070 C 
BRANCH  22  23
ATOM     23  C   UNL A   1      33.641  27.119  25.306  1.00  0.00    -0.045 A 
ATOM     24  C   UNL A   1      32.860  27.469  26.430  1.00  0.00     0.007 A 
ATOM     25  C   UNL A   1      33.827  28.092  24.323  1.00  0.00     0.007 A 
ATOM     26  C   UNL A   1      32.141  28.659  26.493  1.00  0.00     0.046 A 
ATOM     27  C   UNL A   1      33.086  29.284  24.370  1.00  0.00     0.046 A 
ATOM     28  C   UNL A   1      32.219  29.537  25.429  1.00  0.00     0.115 A 
BRANCH  28  29
ATOM     29  O   UNL A   1      31.439  30.653  25.381  1.00  0.00    -0.508 OA
ATOM     30  H   UNL A   1      30.878  30.802  24.645  1.00  0.00     0.293 HD
ENDBRANCH  28  29
ENDBRANCH  22  23
ENDBRANCH  10  22
ENDBRANCH   7  10
ENDBRANCH   5   6
BRANCH   5  31
ATOM     31  C   UNL A   1      35.061  21.644  26.487  1.00  0.00     0.193 C 
BRANCH  31  32
ATOM     32  O   UNL A   1      33.926  21.166  25.774  1.00  0.00    -0.394 OA
ATOM     33  H   UNL A   1      33.926  21.538  24.878  1.00  0.00     0.210 HD
ENDBRANCH  31  32
ENDBRANCH   5  31
ENDBRANCH   3   5
ENDBRANCH   2   3
ENDBRANCH   1   2
BRANCH   1  34
ATOM     34  C   UNL A   1      39.607  19.385  26.028  1.00  0.00     0.275 C 
BRANCH  34  35
ATOM     35  O   UNL A   1      40.899  19.133  25.456  1.00  0.00    -0.458 OA
BRANCH  35  36
ATOM     36  C   UNL A   1      41.932  19.306  26.331  1.00  0.00     0.338 C 
ATOM     37  O   UNL A   1      42.560  18.450  26.910  1.00  0.00    -0.246 OA
BRANCH  36  38
ATOM     38  C   UNL A   1      42.122  20.759  26.497  1.00  0.00     0.060 A 
ATOM     39  C   UNL A   1      42.237  21.285  27.782  1.00  0.00     0.016 A 
ATOM     40  C   UNL A   1      42.248  21.586  25.383  1.00  0.00     0.016 A 
ATOM     41  C   UNL A   1      42.633  22.608  27.960  1.00  0.00     0.010 A 
ATOM     42  C   UNL A   1      42.567  22.938  25.562  1.00  0.00     0.010 A 
ATOM     43  C   UNL A   1      42.793  23.448  26.851  1.00  0.00    -0.014 A 
BRANCH  43  44
ATOM     44  C   UNL A   1      43.027  24.894  27.078  1.00  0.00     0.031 A 
ATOM     45  C   UNL A   1      44.338  25.475  26.634  1.00  0.00     0.074 A 
ATOM     46  C   UNL A   1      42.072  25.687  27.599  1.00  0.00     0.049 A 
ATOM     47  N   UNL A   1      44.783  26.697  26.754  1.00  0.00    -0.248 NA
ATOM     48  C   UNL A   1      45.253  24.566  25.922  1.00  0.00     0.031 C 
ATOM     49  C   UNL A   1      40.711  25.268  27.931  1.00  0.00     0.029 A 
ATOM     50  N   UNL A   1      42.102  27.021  27.931  1.00  0.00    -0.354 N 
ATOM     51  C   UNL A   1      46.031  26.698  26.145  1.00  0.00     0.074 A 
ATOM     52  C   UNL A   1      46.256  25.372  25.618  1.00  0.00     0.031 C 
ATOM     53  C   UNL A   1      40.043  26.320  28.442  1.00  0.00     0.029 A 
ATOM     54  C   UNL A   1      40.941  27.470  28.521  1.00  0.00     0.049 A 
ATOM     55  H   UNL A   1      42.880  27.599  27.764  1.00  0.00     0.167 HD
ATOM     56  C   UNL A   1      46.927  27.706  26.057  1.00  0.00     0.034 A 
ATOM     57  C   UNL A   1      40.660  28.661  29.093  1.00  0.00     0.034 A 
ATOM     58  C   UNL A   1      46.737  28.998  26.650  1.00  0.00     0.049 A 
ATOM     59  C   UNL A   1      41.737  29.722  29.116  1.00  0.00     0.074 A 
ATOM     60  C   UNL A   1      47.629  30.050  26.730  1.00  0.00     0.029 A 
ATOM     61  N   UNL A   1      45.577  29.400  27.294  1.00  0.00    -0.354 N 
ATOM     62  N   UNL A   1      42.917  29.716  28.541  1.00  0.00    -0.248 NA
ATOM     63  C   UNL A   1      41.450  30.952  29.872  1.00  0.00     0.031 C 
ATOM     64  C   UNL A   1      47.017  31.081  27.450  1.00  0.00     0.029 A 
ATOM     65  C   UNL A   1      45.733  30.680  27.790  1.00  0.00     0.049 A 
ATOM     66  H   UNL A   1      44.763  28.854  27.385  1.00  0.00     0.167 HD
ATOM     67  C   UNL A   1      43.501  30.940  28.847  1.00  0.00     0.074 A 
ATOM     68  C   UNL A   1      42.535  31.677  29.636  1.00  0.00     0.031 C 
ATOM     69  C   UNL A   1      44.733  31.408  28.528  1.00  0.00     0.034 A 
BRANCH  56  70
ATOM     70  C   UNL A   1      48.217  27.402  25.353  1.00  0.00     0.023 A 
ATOM     71  C   UNL A   1      49.342  26.991  26.097  1.00  0.00     0.012 A 
ATOM     72  C   UNL A   1      48.324  27.560  23.959  1.00  0.00     0.148 A 
ATOM     73  C   UNL A   1      50.564  26.773  25.463  1.00  0.00     0.002 A 
ATOM     74  C   UNL A   1      49.536  27.310  23.330  1.00  0.00     0.091 A 
ATOM     75  F   UNL A   1      47.248  27.985  23.281  1.00  0.00    -0.205 F 
ATOM     76  C   UNL A   1      50.660  26.926  24.081  1.00  0.00     0.022 A 
BRANCH  74  77
ATOM     77  S   UNL A   1      49.751  27.447  21.554  1.00  0.00     0.127 S 
ATOM     78  O   UNL A   1      48.624  26.657  21.060  1.00  0.00    -0.237 OA
ATOM     79  O   UNL A   1      49.627  28.888  21.341  1.00  0.00    -0.237 OA
ATOM     80  O   UNL A   1      51.068  26.898  21.263  1.00  0.00    -0.744 OA
ENDBRANCH  74  77
ENDBRANCH  56  70
BRANCH  57  81
ATOM     81  C   UNL A   1      39.329  28.919  29.723  1.00  0.00     0.023 A 
ATOM     82  C   UNL A   1      39.040  28.390  30.996  1.00  0.00     0.012 A 
ATOM     83  C   UNL A   1      38.332  29.659  29.056  1.00  0.00     0.148 A 
ATOM     84  C   UNL A   1      37.782  28.568  31.578  1.00  0.00     0.002 A 
ATOM     85  C   UNL A   1      37.103  29.886  29.666  1.00  0.00     0.091 A 
ATOM     86  F   UNL A   1      38.598  30.122  27.826  1.00  0.00    -0.205 F 
ATOM     87  C   UNL A   1      36.817  29.326  30.919  1.00  0.00     0.022 A 
BRANCH  85  88
ATOM     88  S   UNL A   1      35.860  30.958  28.935  1.00  0.00     0.127 S 
ATOM     89  O   UNL A   1      35.139  31.431  30.113  1.00  0.00    -0.237 OA
ATOM     90  O   UNL A   1      36.680  31.970  28.267  1.00  0.00    -0.237 OA
ATOM     91  O   UNL A   1      35.105  30.110  28.023  1.00  0.00    -0.744 OA
ENDBRANCH  85  88
ENDBRANCH  57  81
BRANCH  69  92
ATOM     92  C   UNL A   1      45.114  32.783  29.010  1.00  0.00     0.023 A 
ATOM     93  C   UNL A   1      45.801  32.927  30.230  1.00  0.00     0.012 A 
ATOM     94  C   UNL A   1      44.904  33.911  28.192  1.00  0.00     0.148 A 
ATOM     95  C   UNL A   1      46.260  34.178  30.640  1.00  0.00     0.002 A 
ATOM     96  C   UNL A   1      45.406  35.145  28.584  1.00  0.00     0.091 A 
ATOM     97  F   UNL A   1      44.233  33.751  27.043  1.00  0.00    -0.205 F 
ATOM     98  C   UNL A   1      46.077  35.282  29.810  1.00  0.00     0.022 A 
BRANCH  96  99
ATOM     99  S   UNL A   1      45.309  36.600  27.534  1.00  0.00     0.127 S 
ATOM    100  O   UNL A   1      43.906  36.985  27.688  1.00  0.00    -0.237 OA
ATOM    101  O   UNL A   1      46.264  37.507  28.172  1.00  0.00    -0.237 OA
ATOM    102  O   UNL A   1      45.692  36.159  26.200  1.00  0.00    -0.744 OA
ENDBRANCH  96  99
ENDBRANCH  69  92
ENDBRANCH  43  44
ENDBRANCH  36  38
ENDBRANCH  35  36
ENDBRANCH  34  35
ENDBRANCH   1  34
TORSDOF 23
ENDMDL
MODEL 3
REMARK VINA RESULT:     -11.8      5.192     10.449
REMARK SMILES O=C(N[C@@H](Cc1ccc(O)cc1)C(=O)N[C@@H](CO)C(=O)OCCOC(=O)c1ccc(-c2c3nc(c(-c4cccc(S(=O)(=O)[O-])c4F)c4ccc([nH]4)c(-c4cccc(S(=O)(=O)[O-])c4F)c4nc(c(-c5cccc(S(=O)(=O)[O-])c5F)c5ccc2[nH]5)C=C4)C=C3)cc1)c1ccc(F)cc1
REMARK SMILES IDX 22 1 21 2 19 3 20 4 16 5 15 6 13 7 14 8 4 10 3 11 1 12 2 13
REMARK SMILES IDX 90 15 91 16 96 17 92 18 95 19 93 20 94 21 5 22 6 23 7 24
REMARK SMILES IDX 12 25 8 26 11 27 9 28 10 29 17 31 18 32 23 34 24 35 25 36
REMARK SMILES IDX 26 37 27 38 28 39 89 40 29 41 88 42 30 43 31 44 32 45 82 46
REMARK SMILES IDX 33 47 87 48 81 49 83 50 34 51 86 52 80 53 79 54 35 56 67 57
REMARK SMILES IDX 47 58 66 59 48 60 51 61 65 62 84 63 49 64 50 65 64 67 85 68
REMARK SMILES IDX 52 69 36 70 37 71 45 72 38 73 40 74 46 75 39 76 41 77 42 78
REMARK SMILES IDX 43 79 44 80 68 81 69 82 77 83 70 84 72 85 78 86 71 87 73 88
REMARK SMILES IDX 74 89 75 90 76 91 53 92 54 93 62 94 55 95 57 96 63 97 56 98
REMARK SMILES IDX 58 99 59 100 60 101 61 102
REMARK H PARENT 15 9 3 14 10 30 18 33 83 55 51 66
REMARK Flexibility Score: inf
ROOT
ATOM      1  C   UNL A   1      31.204  28.479  25.216  1.00  0.00     0.274 C 
ENDROOT
BRANCH   1   2
ATOM      2  O   UNL A   1      31.545  27.092  25.030  1.00  0.00    -0.460 OA
BRANCH   2   3
ATOM      3  C   UNL A   1      30.962  26.154  25.817  1.00  0.00     0.331 C 
ATOM      4  O   UNL A   1      30.178  26.384  26.729  1.00  0.00    -0.250 OA
BRANCH   3   5
ATOM      5  C   UNL A   1      31.438  24.755  25.422  1.00  0.00     0.218 C 
BRANCH   5   6
ATOM      6  N   UNL A   1      31.600  23.940  26.614  1.00  0.00    -0.339 N 
ATOM      7  C   UNL A   1      32.448  22.910  26.848  1.00  0.00     0.243 C 
ATOM      8  O   UNL A   1      32.562  22.618  28.047  1.00  0.00    -0.273 OA
ATOM      9  H   UNL A   1      31.005  24.172  27.363  1.00  0.00     0.164 HD
BRANCH   7  10
ATOM     10  C   UNL A   1      33.114  22.002  25.759  1.00  0.00     0.176 C 
BRANCH  10  11
ATOM     11  N   UNL A   1      34.534  22.284  25.592  1.00  0.00    -0.340 N 
ATOM     12  O   UNL A   1      36.418  22.939  24.567  1.00  0.00    -0.269 OA
ATOM     13  C   UNL A   1      35.189  22.952  24.583  1.00  0.00     0.251 C 
ATOM     14  H   UNL A   1      35.114  21.945  26.312  1.00  0.00     0.164 HD
BRANCH  13  15
ATOM     15  C   UNL A   1      34.469  23.687  23.510  1.00  0.00     0.040 A 
ATOM     16  C   UNL A   1      33.745  23.011  22.521  1.00  0.00     0.017 A 
ATOM     17  C   UNL A   1      34.390  25.085  23.584  1.00  0.00     0.017 A 
ATOM     18  C   UNL A   1      32.995  23.725  21.581  1.00  0.00     0.040 A 
ATOM     19  C   UNL A   1      33.623  25.797  22.653  1.00  0.00     0.040 A 
ATOM     20  C   UNL A   1      32.936  25.110  21.659  1.00  0.00     0.123 A 
ATOM     21  F   UNL A   1      32.182  25.787  20.782  1.00  0.00    -0.207 F 
ENDBRANCH  13  15
ENDBRANCH  10  11
BRANCH  10  22
ATOM     22  C   UNL A   1      32.725  20.515  25.578  1.00  0.00     0.070 C 
BRANCH  22  23
ATOM     23  C   UNL A   1      33.321  19.446  24.681  1.00  0.00    -0.045 A 
ATOM     24  C   UNL A   1      32.485  18.960  23.651  1.00  0.00     0.007 A 
ATOM     25  C   UNL A   1      34.573  18.847  24.831  1.00  0.00     0.007 A 
ATOM     26  C   UNL A   1      32.791  17.812  22.925  1.00  0.00     0.046 A 
ATOM     27  C   UNL A   1      34.877  17.676  24.117  1.00  0.00     0.046 A 
ATOM     28  C   UNL A   1      33.968  17.146  23.206  1.00  0.00     0.115 A 
BRANCH  28  29
ATOM     29  O   UNL A   1      34.257  15.952  22.617  1.00  0.00    -0.508 OA
ATOM     30  H   UNL A   1      34.339  15.896  21.685  1.00  0.00     0.293 HD
ENDBRANCH  28  29
ENDBRANCH  22  23
ENDBRANCH  10  22
ENDBRANCH   7  10
ENDBRANCH   5   6
BRANCH   5  31
ATOM     31  C   UNL A   1      30.560  24.113  24.353  1.00  0.00     0.193 C 
BRANCH  31  32
ATOM     32  O   UNL A   1      29.677  25.044  23.740  1.00  0.00    -0.394 OA
ATOM     33  H   UNL A   1      30.095  25.412  22.945  1.00  0.00     0.210 HD
ENDBRANCH  31  32
ENDBRANCH   5  31
ENDBRANCH   3   5
ENDBRANCH   2   3
ENDBRANCH   1   2
BRANCH   1  34
ATOM     34  C   UNL A   1      31.856  29.199  26.402  1.00  0.00     0.275 C 
BRANCH  34  35
ATOM     35  O   UNL A   1      32.931  30.043  25.964  1.00  0.00    -0.458 OA
BRANCH  35  36
ATOM     36  C   UNL A   1      33.176  31.099  26.792  1.00  0.00     0.338 C 
ATOM     37  O   UNL A   1      32.534  32.119  26.897  1.00  0.00    -0.246 OA
BRANCH  36  38
ATOM     38  C   UNL A   1      34.424  30.801  27.518  1.00  0.00     0.060 A 
ATOM     39  C   UNL A   1      35.289  31.846  27.835  1.00  0.00     0.016 A 
ATOM     40  C   UNL A   1      34.703  29.502  27.938  1.00  0.00     0.016 A 
ATOM     41  C   UNL A   1      36.355  31.627  28.704  1.00  0.00     0.010 A 
ATOM     42  C   UNL A   1      35.821  29.266  28.747  1.00  0.00     0.010 A 
ATOM     43  C   UNL A   1      36.635  30.333  29.160  1.00  0.00    -0.014 A 
BRANCH  43  44
ATOM     44  C   UNL A   1      37.883  30.101  29.926  1.00  0.00     0.031 A 
ATOM     45  C   UNL A   1      38.952  29.255  29.295  1.00  0.00     0.074 A 
ATOM     46  C   UNL A   1      38.094  30.685  31.120  1.00  0.00     0.049 A 
ATOM     47  N   UNL A   1      40.107  28.887  29.779  1.00  0.00    -0.248 NA
ATOM     48  C   UNL A   1      38.701  28.798  27.917  1.00  0.00     0.031 C 
ATOM     49  C   UNL A   1      37.196  31.641  31.766  1.00  0.00     0.029 A 
ATOM     50  N   UNL A   1      39.143  30.564  32.001  1.00  0.00    -0.354 N 
ATOM     51  C   UNL A   1      40.712  28.147  28.772  1.00  0.00     0.074 A 
ATOM     52  C   UNL A   1      39.821  28.154  27.635  1.00  0.00     0.031 C 
ATOM     53  C   UNL A   1      37.722  32.002  32.951  1.00  0.00     0.029 A 
ATOM     54  C   UNL A   1      38.965  31.267  33.172  1.00  0.00     0.049 A 
ATOM     55  H   UNL A   1      39.944  30.025  31.812  1.00  0.00     0.167 HD
ATOM     56  C   UNL A   1      41.895  27.492  28.798  1.00  0.00     0.034 A 
ATOM     57  C   UNL A   1      39.705  31.275  34.302  1.00  0.00     0.034 A 
ATOM     58  C   UNL A   1      42.741  27.419  29.953  1.00  0.00     0.049 A 
ATOM     59  C   UNL A   1      40.944  30.411  34.360  1.00  0.00     0.074 A 
ATOM     60  C   UNL A   1      43.896  26.682  30.130  1.00  0.00     0.029 A 
ATOM     61  N   UNL A   1      42.502  28.090  31.142  1.00  0.00    -0.354 N 
ATOM     62  N   UNL A   1      41.510  29.712  33.404  1.00  0.00    -0.248 NA
ATOM     63  C   UNL A   1      41.646  30.331  35.651  1.00  0.00     0.031 C 
ATOM     64  C   UNL A   1      44.341  26.885  31.440  1.00  0.00     0.029 A 
ATOM     65  C   UNL A   1      43.478  27.772  32.067  1.00  0.00     0.049 A 
ATOM     66  H   UNL A   1      41.747  28.700  31.304  1.00  0.00     0.167 HD
ATOM     67  C   UNL A   1      42.638  29.128  33.970  1.00  0.00     0.074 A 
ATOM     68  C   UNL A   1      42.693  29.577  35.346  1.00  0.00     0.031 C 
ATOM     69  C   UNL A   1      43.536  28.276  33.415  1.00  0.00     0.034 A 
BRANCH  56  70
ATOM     70  C   UNL A   1      42.281  26.748  27.553  1.00  0.00     0.023 A 
ATOM     71  C   UNL A   1      42.788  27.453  26.443  1.00  0.00     0.012 A 
ATOM     72  C   UNL A   1      42.105  25.354  27.472  1.00  0.00     0.148 A 
ATOM     73  C   UNL A   1      43.084  26.782  25.258  1.00  0.00     0.002 A 
ATOM     74  C   UNL A   1      42.432  24.688  26.298  1.00  0.00     0.091 A 
ATOM     75  F   UNL A   1      41.589  24.714  28.530  1.00  0.00    -0.205 F 
ATOM     76  C   UNL A   1      42.913  25.401  25.187  1.00  0.00     0.022 A 
BRANCH  74  77
ATOM     77  S   UNL A   1      42.278  22.909  26.121  1.00  0.00     0.127 S 
ATOM     78  O   UNL A   1      43.101  22.430  27.231  1.00  0.00    -0.237 OA
ATOM     79  O   UNL A   1      40.840  22.708  26.295  1.00  0.00    -0.237 OA
ATOM     80  O   UNL A   1      42.782  22.591  24.793  1.00  0.00    -0.744 OA
ENDBRANCH  74  77
ENDBRANCH  56  70
BRANCH  57  81
ATOM     81  C   UNL A   1      39.293  32.090  35.487  1.00  0.00     0.023 A 
ATOM     82  C   UNL A   1      39.697  33.436  35.588  1.00  0.00     0.012 A 
ATOM     83  C   UNL A   1      38.529  31.532  36.531  1.00  0.00     0.148 A 
ATOM     84  C   UNL A   1      39.373  34.198  36.714  1.00  0.00     0.002 A 
ATOM     85  C   UNL A   1      38.158  32.313  37.621  1.00  0.00     0.091 A 
ATOM     86  F   UNL A   1      38.186  30.239  36.449  1.00  0.00    -0.205 F 
ATOM     87  C   UNL A   1      38.594  33.641  37.725  1.00  0.00     0.022 A 
BRANCH  85  88
ATOM     88  S   UNL A   1      37.049  31.703  38.897  1.00  0.00     0.127 S 
ATOM     89  O   UNL A   1      37.829  31.932  40.110  1.00  0.00    -0.237 OA
ATOM     90  O   UNL A   1      35.886  32.577  38.737  1.00  0.00    -0.237 OA
ATOM     91  O   UNL A   1      36.795  30.310  38.555  1.00  0.00    -0.744 OA
ENDBRANCH  85  88
ENDBRANCH  57  81
BRANCH  69  92
ATOM     92  C   UNL A   1      44.667  27.781  34.276  1.00  0.00     0.023 A 
ATOM     93  C   UNL A   1      45.861  28.523  34.350  1.00  0.00     0.012 A 
ATOM     94  C   UNL A   1      44.495  26.655  35.104  1.00  0.00     0.148 A 
ATOM     95  C   UNL A   1      46.877  28.142  35.226  1.00  0.00     0.002 A 
ATOM     96  C   UNL A   1      45.491  26.310  36.008  1.00  0.00     0.091 A 
ATOM     97  F   UNL A   1      43.355  25.955  35.004  1.00  0.00    -0.205 F 
ATOM     98  C   UNL A   1      46.685  27.046  36.065  1.00  0.00     0.022 A 
BRANCH  96  99
ATOM     99  S   UNL A   1      45.290  24.979  37.199  1.00  0.00     0.127 S 
ATOM    100  O   UNL A   1      44.814  23.889  36.349  1.00  0.00    -0.237 OA
ATOM    101  O   UNL A   1      46.652  24.808  37.706  1.00  0.00    -0.237 OA
ATOM    102  O   UNL A   1      44.334  25.464  38.186  1.00  0.00    -0.744 OA
ENDBRANCH  96  99
ENDBRANCH  69  92
ENDBRANCH  43  44
ENDBRANCH  36  38
ENDBRANCH  35  36
ENDBRANCH  34  35
ENDBRANCH   1  34
TORSDOF 23
ENDMDL
