MODEL 1
REMARK VINA RESULT:      -9.9      0.000      0.000
REMARK SMILES CCC(CC)C(O)(C(=O)OCCOC(=O)c1ccc(-c2c3nc(c(-c4cccc(S(=O)(=O)[O-])c4F)c4ccc([nH]4)c(-c4cccc(S(=O)(=O)[O-])c4F)c4nc(c(-c5cccc(S(=O)(=O)[O-])c5F)c5ccc2[nH]5)C=C4)C=C3)cc1)C(CC)CC
REMARK SMILES IDX 12 1 11 2 10 3 8 4 9 5 6 6 3 7 2 8 1 9 4 10 5 11 7 12 79 14
REMARK SMILES IDX 80 15 81 16 82 17 83 18 13 19 14 20 15 21 16 22 17 23 78 24
REMARK SMILES IDX 18 25 77 26 19 27 20 28 21 29 71 30 22 31 76 32 70 33 72 34
REMARK SMILES IDX 23 35 75 36 69 37 68 38 24 40 56 41 36 42 55 43 37 44 40 45
REMARK SMILES IDX 54 46 73 47 38 48 39 49 53 51 74 52 41 53 25 54 26 55 34 56
REMARK SMILES IDX 27 57 29 58 35 59 28 60 30 61 31 62 32 63 33 64 57 65 58 66
REMARK SMILES IDX 66 67 59 68 61 69 67 70 60 71 62 72 63 73 64 74 65 75 42 76
REMARK SMILES IDX 43 77 51 78 44 79 46 80 52 81 45 82 47 83 48 84 49 85 50 86
REMARK H PARENT 7 13 72 39 40 50
REMARK Flexibility Score: inf
ROOT
ATOM      1  C   UNL A   1      31.557  29.389  25.787  1.00  0.00     0.275 C 
ENDROOT
BRANCH   1   2
ATOM      2  C   UNL A   1      31.657  28.264  26.815  1.00  0.00     0.274 C 
BRANCH   2   3
ATOM      3  O   UNL A   1      32.508  27.194  26.344  1.00  0.00    -0.460 OA
BRANCH   3   4
ATOM      4  C   UNL A   1      31.889  26.033  25.991  1.00  0.00     0.338 C 
ATOM      5  O   UNL A   1      31.169  25.407  26.762  1.00  0.00    -0.249 OA
BRANCH   4   6
ATOM      6  C   UNL A   1      32.372  25.478  24.608  1.00  0.00     0.167 C 
BRANCH   6   7
ATOM      7  C   UNL A   1      31.366  25.647  23.399  1.00  0.00     0.032 C 
BRANCH   7   8
ATOM      8  C   UNL A   1      29.943  26.006  23.899  1.00  0.00     0.004 C 
ATOM      9  C   UNL A   1      29.422  27.379  23.510  1.00  0.00     0.004 C 
ENDBRANCH   7   8
BRANCH   7  10
ATOM     10  C   UNL A   1      31.801  26.331  22.070  1.00  0.00     0.004 C 
ATOM     11  C   UNL A   1      32.533  25.572  20.990  1.00  0.00     0.004 C 
ENDBRANCH   7  10
ENDBRANCH   6   7
BRANCH   6  12
ATOM     12  O   UNL A   1      33.405  26.487  24.316  1.00  0.00    -0.378 OA
ATOM     13  H   UNL A   1      32.986  27.355  24.204  1.00  0.00     0.212 HD
ENDBRANCH   6  12
BRANCH   6  14
ATOM     14  C   UNL A   1      33.183  24.114  24.825  1.00  0.00     0.032 C 
BRANCH  14  15
ATOM     15  C   UNL A   1      32.523  22.797  24.348  1.00  0.00     0.004 C 
ATOM     16  C   UNL A   1      31.769  21.933  25.350  1.00  0.00     0.004 C 
ENDBRANCH  14  15
BRANCH  14  17
ATOM     17  C   UNL A   1      34.706  24.078  24.506  1.00  0.00     0.004 C 
ATOM     18  C   UNL A   1      35.632  23.756  25.673  1.00  0.00     0.004 C 
ENDBRANCH  14  17
ENDBRANCH   6  14
ENDBRANCH   4   6
ENDBRANCH   3   4
ENDBRANCH   2   3
ENDBRANCH   1   2
BRANCH   1  19
ATOM     19  O   UNL A   1      32.809  30.087  25.738  1.00  0.00    -0.458 OA
BRANCH  19  20
ATOM     20  C   UNL A   1      33.028  31.014  26.701  1.00  0.00     0.338 C 
ATOM     21  O   UNL A   1      32.250  31.881  27.059  1.00  0.00    -0.246 OA
BRANCH  20  22
ATOM     22  C   UNL A   1      34.354  30.784  27.325  1.00  0.00     0.060 A 
ATOM     23  C   UNL A   1      34.827  29.492  27.553  1.00  0.00     0.016 A 
ATOM     24  C   UNL A   1      35.099  31.871  27.785  1.00  0.00     0.016 A 
ATOM     25  C   UNL A   1      35.973  29.283  28.316  1.00  0.00     0.010 A 
ATOM     26  C   UNL A   1      36.310  31.657  28.459  1.00  0.00     0.010 A 
ATOM     27  C   UNL A   1      36.749  30.358  28.765  1.00  0.00    -0.014 A 
BRANCH  27  28
ATOM     28  C   UNL A   1      38.005  30.127  29.541  1.00  0.00     0.031 A 
ATOM     29  C   UNL A   1      39.105  29.260  28.980  1.00  0.00     0.074 A 
ATOM     30  C   UNL A   1      38.159  30.666  30.769  1.00  0.00     0.049 A 
ATOM     31  N   UNL A   1      40.135  28.734  29.593  1.00  0.00    -0.248 NA
ATOM     32  C   UNL A   1      39.027  28.919  27.550  1.00  0.00     0.031 C 
ATOM     33  C   UNL A   1      37.198  31.543  31.439  1.00  0.00     0.029 A 
ATOM     34  N   UNL A   1      39.180  30.544  31.682  1.00  0.00    -0.354 N 
ATOM     35  C   UNL A   1      40.766  27.922  28.658  1.00  0.00     0.074 A 
ATOM     36  C   UNL A   1      40.021  28.049  27.422  1.00  0.00     0.031 C 
ATOM     37  C   UNL A   1      37.685  31.909  32.632  1.00  0.00     0.029 A 
ATOM     38  C   UNL A   1      38.938  31.204  32.866  1.00  0.00     0.049 A 
ATOM     39  H   UNL A   1      40.004  30.035  31.507  1.00  0.00     0.167 HD
ATOM     40  C   UNL A   1      41.863  27.144  28.815  1.00  0.00     0.034 A 
ATOM     41  C   UNL A   1      39.606  31.201  34.036  1.00  0.00     0.034 A 
ATOM     42  C   UNL A   1      42.664  27.104  30.011  1.00  0.00     0.049 A 
ATOM     43  C   UNL A   1      40.837  30.357  34.175  1.00  0.00     0.074 A 
ATOM     44  C   UNL A   1      43.827  26.390  30.244  1.00  0.00     0.029 A 
ATOM     45  N   UNL A   1      42.403  27.825  31.166  1.00  0.00    -0.354 N 
ATOM     46  N   UNL A   1      41.421  29.601  33.278  1.00  0.00    -0.248 NA
ATOM     47  C   UNL A   1      41.500  30.362  35.486  1.00  0.00     0.031 C 
ATOM     48  C   UNL A   1      44.268  26.677  31.540  1.00  0.00     0.029 A 
ATOM     49  C   UNL A   1      43.384  27.576  32.112  1.00  0.00     0.049 A 
ATOM     50  H   UNL A   1      41.633  28.426  31.295  1.00  0.00     0.167 HD
ATOM     51  C   UNL A   1      42.525  29.045  33.911  1.00  0.00     0.074 A 
ATOM     52  C   UNL A   1      42.547  29.580  35.259  1.00  0.00     0.031 C 
ATOM     53  C   UNL A   1      43.421  28.151  33.432  1.00  0.00     0.034 A 
BRANCH  40  54
ATOM     54  C   UNL A   1      42.293  26.278  27.658  1.00  0.00     0.023 A 
ATOM     55  C   UNL A   1      43.217  26.771  26.717  1.00  0.00     0.012 A 
ATOM     56  C   UNL A   1      41.853  24.942  27.562  1.00  0.00     0.148 A 
ATOM     57  C   UNL A   1      43.681  25.955  25.685  1.00  0.00     0.002 A 
ATOM     58  C   UNL A   1      42.351  24.122  26.555  1.00  0.00     0.091 A 
ATOM     59  F   UNL A   1      40.955  24.497  28.452  1.00  0.00    -0.205 F 
ATOM     60  C   UNL A   1      43.259  24.628  25.611  1.00  0.00     0.022 A 
BRANCH  58  61
ATOM     61  S   UNL A   1      41.925  22.380  26.435  1.00  0.00     0.127 S 
ATOM     62  O   UNL A   1      42.651  21.980  25.230  1.00  0.00    -0.237 OA
ATOM     63  O   UNL A   1      42.469  21.839  27.681  1.00  0.00    -0.237 OA
ATOM     64  O   UNL A   1      40.472  22.332  26.342  1.00  0.00    -0.744 OA
ENDBRANCH  58  61
ENDBRANCH  40  54
BRANCH  41  65
ATOM     65  C   UNL A   1      39.105  32.036  35.165  1.00  0.00     0.023 A 
ATOM     66  C   UNL A   1      38.190  31.482  36.080  1.00  0.00     0.012 A 
ATOM     67  C   UNL A   1      39.592  33.340  35.386  1.00  0.00     0.148 A 
ATOM     68  C   UNL A   1      37.769  32.211  37.192  1.00  0.00     0.002 A 
ATOM     69  C   UNL A   1      39.223  34.034  36.533  1.00  0.00     0.091 A 
ATOM     70  F   UNL A   1      40.436  33.867  34.488  1.00  0.00    -0.205 F 
ATOM     71  C   UNL A   1      38.299  33.477  37.430  1.00  0.00     0.022 A 
BRANCH  69  72
ATOM     72  S   UNL A   1      40.008  35.583  36.989  1.00  0.00     0.127 S 
ATOM     73  O   UNL A   1      39.651  36.445  35.867  1.00  0.00    -0.237 OA
ATOM     74  O   UNL A   1      39.344  35.910  38.253  1.00  0.00    -0.237 OA
ATOM     75  O   UNL A   1      41.424  35.265  37.131  1.00  0.00    -0.744 OA
ENDBRANCH  69  72
ENDBRANCH  41  65
BRANCH  53  76
ATOM     76  C   UNL A   1      44.513  27.702  34.362  1.00  0.00     0.023 A 
ATOM     77  C   UNL A   1      45.714  28.435  34.423  1.00  0.00     0.012 A 
ATOM     78  C   UNL A   1      44.335  26.590  35.207  1.00  0.00     0.148 A 
ATOM     79  C   UNL A   1      46.734  28.052  35.292  1.00  0.00     0.002 A 
ATOM     80  C   UNL A   1      45.342  26.237  36.099  1.00  0.00     0.091 A 
ATOM     81  F   UNL A   1      43.194  25.892  35.118  1.00  0.00    -0.205 F 
ATOM     82  C   UNL A   1      46.545  26.961  36.137  1.00  0.00     0.022 A 
BRANCH  80  83
ATOM     83  S   UNL A   1      45.148  24.891  37.273  1.00  0.00     0.127 S 
ATOM     84  O   UNL A   1      43.982  25.328  38.037  1.00  0.00    -0.237 OA
ATOM     85  O   UNL A   1      44.907  23.742  36.398  1.00  0.00    -0.237 OA
ATOM     86  O   UNL A   1      46.401  24.828  38.013  1.00  0.00    -0.744 OA
ENDBRANCH  80  83
ENDBRANCH  53  76
ENDBRANCH  27  28
ENDBRANCH  20  22
ENDBRANCH  19  20
ENDBRANCH   1  19
TORSDOF 21
ENDMDL
MODEL 2
REMARK VINA RESULT:      -9.6      1.473      2.444
REMARK SMILES CCC(CC)C(O)(C(=O)OCCOC(=O)c1ccc(-c2c3nc(c(-c4cccc(S(=O)(=O)[O-])c4F)c4ccc([nH]4)c(-c4cccc(S(=O)(=O)[O-])c4F)c4nc(c(-c5cccc(S(=O)(=O)[O-])c5F)c5ccc2[nH]5)C=C4)C=C3)cc1)C(CC)CC
REMARK SMILES IDX 12 1 11 2 10 3 8 4 9 5 6 6 3 7 2 8 1 9 4 10 5 11 7 12 79 14
REMARK SMILES IDX 80 15 81 16 82 17 83 18 13 19 14 20 15 21 16 22 17 23 78 24
REMARK SMILES IDX 18 25 77 26 19 27 20 28 21 29 71 30 22 31 76 32 70 33 72 34
REMARK SMILES IDX 23 35 75 36 69 37 68 38 24 40 56 41 36 42 55 43 37 44 40 45
REMARK SMILES IDX 54 46 73 47 38 48 39 49 53 51 74 52 41 53 25 54 26 55 34 56
REMARK SMILES IDX 27 57 29 58 35 59 28 60 30 61 31 62 32 63 33 64 57 65 58 66
REMARK SMILES IDX 66 67 59 68 61 69 67 70 60 71 62 72 63 73 64 74 65 75 42 76
REMARK SMILES IDX 43 77 51 78 44 79 46 80 52 81 45 82 47 83 48 84 49 85 50 86
REMARK H PARENT 7 13 72 39 40 50
REMARK Flexibility Score: inf
ROOT
ATOM      1  C   UNL A   1      31.876  29.671  26.769  1.00  0.00     0.275 C 
ENDROOT
BRANCH   1   2
ATOM      2  C   UNL A   1      31.989  28.274  27.378  1.00  0.00     0.274 C 
BRANCH   2   3
ATOM      3  O   UNL A   1      32.729  27.381  26.515  1.00  0.00    -0.460 OA
BRANCH   3   4
ATOM      4  C   UNL A   1      32.109  26.220  26.163  1.00  0.00     0.338 C 
ATOM      5  O   UNL A   1      31.673  25.427  26.992  1.00  0.00    -0.249 OA
BRANCH   4   6
ATOM      6  C   UNL A   1      32.221  25.905  24.633  1.00  0.00     0.167 C 
BRANCH   6   7
ATOM      7  C   UNL A   1      33.417  24.963  24.202  1.00  0.00     0.032 C 
BRANCH   7   8
ATOM      8  C   UNL A   1      34.547  24.968  25.264  1.00  0.00     0.004 C 
ATOM      9  C   UNL A   1      35.359  23.689  25.384  1.00  0.00     0.004 C 
ENDBRANCH   7   8
BRANCH   7  10
ATOM     10  C   UNL A   1      33.163  23.596  23.501  1.00  0.00     0.004 C 
ATOM     11  C   UNL A   1      33.278  23.438  22.005  1.00  0.00     0.004 C 
ENDBRANCH   7  10
ENDBRANCH   6   7
BRANCH   6  12
ATOM     12  O   UNL A   1      31.049  25.022  24.504  1.00  0.00    -0.378 OA
ATOM     13  H   UNL A   1      30.600  24.955  25.362  1.00  0.00     0.212 HD
ENDBRANCH   6  12
BRANCH   6  14
ATOM     14  C   UNL A   1      31.847  27.209  23.783  1.00  0.00     0.032 C 
BRANCH  14  15
ATOM     15  C   UNL A   1      32.336  27.280  22.315  1.00  0.00     0.004 C 
ATOM     16  C   UNL A   1      33.720  27.840  22.015  1.00  0.00     0.004 C 
ENDBRANCH  14  15
BRANCH  14  17
ATOM     17  C   UNL A   1      30.406  27.788  23.878  1.00  0.00     0.004 C 
ATOM     18  C   UNL A   1      29.944  28.644  22.705  1.00  0.00     0.004 C 
ENDBRANCH  14  17
ENDBRANCH   6  14
ENDBRANCH   4   6
ENDBRANCH   3   4
ENDBRANCH   2   3
ENDBRANCH   1   2
BRANCH   1  19
ATOM     19  O   UNL A   1      33.192  30.154  26.467  1.00  0.00    -0.458 OA
BRANCH  19  20
ATOM     20  C   UNL A   1      33.659  31.170  27.230  1.00  0.00     0.338 C 
ATOM     21  O   UNL A   1      33.058  32.190  27.521  1.00  0.00    -0.246 OA
BRANCH  20  22
ATOM     22  C   UNL A   1      35.014  30.838  27.734  1.00  0.00     0.060 A 
ATOM     23  C   UNL A   1      35.367  29.522  28.029  1.00  0.00     0.016 A 
ATOM     24  C   UNL A   1      35.917  31.863  28.015  1.00  0.00     0.016 A 
ATOM     25  C   UNL A   1      36.562  29.242  28.687  1.00  0.00     0.010 A 
ATOM     26  C   UNL A   1      37.165  31.564  28.579  1.00  0.00     0.010 A 
ATOM     27  C   UNL A   1      37.494  30.251  28.955  1.00  0.00    -0.014 A 
BRANCH  27  28
ATOM     28  C   UNL A   1      38.797  29.936  29.617  1.00  0.00     0.031 A 
ATOM     29  C   UNL A   1      39.764  28.966  28.985  1.00  0.00     0.074 A 
ATOM     30  C   UNL A   1      39.111  30.494  30.805  1.00  0.00     0.049 A 
ATOM     31  N   UNL A   1      40.803  28.374  29.517  1.00  0.00    -0.248 NA
ATOM     32  C   UNL A   1      39.521  28.595  27.582  1.00  0.00     0.031 C 
ATOM     33  C   UNL A   1      38.293  31.466  31.533  1.00  0.00     0.029 A 
ATOM     34  N   UNL A   1      40.203  30.311  31.622  1.00  0.00    -0.354 N 
ATOM     35  C   UNL A   1      41.273  27.487  28.555  1.00  0.00     0.074 A 
ATOM     36  C   UNL A   1      40.426  27.642  27.391  1.00  0.00     0.031 C 
ATOM     37  C   UNL A   1      38.920  31.821  32.661  1.00  0.00     0.029 A 
ATOM     38  C   UNL A   1      40.130  31.021  32.800  1.00  0.00     0.049 A 
ATOM     39  H   UNL A   1      40.962  29.731  31.388  1.00  0.00     0.167 HD
ATOM     40  C   UNL A   1      42.315  26.624  28.634  1.00  0.00     0.034 A 
ATOM     41  C   UNL A   1      40.905  30.994  33.901  1.00  0.00     0.034 A 
ATOM     42  C   UNL A   1      43.221  26.551  29.751  1.00  0.00     0.049 A 
ATOM     43  C   UNL A   1      42.072  30.055  33.953  1.00  0.00     0.074 A 
ATOM     44  C   UNL A   1      44.341  25.748  29.898  1.00  0.00     0.029 A 
ATOM     45  N   UNL A   1      43.132  27.321  30.899  1.00  0.00    -0.354 N 
ATOM     46  N   UNL A   1      42.504  29.229  33.032  1.00  0.00    -0.248 NA
ATOM     47  C   UNL A   1      42.857  30.039  35.195  1.00  0.00     0.031 C 
ATOM     48  C   UNL A   1      44.926  26.033  31.136  1.00  0.00     0.029 A 
ATOM     49  C   UNL A   1      44.177  27.017  31.757  1.00  0.00     0.049 A 
ATOM     50  H   UNL A   1      42.429  27.987  31.079  1.00  0.00     0.167 HD
ATOM     51  C   UNL A   1      43.616  28.600  33.577  1.00  0.00     0.074 A 
ATOM     52  C   UNL A   1      43.812  29.167  34.898  1.00  0.00     0.031 C 
ATOM     53  C   UNL A   1      44.387  27.622  33.047  1.00  0.00     0.034 A 
BRANCH  40  54
ATOM     54  C   UNL A   1      42.560  25.695  27.474  1.00  0.00     0.023 A 
ATOM     55  C   UNL A   1      43.402  26.096  26.418  1.00  0.00     0.012 A 
ATOM     56  C   UNL A   1      42.032  24.388  27.479  1.00  0.00     0.148 A 
ATOM     57  C   UNL A   1      43.698  25.218  25.376  1.00  0.00     0.002 A 
ATOM     58  C   UNL A   1      42.363  23.506  26.456  1.00  0.00     0.091 A 
ATOM     59  F   UNL A   1      41.212  24.032  28.478  1.00  0.00    -0.205 F 
ATOM     60  C   UNL A   1      43.190  23.920  25.401  1.00  0.00     0.022 A 
BRANCH  58  61
ATOM     61  S   UNL A   1      41.821  21.791  26.452  1.00  0.00     0.127 S 
ATOM     62  O   UNL A   1      42.630  21.228  25.373  1.00  0.00    -0.237 OA
ATOM     63  O   UNL A   1      42.198  21.342  27.793  1.00  0.00    -0.237 OA
ATOM     64  O   UNL A   1      40.385  21.830  26.212  1.00  0.00    -0.744 OA
ENDBRANCH  58  61
ENDBRANCH  40  54
BRANCH  41  65
ATOM     65  C   UNL A   1      40.585  31.898  35.043  1.00  0.00     0.023 A 
ATOM     66  C   UNL A   1      41.334  33.076  35.221  1.00  0.00     0.012 A 
ATOM     67  C   UNL A   1      39.494  31.642  35.898  1.00  0.00     0.148 A 
ATOM     68  C   UNL A   1      41.003  33.982  36.230  1.00  0.00     0.002 A 
ATOM     69  C   UNL A   1      39.127  32.582  36.854  1.00  0.00     0.091 A 
ATOM     70  F   UNL A   1      38.811  30.500  35.738  1.00  0.00    -0.205 F 
ATOM     71  C   UNL A   1      39.889  33.746  37.033  1.00  0.00     0.022 A 
BRANCH  69  72
ATOM     72  S   UNL A   1      37.602  32.426  37.790  1.00  0.00     0.127 S 
ATOM     73  O   UNL A   1      37.903  33.199  38.991  1.00  0.00    -0.237 OA
ATOM     74  O   UNL A   1      36.620  33.038  36.893  1.00  0.00    -0.237 OA
ATOM     75  O   UNL A   1      37.416  30.992  37.978  1.00  0.00    -0.744 OA
ENDBRANCH  69  72
ENDBRANCH  41  65
BRANCH  53  76
ATOM     76  C   UNL A   1      45.524  27.108  33.885  1.00  0.00     0.023 A 
ATOM     77  C   UNL A   1      46.773  27.757  33.827  1.00  0.00     0.012 A 
ATOM     78  C   UNL A   1      45.347  26.021  34.762  1.00  0.00     0.148 A 
ATOM     79  C   UNL A   1      47.838  27.314  34.610  1.00  0.00     0.002 A 
ATOM     80  C   UNL A   1      46.403  25.610  35.568  1.00  0.00     0.091 A 
ATOM     81  F   UNL A   1      44.157  25.403  34.786  1.00  0.00    -0.205 F 
ATOM     82  C   UNL A   1      47.651  26.249  35.487  1.00  0.00     0.022 A 
BRANCH  80  83
ATOM     83  S   UNL A   1      46.222  24.294  36.778  1.00  0.00     0.127 S 
ATOM     84  O   UNL A   1      45.142  24.806  37.617  1.00  0.00    -0.237 OA
ATOM     85  O   UNL A   1      45.855  23.148  35.945  1.00  0.00    -0.237 OA
ATOM     86  O   UNL A   1      47.522  24.171  37.425  1.00  0.00    -0.744 OA
ENDBRANCH  80  83
ENDBRANCH  53  76
ENDBRANCH  27  28
ENDBRANCH  20  22
ENDBRANCH  19  20
ENDBRANCH   1  19
TORSDOF 21
ENDMDL
MODEL 3
REMARK VINA RESULT:      -9.4      5.200     10.086
REMARK SMILES CCC(CC)C(O)(C(=O)OCCOC(=O)c1ccc(-c2c3nc(c(-c4cccc(S(=O)(=O)[O-])c4F)c4ccc([nH]4)c(-c4cccc(S(=O)(=O)[O-])c4F)c4nc(c(-c5cccc(S(=O)(=O)[O-])c5F)c5ccc2[nH]5)C=C4)C=C3)cc1)C(CC)CC
REMARK SMILES IDX 12 1 11 2 10 3 8 4 9 5 6 6 3 7 2 8 1 9 4 10 5 11 7 12 79 14
REMARK SMILES IDX 80 15 81 16 82 17 83 18 13 19 14 20 15 21 16 22 17 23 78 24
REMARK SMILES IDX 18 25 77 26 19 27 20 28 21 29 71 30 22 31 76 32 70 33 72 34
REMARK SMILES IDX 23 35 75 36 69 37 68 38 24 40 56 41 36 42 55 43 37 44 40 45
REMARK SMILES IDX 54 46 73 47 38 48 39 49 53 51 74 52 41 53 25 54 26 55 34 56
REMARK SMILES IDX 27 57 29 58 35 59 28 60 30 61 31 62 32 63 33 64 57 65 58 66
REMARK SMILES IDX 66 67 59 68 61 69 67 70 60 71 62 72 63 73 64 74 65 75 42 76
REMARK SMILES IDX 43 77 51 78 44 79 46 80 52 81 45 82 47 83 48 84 49 85 50 86
REMARK H PARENT 7 13 72 39 40 50
REMARK Flexibility Score: inf
ROOT
ATOM      1  C   UNL A   1      37.650  21.526  24.682  1.00  0.00     0.275 C 
ENDROOT
BRANCH   1   2
ATOM      2  C   UNL A   1      36.128  21.607  24.570  1.00  0.00     0.274 C 
BRANCH   2   3
ATOM      3  O   UNL A   1      35.654  22.955  24.786  1.00  0.00    -0.460 OA
BRANCH   3   4
ATOM      4  C   UNL A   1      34.738  23.430  23.895  1.00  0.00     0.338 C 
ATOM      5  O   UNL A   1      35.035  23.744  22.747  1.00  0.00    -0.249 OA
BRANCH   4   6
ATOM      6  C   UNL A   1      33.351  23.743  24.551  1.00  0.00     0.167 C 
BRANCH   6   7
ATOM      7  C   UNL A   1      32.254  22.609  24.434  1.00  0.00     0.032 C 
BRANCH   7   8
ATOM      8  C   UNL A   1      32.745  21.441  23.540  1.00  0.00     0.004 C 
ATOM      9  C   UNL A   1      31.858  21.081  22.361  1.00  0.00     0.004 C 
ENDBRANCH   7   8
BRANCH   7  10
ATOM     10  C   UNL A   1      31.379  22.196  25.654  1.00  0.00     0.004 C 
ATOM     11  C   UNL A   1      30.525  23.198  26.393  1.00  0.00     0.004 C 
ENDBRANCH   7  10
ENDBRANCH   6   7
BRANCH   6  12
ATOM     12  O   UNL A   1      33.755  23.660  25.966  1.00  0.00    -0.378 OA
ATOM     13  H   UNL A   1      33.973  24.548  26.292  1.00  0.00     0.212 HD
ENDBRANCH   6  12
BRANCH   6  14
ATOM     14  C   UNL A   1      32.978  25.283  24.322  1.00  0.00     0.032 C 
BRANCH  14  15
ATOM     15  C   UNL A   1      31.970  25.622  23.197  1.00  0.00     0.004 C 
ATOM     16  C   UNL A   1      32.488  25.972  21.808  1.00  0.00     0.004 C 
ENDBRANCH  14  15
BRANCH  14  17
ATOM     17  C   UNL A   1      32.704  26.189  25.557  1.00  0.00     0.004 C 
ATOM     18  C   UNL A   1      33.798  27.188  25.916  1.00  0.00     0.004 C 
ENDBRANCH  14  17
ENDBRANCH   6  14
ENDBRANCH   4   6
ENDBRANCH   3   4
ENDBRANCH   2   3
ENDBRANCH   1   2
BRANCH   1  19
ATOM     19  O   UNL A   1      38.026  21.728  26.051  1.00  0.00    -0.458 OA
BRANCH  19  20
ATOM     20  C   UNL A   1      39.340  21.590  26.348  1.00  0.00     0.338 C 
ATOM     21  O   UNL A   1      40.031  20.609  26.130  1.00  0.00    -0.246 OA
BRANCH  20  22
ATOM     22  C   UNL A   1      39.858  22.852  26.931  1.00  0.00     0.060 A 
ATOM     23  C   UNL A   1      39.259  24.077  26.638  1.00  0.00     0.016 A 
ATOM     24  C   UNL A   1      41.021  22.831  27.702  1.00  0.00     0.016 A 
ATOM     25  C   UNL A   1      39.866  25.269  27.023  1.00  0.00     0.010 A 
ATOM     26  C   UNL A   1      41.568  24.030  28.179  1.00  0.00     0.010 A 
ATOM     27  C   UNL A   1      41.018  25.272  27.818  1.00  0.00    -0.014 A 
BRANCH  27  28
ATOM     28  C   UNL A   1      41.637  26.555  28.270  1.00  0.00     0.031 A 
ATOM     29  C   UNL A   1      40.818  27.583  29.011  1.00  0.00     0.074 A 
ATOM     30  C   UNL A   1      42.930  26.825  27.992  1.00  0.00     0.049 A 
ATOM     31  N   UNL A   1      41.093  28.840  29.250  1.00  0.00    -0.248 NA
ATOM     32  C   UNL A   1      39.511  27.150  29.532  1.00  0.00     0.031 C 
ATOM     33  C   UNL A   1      43.858  25.926  27.304  1.00  0.00     0.029 A 
ATOM     34  N   UNL A   1      43.688  27.945  28.244  1.00  0.00    -0.354 N 
ATOM     35  C   UNL A   1      39.959  29.373  29.853  1.00  0.00     0.074 A 
ATOM     36  C   UNL A   1      39.001  28.293  29.974  1.00  0.00     0.031 C 
ATOM     37  C   UNL A   1      45.062  26.507  27.220  1.00  0.00     0.029 A 
ATOM     38  C   UNL A   1      44.968  27.863  27.743  1.00  0.00     0.049 A 
ATOM     39  H   UNL A   1      43.349  28.728  28.735  1.00  0.00     0.167 HD
ATOM     40  C   UNL A   1      39.737  30.644  30.266  1.00  0.00     0.034 A 
ATOM     41  C   UNL A   1      45.945  28.787  27.651  1.00  0.00     0.034 A 
ATOM     42  C   UNL A   1      40.730  31.687  30.244  1.00  0.00     0.049 A 
ATOM     43  C   UNL A   1      45.687  30.178  28.146  1.00  0.00     0.074 A 
ATOM     44  C   UNL A   1      40.616  32.991  30.697  1.00  0.00     0.029 A 
ATOM     45  N   UNL A   1      42.024  31.543  29.770  1.00  0.00    -0.354 N 
ATOM     46  N   UNL A   1      44.612  30.661  28.718  1.00  0.00    -0.248 NA
ATOM     47  C   UNL A   1      46.774  31.153  27.982  1.00  0.00     0.031 C 
ATOM     48  C   UNL A   1      41.841  33.636  30.493  1.00  0.00     0.029 A 
ATOM     49  C   UNL A   1      42.720  32.731  29.922  1.00  0.00     0.049 A 
ATOM     50  H   UNL A   1      42.395  30.717  29.382  1.00  0.00     0.167 HD
ATOM     51  C   UNL A   1      44.893  31.994  28.989  1.00  0.00     0.074 A 
ATOM     52  C   UNL A   1      46.254  32.232  28.551  1.00  0.00     0.031 C 
ATOM     53  C   UNL A   1      44.088  32.942  29.525  1.00  0.00     0.034 A 
BRANCH  40  54
ATOM     54  C   UNL A   1      38.374  30.989  30.807  1.00  0.00     0.023 A 
ATOM     55  C   UNL A   1      38.089  30.794  32.172  1.00  0.00     0.012 A 
ATOM     56  C   UNL A   1      37.408  31.597  29.979  1.00  0.00     0.148 A 
ATOM     57  C   UNL A   1      36.857  31.179  32.701  1.00  0.00     0.002 A 
ATOM     58  C   UNL A   1      36.198  32.015  30.522  1.00  0.00     0.091 A 
ATOM     59  F   UNL A   1      37.687  31.752  28.676  1.00  0.00    -0.205 F 
ATOM     60  C   UNL A   1      35.918  31.801  31.880  1.00  0.00     0.022 A 
BRANCH  58  61
ATOM     61  S   UNL A   1      34.965  32.898  29.556  1.00  0.00     0.127 S 
ATOM     62  O   UNL A   1      33.999  33.277  30.586  1.00  0.00    -0.237 OA
ATOM     63  O   UNL A   1      35.738  34.012  29.006  1.00  0.00    -0.237 OA
ATOM     64  O   UNL A   1      34.486  31.948  28.561  1.00  0.00    -0.744 OA
ENDBRANCH  58  61
ENDBRANCH  40  54
BRANCH  41  65
ATOM     65  C   UNL A   1      47.258  28.404  27.058  1.00  0.00     0.023 A 
ATOM     66  C   UNL A   1      48.351  28.150  27.908  1.00  0.00     0.012 A 
ATOM     67  C   UNL A   1      47.408  28.208  25.671  1.00  0.00     0.148 A 
ATOM     68  C   UNL A   1      49.568  27.710  27.387  1.00  0.00     0.002 A 
ATOM     69  C   UNL A   1      48.601  27.702  25.166  1.00  0.00     0.091 A 
ATOM     70  F   UNL A   1      46.370  28.486  24.871  1.00  0.00    -0.205 F 
ATOM     71  C   UNL A   1      49.688  27.466  26.021  1.00  0.00     0.022 A 
BRANCH  69  72
ATOM     72  S   UNL A   1      48.756  27.194  23.451  1.00  0.00     0.127 S 
ATOM     73  O   UNL A   1      48.113  28.300  22.748  1.00  0.00    -0.237 OA
ATOM     74  O   UNL A   1      50.208  27.116  23.278  1.00  0.00    -0.237 OA
ATOM     75  O   UNL A   1      48.081  25.904  23.373  1.00  0.00    -0.744 OA
ENDBRANCH  69  72
ENDBRANCH  41  65
BRANCH  53  76
ATOM     76  C   UNL A   1      44.660  34.323  29.683  1.00  0.00     0.023 A 
ATOM     77  C   UNL A   1      45.282  34.679  30.895  1.00  0.00     0.012 A 
ATOM     78  C   UNL A   1      44.626  35.249  28.622  1.00  0.00     0.148 A 
ATOM     79  C   UNL A   1      45.839  35.946  31.060  1.00  0.00     0.002 A 
ATOM     80  C   UNL A   1      45.216  36.497  28.781  1.00  0.00     0.091 A 
ATOM     81  F   UNL A   1      44.008  34.898  27.485  1.00  0.00    -0.205 F 
ATOM     82  C   UNL A   1      45.815  36.851  30.001  1.00  0.00     0.022 A 
BRANCH  80  83
ATOM     83  S   UNL A   1      45.296  37.692  27.442  1.00  0.00     0.127 S 
ATOM     84  O   UNL A   1      45.954  38.823  28.090  1.00  0.00    -0.237 OA
ATOM     85  O   UNL A   1      46.115  36.997  26.448  1.00  0.00    -0.237 OA
ATOM     86  O   UNL A   1      43.916  37.915  27.029  1.00  0.00    -0.744 OA
ENDBRANCH  80  83
ENDBRANCH  53  76
ENDBRANCH  27  28
ENDBRANCH  20  22
ENDBRANCH  19  20
ENDBRANCH   1  19
TORSDOF 21
ENDMDL
