MODEL 1
REMARK VINA RESULT:     -11.7      0.000      0.000
REMARK SMILES Cc1sc(NC(=O)C[C@@H]2CCCCO2)c(C(=O)OCCOC(=O)c2ccc(-c3c4nc(c(-c5cccc(S(=O)(=O)[O-])c5F)c5ccc([nH]5)c(-c5cccc(S(=O)(=O)[O-])c5F)c5nc(c(-c6cccc(S(=O)(=O)[O-])c6F)c6ccc3[nH]6)C=C5)C=C4)cc2)c1C
REMARK SMILES IDX 19 1 18 2 16 3 17 4 15 5 1 6 2 7 3 8 87 9 4 10 88 11 5 12
REMARK SMILES IDX 6 13 7 15 8 16 9 17 10 18 14 19 11 20 13 21 12 22 20 23
REMARK SMILES IDX 21 24 22 25 23 26 24 27 25 28 86 29 26 30 85 31 27 32 28 33
REMARK SMILES IDX 29 34 79 35 30 36 84 37 78 38 80 39 31 40 83 41 77 42 76 43
REMARK SMILES IDX 32 45 64 46 44 47 63 48 45 49 48 50 62 51 81 52 46 53 47 54
REMARK SMILES IDX 61 56 82 57 49 58 33 59 34 60 42 61 35 62 37 63 43 64 36 65
REMARK SMILES IDX 38 66 39 67 40 68 41 69 65 70 66 71 74 72 67 73 69 74 75 75
REMARK SMILES IDX 68 76 70 77 71 78 72 79 73 80 50 81 51 82 59 83 52 84 54 85
REMARK SMILES IDX 60 86 53 87 55 88 56 89 57 90 58 91
REMARK H PARENT 5 14 80 44 48 55
REMARK Flexibility Score: inf
ROOT
ATOM      1  C   UNL A   1      35.814  21.298  24.792  1.00  0.00     0.275 C 
ENDROOT
BRANCH   1   2
ATOM      2  O   UNL A   1      35.501  22.704  24.962  1.00  0.00    -0.458 OA
BRANCH   2   3
ATOM      3  C   UNL A   1      34.861  23.275  23.894  1.00  0.00     0.341 C 
ATOM      4  O   UNL A   1      35.381  23.432  22.797  1.00  0.00    -0.246 OA
BRANCH   3   5
ATOM      5  C   UNL A   1      33.491  23.709  24.177  1.00  0.00     0.098 A 
ATOM      6  C   UNL A   1      30.967  25.967  25.953  1.00  0.00     0.057 C 
ATOM      7  C   UNL A   1      31.750  24.901  25.256  1.00  0.00     0.007 A 
ATOM      8  S   UNL A   1      30.957  23.551  24.611  1.00  0.00    -0.122 S 
ATOM      9  C   UNL A   1      33.122  24.809  25.074  1.00  0.00    -0.021 A 
ATOM     10  C   UNL A   1      32.342  23.097  23.711  1.00  0.00     0.110 A 
ATOM     11  C   UNL A   1      34.057  25.792  25.685  1.00  0.00     0.046 C 
BRANCH  10  12
ATOM     12  N   UNL A   1      31.927  22.218  22.745  1.00  0.00    -0.317 N 
ATOM     13  C   UNL A   1      32.133  20.891  22.558  1.00  0.00     0.227 C 
ATOM     14  H   UNL A   1      31.371  22.632  22.046  1.00  0.00     0.170 HD
ATOM     15  O   UNL A   1      31.830  20.450  21.440  1.00  0.00    -0.275 OA
BRANCH  13  16
ATOM     16  C   UNL A   1      32.669  19.948  23.599  1.00  0.00     0.132 C 
BRANCH  16  17
ATOM     17  C   UNL A   1      32.164  18.499  23.714  1.00  0.00     0.127 C 
ATOM     18  C   UNL A   1      32.219  17.740  25.038  1.00  0.00     0.033 C 
ATOM     19  O   UNL A   1      32.658  17.679  22.643  1.00  0.00    -0.378 OA
ATOM     20  C   UNL A   1      33.582  17.133  25.322  1.00  0.00     0.005 C 
ATOM     21  C   UNL A   1      33.959  17.140  22.849  1.00  0.00     0.160 C 
ATOM     22  C   UNL A   1      34.038  16.315  24.126  1.00  0.00     0.029 C 
ENDBRANCH  16  17
ENDBRANCH  13  16
ENDBRANCH  10  12
ENDBRANCH   3   5
ENDBRANCH   2   3
ENDBRANCH   1   2
BRANCH   1  23
ATOM     23  C   UNL A   1      37.323  21.097  24.617  1.00  0.00     0.275 C 
BRANCH  23  24
ATOM     24  O   UNL A   1      37.969  21.893  25.619  1.00  0.00    -0.458 OA
BRANCH  24  25
ATOM     25  C   UNL A   1      39.120  21.417  26.138  1.00  0.00     0.338 C 
ATOM     26  O   UNL A   1      39.576  20.287  26.063  1.00  0.00    -0.246 OA
BRANCH  25  27
ATOM     27  C   UNL A   1      39.830  22.584  26.676  1.00  0.00     0.060 A 
ATOM     28  C   UNL A   1      39.475  23.832  26.167  1.00  0.00     0.016 A 
ATOM     29  C   UNL A   1      40.823  22.472  27.643  1.00  0.00     0.016 A 
ATOM     30  C   UNL A   1      40.117  24.975  26.616  1.00  0.00     0.010 A 
ATOM     31  C   UNL A   1      41.418  23.639  28.142  1.00  0.00     0.010 A 
ATOM     32  C   UNL A   1      41.074  24.905  27.628  1.00  0.00    -0.014 A 
BRANCH  32  33
ATOM     33  C   UNL A   1      41.731  26.154  28.096  1.00  0.00     0.031 A 
ATOM     34  C   UNL A   1      40.928  27.168  28.857  1.00  0.00     0.074 A 
ATOM     35  C   UNL A   1      43.043  26.378  27.866  1.00  0.00     0.049 A 
ATOM     36  N   UNL A   1      41.212  28.415  29.124  1.00  0.00    -0.248 NA
ATOM     37  C   UNL A   1      39.624  26.722  29.372  1.00  0.00     0.031 C 
ATOM     38  C   UNL A   1      43.967  25.447  27.213  1.00  0.00     0.029 A 
ATOM     39  N   UNL A   1      43.829  27.470  28.150  1.00  0.00    -0.354 N 
ATOM     40  C   UNL A   1      40.078  28.935  29.736  1.00  0.00     0.074 A 
ATOM     41  C   UNL A   1      39.118  27.856  29.837  1.00  0.00     0.031 C 
ATOM     42  C   UNL A   1      45.188  25.995  27.161  1.00  0.00     0.029 A 
ATOM     43  C   UNL A   1      45.112  27.361  27.662  1.00  0.00     0.049 A 
ATOM     44  H   UNL A   1      43.506  28.253  28.652  1.00  0.00     0.167 HD
ATOM     45  C   UNL A   1      39.858  30.200  30.161  1.00  0.00     0.034 A 
ATOM     46  C   UNL A   1      46.093  28.276  27.553  1.00  0.00     0.034 A 
ATOM     47  C   UNL A   1      40.854  31.238  30.123  1.00  0.00     0.049 A 
ATOM     48  C   UNL A   1      45.827  29.680  28.018  1.00  0.00     0.074 A 
ATOM     49  C   UNL A   1      40.748  32.550  30.550  1.00  0.00     0.029 A 
ATOM     50  N   UNL A   1      42.145  31.077  29.641  1.00  0.00    -0.354 N 
ATOM     51  N   UNL A   1      44.745  30.170  28.572  1.00  0.00    -0.248 NA
ATOM     52  C   UNL A   1      46.911  30.654  27.842  1.00  0.00     0.031 C 
ATOM     53  C   UNL A   1      41.970  33.187  30.306  1.00  0.00     0.029 A 
ATOM     54  C   UNL A   1      42.847  32.265  29.758  1.00  0.00     0.049 A 
ATOM     55  H   UNL A   1      42.508  30.241  29.270  1.00  0.00     0.167 HD
ATOM     56  C   UNL A   1      45.022  31.507  28.831  1.00  0.00     0.074 A 
ATOM     57  C   UNL A   1      46.385  31.740  28.394  1.00  0.00     0.031 C 
ATOM     58  C   UNL A   1      44.218  32.460  29.361  1.00  0.00     0.034 A 
BRANCH  45  59
ATOM     59  C   UNL A   1      38.485  30.535  30.679  1.00  0.00     0.023 A 
ATOM     60  C   UNL A   1      38.135  30.251  32.014  1.00  0.00     0.012 A 
ATOM     61  C   UNL A   1      37.541  31.157  29.836  1.00  0.00     0.148 A 
ATOM     62  C   UNL A   1      36.855  30.543  32.488  1.00  0.00     0.002 A 
ATOM     63  C   UNL A   1      36.286  31.490  30.330  1.00  0.00     0.091 A 
ATOM     64  F   UNL A   1      37.883  31.396  28.561  1.00  0.00    -0.205 F 
ATOM     65  C   UNL A   1      35.936  31.171  31.651  1.00  0.00     0.022 A 
BRANCH  63  66
ATOM     66  S   UNL A   1      35.067  32.373  29.350  1.00  0.00     0.127 S 
ATOM     67  O   UNL A   1      34.073  32.725  30.362  1.00  0.00    -0.237 OA
ATOM     68  O   UNL A   1      35.844  33.503  28.839  1.00  0.00    -0.237 OA
ATOM     69  O   UNL A   1      34.620  31.436  28.328  1.00  0.00    -0.744 OA
ENDBRANCH  63  66
ENDBRANCH  45  59
BRANCH  46  70
ATOM     70  C   UNL A   1      47.399  27.895  26.940  1.00  0.00     0.023 A 
ATOM     71  C   UNL A   1      48.482  27.544  27.767  1.00  0.00     0.012 A 
ATOM     72  C   UNL A   1      47.555  27.822  25.540  1.00  0.00     0.148 A 
ATOM     73  C   UNL A   1      49.698  27.139  27.213  1.00  0.00     0.002 A 
ATOM     74  C   UNL A   1      48.745  27.353  24.996  1.00  0.00     0.091 A 
ATOM     75  F   UNL A   1      46.522  28.186  24.766  1.00  0.00    -0.205 F 
ATOM     76  C   UNL A   1      49.823  27.027  25.830  1.00  0.00     0.022 A 
BRANCH  74  77
ATOM     77  S   UNL A   1      48.935  27.026  23.240  1.00  0.00     0.127 S 
ATOM     78  O   UNL A   1      48.438  28.266  22.650  1.00  0.00    -0.237 OA
ATOM     79  O   UNL A   1      50.379  26.821  23.126  1.00  0.00    -0.237 OA
ATOM     80  O   UNL A   1      48.139  25.835  22.974  1.00  0.00    -0.744 OA
ENDBRANCH  74  77
ENDBRANCH  46  70
BRANCH  58  81
ATOM     81  C   UNL A   1      44.805  33.834  29.545  1.00  0.00     0.023 A 
ATOM     82  C   UNL A   1      45.463  34.162  30.746  1.00  0.00     0.012 A 
ATOM     83  C   UNL A   1      44.761  34.774  28.497  1.00  0.00     0.148 A 
ATOM     84  C   UNL A   1      46.042  35.420  30.913  1.00  0.00     0.002 A 
ATOM     85  C   UNL A   1      45.383  36.005  28.651  1.00  0.00     0.091 A 
ATOM     86  F   UNL A   1      44.111  34.445  27.371  1.00  0.00    -0.205 F 
ATOM     87  C   UNL A   1      46.014  36.335  29.862  1.00  0.00     0.022 A 
BRANCH  85  88
ATOM     88  S   UNL A   1      45.479  37.205  27.319  1.00  0.00     0.127 S 
ATOM     89  O   UNL A   1      46.348  38.226  27.901  1.00  0.00    -0.237 OA
ATOM     90  O   UNL A   1      46.089  36.425  26.242  1.00  0.00    -0.237 OA
ATOM     91  O   UNL A   1      44.109  37.626  27.058  1.00  0.00    -0.744 OA
ENDBRANCH  85  88
ENDBRANCH  58  81
ENDBRANCH  32  33
ENDBRANCH  25  27
ENDBRANCH  24  25
ENDBRANCH  23  24
ENDBRANCH   1  23
TORSDOF 17
ENDMDL
MODEL 2
REMARK VINA RESULT:     -11.3      1.740      3.258
REMARK SMILES Cc1sc(NC(=O)C[C@@H]2CCCCO2)c(C(=O)OCCOC(=O)c2ccc(-c3c4nc(c(-c5cccc(S(=O)(=O)[O-])c5F)c5ccc([nH]5)c(-c5cccc(S(=O)(=O)[O-])c5F)c5nc(c(-c6cccc(S(=O)(=O)[O-])c6F)c6ccc3[nH]6)C=C5)C=C4)cc2)c1C
REMARK SMILES IDX 19 1 18 2 16 3 17 4 15 5 1 6 2 7 3 8 87 9 4 10 88 11 5 12
REMARK SMILES IDX 6 13 7 15 8 16 9 17 10 18 14 19 11 20 13 21 12 22 20 23
REMARK SMILES IDX 21 24 22 25 23 26 24 27 25 28 86 29 26 30 85 31 27 32 28 33
REMARK SMILES IDX 29 34 79 35 30 36 84 37 78 38 80 39 31 40 83 41 77 42 76 43
REMARK SMILES IDX 32 45 64 46 44 47 63 48 45 49 48 50 62 51 81 52 46 53 47 54
REMARK SMILES IDX 61 56 82 57 49 58 33 59 34 60 42 61 35 62 37 63 43 64 36 65
REMARK SMILES IDX 38 66 39 67 40 68 41 69 65 70 66 71 74 72 67 73 69 74 75 75
REMARK SMILES IDX 68 76 70 77 71 78 72 79 73 80 50 81 51 82 59 83 52 84 54 85
REMARK SMILES IDX 60 86 53 87 55 88 56 89 57 90 58 91
REMARK H PARENT 5 14 80 44 48 55
REMARK Flexibility Score: inf
ROOT
ATOM      1  C   UNL A   1      36.845  21.705  24.073  1.00  0.00     0.275 C 
ENDROOT
BRANCH   1   2
ATOM      2  O   UNL A   1      35.431  21.867  24.355  1.00  0.00    -0.458 OA
BRANCH   2   3
ATOM      3  C   UNL A   1      35.066  23.140  24.704  1.00  0.00     0.341 C 
ATOM      4  O   UNL A   1      35.867  24.044  24.909  1.00  0.00    -0.246 OA
BRANCH   3   5
ATOM      5  C   UNL A   1      33.620  23.336  24.834  1.00  0.00     0.098 A 
ATOM      6  C   UNL A   1      30.343  23.069  26.786  1.00  0.00     0.057 C 
ATOM      7  C   UNL A   1      31.465  23.155  25.801  1.00  0.00     0.007 A 
ATOM      8  S   UNL A   1      31.135  23.440  24.164  1.00  0.00    -0.122 S 
ATOM      9  C   UNL A   1      32.824  22.989  26.016  1.00  0.00    -0.021 A 
ATOM     10  C   UNL A   1      32.778  23.795  23.837  1.00  0.00     0.110 A 
ATOM     11  C   UNL A   1      33.359  22.575  27.341  1.00  0.00     0.046 C 
BRANCH  10  12
ATOM     12  N   UNL A   1      32.820  24.455  22.637  1.00  0.00    -0.317 N 
ATOM     13  C   UNL A   1      33.051  25.749  22.306  1.00  0.00     0.227 C 
ATOM     14  H   UNL A   1      32.646  23.874  21.860  1.00  0.00     0.170 HD
ATOM     15  O   UNL A   1      32.762  26.068  21.143  1.00  0.00    -0.275 OA
BRANCH  13  16
ATOM     16  C   UNL A   1      33.637  26.781  23.226  1.00  0.00     0.132 C 
BRANCH  16  17
ATOM     17  C   UNL A   1      32.748  27.754  24.022  1.00  0.00     0.127 C 
ATOM     18  C   UNL A   1      33.330  28.999  24.689  1.00  0.00     0.033 C 
ATOM     19  O   UNL A   1      31.878  27.058  24.927  1.00  0.00    -0.378 OA
ATOM     20  C   UNL A   1      33.967  28.710  26.037  1.00  0.00     0.005 C 
ATOM     21  C   UNL A   1      32.461  26.719  26.180  1.00  0.00     0.160 C 
ATOM     22  C   UNL A   1      32.991  27.943  26.912  1.00  0.00     0.029 C 
ENDBRANCH  16  17
ENDBRANCH  13  16
ENDBRANCH  10  12
ENDBRANCH   3   5
ENDBRANCH   2   3
ENDBRANCH   1   2
BRANCH   1  23
ATOM     23  C   UNL A   1      37.535  20.925  25.197  1.00  0.00     0.275 C 
BRANCH  23  24
ATOM     24  O   UNL A   1      38.170  21.890  26.045  1.00  0.00    -0.458 OA
BRANCH  24  25
ATOM     25  C   UNL A   1      39.433  21.626  26.443  1.00  0.00     0.338 C 
ATOM     26  O   UNL A   1      40.048  20.575  26.368  1.00  0.00    -0.246 OA
BRANCH  25  27
ATOM     27  C   UNL A   1      40.008  22.919  26.833  1.00  0.00     0.060 A 
ATOM     28  C   UNL A   1      40.999  22.902  27.813  1.00  0.00     0.016 A 
ATOM     29  C   UNL A   1      39.591  24.121  26.271  1.00  0.00     0.016 A 
ATOM     30  C   UNL A   1      41.573  24.088  28.243  1.00  0.00     0.010 A 
ATOM     31  C   UNL A   1      40.226  25.308  26.662  1.00  0.00     0.010 A 
ATOM     32  C   UNL A   1      41.222  25.304  27.658  1.00  0.00    -0.014 A 
BRANCH  32  33
ATOM     33  C   UNL A   1      41.870  26.555  28.135  1.00  0.00     0.031 A 
ATOM     34  C   UNL A   1      41.062  27.552  28.914  1.00  0.00     0.074 A 
ATOM     35  C   UNL A   1      43.178  26.794  27.900  1.00  0.00     0.049 A 
ATOM     36  N   UNL A   1      41.334  28.798  29.193  1.00  0.00    -0.248 NA
ATOM     37  C   UNL A   1      39.765  27.086  29.432  1.00  0.00     0.031 C 
ATOM     38  C   UNL A   1      44.106  25.880  27.229  1.00  0.00     0.029 A 
ATOM     39  N   UNL A   1      43.954  27.891  28.191  1.00  0.00    -0.354 N 
ATOM     40  C   UNL A   1      40.199  29.299  29.819  1.00  0.00     0.074 A 
ATOM     41  C   UNL A   1      39.251  28.209  29.913  1.00  0.00     0.031 C 
ATOM     42  C   UNL A   1      45.322  26.441  27.176  1.00  0.00     0.029 A 
ATOM     43  C   UNL A   1      45.235  27.800  27.693  1.00  0.00     0.049 A 
ATOM     44  H   UNL A   1      43.627  28.665  28.704  1.00  0.00     0.167 HD
ATOM     45  C   UNL A   1      39.970  30.557  30.260  1.00  0.00     0.034 A 
ATOM     46  C   UNL A   1      46.206  28.727  27.588  1.00  0.00     0.034 A 
ATOM     47  C   UNL A   1      40.955  31.606  30.227  1.00  0.00     0.049 A 
ATOM     48  C   UNL A   1      45.929  30.122  28.071  1.00  0.00     0.074 A 
ATOM     49  C   UNL A   1      40.839  32.911  30.670  1.00  0.00     0.029 A 
ATOM     50  N   UNL A   1      42.244  31.464  29.735  1.00  0.00    -0.354 N 
ATOM     51  N   UNL A   1      44.846  30.595  28.638  1.00  0.00    -0.248 NA
ATOM     52  C   UNL A   1      47.002  31.110  27.899  1.00  0.00     0.031 C 
ATOM     53  C   UNL A   1      42.052  33.564  30.426  1.00  0.00     0.029 A 
ATOM     54  C   UNL A   1      42.935  32.657  29.861  1.00  0.00     0.049 A 
ATOM     55  H   UNL A   1      42.613  30.636  29.352  1.00  0.00     0.167 HD
ATOM     56  C   UNL A   1      45.111  31.932  28.910  1.00  0.00     0.074 A 
ATOM     57  C   UNL A   1      46.469  32.183  28.468  1.00  0.00     0.031 C 
ATOM     58  C   UNL A   1      44.301  32.871  29.457  1.00  0.00     0.034 A 
BRANCH  45  59
ATOM     59  C   UNL A   1      38.597  30.872  30.791  1.00  0.00     0.023 A 
ATOM     60  C   UNL A   1      38.270  30.603  32.134  1.00  0.00     0.012 A 
ATOM     61  C   UNL A   1      37.630  31.461  29.950  1.00  0.00     0.148 A 
ATOM     62  C   UNL A   1      36.991  30.876  32.621  1.00  0.00     0.002 A 
ATOM     63  C   UNL A   1      36.374  31.776  30.456  1.00  0.00     0.091 A 
ATOM     64  F   UNL A   1      37.950  31.686  28.667  1.00  0.00    -0.205 F 
ATOM     65  C   UNL A   1      36.048  31.471  31.787  1.00  0.00     0.022 A 
BRANCH  63  66
ATOM     66  S   UNL A   1      35.124  32.617  29.478  1.00  0.00     0.127 S 
ATOM     67  O   UNL A   1      34.745  31.577  28.524  1.00  0.00    -0.237 OA
ATOM     68  O   UNL A   1      34.105  32.926  30.482  1.00  0.00    -0.237 OA
ATOM     69  O   UNL A   1      35.782  33.784  28.906  1.00  0.00    -0.744 OA
ENDBRANCH  63  66
ENDBRANCH  45  59
BRANCH  46  70
ATOM     70  C   UNL A   1      47.512  28.367  26.962  1.00  0.00     0.023 A 
ATOM     71  C   UNL A   1      48.648  28.186  27.773  1.00  0.00     0.012 A 
ATOM     72  C   UNL A   1      47.619  28.144  25.573  1.00  0.00     0.148 A 
ATOM     73  C   UNL A   1      49.868  27.802  27.212  1.00  0.00     0.002 A 
ATOM     74  C   UNL A   1      48.818  27.696  25.032  1.00  0.00     0.091 A 
ATOM     75  F   UNL A   1      46.534  28.347  24.812  1.00  0.00    -0.205 F 
ATOM     76  C   UNL A   1      49.948  27.540  25.846  1.00  0.00     0.022 A 
BRANCH  74  77
ATOM     77  S   UNL A   1      48.963  27.182  23.315  1.00  0.00     0.127 S 
ATOM     78  O   UNL A   1      48.166  25.958  23.302  1.00  0.00    -0.237 OA
ATOM     79  O   UNL A   1      48.366  28.317  22.611  1.00  0.00    -0.237 OA
ATOM     80  O   UNL A   1      50.390  27.013  23.076  1.00  0.00    -0.744 OA
ENDBRANCH  74  77
ENDBRANCH  46  70
BRANCH  58  81
ATOM     81  C   UNL A   1      44.875  34.248  29.653  1.00  0.00     0.023 A 
ATOM     82  C   UNL A   1      45.522  34.575  30.861  1.00  0.00     0.012 A 
ATOM     83  C   UNL A   1      44.831  35.194  28.610  1.00  0.00     0.148 A 
ATOM     84  C   UNL A   1      46.089  35.836  31.038  1.00  0.00     0.002 A 
ATOM     85  C   UNL A   1      45.442  36.429  28.775  1.00  0.00     0.091 A 
ATOM     86  F   UNL A   1      44.191  34.866  27.478  1.00  0.00    -0.205 F 
ATOM     87  C   UNL A   1      46.061  36.757  29.993  1.00  0.00     0.022 A 
BRANCH  85  88
ATOM     88  S   UNL A   1      45.536  37.638  27.451  1.00  0.00     0.127 S 
ATOM     89  O   UNL A   1      44.125  37.953  27.235  1.00  0.00    -0.237 OA
ATOM     90  O   UNL A   1      46.314  38.713  28.067  1.00  0.00    -0.237 OA
ATOM     91  O   UNL A   1      46.203  36.968  26.343  1.00  0.00    -0.744 OA
ENDBRANCH  85  88
ENDBRANCH  58  81
ENDBRANCH  32  33
ENDBRANCH  25  27
ENDBRANCH  24  25
ENDBRANCH  23  24
ENDBRANCH   1  23
TORSDOF 17
ENDMDL
MODEL 3
REMARK VINA RESULT:     -11.2      2.123      3.836
REMARK SMILES Cc1sc(NC(=O)C[C@@H]2CCCCO2)c(C(=O)OCCOC(=O)c2ccc(-c3c4nc(c(-c5cccc(S(=O)(=O)[O-])c5F)c5ccc([nH]5)c(-c5cccc(S(=O)(=O)[O-])c5F)c5nc(c(-c6cccc(S(=O)(=O)[O-])c6F)c6ccc3[nH]6)C=C5)C=C4)cc2)c1C
REMARK SMILES IDX 19 1 18 2 16 3 17 4 15 5 1 6 2 7 3 8 87 9 4 10 88 11 5 12
REMARK SMILES IDX 6 13 7 15 8 16 9 17 10 18 14 19 11 20 13 21 12 22 20 23
REMARK SMILES IDX 21 24 22 25 23 26 24 27 25 28 86 29 26 30 85 31 27 32 28 33
REMARK SMILES IDX 29 34 79 35 30 36 84 37 78 38 80 39 31 40 83 41 77 42 76 43
REMARK SMILES IDX 32 45 64 46 44 47 63 48 45 49 48 50 62 51 81 52 46 53 47 54
REMARK SMILES IDX 61 56 82 57 49 58 33 59 34 60 42 61 35 62 37 63 43 64 36 65
REMARK SMILES IDX 38 66 39 67 40 68 41 69 65 70 66 71 74 72 67 73 69 74 75 75
REMARK SMILES IDX 68 76 70 77 71 78 72 79 73 80 50 81 51 82 59 83 52 84 54 85
REMARK SMILES IDX 60 86 53 87 55 88 56 89 57 90 58 91
REMARK H PARENT 5 14 80 44 48 55
REMARK Flexibility Score: inf
ROOT
ATOM      1  C   UNL A   1      34.810  21.707  26.213  1.00  0.00     0.275 C 
ENDROOT
BRANCH   1   2
ATOM      2  O   UNL A   1      34.692  23.056  25.693  1.00  0.00    -0.458 OA
BRANCH   2   3
ATOM      3  C   UNL A   1      33.432  23.586  25.774  1.00  0.00     0.341 C 
ATOM      4  O   UNL A   1      32.817  23.717  26.825  1.00  0.00    -0.246 OA
BRANCH   3   5
ATOM      5  C   UNL A   1      32.858  23.971  24.483  1.00  0.00     0.098 A 
ATOM      6  C   UNL A   1      33.058  24.356  20.684  1.00  0.00     0.057 C 
ATOM      7  C   UNL A   1      32.804  24.415  22.156  1.00  0.00     0.007 A 
ATOM      8  S   UNL A   1      31.506  25.322  22.757  1.00  0.00    -0.122 S 
ATOM      9  C   UNL A   1      33.532  23.841  23.187  1.00  0.00    -0.021 A 
ATOM     10  C   UNL A   1      31.635  24.591  24.300  1.00  0.00     0.110 A 
ATOM     11  C   UNL A   1      34.810  23.123  22.932  1.00  0.00     0.046 C 
BRANCH  10  12
ATOM     12  N   UNL A   1      30.458  24.827  24.961  1.00  0.00    -0.317 N 
ATOM     13  C   UNL A   1      30.136  25.619  26.013  1.00  0.00     0.227 C 
ATOM     14  H   UNL A   1      29.695  24.319  24.602  1.00  0.00     0.170 HD
ATOM     15  O   UNL A   1      29.030  25.406  26.530  1.00  0.00    -0.275 OA
BRANCH  13  16
ATOM     16  C   UNL A   1      31.003  26.719  26.559  1.00  0.00     0.132 C 
BRANCH  16  17
ATOM     17  C   UNL A   1      31.734  27.708  25.633  1.00  0.00     0.127 C 
ATOM     18  C   UNL A   1      33.236  27.600  25.381  1.00  0.00     0.033 C 
ATOM     19  O   UNL A   1      31.367  29.067  25.915  1.00  0.00    -0.378 OA
ATOM     20  C   UNL A   1      34.072  28.236  26.478  1.00  0.00     0.005 C 
ATOM     21  C   UNL A   1      32.091  29.677  26.977  1.00  0.00     0.160 C 
ATOM     22  C   UNL A   1      33.593  29.654  26.731  1.00  0.00     0.029 C 
ENDBRANCH  16  17
ENDBRANCH  13  16
ENDBRANCH  10  12
ENDBRANCH   3   5
ENDBRANCH   2   3
ENDBRANCH   1   2
BRANCH   1  23
ATOM     23  C   UNL A   1      35.896  20.930  25.460  1.00  0.00     0.275 C 
BRANCH  23  24
ATOM     24  O   UNL A   1      37.057  21.768  25.420  1.00  0.00    -0.458 OA
BRANCH  24  25
ATOM     25  C   UNL A   1      38.237  21.204  25.753  1.00  0.00     0.338 C 
ATOM     26  O   UNL A   1      38.619  20.064  25.544  1.00  0.00    -0.246 OA
BRANCH  25  27
ATOM     27  C   UNL A   1      39.071  22.296  26.272  1.00  0.00     0.060 A 
ATOM     28  C   UNL A   1      38.722  23.593  25.898  1.00  0.00     0.016 A 
ATOM     29  C   UNL A   1      40.169  22.069  27.095  1.00  0.00     0.016 A 
ATOM     30  C   UNL A   1      39.476  24.670  26.336  1.00  0.00     0.010 A 
ATOM     31  C   UNL A   1      40.884  23.169  27.589  1.00  0.00     0.010 A 
ATOM     32  C   UNL A   1      40.546  24.483  27.210  1.00  0.00    -0.014 A 
BRANCH  32  33
ATOM     33  C   UNL A   1      41.324  25.665  27.671  1.00  0.00     0.031 A 
ATOM     34  C   UNL A   1      40.663  26.679  28.558  1.00  0.00     0.074 A 
ATOM     35  C   UNL A   1      42.619  25.823  27.324  1.00  0.00     0.049 A 
ATOM     36  N   UNL A   1      41.049  27.891  28.857  1.00  0.00    -0.248 NA
ATOM     37  C   UNL A   1      39.388  26.282  29.177  1.00  0.00     0.031 C 
ATOM     38  C   UNL A   1      43.415  24.878  26.537  1.00  0.00     0.029 A 
ATOM     39  N   UNL A   1      43.496  26.851  27.583  1.00  0.00    -0.354 N 
ATOM     40  C   UNL A   1      40.014  28.441  29.604  1.00  0.00     0.074 A 
ATOM     41  C   UNL A   1      39.002  27.416  29.745  1.00  0.00     0.031 C 
ATOM     42  C   UNL A   1      44.658  25.356  26.392  1.00  0.00     0.029 A 
ATOM     43  C   UNL A   1      44.717  26.694  26.966  1.00  0.00     0.049 A 
ATOM     44  H   UNL A   1      43.273  27.622  28.153  1.00  0.00     0.167 HD
ATOM     45  C   UNL A   1      39.917  29.691  30.110  1.00  0.00     0.034 A 
ATOM     46  C   UNL A   1      45.739  27.556  26.805  1.00  0.00     0.034 A 
ATOM     47  C   UNL A   1      40.968  30.670  30.025  1.00  0.00     0.049 A 
ATOM     48  C   UNL A   1      45.608  28.944  27.363  1.00  0.00     0.074 A 
ATOM     49  C   UNL A   1      40.987  31.960  30.525  1.00  0.00     0.029 A 
ATOM     50  N   UNL A   1      42.194  30.461  29.411  1.00  0.00    -0.354 N 
ATOM     51  N   UNL A   1      44.618  29.465  28.046  1.00  0.00    -0.248 NA
ATOM     52  C   UNL A   1      46.729  29.863  27.130  1.00  0.00     0.031 C 
ATOM     53  C   UNL A   1      42.218  32.537  30.194  1.00  0.00     0.029 A 
ATOM     54  C   UNL A   1      42.978  31.598  29.516  1.00  0.00     0.049 A 
ATOM     55  H   UNL A   1      42.467  29.628  28.964  1.00  0.00     0.167 HD
ATOM     56  C   UNL A   1      45.002  30.767  28.341  1.00  0.00     0.074 A 
ATOM     57  C   UNL A   1      46.329  30.944  27.784  1.00  0.00     0.031 C 
ATOM     58  C   UNL A   1      44.314  31.735  28.995  1.00  0.00     0.034 A 
BRANCH  45  59
ATOM     59  C   UNL A   1      38.624  30.076  30.778  1.00  0.00     0.023 A 
ATOM     60  C   UNL A   1      38.324  29.617  32.076  1.00  0.00     0.012 A 
ATOM     61  C   UNL A   1      37.708  30.920  30.116  1.00  0.00     0.148 A 
ATOM     62  C   UNL A   1      37.116  29.957  32.686  1.00  0.00     0.002 A 
ATOM     63  C   UNL A   1      36.530  31.295  30.750  1.00  0.00     0.091 A 
ATOM     64  F   UNL A   1      37.998  31.326  28.871  1.00  0.00    -0.205 F 
ATOM     65  C   UNL A   1      36.226  30.803  32.029  1.00  0.00     0.022 A 
BRANCH  63  66
ATOM     66  S   UNL A   1      35.362  32.444  30.015  1.00  0.00     0.127 S 
ATOM     67  O   UNL A   1      34.903  31.693  28.848  1.00  0.00    -0.237 OA
ATOM     68  O   UNL A   1      34.366  32.591  31.077  1.00  0.00    -0.237 OA
ATOM     69  O   UNL A   1      36.120  33.654  29.726  1.00  0.00    -0.744 OA
ENDBRANCH  63  66
ENDBRANCH  45  59
BRANCH  46  70
ATOM     70  C   UNL A   1      46.954  27.134  26.048  1.00  0.00     0.023 A 
ATOM     71  C   UNL A   1      47.064  27.439  24.679  1.00  0.00     0.012 A 
ATOM     72  C   UNL A   1      48.026  26.483  26.693  1.00  0.00     0.148 A 
ATOM     73  C   UNL A   1      48.212  27.095  23.964  1.00  0.00     0.002 A 
ATOM     74  C   UNL A   1      49.194  26.205  25.992  1.00  0.00     0.091 A 
ATOM     75  F   UNL A   1      47.894  26.176  27.992  1.00  0.00    -0.205 F 
ATOM     76  C   UNL A   1      49.283  26.494  24.624  1.00  0.00     0.022 A 
BRANCH  74  77
ATOM     77  S   UNL A   1      50.673  25.582  26.800  1.00  0.00     0.127 S 
ATOM     78  O   UNL A   1      51.569  25.377  25.664  1.00  0.00    -0.237 OA
ATOM     79  O   UNL A   1      51.031  26.699  27.675  1.00  0.00    -0.237 OA
ATOM     80  O   UNL A   1      50.257  24.378  27.505  1.00  0.00    -0.744 OA
ENDBRANCH  74  77
ENDBRANCH  46  70
BRANCH  58  81
ATOM     81  C   UNL A   1      45.002  33.060  29.188  1.00  0.00     0.023 A 
ATOM     82  C   UNL A   1      45.849  33.258  30.296  1.00  0.00     0.012 A 
ATOM     83  C   UNL A   1      44.859  34.083  28.231  1.00  0.00     0.148 A 
ATOM     84  C   UNL A   1      46.519  34.469  30.465  1.00  0.00     0.002 A 
ATOM     85  C   UNL A   1      45.569  35.267  28.379  1.00  0.00     0.091 A 
ATOM     86  F   UNL A   1      44.031  33.879  27.196  1.00  0.00    -0.205 F 
ATOM     87  C   UNL A   1      46.390  35.467  29.501  1.00  0.00     0.022 A 
BRANCH  85  88
ATOM     88  S   UNL A   1      45.536  36.566  27.140  1.00  0.00     0.127 S 
ATOM     89  O   UNL A   1      46.365  37.595  27.766  1.00  0.00    -0.237 OA
ATOM     90  O   UNL A   1      46.148  35.908  25.985  1.00  0.00    -0.237 OA
ATOM     91  O   UNL A   1      44.134  36.916  26.962  1.00  0.00    -0.744 OA
ENDBRANCH  85  88
ENDBRANCH  58  81
ENDBRANCH  32  33
ENDBRANCH  25  27
ENDBRANCH  24  25
ENDBRANCH  23  24
ENDBRANCH   1  23
TORSDOF 17
ENDMDL
