MODEL 1
REMARK VINA RESULT:     -12.8      0.000      0.000
REMARK SMILES Cc1ccc(S(=O)(=O)N(c2ccccc2)[C@H](C)C(=O)OCCOC(=O)c2ccc(-c3c4nc(c(-c5cccc(S(=O)(=O)[O-])c5F)c5ccc([nH]5)c(-c5cccc(S(=O)(=O)[O-])c5F)c5nc(c(-c6cccc(S(=O)(=O)[O-])c6F)c6ccc3[nH]6)C=C5)C=C4)cc2)cc1
REMARK SMILES IDX 21 1 20 2 18 3 19 4 16 5 17 6 9 7 6 8 7 9 8 10 5 11 1 12
REMARK SMILES IDX 2 13 3 14 90 15 4 16 89 17 10 18 11 19 15 20 12 21 14 22
REMARK SMILES IDX 13 23 22 24 23 25 24 26 25 27 26 28 27 29 88 30 28 31 87 32
REMARK SMILES IDX 29 33 30 34 31 35 81 36 32 37 86 38 80 39 82 40 33 41 85 42
REMARK SMILES IDX 79 43 78 44 34 46 66 47 46 48 65 49 47 50 50 51 64 52 83 53
REMARK SMILES IDX 48 54 49 55 63 57 84 58 51 59 35 60 36 61 44 62 37 63 39 64
REMARK SMILES IDX 45 65 38 66 40 67 41 68 42 69 43 70 67 71 68 72 76 73 69 74
REMARK SMILES IDX 71 75 77 76 70 77 72 78 73 79 74 80 75 81 52 82 53 83 61 84
REMARK SMILES IDX 54 85 56 86 62 87 55 88 57 89 58 90 59 91 60 92
REMARK H PARENT 82 45 50 56
REMARK Flexibility Score: inf
ROOT
ATOM      1  C   UNL A   1      37.829  22.243  26.036  1.00  0.00     0.274 C 
ENDROOT
BRANCH   1   2
ATOM      2  O   UNL A   1      36.719  22.319  25.139  1.00  0.00    -0.461 OA
BRANCH   2   3
ATOM      3  C   UNL A   1      35.902  21.122  24.923  1.00  0.00     0.329 C 
ATOM      4  O   UNL A   1      36.738  20.184  25.076  1.00  0.00    -0.250 OA
BRANCH   3   5
ATOM      5  C   UNL A   1      33.732  21.163  24.599  1.00  0.00     0.206 C 
ATOM      6  C   UNL A   1      32.506  19.983  24.923  1.00  0.00     0.045 C 
BRANCH   5   7
ATOM      7  N   UNL A   1      32.563  22.597  24.774  1.00  0.00    -0.252 N 
BRANCH   7   8
ATOM      8  S   UNL A   1      32.853  23.474  26.394  1.00  0.00     0.265 S 
ATOM      9  O   UNL A   1      34.239  23.227  26.759  1.00  0.00    -0.201 OA
ATOM     10  O   UNL A   1      31.815  23.103  27.327  1.00  0.00    -0.201 OA
BRANCH   8  11
ATOM     11  C   UNL A   1      32.679  25.269  26.242  1.00  0.00     0.088 A 
ATOM     12  C   UNL A   1      32.151  29.495  25.386  1.00  0.00     0.044 C 
ATOM     13  C   UNL A   1      32.384  28.042  25.683  1.00  0.00    -0.051 A 
ATOM     14  C   UNL A   1      33.623  27.416  25.523  1.00  0.00     0.005 A 
ATOM     15  C   UNL A   1      31.327  27.277  26.159  1.00  0.00     0.005 A 
ATOM     16  C   UNL A   1      33.769  26.034  25.784  1.00  0.00     0.022 A 
ATOM     17  C   UNL A   1      31.493  25.931  26.490  1.00  0.00     0.022 A 
ENDBRANCH   8  11
ENDBRANCH   7   8
BRANCH   7  18
ATOM     18  C   UNL A   1      32.370  23.518  23.567  1.00  0.00     0.053 A 
ATOM     19  C   UNL A   1      31.155  24.196  23.373  1.00  0.00     0.027 A 
ATOM     20  C   UNL A   1      33.427  24.018  22.801  1.00  0.00     0.027 A 
ATOM     21  C   UNL A   1      31.070  25.463  22.779  1.00  0.00     0.002 A 
ATOM     22  C   UNL A   1      33.361  25.284  22.185  1.00  0.00     0.002 A 
ATOM     23  C   UNL A   1      32.201  26.039  22.243  1.00  0.00     0.000 A 
ENDBRANCH   7  18
ENDBRANCH   5   7
ENDBRANCH   3   5
ENDBRANCH   2   3
ENDBRANCH   1   2
BRANCH   1  24
ATOM     24  C   UNL A   1      38.621  23.559  26.010  1.00  0.00     0.275 C 
BRANCH  24  25
ATOM     25  O   UNL A   1      38.523  24.421  27.185  1.00  0.00    -0.458 OA
BRANCH  25  26
ATOM     26  C   UNL A   1      39.566  24.840  27.965  1.00  0.00     0.338 C 
ATOM     27  O   UNL A   1      39.446  25.653  28.869  1.00  0.00    -0.246 OA
BRANCH  26  28
ATOM     28  C   UNL A   1      40.910  24.409  27.511  1.00  0.00     0.060 A 
ATOM     29  C   UNL A   1      41.678  23.038  28.380  1.00  0.00     0.016 A 
ATOM     30  C   UNL A   1      41.916  25.705  26.816  1.00  0.00     0.016 A 
ATOM     31  C   UNL A   1      43.459  23.117  28.778  1.00  0.00     0.010 A 
ATOM     32  C   UNL A   1      43.678  25.751  27.170  1.00  0.00     0.010 A 
ATOM     33  C   UNL A   1      44.447  24.505  28.218  1.00  0.00    -0.014 A 
BRANCH  33  34
ATOM     34  C   UNL A   1      45.702  25.024  28.766  1.00  0.00     0.031 A 
ATOM     35  C   UNL A   1      46.930  24.992  27.931  1.00  0.00     0.074 A 
ATOM     36  C   UNL A   1      45.643  25.944  29.752  1.00  0.00     0.049 A 
ATOM     37  N   UNL A   1      48.088  24.527  28.275  1.00  0.00    -0.248 NA
ATOM     38  C   UNL A   1      46.920  25.544  26.582  1.00  0.00     0.031 C 
ATOM     39  C   UNL A   1      46.659  26.958  30.012  1.00  0.00     0.029 A 
ATOM     40  N   UNL A   1      44.699  26.159  30.757  1.00  0.00    -0.354 N 
ATOM     41  C   UNL A   1      48.952  24.865  27.237  1.00  0.00     0.074 A 
ATOM     42  C   UNL A   1      48.139  25.293  26.136  1.00  0.00     0.031 C 
ATOM     43  C   UNL A   1      46.425  27.517  31.210  1.00  0.00     0.029 A 
ATOM     44  C   UNL A   1      45.362  26.759  31.842  1.00  0.00     0.049 A 
ATOM     45  H   UNL A   1      43.742  25.932  30.714  1.00  0.00     0.167 HD
ATOM     46  C   UNL A   1      50.219  25.328  27.416  1.00  0.00     0.034 A 
ATOM     47  C   UNL A   1      45.434  26.206  33.090  1.00  0.00     0.034 A 
ATOM     48  C   UNL A   1      50.346  25.845  28.773  1.00  0.00     0.049 A 
ATOM     49  C   UNL A   1      46.862  25.719  33.392  1.00  0.00     0.074 A 
ATOM     50  C   UNL A   1      50.240  27.128  29.286  1.00  0.00     0.029 A 
ATOM     51  N   UNL A   1      50.241  24.986  29.850  1.00  0.00    -0.354 N 
ATOM     52  N   UNL A   1      47.915  25.926  32.643  1.00  0.00    -0.248 NA
ATOM     53  C   UNL A   1      47.179  24.868  34.533  1.00  0.00     0.031 C 
ATOM     54  C   UNL A   1      50.084  27.028  30.696  1.00  0.00     0.029 A 
ATOM     55  C   UNL A   1      50.130  25.689  31.042  1.00  0.00     0.049 A 
ATOM     56  H   UNL A   1      50.241  24.004  29.783  1.00  0.00     0.167 HD
ATOM     57  C   UNL A   1      48.950  25.100  33.039  1.00  0.00     0.074 A 
ATOM     58  C   UNL A   1      48.434  24.488  34.253  1.00  0.00     0.031 C 
ATOM     59  C   UNL A   1      50.101  24.944  32.296  1.00  0.00     0.034 A 
BRANCH  46  60
ATOM     60  C   UNL A   1      51.119  25.735  26.247  1.00  0.00     0.023 A 
ATOM     61  C   UNL A   1      52.190  24.891  25.905  1.00  0.00     0.012 A 
ATOM     62  C   UNL A   1      50.953  26.891  25.429  1.00  0.00     0.148 A 
ATOM     63  C   UNL A   1      53.088  25.204  24.877  1.00  0.00     0.002 A 
ATOM     64  C   UNL A   1      51.871  27.227  24.429  1.00  0.00     0.091 A 
ATOM     65  F   UNL A   1      49.893  27.683  25.616  1.00  0.00    -0.205 F 
ATOM     66  C   UNL A   1      52.945  26.381  24.153  1.00  0.00     0.022 A 
BRANCH  64  67
ATOM     67  S   UNL A   1      51.787  28.769  23.491  1.00  0.00     0.127 S 
ATOM     68  O   UNL A   1      53.063  28.762  22.774  1.00  0.00    -0.237 OA
ATOM     69  O   UNL A   1      50.614  28.561  22.645  1.00  0.00    -0.237 OA
ATOM     70  O   UNL A   1      51.669  29.841  24.473  1.00  0.00    -0.744 OA
ENDBRANCH  64  67
ENDBRANCH  46  60
BRANCH  47  71
ATOM     71  C   UNL A   1      44.176  25.480  33.470  1.00  0.00     0.023 A 
ATOM     72  C   UNL A   1      44.159  24.072  33.296  1.00  0.00     0.012 A 
ATOM     73  C   UNL A   1      43.289  26.046  34.388  1.00  0.00     0.148 A 
ATOM     74  C   UNL A   1      43.467  23.257  34.197  1.00  0.00     0.002 A 
ATOM     75  C   UNL A   1      42.636  25.233  35.304  1.00  0.00     0.091 A 
ATOM     76  F   UNL A   1      43.148  27.374  34.444  1.00  0.00    -0.205 F 
ATOM     77  C   UNL A   1      42.760  23.840  35.246  1.00  0.00     0.022 A 
BRANCH  75  78
ATOM     78  S   UNL A   1      41.872  26.032  36.717  1.00  0.00     0.127 S 
ATOM     79  O   UNL A   1      43.022  26.431  37.530  1.00  0.00    -0.237 OA
ATOM     80  O   UNL A   1      41.144  27.138  36.112  1.00  0.00    -0.237 OA
ATOM     81  O   UNL A   1      41.061  24.956  37.277  1.00  0.00    -0.744 OA
ENDBRANCH  75  78
ENDBRANCH  47  71
BRANCH  59  82
ATOM     82  C   UNL A   1      51.320  24.049  32.610  1.00  0.00     0.023 A 
ATOM     83  C   UNL A   1      52.647  24.478  32.458  1.00  0.00     0.012 A 
ATOM     84  C   UNL A   1      51.172  22.699  33.063  1.00  0.00     0.148 A 
ATOM     85  C   UNL A   1      53.748  23.678  32.796  1.00  0.00     0.002 A 
ATOM     86  C   UNL A   1      52.262  21.923  33.453  1.00  0.00     0.091 A 
ATOM     87  F   UNL A   1      49.972  22.106  33.043  1.00  0.00    -0.205 F 
ATOM     88  C   UNL A   1      53.557  22.413  33.321  1.00  0.00     0.022 A 
BRANCH  86  89
ATOM     89  S   UNL A   1      52.072  20.278  34.159  1.00  0.00     0.127 S 
ATOM     90  O   UNL A   1      52.972  19.490  33.318  1.00  0.00    -0.237 OA
ATOM     91  O   UNL A   1      52.543  20.478  35.531  1.00  0.00    -0.237 OA
ATOM     92  O   UNL A   1      50.657  19.953  34.051  1.00  0.00    -0.744 OA
ENDBRANCH  86  89
ENDBRANCH  59  82
ENDBRANCH  33  34
ENDBRANCH  26  28
ENDBRANCH  25  26
ENDBRANCH  24  25
ENDBRANCH   1  24
TORSDOF 18
ENDMDL
MODEL 2
REMARK VINA RESULT:     -12.7      4.785      9.879
REMARK SMILES Cc1ccc(S(=O)(=O)N(c2ccccc2)[C@H](C)C(=O)OCCOC(=O)c2ccc(-c3c4nc(c(-c5cccc(S(=O)(=O)[O-])c5F)c5ccc([nH]5)c(-c5cccc(S(=O)(=O)[O-])c5F)c5nc(c(-c6cccc(S(=O)(=O)[O-])c6F)c6ccc3[nH]6)C=C5)C=C4)cc2)cc1
REMARK SMILES IDX 21 1 20 2 18 3 19 4 16 5 17 6 9 7 6 8 7 9 8 10 5 11 1 12
REMARK SMILES IDX 2 13 3 14 90 15 4 16 89 17 10 18 11 19 15 20 12 21 14 22
REMARK SMILES IDX 13 23 22 24 23 25 24 26 25 27 26 28 27 29 88 30 28 31 87 32
REMARK SMILES IDX 29 33 30 34 31 35 81 36 32 37 86 38 80 39 82 40 33 41 85 42
REMARK SMILES IDX 79 43 78 44 34 46 66 47 46 48 65 49 47 50 50 51 64 52 83 53
REMARK SMILES IDX 48 54 49 55 63 57 84 58 51 59 35 60 36 61 44 62 37 63 39 64
REMARK SMILES IDX 45 65 38 66 40 67 41 68 42 69 43 70 67 71 68 72 76 73 69 74
REMARK SMILES IDX 71 75 77 76 70 77 72 78 73 79 74 80 75 81 52 82 53 83 61 84
REMARK SMILES IDX 54 85 56 86 62 87 55 88 57 89 58 90 59 91 60 92
REMARK H PARENT 82 45 50 56
REMARK Flexibility Score: inf
ROOT
ATOM      1  C   UNL A   1      37.383  22.584  25.168  1.00  0.00     0.274 C 
ENDROOT
BRANCH   1   2
ATOM      2  O   UNL A   1      36.096  22.232  24.656  1.00  0.00    -0.461 OA
BRANCH   2   3
ATOM      3  C   UNL A   1      35.627  22.868  23.423  1.00  0.00     0.329 C 
ATOM      4  O   UNL A   1      36.708  23.143  22.825  1.00  0.00    -0.250 OA
BRANCH   3   5
ATOM      5  C   UNL A   1      33.512  23.045  22.864  1.00  0.00     0.206 C 
ATOM      6  C   UNL A   1      32.306  21.838  22.564  1.00  0.00     0.045 C 
BRANCH   5   7
ATOM      7  N   UNL A   1      32.273  24.316  23.411  1.00  0.00    -0.252 N 
BRANCH   7   8
ATOM      8  S   UNL A   1      32.148  24.339  25.272  1.00  0.00     0.265 S 
ATOM      9  O   UNL A   1      33.306  23.615  25.776  1.00  0.00    -0.201 OA
ATOM     10  O   UNL A   1      30.831  23.897  25.665  1.00  0.00    -0.201 OA
BRANCH   8  11
ATOM     11  C   UNL A   1      32.265  26.014  25.946  1.00  0.00     0.088 A 
ATOM     12  C   UNL A   1      32.544  30.198  27.081  1.00  0.00     0.044 C 
ATOM     13  C   UNL A   1      32.496  28.746  26.701  1.00  0.00    -0.051 A 
ATOM     14  C   UNL A   1      33.640  27.979  26.464  1.00  0.00     0.005 A 
ATOM     15  C   UNL A   1      31.261  28.121  26.595  1.00  0.00     0.005 A 
ATOM     16  C   UNL A   1      33.527  26.625  26.073  1.00  0.00     0.022 A 
ATOM     17  C   UNL A   1      31.156  26.764  26.284  1.00  0.00     0.022 A 
ENDBRANCH   8  11
ENDBRANCH   7   8
BRANCH   7  18
ATOM     18  C   UNL A   1      32.320  25.697  22.751  1.00  0.00     0.053 A 
ATOM     19  C   UNL A   1      31.154  26.468  22.624  1.00  0.00     0.027 A 
ATOM     20  C   UNL A   1      33.501  26.419  22.557  1.00  0.00     0.027 A 
ATOM     21  C   UNL A   1      31.150  27.868  22.673  1.00  0.00     0.002 A 
ATOM     22  C   UNL A   1      33.522  27.828  22.591  1.00  0.00     0.002 A 
ATOM     23  C   UNL A   1      32.347  28.549  22.728  1.00  0.00     0.000 A 
ENDBRANCH   7  18
ENDBRANCH   5   7
ENDBRANCH   3   5
ENDBRANCH   2   3
ENDBRANCH   1   2
BRANCH   1  24
ATOM     24  C   UNL A   1      38.265  21.332  25.292  1.00  0.00     0.275 C 
BRANCH  24  25
ATOM     25  O   UNL A   1      39.399  21.402  26.209  1.00  0.00    -0.458 OA
BRANCH  25  26
ATOM     26  C   UNL A   1      40.595  20.753  26.061  1.00  0.00     0.338 C 
ATOM     27  O   UNL A   1      40.689  19.587  25.710  1.00  0.00    -0.246 OA
BRANCH  26  28
ATOM     28  C   UNL A   1      41.780  21.488  26.564  1.00  0.00     0.060 A 
ATOM     29  C   UNL A   1      42.108  21.424  28.328  1.00  0.00     0.016 A 
ATOM     30  C   UNL A   1      42.216  22.938  25.624  1.00  0.00     0.016 A 
ATOM     31  C   UNL A   1      42.637  22.942  29.196  1.00  0.00     0.010 A 
ATOM     32  C   UNL A   1      42.783  24.415  26.479  1.00  0.00     0.010 A 
ATOM     33  C   UNL A   1      42.921  24.454  28.274  1.00  0.00    -0.014 A 
BRANCH  33  34
ATOM     34  C   UNL A   1      42.886  25.841  28.744  1.00  0.00     0.031 A 
ATOM     35  C   UNL A   1      41.645  26.638  28.569  1.00  0.00     0.074 A 
ATOM     36  C   UNL A   1      43.728  26.208  29.732  1.00  0.00     0.049 A 
ATOM     37  N   UNL A   1      41.551  27.820  28.052  1.00  0.00    -0.248 NA
ATOM     38  C   UNL A   1      40.363  26.115  29.025  1.00  0.00     0.031 C 
ATOM     39  C   UNL A   1      43.477  27.279  30.691  1.00  0.00     0.029 A 
ATOM     40  N   UNL A   1      44.998  25.746  30.082  1.00  0.00    -0.354 N 
ATOM     41  C   UNL A   1      40.231  28.216  28.257  1.00  0.00     0.074 A 
ATOM     42  C   UNL A   1      39.500  27.050  28.660  1.00  0.00     0.031 C 
ATOM     43  C   UNL A   1      44.615  27.556  31.347  1.00  0.00     0.029 A 
ATOM     44  C   UNL A   1      45.678  26.804  30.709  1.00  0.00     0.049 A 
ATOM     45  H   UNL A   1      45.352  24.842  29.918  1.00  0.00     0.167 HD
ATOM     46  C   UNL A   1      39.858  29.466  28.644  1.00  0.00     0.034 A 
ATOM     47  C   UNL A   1      46.844  27.343  30.242  1.00  0.00     0.034 A 
ATOM     48  C   UNL A   1      41.005  30.137  29.244  1.00  0.00     0.049 A 
ATOM     49  C   UNL A   1      46.608  28.756  29.681  1.00  0.00     0.074 A 
ATOM     50  C   UNL A   1      41.400  30.286  30.565  1.00  0.00     0.029 A 
ATOM     51  N   UNL A   1      42.111  30.435  28.473  1.00  0.00    -0.354 N 
ATOM     52  N   UNL A   1      45.492  29.434  29.763  1.00  0.00    -0.248 NA
ATOM     53  C   UNL A   1      47.608  29.467  28.892  1.00  0.00     0.031 C 
ATOM     54  C   UNL A   1      42.761  30.696  30.574  1.00  0.00     0.029 A 
ATOM     55  C   UNL A   1      43.182  30.828  29.263  1.00  0.00     0.049 A 
ATOM     56  H   UNL A   1      42.139  30.374  27.490  1.00  0.00     0.167 HD
ATOM     57  C   UNL A   1      45.526  30.512  28.897  1.00  0.00     0.074 A 
ATOM     58  C   UNL A   1      46.895  30.495  28.409  1.00  0.00     0.031 C 
ATOM     59  C   UNL A   1      44.411  31.270  28.612  1.00  0.00     0.034 A 
BRANCH  46  60
ATOM     60  C   UNL A   1      38.399  29.846  28.906  1.00  0.00     0.023 A 
ATOM     61  C   UNL A   1      37.434  29.483  27.950  1.00  0.00     0.012 A 
ATOM     62  C   UNL A   1      37.905  30.511  30.066  1.00  0.00     0.148 A 
ATOM     63  C   UNL A   1      36.082  29.824  28.087  1.00  0.00     0.002 A 
ATOM     64  C   UNL A   1      36.564  30.889  30.186  1.00  0.00     0.091 A 
ATOM     65  F   UNL A   1      38.740  30.787  31.072  1.00  0.00    -0.205 F 
ATOM     66  C   UNL A   1      35.649  30.546  29.192  1.00  0.00     0.022 A 
BRANCH  64  67
ATOM     67  S   UNL A   1      35.940  31.882  31.560  1.00  0.00     0.127 S 
ATOM     68  O   UNL A   1      36.235  31.030  32.714  1.00  0.00    -0.237 OA
ATOM     69  O   UNL A   1      36.757  33.091  31.475  1.00  0.00    -0.237 OA
ATOM     70  O   UNL A   1      34.514  32.072  31.316  1.00  0.00    -0.744 OA
ENDBRANCH  64  67
ENDBRANCH  46  60
BRANCH  47  71
ATOM     71  C   UNL A   1      47.749  26.312  29.631  1.00  0.00     0.023 A 
ATOM     72  C   UNL A   1      47.296  25.663  28.454  1.00  0.00     0.012 A 
ATOM     73  C   UNL A   1      49.122  26.346  29.884  1.00  0.00     0.148 A 
ATOM     74  C   UNL A   1      48.203  25.301  27.453  1.00  0.00     0.002 A 
ATOM     75  C   UNL A   1      50.016  26.022  28.873  1.00  0.00     0.091 A 
ATOM     76  F   UNL A   1      49.570  26.782  31.066  1.00  0.00    -0.205 F 
ATOM     77  C   UNL A   1      49.562  25.547  27.637  1.00  0.00     0.022 A 
BRANCH  75  78
ATOM     78  S   UNL A   1      51.730  26.501  29.103  1.00  0.00     0.127 S 
ATOM     79  O   UNL A   1      51.659  27.962  29.154  1.00  0.00    -0.237 OA
ATOM     80  O   UNL A   1      52.079  25.866  30.366  1.00  0.00    -0.237 OA
ATOM     81  O   UNL A   1      52.364  25.953  27.909  1.00  0.00    -0.744 OA
ENDBRANCH  75  78
ENDBRANCH  47  71
BRANCH  59  82
ATOM     82  C   UNL A   1      44.304  32.481  27.660  1.00  0.00     0.023 A 
ATOM     83  C   UNL A   1      44.633  32.420  26.298  1.00  0.00     0.012 A 
ATOM     84  C   UNL A   1      43.875  33.768  28.118  1.00  0.00     0.148 A 
ATOM     85  C   UNL A   1      44.483  33.510  25.429  1.00  0.00     0.002 A 
ATOM     86  C   UNL A   1      43.671  34.837  27.246  1.00  0.00     0.091 A 
ATOM     87  F   UNL A   1      43.739  34.011  29.427  1.00  0.00    -0.205 F 
ATOM     88  C   UNL A   1      43.974  34.709  25.894  1.00  0.00     0.022 A 
BRANCH  86  89
ATOM     89  S   UNL A   1      42.994  36.412  27.793  1.00  0.00     0.127 S 
ATOM     90  O   UNL A   1      42.967  37.172  26.543  1.00  0.00    -0.237 OA
ATOM     91  O   UNL A   1      41.676  36.021  28.295  1.00  0.00    -0.237 OA
ATOM     92  O   UNL A   1      43.904  36.910  28.815  1.00  0.00    -0.744 OA
ENDBRANCH  86  89
ENDBRANCH  59  82
ENDBRANCH  33  34
ENDBRANCH  26  28
ENDBRANCH  25  26
ENDBRANCH  24  25
ENDBRANCH   1  24
TORSDOF 18
ENDMDL
MODEL 3
REMARK VINA RESULT:     -12.6      1.528      2.728
REMARK SMILES Cc1ccc(S(=O)(=O)N(c2ccccc2)[C@H](C)C(=O)OCCOC(=O)c2ccc(-c3c4nc(c(-c5cccc(S(=O)(=O)[O-])c5F)c5ccc([nH]5)c(-c5cccc(S(=O)(=O)[O-])c5F)c5nc(c(-c6cccc(S(=O)(=O)[O-])c6F)c6ccc3[nH]6)C=C5)C=C4)cc2)cc1
REMARK SMILES IDX 21 1 20 2 18 3 19 4 16 5 17 6 9 7 6 8 7 9 8 10 5 11 1 12
REMARK SMILES IDX 2 13 3 14 90 15 4 16 89 17 10 18 11 19 15 20 12 21 14 22
REMARK SMILES IDX 13 23 22 24 23 25 24 26 25 27 26 28 27 29 88 30 28 31 87 32
REMARK SMILES IDX 29 33 30 34 31 35 81 36 32 37 86 38 80 39 82 40 33 41 85 42
REMARK SMILES IDX 79 43 78 44 34 46 66 47 46 48 65 49 47 50 50 51 64 52 83 53
REMARK SMILES IDX 48 54 49 55 63 57 84 58 51 59 35 60 36 61 44 62 37 63 39 64
REMARK SMILES IDX 45 65 38 66 40 67 41 68 42 69 43 70 67 71 68 72 76 73 69 74
REMARK SMILES IDX 71 75 77 76 70 77 72 78 73 79 74 80 75 81 52 82 53 83 61 84
REMARK SMILES IDX 54 85 56 86 62 87 55 88 57 89 58 90 59 91 60 92
REMARK H PARENT 82 45 50 56
REMARK Flexibility Score: inf
ROOT
ATOM      1  C   UNL A   1      38.328  21.047  25.458  1.00  0.00     0.274 C 
ENDROOT
BRANCH   1   2
ATOM      2  O   UNL A   1      37.486  22.085  24.950  1.00  0.00    -0.461 OA
BRANCH   2   3
ATOM      3  C   UNL A   1      36.531  22.728  25.856  1.00  0.00     0.329 C 
ATOM      4  O   UNL A   1      36.997  23.900  25.963  1.00  0.00    -0.250 OA
BRANCH   3   5
ATOM      5  C   UNL A   1      34.705  21.763  26.596  1.00  0.00     0.206 C 
ATOM      6  C   UNL A   1      33.605  22.213  27.856  1.00  0.00     0.045 C 
BRANCH   5   7
ATOM      7  N   UNL A   1      33.407  20.847  25.630  1.00  0.00    -0.252 N 
BRANCH   7   8
ATOM      8  S   UNL A   1      32.915  21.825  24.120  1.00  0.00     0.265 S 
ATOM      9  O   UNL A   1      31.771  21.141  23.536  1.00  0.00    -0.201 OA
ATOM     10  O   UNL A   1      34.082  22.047  23.298  1.00  0.00    -0.201 OA
BRANCH   8  11
ATOM     11  C   UNL A   1      32.352  23.493  24.537  1.00  0.00     0.088 A 
ATOM     12  C   UNL A   1      31.166  27.403  26.010  1.00  0.00     0.044 C 
ATOM     13  C   UNL A   1      31.528  26.038  25.500  1.00  0.00    -0.051 A 
ATOM     14  C   UNL A   1      30.663  24.942  25.570  1.00  0.00     0.005 A 
ATOM     15  C   UNL A   1      32.772  25.849  24.913  1.00  0.00     0.005 A 
ATOM     16  C   UNL A   1      31.077  23.672  25.106  1.00  0.00     0.022 A 
ATOM     17  C   UNL A   1      33.147  24.612  24.386  1.00  0.00     0.022 A 
ENDBRANCH   8  11
ENDBRANCH   7   8
BRANCH   7  18
ATOM     18  C   UNL A   1      33.613  19.349  25.391  1.00  0.00     0.053 A 
ATOM     19  C   UNL A   1      32.579  18.436  25.649  1.00  0.00     0.027 A 
ATOM     20  C   UNL A   1      34.647  18.829  24.607  1.00  0.00     0.027 A 
ATOM     21  C   UNL A   1      32.391  17.259  24.911  1.00  0.00     0.002 A 
ATOM     22  C   UNL A   1      34.487  17.641  23.864  1.00  0.00     0.002 A 
ATOM     23  C   UNL A   1      33.322  16.898  23.961  1.00  0.00     0.000 A 
ENDBRANCH   7  18
ENDBRANCH   5   7
ENDBRANCH   3   5
ENDBRANCH   2   3
ENDBRANCH   1   2
BRANCH   1  24
ATOM     24  C   UNL A   1      39.605  21.649  26.064  1.00  0.00     0.275 C 
BRANCH  24  25
ATOM     25  O   UNL A   1      40.830  20.862  25.957  1.00  0.00    -0.458 OA
BRANCH  25  26
ATOM     26  C   UNL A   1      42.108  21.348  26.028  1.00  0.00     0.338 C 
ATOM     27  O   UNL A   1      43.083  20.737  25.620  1.00  0.00    -0.246 OA
BRANCH  26  28
ATOM     28  C   UNL A   1      42.272  22.583  26.832  1.00  0.00     0.060 A 
ATOM     29  C   UNL A   1      42.758  24.078  25.964  1.00  0.00     0.016 A 
ATOM     30  C   UNL A   1      42.790  22.316  28.516  1.00  0.00     0.016 A 
ATOM     31  C   UNL A   1      43.998  25.187  26.718  1.00  0.00     0.010 A 
ATOM     32  C   UNL A   1      43.975  23.439  29.271  1.00  0.00     0.010 A 
ATOM     33  C   UNL A   1      44.647  24.834  28.352  1.00  0.00    -0.014 A 
BRANCH  33  34
ATOM     34  C   UNL A   1      45.914  25.258  28.952  1.00  0.00     0.031 A 
ATOM     35  C   UNL A   1      47.158  25.199  28.145  1.00  0.00     0.074 A 
ATOM     36  C   UNL A   1      45.880  26.132  29.980  1.00  0.00     0.049 A 
ATOM     37  N   UNL A   1      48.281  24.656  28.491  1.00  0.00    -0.248 NA
ATOM     38  C   UNL A   1      47.211  25.814  26.824  1.00  0.00     0.031 C 
ATOM     39  C   UNL A   1      46.942  27.077  30.311  1.00  0.00     0.029 A 
ATOM     40  N   UNL A   1      44.924  26.351  30.973  1.00  0.00    -0.354 N 
ATOM     41  C   UNL A   1      49.188  24.995  27.490  1.00  0.00     0.074 A 
ATOM     42  C   UNL A   1      48.426  25.517  26.393  1.00  0.00     0.031 C 
ATOM     43  C   UNL A   1      46.707  27.591  31.529  1.00  0.00     0.029 A 
ATOM     44  C   UNL A   1      45.591  26.862  32.100  1.00  0.00     0.049 A 
ATOM     45  H   UNL A   1      43.958  26.179  30.898  1.00  0.00     0.167 HD
ATOM     46  C   UNL A   1      50.473  25.380  27.719  1.00  0.00     0.034 A 
ATOM     47  C   UNL A   1      45.602  26.248  33.321  1.00  0.00     0.034 A 
ATOM     48  C   UNL A   1      50.594  25.824  29.102  1.00  0.00     0.049 A 
ATOM     49  C   UNL A   1      46.994  25.671  33.631  1.00  0.00     0.074 A 
ATOM     50  C   UNL A   1      50.543  27.086  29.674  1.00  0.00     0.029 A 
ATOM     51  N   UNL A   1      50.416  24.923  30.134  1.00  0.00    -0.354 N 
ATOM     52  N   UNL A   1      48.075  25.856  32.916  1.00  0.00    -0.248 NA
ATOM     53  C   UNL A   1      47.237  24.751  34.737  1.00  0.00     0.031 C 
ATOM     54  C   UNL A   1      50.347  26.928  31.073  1.00  0.00     0.029 A 
ATOM     55  C   UNL A   1      50.313  25.574  31.355  1.00  0.00     0.049 A 
ATOM     56  H   UNL A   1      50.366  23.946  30.019  1.00  0.00     0.167 HD
ATOM     57  C   UNL A   1      49.054  24.956  33.295  1.00  0.00     0.074 A 
ATOM     58  C   UNL A   1      48.477  24.317  34.466  1.00  0.00     0.031 C 
ATOM     59  C   UNL A   1      50.213  24.773  32.571  1.00  0.00     0.034 A 
BRANCH  46  60
ATOM     60  C   UNL A   1      51.422  25.792  26.591  1.00  0.00     0.023 A 
ATOM     61  C   UNL A   1      52.268  24.813  26.041  1.00  0.00     0.012 A 
ATOM     62  C   UNL A   1      51.507  27.089  26.005  1.00  0.00     0.148 A 
ATOM     63  C   UNL A   1      53.197  25.109  25.035  1.00  0.00     0.002 A 
ATOM     64  C   UNL A   1      52.461  27.397  25.029  1.00  0.00     0.091 A 
ATOM     65  F   UNL A   1      50.657  28.044  26.392  1.00  0.00    -0.205 F 
ATOM     66  C   UNL A   1      53.311  26.404  24.544  1.00  0.00     0.022 A 
BRANCH  64  67
ATOM     67  S   UNL A   1      52.712  29.068  24.390  1.00  0.00     0.127 S 
ATOM     68  O   UNL A   1      52.949  29.833  25.615  1.00  0.00    -0.237 OA
ATOM     69  O   UNL A   1      53.888  28.908  23.537  1.00  0.00    -0.237 OA
ATOM     70  O   UNL A   1      51.481  29.432  23.697  1.00  0.00    -0.744 OA
ENDBRANCH  64  67
ENDBRANCH  46  60
BRANCH  47  71
ATOM     71  C   UNL A   1      44.298  25.575  33.638  1.00  0.00     0.023 A 
ATOM     72  C   UNL A   1      44.241  24.165  33.488  1.00  0.00     0.012 A 
ATOM     73  C   UNL A   1      43.379  26.190  34.491  1.00  0.00     0.148 A 
ATOM     74  C   UNL A   1      43.467  23.393  34.360  1.00  0.00     0.002 A 
ATOM     75  C   UNL A   1      42.644  25.418  35.380  1.00  0.00     0.091 A 
ATOM     76  F   UNL A   1      43.283  27.523  34.514  1.00  0.00    -0.205 F 
ATOM     77  C   UNL A   1      42.721  24.021  35.354  1.00  0.00     0.022 A 
BRANCH  75  78
ATOM     78  S   UNL A   1      41.827  26.271  36.731  1.00  0.00     0.127 S 
ATOM     79  O   UNL A   1      42.947  26.745  37.545  1.00  0.00    -0.237 OA
ATOM     80  O   UNL A   1      41.084  27.323  36.050  1.00  0.00    -0.237 OA
ATOM     81  O   UNL A   1      41.032  25.206  37.331  1.00  0.00    -0.744 OA
ENDBRANCH  75  78
ENDBRANCH  47  71
BRANCH  59  82
ATOM     82  C   UNL A   1      51.375  23.800  32.868  1.00  0.00     0.023 A 
ATOM     83  C   UNL A   1      52.726  24.151  32.728  1.00  0.00     0.012 A 
ATOM     84  C   UNL A   1      51.144  22.453  33.293  1.00  0.00     0.148 A 
ATOM     85  C   UNL A   1      53.776  23.278  33.050  1.00  0.00     0.002 A 
ATOM     86  C   UNL A   1      52.184  21.603  33.669  1.00  0.00     0.091 A 
ATOM     87  F   UNL A   1      49.911  21.934  33.259  1.00  0.00    -0.205 F 
ATOM     88  C   UNL A   1      53.507  22.017  33.549  1.00  0.00     0.022 A 
BRANCH  86  89
ATOM     89  S   UNL A   1      51.893  19.960  34.341  1.00  0.00     0.127 S 
ATOM     90  O   UNL A   1      51.936  20.217  35.779  1.00  0.00    -0.237 OA
ATOM     91  O   UNL A   1      50.561  19.648  33.819  1.00  0.00    -0.237 OA
ATOM     92  O   UNL A   1      52.957  19.115  33.817  1.00  0.00    -0.744 OA
ENDBRANCH  86  89
ENDBRANCH  59  82
ENDBRANCH  33  34
ENDBRANCH  26  28
ENDBRANCH  25  26
ENDBRANCH  24  25
ENDBRANCH   1  24
TORSDOF 18
ENDMDL
