MODEL 1
REMARK VINA RESULT:     -11.8      0.000      0.000
REMARK SMILES C[C@@H](C(=O)OCCOC(=O)c1ccc(-c2c3nc(c(-c4cccc(S(=O)(=O)[O-])c4F)c4ccc([nH]4)c(-c4cccc(S(=O)(=O)[O-])c4F)c4nc(c(-c5cccc(S(=O)(=O)[O-])c5F)c5ccc2[nH]5)C=C4)C=C3)cc1)c1ccc(C[C@@H]2CCC[C@@H]2O)cc1
REMARK SMILES IDX 6 1 5 2 3 3 4 4 2 5 1 6 74 7 75 8 86 9 76 10 85 11 77 12
REMARK SMILES IDX 78 13 79 14 80 15 83 16 81 17 82 18 84 19 7 21 8 22 9 23
REMARK SMILES IDX 10 24 11 25 12 26 73 27 13 28 72 29 14 30 15 31 16 32 66 33
REMARK SMILES IDX 17 34 71 35 65 36 67 37 18 38 70 39 64 40 63 41 19 43 51 44
REMARK SMILES IDX 31 45 50 46 32 47 35 48 49 49 68 50 33 51 34 52 48 54 69 55
REMARK SMILES IDX 36 56 20 57 21 58 29 59 22 60 24 61 30 62 23 63 25 64 26 65
REMARK SMILES IDX 27 66 28 67 52 68 53 69 61 70 54 71 56 72 62 73 55 74 57 75
REMARK SMILES IDX 58 76 59 77 60 78 37 79 38 80 46 81 39 82 41 83 47 84 40 85
REMARK SMILES IDX 42 86 43 87 44 88 45 89
REMARK H PARENT 84 20 67 42 35 53
REMARK Flexibility Score: inf
ROOT
ATOM      1  C   UNL A   1      34.584  20.886  25.266  1.00  0.00     0.274 C 
ENDROOT
BRANCH   1   2
ATOM      2  O   UNL A   1      34.385  22.078  26.057  1.00  0.00    -0.462 OA
BRANCH   2   3
ATOM      3  C   UNL A   1      33.333  22.871  25.700  1.00  0.00     0.313 C 
ATOM      4  O   UNL A   1      32.175  22.611  26.005  1.00  0.00    -0.252 OA
BRANCH   3   5
ATOM      5  C   UNL A   1      33.750  24.060  24.798  1.00  0.00     0.126 C 
ATOM      6  C   UNL A   1      35.033  24.733  25.312  1.00  0.00     0.025 C 
BRANCH   5   7
ATOM      7  C   UNL A   1      32.600  25.044  24.522  1.00  0.00    -0.034 A 
ATOM      8  C   UNL A   1      31.947  25.025  23.280  1.00  0.00     0.005 A 
ATOM      9  C   UNL A   1      32.131  25.975  25.464  1.00  0.00     0.005 A 
ATOM     10  C   UNL A   1      30.809  25.799  23.035  1.00  0.00     0.004 A 
ATOM     11  C   UNL A   1      31.023  26.796  25.193  1.00  0.00     0.004 A 
ATOM     12  C   UNL A   1      30.334  26.712  23.976  1.00  0.00    -0.048 A 
BRANCH  12  13
ATOM     13  C   UNL A   1      29.038  27.473  23.780  1.00  0.00     0.041 C 
BRANCH  13  14
ATOM     14  C   UNL A   1      28.930  28.604  22.736  1.00  0.00     0.022 C 
ATOM     15  C   UNL A   1      29.933  29.753  22.893  1.00  0.00     0.007 C 
ATOM     16  C   UNL A   1      27.584  29.325  22.615  1.00  0.00     0.117 C 
ATOM     17  C   UNL A   1      29.155  30.948  23.456  1.00  0.00     0.003 C 
ATOM     18  C   UNL A   1      27.698  30.513  23.557  1.00  0.00     0.032 C 
BRANCH  16  19
ATOM     19  O   UNL A   1      26.456  28.522  22.900  1.00  0.00    -0.393 OA
ATOM     20  H   UNL A   1      25.693  28.847  22.396  1.00  0.00     0.210 HD
ENDBRANCH  16  19
ENDBRANCH  13  14
ENDBRANCH  12  13
ENDBRANCH   5   7
ENDBRANCH   3   5
ENDBRANCH   2   3
ENDBRANCH   1   2
BRANCH   1  21
ATOM     21  C   UNL A   1      36.063  20.709  24.934  1.00  0.00     0.275 C 
BRANCH  21  22
ATOM     22  O   UNL A   1      36.851  21.577  25.767  1.00  0.00    -0.458 OA
BRANCH  22  23
ATOM     23  C   UNL A   1      38.176  21.319  25.808  1.00  0.00     0.338 C 
ATOM     24  O   UNL A   1      38.756  20.321  25.406  1.00  0.00    -0.246 OA
BRANCH  23  25
ATOM     25  C   UNL A   1      38.868  22.486  26.370  1.00  0.00     0.060 A 
ATOM     26  C   UNL A   1      38.369  23.748  26.069  1.00  0.00     0.016 A 
ATOM     27  C   UNL A   1      40.049  22.351  27.101  1.00  0.00     0.016 A 
ATOM     28  C   UNL A   1      39.068  24.881  26.469  1.00  0.00     0.010 A 
ATOM     29  C   UNL A   1      40.731  23.499  27.533  1.00  0.00     0.010 A 
ATOM     30  C   UNL A   1      40.257  24.778  27.198  1.00  0.00    -0.014 A 
BRANCH  30  31
ATOM     31  C   UNL A   1      41.020  26.019  27.508  1.00  0.00     0.031 A 
ATOM     32  C   UNL A   1      40.408  27.070  28.394  1.00  0.00     0.074 A 
ATOM     33  C   UNL A   1      42.291  26.172  27.085  1.00  0.00     0.049 A 
ATOM     34  N   UNL A   1      40.891  28.234  28.747  1.00  0.00    -0.248 NA
ATOM     35  C   UNL A   1      39.089  26.766  28.970  1.00  0.00     0.031 C 
ATOM     36  C   UNL A   1      43.042  25.195  26.297  1.00  0.00     0.029 A 
ATOM     37  N   UNL A   1      43.181  27.201  27.278  1.00  0.00    -0.354 N 
ATOM     38  C   UNL A   1      39.913  28.827  29.533  1.00  0.00     0.074 A 
ATOM     39  C   UNL A   1      38.820  27.884  29.632  1.00  0.00     0.031 C 
ATOM     40  C   UNL A   1      44.286  25.659  26.094  1.00  0.00     0.029 A 
ATOM     41  C   UNL A   1      44.405  26.991  26.685  1.00  0.00     0.049 A 
ATOM     42  H   UNL A   1      42.964  28.012  27.791  1.00  0.00     0.167 HD
ATOM     43  C   UNL A   1      39.919  30.046  30.122  1.00  0.00     0.034 A 
ATOM     44  C   UNL A   1      45.492  27.787  26.607  1.00  0.00     0.034 A 
ATOM     45  C   UNL A   1      41.017  30.973  30.075  1.00  0.00     0.049 A 
ATOM     46  C   UNL A   1      45.453  29.157  27.232  1.00  0.00     0.074 A 
ATOM     47  C   UNL A   1      41.095  32.239  30.628  1.00  0.00     0.029 A 
ATOM     48  N   UNL A   1      42.227  30.735  29.447  1.00  0.00    -0.354 N 
ATOM     49  N   UNL A   1      44.528  29.695  27.989  1.00  0.00    -0.248 NA
ATOM     50  C   UNL A   1      46.613  30.031  26.991  1.00  0.00     0.031 C 
ATOM     51  C   UNL A   1      42.353  32.771  30.325  1.00  0.00     0.029 A 
ATOM     52  C   UNL A   1      43.058  31.833  29.590  1.00  0.00     0.049 A 
ATOM     53  H   UNL A   1      42.463  29.907  28.968  1.00  0.00     0.167 HD
ATOM     54  C   UNL A   1      44.996  30.963  28.322  1.00  0.00     0.074 A 
ATOM     55  C   UNL A   1      46.305  31.098  27.718  1.00  0.00     0.031 C 
ATOM     56  C   UNL A   1      44.382  31.939  29.034  1.00  0.00     0.034 A 
BRANCH  43  57
ATOM     57  C   UNL A   1      38.683  30.457  30.872  1.00  0.00     0.023 A 
ATOM     58  C   UNL A   1      38.563  30.161  32.243  1.00  0.00     0.012 A 
ATOM     59  C   UNL A   1      37.664  31.180  30.223  1.00  0.00     0.148 A 
ATOM     60  C   UNL A   1      37.436  30.565  32.954  1.00  0.00     0.002 A 
ATOM     61  C   UNL A   1      36.557  31.606  30.946  1.00  0.00     0.091 A 
ATOM     62  F   UNL A   1      37.786  31.421  28.909  1.00  0.00    -0.205 F 
ATOM     63  C   UNL A   1      36.438  31.296  32.310  1.00  0.00     0.022 A 
BRANCH  61  64
ATOM     64  S   UNL A   1      35.258  32.600  30.205  1.00  0.00     0.127 S 
ATOM     65  O   UNL A   1      34.814  31.737  29.111  1.00  0.00    -0.237 OA
ATOM     66  O   UNL A   1      34.300  32.734  31.302  1.00  0.00    -0.237 OA
ATOM     67  O   UNL A   1      35.895  33.848  29.806  1.00  0.00    -0.744 OA
ENDBRANCH  61  64
ENDBRANCH  43  57
BRANCH  44  68
ATOM     68  C   UNL A   1      46.728  27.310  25.922  1.00  0.00     0.023 A 
ATOM     69  C   UNL A   1      46.873  27.524  24.538  1.00  0.00     0.012 A 
ATOM     70  C   UNL A   1      47.758  26.655  26.624  1.00  0.00     0.148 A 
ATOM     71  C   UNL A   1      48.011  27.076  23.863  1.00  0.00     0.002 A 
ATOM     72  C   UNL A   1      48.914  26.266  25.958  1.00  0.00     0.091 A 
ATOM     73  F   UNL A   1      47.589  26.418  27.934  1.00  0.00    -0.205 F 
ATOM     74  C   UNL A   1      49.037  26.460  24.574  1.00  0.00     0.022 A 
BRANCH  72  75
ATOM     75  S   UNL A   1      50.329  25.601  26.843  1.00  0.00     0.127 S 
ATOM     76  O   UNL A   1      50.629  26.675  27.786  1.00  0.00    -0.237 OA
ATOM     77  O   UNL A   1      49.778  24.387  27.446  1.00  0.00    -0.237 OA
ATOM     78  O   UNL A   1      51.331  25.348  25.814  1.00  0.00    -0.744 OA
ENDBRANCH  72  75
ENDBRANCH  44  68
BRANCH  56  79
ATOM     79  C   UNL A   1      45.109  33.248  29.206  1.00  0.00     0.023 A 
ATOM     80  C   UNL A   1      45.999  33.402  30.288  1.00  0.00     0.012 A 
ATOM     81  C   UNL A   1      44.986  34.283  28.260  1.00  0.00     0.148 A 
ATOM     82  C   UNL A   1      46.737  34.575  30.439  1.00  0.00     0.002 A 
ATOM     83  C   UNL A   1      45.756  35.435  28.395  1.00  0.00     0.091 A 
ATOM     84  F   UNL A   1      44.120  34.128  27.248  1.00  0.00    -0.205 F 
ATOM     85  C   UNL A   1      46.625  35.586  29.487  1.00  0.00     0.022 A 
BRANCH  83  86
ATOM     86  S   UNL A   1      45.738  36.746  27.165  1.00  0.00     0.127 S 
ATOM     87  O   UNL A   1      46.318  36.075  26.004  1.00  0.00    -0.237 OA
ATOM     88  O   UNL A   1      44.311  37.046  27.045  1.00  0.00    -0.237 OA
ATOM     89  O   UNL A   1      46.532  37.828  27.731  1.00  0.00    -0.744 OA
ENDBRANCH  83  86
ENDBRANCH  56  79
ENDBRANCH  30  31
ENDBRANCH  23  25
ENDBRANCH  22  23
ENDBRANCH  21  22
ENDBRANCH   1  21
TORSDOF 18
ENDMDL
MODEL 2
REMARK VINA RESULT:     -11.5      5.025      8.331
REMARK SMILES C[C@@H](C(=O)OCCOC(=O)c1ccc(-c2c3nc(c(-c4cccc(S(=O)(=O)[O-])c4F)c4ccc([nH]4)c(-c4cccc(S(=O)(=O)[O-])c4F)c4nc(c(-c5cccc(S(=O)(=O)[O-])c5F)c5ccc2[nH]5)C=C4)C=C3)cc1)c1ccc(C[C@@H]2CCC[C@@H]2O)cc1
REMARK SMILES IDX 6 1 5 2 3 3 4 4 2 5 1 6 74 7 75 8 86 9 76 10 85 11 77 12
REMARK SMILES IDX 78 13 79 14 80 15 83 16 81 17 82 18 84 19 7 21 8 22 9 23
REMARK SMILES IDX 10 24 11 25 12 26 73 27 13 28 72 29 14 30 15 31 16 32 66 33
REMARK SMILES IDX 17 34 71 35 65 36 67 37 18 38 70 39 64 40 63 41 19 43 51 44
REMARK SMILES IDX 31 45 50 46 32 47 35 48 49 49 68 50 33 51 34 52 48 54 69 55
REMARK SMILES IDX 36 56 20 57 21 58 29 59 22 60 24 61 30 62 23 63 25 64 26 65
REMARK SMILES IDX 27 66 28 67 52 68 53 69 61 70 54 71 56 72 62 73 55 74 57 75
REMARK SMILES IDX 58 76 59 77 60 78 37 79 38 80 46 81 39 82 41 83 47 84 40 85
REMARK SMILES IDX 42 86 43 87 44 88 45 89
REMARK H PARENT 84 20 67 42 35 53
REMARK Flexibility Score: inf
ROOT
ATOM      1  C   UNL A   1      31.340  30.616  26.044  1.00  0.00     0.274 C 
ENDROOT
BRANCH   1   2
ATOM      2  O   UNL A   1      32.251  29.695  26.682  1.00  0.00    -0.462 OA
BRANCH   2   3
ATOM      3  C   UNL A   1      31.787  28.428  26.882  1.00  0.00     0.313 C 
ATOM      4  O   UNL A   1      31.361  28.041  27.964  1.00  0.00    -0.252 OA
BRANCH   3   5
ATOM      5  C   UNL A   1      31.948  27.520  25.635  1.00  0.00     0.126 C 
ATOM      6  C   UNL A   1      30.620  27.367  24.876  1.00  0.00     0.025 C 
BRANCH   5   7
ATOM      7  C   UNL A   1      32.644  26.184  25.945  1.00  0.00    -0.034 A 
ATOM      8  C   UNL A   1      31.905  25.121  26.488  1.00  0.00     0.005 A 
ATOM      9  C   UNL A   1      34.004  25.940  25.695  1.00  0.00     0.005 A 
ATOM     10  C   UNL A   1      32.458  23.848  26.652  1.00  0.00     0.004 A 
ATOM     11  C   UNL A   1      34.574  24.674  25.918  1.00  0.00     0.004 A 
ATOM     12  C   UNL A   1      33.806  23.602  26.389  1.00  0.00    -0.048 A 
BRANCH  12  13
ATOM     13  C   UNL A   1      34.398  22.208  26.447  1.00  0.00     0.041 C 
BRANCH  13  14
ATOM     14  C   UNL A   1      34.382  21.284  25.211  1.00  0.00     0.022 C 
ATOM     15  C   UNL A   1      34.100  21.974  23.870  1.00  0.00     0.007 C 
ATOM     16  C   UNL A   1      33.396  20.113  25.220  1.00  0.00     0.117 C 
ATOM     17  C   UNL A   1      32.665  21.609  23.476  1.00  0.00     0.003 C 
ATOM     18  C   UNL A   1      32.145  20.657  24.548  1.00  0.00     0.032 C 
BRANCH  16  19
ATOM     19  O   UNL A   1      33.126  19.577  26.499  1.00  0.00    -0.393 OA
ATOM     20  H   UNL A   1      33.959  19.461  26.983  1.00  0.00     0.210 HD
ENDBRANCH  16  19
ENDBRANCH  13  14
ENDBRANCH  12  13
ENDBRANCH   5   7
ENDBRANCH   3   5
ENDBRANCH   2   3
ENDBRANCH   1   2
BRANCH   1  21
ATOM     21  C   UNL A   1      31.405  31.983  26.720  1.00  0.00     0.275 C 
BRANCH  21  22
ATOM     22  O   UNL A   1      32.726  32.531  26.573  1.00  0.00    -0.458 OA
BRANCH  22  23
ATOM     23  C   UNL A   1      33.194  33.243  27.621  1.00  0.00     0.338 C 
ATOM     24  O   UNL A   1      32.668  34.201  28.168  1.00  0.00    -0.246 OA
BRANCH  23  25
ATOM     25  C   UNL A   1      34.452  32.638  28.080  1.00  0.00     0.060 A 
ATOM     26  C   UNL A   1      34.432  31.302  28.463  1.00  0.00     0.016 A 
ATOM     27  C   UNL A   1      35.613  33.397  28.228  1.00  0.00     0.016 A 
ATOM     28  C   UNL A   1      35.565  30.728  29.027  1.00  0.00     0.010 A 
ATOM     29  C   UNL A   1      36.766  32.801  28.764  1.00  0.00     0.010 A 
ATOM     30  C   UNL A   1      36.743  31.464  29.193  1.00  0.00    -0.014 A 
BRANCH  30  31
ATOM     31  C   UNL A   1      37.891  30.832  29.899  1.00  0.00     0.031 A 
ATOM     32  C   UNL A   1      38.124  31.124  31.357  1.00  0.00     0.074 A 
ATOM     33  C   UNL A   1      38.670  29.924  29.277  1.00  0.00     0.049 A 
ATOM     34  N   UNL A   1      39.088  30.708  32.138  1.00  0.00    -0.248 NA
ATOM     35  C   UNL A   1      37.135  31.984  32.027  1.00  0.00     0.031 C 
ATOM     36  C   UNL A   1      38.505  29.475  27.895  1.00  0.00     0.029 A 
ATOM     37  N   UNL A   1      39.746  29.202  29.736  1.00  0.00    -0.354 N 
ATOM     38  C   UNL A   1      38.858  31.303  33.371  1.00  0.00     0.074 A 
ATOM     39  C   UNL A   1      37.647  32.085  33.246  1.00  0.00     0.031 C 
ATOM     40  C   UNL A   1      39.429  28.537  27.626  1.00  0.00     0.029 A 
ATOM     41  C   UNL A   1      40.289  28.359  28.794  1.00  0.00     0.049 A 
ATOM     42  H   UNL A   1      40.095  29.280  30.653  1.00  0.00     0.167 HD
ATOM     43  C   UNL A   1      39.587  31.209  34.508  1.00  0.00     0.034 A 
ATOM     44  C   UNL A   1      41.369  27.553  28.854  1.00  0.00     0.034 A 
ATOM     45  C   UNL A   1      40.764  30.397  34.663  1.00  0.00     0.049 A 
ATOM     46  C   UNL A   1      42.187  27.504  30.118  1.00  0.00     0.074 A 
ATOM     47  C   UNL A   1      41.573  30.263  35.777  1.00  0.00     0.029 A 
ATOM     48  N   UNL A   1      41.295  29.579  33.681  1.00  0.00    -0.354 N 
ATOM     49  N   UNL A   1      41.946  28.057  31.282  1.00  0.00    -0.248 NA
ATOM     50  C   UNL A   1      43.431  26.717  30.075  1.00  0.00     0.031 C 
ATOM     51  C   UNL A   1      42.602  29.368  35.465  1.00  0.00     0.029 A 
ATOM     52  C   UNL A   1      42.428  28.941  34.159  1.00  0.00     0.049 A 
ATOM     53  H   UNL A   1      40.924  29.466  32.776  1.00  0.00     0.167 HD
ATOM     54  C   UNL A   1      42.999  27.678  32.110  1.00  0.00     0.074 A 
ATOM     55  C   UNL A   1      43.859  26.816  31.327  1.00  0.00     0.031 C 
ATOM     56  C   UNL A   1      43.248  28.040  33.393  1.00  0.00     0.034 A 
BRANCH  43  57
ATOM     57  C   UNL A   1      39.133  32.021  35.689  1.00  0.00     0.023 A 
ATOM     58  C   UNL A   1      38.227  31.466  36.614  1.00  0.00     0.012 A 
ATOM     59  C   UNL A   1      39.644  33.314  35.903  1.00  0.00     0.148 A 
ATOM     60  C   UNL A   1      37.823  32.199  37.728  1.00  0.00     0.002 A 
ATOM     61  C   UNL A   1      39.260  34.026  37.033  1.00  0.00     0.091 A 
ATOM     62  F   UNL A   1      40.479  33.833  34.991  1.00  0.00    -0.205 F 
ATOM     63  C   UNL A   1      38.347  33.473  37.944  1.00  0.00     0.022 A 
BRANCH  61  64
ATOM     64  S   UNL A   1      39.933  35.647  37.413  1.00  0.00     0.127 S 
ATOM     65  O   UNL A   1      39.205  35.991  38.634  1.00  0.00    -0.237 OA
ATOM     66  O   UNL A   1      41.353  35.360  37.612  1.00  0.00    -0.237 OA
ATOM     67  O   UNL A   1      39.644  36.476  36.251  1.00  0.00    -0.744 OA
ENDBRANCH  61  64
ENDBRANCH  43  57
BRANCH  44  68
ATOM     68  C   UNL A   1      41.741  26.702  27.686  1.00  0.00     0.023 A 
ATOM     69  C   UNL A   1      42.428  27.284  26.603  1.00  0.00     0.012 A 
ATOM     70  C   UNL A   1      41.428  25.331  27.640  1.00  0.00     0.148 A 
ATOM     71  C   UNL A   1      42.777  26.520  25.488  1.00  0.00     0.002 A 
ATOM     72  C   UNL A   1      41.832  24.562  26.554  1.00  0.00     0.091 A 
ATOM     73  F   UNL A   1      40.736  24.798  28.658  1.00  0.00    -0.205 F 
ATOM     74  C   UNL A   1      42.492  25.157  25.469  1.00  0.00     0.022 A 
BRANCH  72  75
ATOM     75  S   UNL A   1      41.624  22.778  26.536  1.00  0.00     0.127 S 
ATOM     76  O   UNL A   1      42.251  22.388  27.796  1.00  0.00    -0.237 OA
ATOM     77  O   UNL A   1      40.168  22.634  26.503  1.00  0.00    -0.237 OA
ATOM     78  O   UNL A   1      42.292  22.334  25.319  1.00  0.00    -0.744 OA
ENDBRANCH  72  75
ENDBRANCH  44  68
BRANCH  56  79
ATOM     79  C   UNL A   1      44.501  27.512  34.042  1.00  0.00     0.023 A 
ATOM     80  C   UNL A   1      45.679  28.282  33.990  1.00  0.00     0.012 A 
ATOM     81  C   UNL A   1      44.493  26.309  34.775  1.00  0.00     0.148 A 
ATOM     82  C   UNL A   1      46.837  27.854  34.637  1.00  0.00     0.002 A 
ATOM     83  C   UNL A   1      45.641  25.908  35.452  1.00  0.00     0.091 A 
ATOM     84  F   UNL A   1      43.370  25.578  34.797  1.00  0.00    -0.205 F 
ATOM     85  C   UNL A   1      46.815  26.674  35.377  1.00  0.00     0.022 A 
BRANCH  83  86
ATOM     86  S   UNL A   1      45.672  24.448  36.500  1.00  0.00     0.127 S 
ATOM     87  O   UNL A   1      44.351  24.499  37.123  1.00  0.00    -0.237 OA
ATOM     88  O   UNL A   1      45.847  23.366  35.529  1.00  0.00    -0.237 OA
ATOM     89  O   UNL A   1      46.802  24.633  37.400  1.00  0.00    -0.744 OA
ENDBRANCH  83  86
ENDBRANCH  56  79
ENDBRANCH  30  31
ENDBRANCH  23  25
ENDBRANCH  22  23
ENDBRANCH  21  22
ENDBRANCH   1  21
TORSDOF 18
ENDMDL
MODEL 3
REMARK VINA RESULT:     -11.5      2.004      7.959
REMARK SMILES C[C@@H](C(=O)OCCOC(=O)c1ccc(-c2c3nc(c(-c4cccc(S(=O)(=O)[O-])c4F)c4ccc([nH]4)c(-c4cccc(S(=O)(=O)[O-])c4F)c4nc(c(-c5cccc(S(=O)(=O)[O-])c5F)c5ccc2[nH]5)C=C4)C=C3)cc1)c1ccc(C[C@@H]2CCC[C@@H]2O)cc1
REMARK SMILES IDX 6 1 5 2 3 3 4 4 2 5 1 6 74 7 75 8 86 9 76 10 85 11 77 12
REMARK SMILES IDX 78 13 79 14 80 15 83 16 81 17 82 18 84 19 7 21 8 22 9 23
REMARK SMILES IDX 10 24 11 25 12 26 73 27 13 28 72 29 14 30 15 31 16 32 66 33
REMARK SMILES IDX 17 34 71 35 65 36 67 37 18 38 70 39 64 40 63 41 19 43 51 44
REMARK SMILES IDX 31 45 50 46 32 47 35 48 49 49 68 50 33 51 34 52 48 54 69 55
REMARK SMILES IDX 36 56 20 57 21 58 29 59 22 60 24 61 30 62 23 63 25 64 26 65
REMARK SMILES IDX 27 66 28 67 52 68 53 69 61 70 54 71 56 72 62 73 55 74 57 75
REMARK SMILES IDX 58 76 59 77 60 78 37 79 38 80 46 81 39 82 41 83 47 84 40 85
REMARK SMILES IDX 42 86 43 87 44 88 45 89
REMARK H PARENT 84 20 67 42 35 53
REMARK Flexibility Score: inf
ROOT
ATOM      1  C   UNL A   1      36.322  20.172  24.975  1.00  0.00     0.274 C 
ENDROOT
BRANCH   1   2
ATOM      2  O   UNL A   1      35.846  21.127  25.948  1.00  0.00    -0.462 OA
BRANCH   2   3
ATOM      3  C   UNL A   1      34.512  21.411  25.912  1.00  0.00     0.313 C 
ATOM      4  O   UNL A   1      33.728  20.817  25.180  1.00  0.00    -0.252 OA
BRANCH   3   5
ATOM      5  C   UNL A   1      34.124  22.613  26.810  1.00  0.00     0.126 C 
ATOM      6  C   UNL A   1      33.070  22.215  27.857  1.00  0.00     0.025 C 
BRANCH   5   7
ATOM      7  C   UNL A   1      33.759  23.874  26.010  1.00  0.00    -0.034 A 
ATOM      8  C   UNL A   1      32.577  24.572  26.306  1.00  0.00     0.005 A 
ATOM      9  C   UNL A   1      34.560  24.404  24.985  1.00  0.00     0.005 A 
ATOM     10  C   UNL A   1      32.276  25.797  25.705  1.00  0.00     0.004 A 
ATOM     11  C   UNL A   1      34.224  25.606  24.339  1.00  0.00     0.004 A 
ATOM     12  C   UNL A   1      33.080  26.331  24.699  1.00  0.00    -0.048 A 
BRANCH  12  13
ATOM     13  C   UNL A   1      32.838  27.710  24.118  1.00  0.00     0.041 C 
BRANCH  13  14
ATOM     14  C   UNL A   1      33.249  28.982  24.889  1.00  0.00     0.022 C 
ATOM     15  C   UNL A   1      34.108  28.753  26.139  1.00  0.00     0.007 C 
ATOM     16  C   UNL A   1      32.126  29.891  25.396  1.00  0.00     0.117 C 
ATOM     17  C   UNL A   1      33.199  28.977  27.351  1.00  0.00     0.003 C 
ATOM     18  C   UNL A   1      31.840  29.401  26.806  1.00  0.00     0.032 C 
BRANCH  16  19
ATOM     19  O   UNL A   1      30.966  29.904  24.588  1.00  0.00    -0.393 OA
ATOM     20  H   UNL A   1      31.196  29.624  23.689  1.00  0.00     0.210 HD
ENDBRANCH  16  19
ENDBRANCH  13  14
ENDBRANCH  12  13
ENDBRANCH   5   7
ENDBRANCH   3   5
ENDBRANCH   2   3
ENDBRANCH   1   2
BRANCH   1  21
ATOM     21  C   UNL A   1      37.848  20.146  24.957  1.00  0.00     0.275 C 
BRANCH  21  22
ATOM     22  O   UNL A   1      38.357  21.260  25.711  1.00  0.00    -0.458 OA
BRANCH  22  23
ATOM     23  C   UNL A   1      39.567  21.086  26.284  1.00  0.00     0.338 C 
ATOM     24  O   UNL A   1      40.249  20.071  26.298  1.00  0.00    -0.246 OA
BRANCH  23  25
ATOM     25  C   UNL A   1      40.006  22.363  26.862  1.00  0.00     0.060 A 
ATOM     26  C   UNL A   1      39.393  23.527  26.412  1.00  0.00     0.016 A 
ATOM     27  C   UNL A   1      41.071  22.429  27.761  1.00  0.00     0.016 A 
ATOM     28  C   UNL A   1      39.867  24.764  26.833  1.00  0.00     0.010 A 
ATOM     29  C   UNL A   1      41.521  23.681  28.210  1.00  0.00     0.010 A 
ATOM     30  C   UNL A   1      40.936  24.863  27.729  1.00  0.00    -0.014 A 
BRANCH  30  31
ATOM     31  C   UNL A   1      41.471  26.212  28.062  1.00  0.00     0.031 A 
ATOM     32  C   UNL A   1      42.854  26.599  27.612  1.00  0.00     0.074 A 
ATOM     33  C   UNL A   1      40.698  27.129  28.678  1.00  0.00     0.049 A 
ATOM     34  N   UNL A   1      43.515  27.706  27.837  1.00  0.00    -0.248 NA
ATOM     35  C   UNL A   1      43.582  25.621  26.789  1.00  0.00     0.031 C 
ATOM     36  C   UNL A   1      39.310  26.924  29.090  1.00  0.00     0.029 A 
ATOM     37  N   UNL A   1      40.968  28.425  29.048  1.00  0.00    -0.354 N 
ATOM     38  C   UNL A   1      44.756  27.534  27.239  1.00  0.00     0.074 A 
ATOM     39  C   UNL A   1      44.748  26.228  26.614  1.00  0.00     0.031 C 
ATOM     40  C   UNL A   1      38.841  28.060  29.632  1.00  0.00     0.029 A 
ATOM     41  C   UNL A   1      39.911  29.056  29.662  1.00  0.00     0.049 A 
ATOM     42  H   UNL A   1      41.836  28.861  28.889  1.00  0.00     0.167 HD
ATOM     43  C   UNL A   1      45.809  28.383  27.209  1.00  0.00     0.034 A 
ATOM     44  C   UNL A   1      39.818  30.287  30.207  1.00  0.00     0.034 A 
ATOM     45  C   UNL A   1      45.816  29.702  27.781  1.00  0.00     0.049 A 
ATOM     46  C   UNL A   1      41.022  31.192  30.200  1.00  0.00     0.074 A 
ATOM     47  C   UNL A   1      46.852  30.619  27.813  1.00  0.00     0.029 A 
ATOM     48  N   UNL A   1      44.737  30.295  28.414  1.00  0.00    -0.354 N 
ATOM     49  N   UNL A   1      42.182  31.023  29.613  1.00  0.00    -0.248 NA
ATOM     50  C   UNL A   1      40.902  32.463  30.934  1.00  0.00     0.031 C 
ATOM     51  C   UNL A   1      46.401  31.765  28.476  1.00  0.00     0.029 A 
ATOM     52  C   UNL A   1      45.083  31.564  28.849  1.00  0.00     0.049 A 
ATOM     53  H   UNL A   1      43.854  29.877  28.538  1.00  0.00     0.167 HD
ATOM     54  C   UNL A   1      42.924  32.165  29.897  1.00  0.00     0.074 A 
ATOM     55  C   UNL A   1      42.070  33.038  30.675  1.00  0.00     0.031 C 
ATOM     56  C   UNL A   1      44.209  32.450  29.573  1.00  0.00     0.034 A 
BRANCH  43  57
ATOM     57  C   UNL A   1      47.064  27.903  26.535  1.00  0.00     0.023 A 
ATOM     58  C   UNL A   1      48.091  27.317  27.299  1.00  0.00     0.012 A 
ATOM     59  C   UNL A   1      47.200  27.993  25.136  1.00  0.00     0.148 A 
ATOM     60  C   UNL A   1      49.245  26.841  26.679  1.00  0.00     0.002 A 
ATOM     61  C   UNL A   1      48.340  27.489  24.523  1.00  0.00     0.091 A 
ATOM     62  F   UNL A   1      46.223  28.586  24.435  1.00  0.00    -0.205 F 
ATOM     63  C   UNL A   1      49.366  26.917  25.292  1.00  0.00     0.022 A 
BRANCH  61  64
ATOM     64  S   UNL A   1      48.546  27.496  22.739  1.00  0.00     0.127 S 
ATOM     65  O   UNL A   1      48.535  26.066  22.434  1.00  0.00    -0.237 OA
ATOM     66  O   UNL A   1      47.358  28.223  22.289  1.00  0.00    -0.237 OA
ATOM     67  O   UNL A   1      49.804  28.186  22.490  1.00  0.00    -0.744 OA
ENDBRANCH  61  64
ENDBRANCH  43  57
BRANCH  44  68
ATOM     68  C   UNL A   1      38.530  30.755  30.796  1.00  0.00     0.023 A 
ATOM     69  C   UNL A   1      38.289  30.555  32.169  1.00  0.00     0.012 A 
ATOM     70  C   UNL A   1      37.550  31.398  30.017  1.00  0.00     0.148 A 
ATOM     71  C   UNL A   1      37.087  30.967  32.749  1.00  0.00     0.002 A 
ATOM     72  C   UNL A   1      36.383  31.862  30.613  1.00  0.00     0.091 A 
ATOM     73  F   UNL A   1      37.773  31.546  28.702  1.00  0.00    -0.205 F 
ATOM     74  C   UNL A   1      36.141  31.632  31.975  1.00  0.00     0.022 A 
BRANCH  72  75
ATOM     75  S   UNL A   1      35.191  32.852  29.703  1.00  0.00     0.127 S 
ATOM     76  O   UNL A   1      36.038  33.899  29.138  1.00  0.00    -0.237 OA
ATOM     77  O   UNL A   1      34.667  31.893  28.730  1.00  0.00    -0.237 OA
ATOM     78  O   UNL A   1      34.217  33.278  30.699  1.00  0.00    -0.744 OA
ENDBRANCH  72  75
ENDBRANCH  44  68
BRANCH  56  79
ATOM     79  C   UNL A   1      44.783  33.758  30.053  1.00  0.00     0.023 A 
ATOM     80  C   UNL A   1      45.523  33.784  31.252  1.00  0.00     0.012 A 
ATOM     81  C   UNL A   1      44.672  34.933  29.284  1.00  0.00     0.148 A 
ATOM     82  C   UNL A   1      46.123  34.963  31.691  1.00  0.00     0.002 A 
ATOM     83  C   UNL A   1      45.307  36.096  29.708  1.00  0.00     0.091 A 
ATOM     84  F   UNL A   1      43.947  34.895  28.157  1.00  0.00    -0.205 F 
ATOM     85  C   UNL A   1      46.026  36.115  30.914  1.00  0.00     0.022 A 
BRANCH  83  86
ATOM     86  S   UNL A   1      45.306  37.599  28.722  1.00  0.00     0.127 S 
ATOM     87  O   UNL A   1      45.715  37.098  27.412  1.00  0.00    -0.237 OA
ATOM     88  O   UNL A   1      43.908  38.026  28.801  1.00  0.00    -0.237 OA
ATOM     89  O   UNL A   1      46.245  38.500  29.376  1.00  0.00    -0.744 OA
ENDBRANCH  83  86
ENDBRANCH  56  79
ENDBRANCH  30  31
ENDBRANCH  23  25
ENDBRANCH  22  23
ENDBRANCH  21  22
ENDBRANCH   1  21
TORSDOF 18
ENDMDL
