MODEL 1
REMARK VINA RESULT:     -12.5      0.000      0.000
REMARK SMILES CC(C)C(=O)Nc1ccc(NC(=O)[C@@H]2[C@@H](C(=O)OCCOC(=O)c3ccc(-c4c5nc(c(-c6cccc(S(=O)(=O)[O-])c6F)c6ccc([nH]6)c(-c6cccc(S(=O)(=O)[O-])c6F)c6nc(c(-c7cccc(S(=O)(=O)[O-])c7F)c7ccc4[nH]7)C=C6)C=C5)cc3)C2(C)C)cc1Cl
REMARK SMILES IDX 19 1 18 2 16 3 17 4 15 5 14 6 87 7 88 8 89 9 12 10 11 11
REMARK SMILES IDX 13 13 10 14 7 15 8 16 91 17 9 18 90 19 92 20 6 21 4 22 5 23
REMARK SMILES IDX 2 25 1 26 3 27 20 28 21 29 22 30 23 31 24 32 25 33 86 34
REMARK SMILES IDX 26 35 85 36 27 37 28 38 29 39 79 40 30 41 84 42 78 43 80 44
REMARK SMILES IDX 31 45 83 46 77 47 76 48 32 50 64 51 44 52 63 53 45 54 48 55
REMARK SMILES IDX 62 56 81 57 46 58 47 59 61 61 82 62 49 63 33 64 34 65 42 66
REMARK SMILES IDX 35 67 37 68 43 69 36 70 38 71 39 72 40 73 41 74 65 75 66 76
REMARK SMILES IDX 74 77 67 78 69 79 75 80 68 81 70 82 71 83 72 84 73 85 50 86
REMARK SMILES IDX 51 87 59 88 52 89 54 90 60 91 53 92 55 93 56 94 57 95 58 96
REMARK H PARENT 11 12 6 24 80 49 48 60
REMARK Flexibility Score: inf
ROOT
ATOM      1  C   UNL A   1      32.356  29.627  24.787  1.00  0.00     0.274 C 
ENDROOT
BRANCH   1   2
ATOM      2  O   UNL A   1      31.949  28.264  25.004  1.00  0.00    -0.462 OA
BRANCH   2   3
ATOM      3  C   UNL A   1      30.927  27.827  24.231  1.00  0.00     0.310 C 
ATOM      4  O   UNL A   1      30.302  28.519  23.440  1.00  0.00    -0.252 OA
BRANCH   3   5
ATOM      5  C   UNL A   1      30.633  26.377  24.341  1.00  0.00     0.118 C 
ATOM      6  C   UNL A   1      31.416  25.478  25.280  1.00  0.00     0.100 C 
ATOM      7  C   UNL A   1      31.393  25.187  23.771  1.00  0.00    -0.009 C 
ATOM      8  C   UNL A   1      32.702  25.326  23.012  1.00  0.00     0.013 C 
ATOM      9  C   UNL A   1      30.545  24.041  23.251  1.00  0.00     0.013 C 
BRANCH   6  10
ATOM     10  C   UNL A   1      30.600  24.766  26.305  1.00  0.00     0.228 C 
ATOM     11  N   UNL A   1      30.990  23.593  26.902  1.00  0.00    -0.326 N 
ATOM     12  H   UNL A   1      30.369  23.293  27.603  1.00  0.00     0.169 HD
ATOM     13  O   UNL A   1      29.534  25.262  26.666  1.00  0.00    -0.274 OA
BRANCH  11  14
ATOM     14  C   UNL A   1      32.079  22.729  26.730  1.00  0.00     0.042 A 
ATOM     15  C   UNL A   1      34.363  21.247  26.020  1.00  0.00     0.060 A 
ATOM     16  C   UNL A   1      34.328  21.965  27.212  1.00  0.00     0.030 A 
ATOM     17  C   UNL A   1      33.169  21.084  25.314  1.00  0.00     0.066 A 
ATOM     18  C   UNL A   1      33.180  22.674  27.570  1.00  0.00     0.028 A 
ATOM     19  C   UNL A   1      32.052  21.867  25.630  1.00  0.00     0.048 A 
ATOM     20  Cl  UNL A   1      32.925  19.752  24.239  1.00  0.00    -0.082 Cl
BRANCH  15  21
ATOM     21  N   UNL A   1      35.590  20.672  25.670  1.00  0.00    -0.325 N 
ATOM     22  C   UNL A   1      36.611  21.145  24.896  1.00  0.00     0.226 C 
ATOM     23  O   UNL A   1      37.566  20.376  24.728  1.00  0.00    -0.274 OA
ATOM     24  H   UNL A   1      35.744  19.776  26.047  1.00  0.00     0.169 HD
BRANCH  22  25
ATOM     25  C   UNL A   1      36.699  22.573  24.337  1.00  0.00     0.072 C 
ATOM     26  C   UNL A   1      35.581  22.974  23.390  1.00  0.00     0.018 C 
ATOM     27  C   UNL A   1      36.978  23.648  25.383  1.00  0.00     0.018 C 
ENDBRANCH  22  25
ENDBRANCH  15  21
ENDBRANCH  11  14
ENDBRANCH   6  10
ENDBRANCH   3   5
ENDBRANCH   2   3
ENDBRANCH   1   2
BRANCH   1  28
ATOM     28  C   UNL A   1      31.712  30.552  25.826  1.00  0.00     0.275 C 
BRANCH  28  29
ATOM     29  O   UNL A   1      32.443  30.536  27.069  1.00  0.00    -0.458 OA
BRANCH  29  30
ATOM     30  C   UNL A   1      33.198  31.632  27.317  1.00  0.00     0.338 C 
ATOM     31  O   UNL A   1      32.845  32.797  27.264  1.00  0.00    -0.246 OA
BRANCH  30  32
ATOM     32  C   UNL A   1      34.535  31.232  27.778  1.00  0.00     0.060 A 
ATOM     33  C   UNL A   1      34.751  29.887  28.086  1.00  0.00     0.016 A 
ATOM     34  C   UNL A   1      35.528  32.180  28.021  1.00  0.00     0.016 A 
ATOM     35  C   UNL A   1      35.955  29.479  28.650  1.00  0.00     0.010 A 
ATOM     36  C   UNL A   1      36.742  31.768  28.584  1.00  0.00     0.010 A 
ATOM     37  C   UNL A   1      36.955  30.419  28.921  1.00  0.00    -0.014 A 
BRANCH  37  38
ATOM     38  C   UNL A   1      38.187  29.991  29.627  1.00  0.00     0.031 A 
ATOM     39  C   UNL A   1      38.472  30.515  31.007  1.00  0.00     0.074 A 
ATOM     40  C   UNL A   1      39.031  29.120  29.044  1.00  0.00     0.049 A 
ATOM     41  N   UNL A   1      39.513  30.308  31.771  1.00  0.00    -0.248 NA
ATOM     42  C   UNL A   1      37.449  31.387  31.607  1.00  0.00     0.031 C 
ATOM     43  C   UNL A   1      38.844  28.523  27.720  1.00  0.00     0.029 A 
ATOM     44  N   UNL A   1      40.219  28.595  29.484  1.00  0.00    -0.354 N 
ATOM     45  C   UNL A   1      39.294  31.055  32.921  1.00  0.00     0.074 A 
ATOM     46  C   UNL A   1      38.020  31.723  32.755  1.00  0.00     0.031 C 
ATOM     47  C   UNL A   1      39.885  27.715  27.455  1.00  0.00     0.029 A 
ATOM     48  C   UNL A   1      40.828  27.769  28.568  1.00  0.00     0.049 A 
ATOM     49  H   UNL A   1      40.599  28.789  30.371  1.00  0.00     0.167 HD
ATOM     50  C   UNL A   1      40.075  31.164  34.022  1.00  0.00     0.034 A 
ATOM     51  C   UNL A   1      42.020  27.143  28.615  1.00  0.00     0.034 A 
ATOM     52  C   UNL A   1      41.321  30.468  34.198  1.00  0.00     0.049 A 
ATOM     53  C   UNL A   1      42.876  27.294  29.844  1.00  0.00     0.074 A 
ATOM     54  C   UNL A   1      42.178  30.497  35.284  1.00  0.00     0.029 A 
ATOM     55  N   UNL A   1      41.888  29.615  33.263  1.00  0.00    -0.354 N 
ATOM     56  N   UNL A   1      42.621  27.948  30.953  1.00  0.00    -0.248 NA
ATOM     57  C   UNL A   1      44.172  26.600  29.841  1.00  0.00     0.031 C 
ATOM     58  C   UNL A   1      43.270  29.668  35.001  1.00  0.00     0.029 A 
ATOM     59  C   UNL A   1      43.083  29.110  33.746  1.00  0.00     0.049 A 
ATOM     60  H   UNL A   1      41.498  29.401  32.385  1.00  0.00     0.167 HD
ATOM     61  C   UNL A   1      43.707  27.718  31.790  1.00  0.00     0.074 A 
ATOM     62  C   UNL A   1      44.613  26.846  31.068  1.00  0.00     0.031 C 
ATOM     63  C   UNL A   1      43.942  28.195  33.037  1.00  0.00     0.034 A 
BRANCH  50  64
ATOM     64  C   UNL A   1      39.586  32.053  35.136  1.00  0.00     0.023 A 
ATOM     65  C   UNL A   1      39.842  33.438  35.086  1.00  0.00     0.012 A 
ATOM     66  C   UNL A   1      38.845  31.526  36.211  1.00  0.00     0.148 A 
ATOM     67  C   UNL A   1      39.397  34.280  36.104  1.00  0.00     0.002 A 
ATOM     68  C   UNL A   1      38.370  32.378  37.202  1.00  0.00     0.091 A 
ATOM     69  F   UNL A   1      38.632  30.203  36.256  1.00  0.00    -0.205 F 
ATOM     70  C   UNL A   1      38.654  33.752  37.156  1.00  0.00     0.022 A 
BRANCH  68  71
ATOM     71  S   UNL A   1      37.345  31.799  38.561  1.00  0.00     0.127 S 
ATOM     72  O   UNL A   1      36.205  32.711  38.480  1.00  0.00    -0.237 OA
ATOM     73  O   UNL A   1      37.053  30.421  38.166  1.00  0.00    -0.237 OA
ATOM     74  O   UNL A   1      38.166  31.922  39.758  1.00  0.00    -0.744 OA
ENDBRANCH  68  71
ENDBRANCH  50  64
BRANCH  51  75
ATOM     75  C   UNL A   1      42.454  26.280  27.479  1.00  0.00     0.023 A 
ATOM     76  C   UNL A   1      43.282  26.822  26.477  1.00  0.00     0.012 A 
ATOM     77  C   UNL A   1      42.077  24.925  27.400  1.00  0.00     0.148 A 
ATOM     78  C   UNL A   1      43.707  26.037  25.405  1.00  0.00     0.002 A 
ATOM     79  C   UNL A   1      42.548  24.135  26.358  1.00  0.00     0.091 A 
ATOM     80  F   UNL A   1      41.270  24.433  28.351  1.00  0.00    -0.205 F 
ATOM     81  C   UNL A   1      43.351  24.692  25.352  1.00  0.00     0.022 A 
BRANCH  79  82
ATOM     82  S   UNL A   1      42.241  22.366  26.279  1.00  0.00     0.127 S 
ATOM     83  O   UNL A   1      42.731  21.920  27.581  1.00  0.00    -0.237 OA
ATOM     84  O   UNL A   1      40.787  22.317  26.120  1.00  0.00    -0.237 OA
ATOM     85  O   UNL A   1      42.987  21.891  25.122  1.00  0.00    -0.744 OA
ENDBRANCH  79  82
ENDBRANCH  51  75
BRANCH  63  86
ATOM     86  C   UNL A   1      45.209  27.759  33.723  1.00  0.00     0.023 A 
ATOM     87  C   UNL A   1      46.371  28.547  33.613  1.00  0.00     0.012 A 
ATOM     88  C   UNL A   1      45.226  26.609  34.538  1.00  0.00     0.148 A 
ATOM     89  C   UNL A   1      47.540  28.182  34.280  1.00  0.00     0.002 A 
ATOM     90  C   UNL A   1      46.381  26.277  35.236  1.00  0.00     0.091 A 
ATOM     91  F   UNL A   1      44.116  25.860  34.613  1.00  0.00    -0.205 F 
ATOM     92  C   UNL A   1      47.542  27.056  35.100  1.00  0.00     0.022 A 
BRANCH  90  93
ATOM     93  S   UNL A   1      46.443  24.897  36.386  1.00  0.00     0.127 S 
ATOM     94  O   UNL A   1      46.086  23.773  35.522  1.00  0.00    -0.237 OA
ATOM     95  O   UNL A   1      47.840  24.914  36.821  1.00  0.00    -0.237 OA
ATOM     96  O   UNL A   1      45.483  25.213  37.435  1.00  0.00    -0.744 OA
ENDBRANCH  90  93
ENDBRANCH  63  86
ENDBRANCH  37  38
ENDBRANCH  30  32
ENDBRANCH  29  30
ENDBRANCH  28  29
ENDBRANCH   1  28
TORSDOF 18
ENDMDL
MODEL 2
REMARK VINA RESULT:     -12.4      0.395      7.393
REMARK SMILES CC(C)C(=O)Nc1ccc(NC(=O)[C@@H]2[C@@H](C(=O)OCCOC(=O)c3ccc(-c4c5nc(c(-c6cccc(S(=O)(=O)[O-])c6F)c6ccc([nH]6)c(-c6cccc(S(=O)(=O)[O-])c6F)c6nc(c(-c7cccc(S(=O)(=O)[O-])c7F)c7ccc4[nH]7)C=C6)C=C5)cc3)C2(C)C)cc1Cl
REMARK SMILES IDX 19 1 18 2 16 3 17 4 15 5 14 6 87 7 88 8 89 9 12 10 11 11
REMARK SMILES IDX 13 13 10 14 7 15 8 16 91 17 9 18 90 19 92 20 6 21 4 22 5 23
REMARK SMILES IDX 2 25 1 26 3 27 20 28 21 29 22 30 23 31 24 32 25 33 86 34
REMARK SMILES IDX 26 35 85 36 27 37 28 38 29 39 79 40 30 41 84 42 78 43 80 44
REMARK SMILES IDX 31 45 83 46 77 47 76 48 32 50 64 51 44 52 63 53 45 54 48 55
REMARK SMILES IDX 62 56 81 57 46 58 47 59 61 61 82 62 49 63 33 64 34 65 42 66
REMARK SMILES IDX 35 67 37 68 43 69 36 70 38 71 39 72 40 73 41 74 65 75 66 76
REMARK SMILES IDX 74 77 67 78 69 79 75 80 68 81 70 82 71 83 72 84 73 85 50 86
REMARK SMILES IDX 51 87 59 88 52 89 54 90 60 91 53 92 55 93 56 94 57 95 58 96
REMARK H PARENT 11 12 6 24 80 49 48 60
REMARK Flexibility Score: inf
ROOT
ATOM      1  C   UNL A   1      31.070  30.055  25.004  1.00  0.00     0.274 C 
ENDROOT
BRANCH   1   2
ATOM      2  O   UNL A   1      31.297  28.641  25.135  1.00  0.00    -0.462 OA
BRANCH   2   3
ATOM      3  C   UNL A   1      31.217  27.925  23.988  1.00  0.00     0.310 C 
ATOM      4  O   UNL A   1      31.513  28.346  22.878  1.00  0.00    -0.252 OA
BRANCH   3   5
ATOM      5  C   UNL A   1      30.802  26.511  24.158  1.00  0.00     0.118 C 
ATOM      6  C   UNL A   1      31.539  25.576  25.099  1.00  0.00     0.100 C 
ATOM      7  C   UNL A   1      31.432  25.241  23.603  1.00  0.00    -0.009 C 
ATOM      8  C   UNL A   1      32.718  25.240  22.793  1.00  0.00     0.013 C 
ATOM      9  C   UNL A   1      30.468  24.159  23.153  1.00  0.00     0.013 C 
BRANCH   6  10
ATOM     10  C   UNL A   1      30.703  24.971  26.177  1.00  0.00     0.228 C 
ATOM     11  N   UNL A   1      31.034  23.809  26.828  1.00  0.00    -0.326 N 
ATOM     12  H   UNL A   1      30.411  23.586  27.556  1.00  0.00     0.169 HD
ATOM     13  O   UNL A   1      29.678  25.552  26.531  1.00  0.00    -0.274 OA
BRANCH  11  14
ATOM     14  C   UNL A   1      32.064  22.871  26.682  1.00  0.00     0.042 A 
ATOM     15  C   UNL A   1      34.271  21.247  26.043  1.00  0.00     0.060 A 
ATOM     16  C   UNL A   1      34.212  21.913  27.264  1.00  0.00     0.030 A 
ATOM     17  C   UNL A   1      33.116  21.209  25.259  1.00  0.00     0.066 A 
ATOM     18  C   UNL A   1      33.100  22.694  27.585  1.00  0.00     0.028 A 
ATOM     19  C   UNL A   1      32.043  22.062  25.543  1.00  0.00     0.048 A 
ATOM     20  Cl  UNL A   1      32.843  19.947  24.107  1.00  0.00    -0.082 Cl
BRANCH  15  21
ATOM     21  N   UNL A   1      35.471  20.593  25.743  1.00  0.00    -0.325 N 
ATOM     22  C   UNL A   1      36.561  21.007  25.033  1.00  0.00     0.226 C 
ATOM     23  O   UNL A   1      37.468  20.176  24.895  1.00  0.00    -0.274 OA
ATOM     24  H   UNL A   1      35.541  19.680  26.104  1.00  0.00     0.169 HD
BRANCH  22  25
ATOM     25  C   UNL A   1      36.778  22.436  24.514  1.00  0.00     0.072 C 
ATOM     26  C   UNL A   1      35.795  22.904  23.454  1.00  0.00     0.018 C 
ATOM     27  C   UNL A   1      36.986  23.483  25.603  1.00  0.00     0.018 C 
ENDBRANCH  22  25
ENDBRANCH  15  21
ENDBRANCH  11  14
ENDBRANCH   6  10
ENDBRANCH   3   5
ENDBRANCH   2   3
ENDBRANCH   1   2
BRANCH   1  28
ATOM     28  C   UNL A   1      31.494  30.788  26.282  1.00  0.00     0.275 C 
BRANCH  28  29
ATOM     29  O   UNL A   1      32.929  30.828  26.413  1.00  0.00    -0.458 OA
BRANCH  29  30
ATOM     30  C   UNL A   1      33.416  31.798  27.222  1.00  0.00     0.338 C 
ATOM     31  O   UNL A   1      32.852  32.823  27.564  1.00  0.00    -0.246 OA
BRANCH  30  32
ATOM     32  C   UNL A   1      34.731  31.406  27.748  1.00  0.00     0.060 A 
ATOM     33  C   UNL A   1      34.906  30.087  28.172  1.00  0.00     0.016 A 
ATOM     34  C   UNL A   1      35.743  32.348  27.936  1.00  0.00     0.016 A 
ATOM     35  C   UNL A   1      36.086  29.699  28.797  1.00  0.00     0.010 A 
ATOM     36  C   UNL A   1      36.933  31.956  28.561  1.00  0.00     0.010 A 
ATOM     37  C   UNL A   1      37.103  30.635  29.014  1.00  0.00    -0.014 A 
BRANCH  37  38
ATOM     38  C   UNL A   1      38.308  30.239  29.783  1.00  0.00     0.031 A 
ATOM     39  C   UNL A   1      39.303  29.294  29.169  1.00  0.00     0.074 A 
ATOM     40  C   UNL A   1      38.519  30.743  31.013  1.00  0.00     0.049 A 
ATOM     41  N   UNL A   1      40.388  28.783  29.690  1.00  0.00    -0.248 NA
ATOM     42  C   UNL A   1      39.042  28.867  27.785  1.00  0.00     0.031 C 
ATOM     43  C   UNL A   1      37.639  31.690  31.698  1.00  0.00     0.029 A 
ATOM     44  N   UNL A   1      39.536  30.521  31.907  1.00  0.00    -0.354 N 
ATOM     45  C   UNL A   1      40.917  27.943  28.718  1.00  0.00     0.074 A 
ATOM     46  C   UNL A   1      40.032  28.011  27.575  1.00  0.00     0.031 C 
ATOM     47  C   UNL A   1      38.152  31.965  32.910  1.00  0.00     0.029 A 
ATOM     48  C   UNL A   1      39.371  31.185  33.101  1.00  0.00     0.049 A 
ATOM     49  H   UNL A   1      40.308  29.944  31.714  1.00  0.00     0.167 HD
ATOM     50  C   UNL A   1      42.045  27.195  28.767  1.00  0.00     0.034 A 
ATOM     51  C   UNL A   1      40.111  31.152  34.226  1.00  0.00     0.034 A 
ATOM     52  C   UNL A   1      42.941  27.162  29.891  1.00  0.00     0.049 A 
ATOM     53  C   UNL A   1      41.351  30.300  34.260  1.00  0.00     0.074 A 
ATOM     54  C   UNL A   1      44.120  26.451  30.033  1.00  0.00     0.029 A 
ATOM     55  N   UNL A   1      42.759  27.873  31.069  1.00  0.00    -0.354 N 
ATOM     56  N   UNL A   1      41.875  29.566  33.307  1.00  0.00    -0.248 NA
ATOM     57  C   UNL A   1      42.117  30.290  35.514  1.00  0.00     0.031 C 
ATOM     58  C   UNL A   1      44.645  26.725  31.302  1.00  0.00     0.029 A 
ATOM     59  C   UNL A   1      43.803  27.620  31.941  1.00  0.00     0.049 A 
ATOM     60  H   UNL A   1      41.999  28.470  31.255  1.00  0.00     0.167 HD
ATOM     61  C   UNL A   1      43.047  29.036  33.834  1.00  0.00     0.074 A 
ATOM     62  C   UNL A   1      43.167  29.549  35.184  1.00  0.00     0.031 C 
ATOM     63  C   UNL A   1      43.937  28.188  33.259  1.00  0.00     0.034 A 
BRANCH  50  64
ATOM     64  C   UNL A   1      42.385  26.370  27.554  1.00  0.00     0.023 A 
ATOM     65  C   UNL A   1      43.112  26.953  26.496  1.00  0.00     0.012 A 
ATOM     66  C   UNL A   1      42.019  25.012  27.475  1.00  0.00     0.148 A 
ATOM     67  C   UNL A   1      43.440  26.207  25.365  1.00  0.00     0.002 A 
ATOM     68  C   UNL A   1      42.385  24.264  26.362  1.00  0.00     0.091 A 
ATOM     69  F   UNL A   1      41.306  24.481  28.479  1.00  0.00    -0.205 F 
ATOM     70  C   UNL A   1      43.084  24.862  25.301  1.00  0.00     0.022 A 
BRANCH  68  71
ATOM     71  S   UNL A   1      42.031  22.508  26.222  1.00  0.00     0.127 S 
ATOM     72  O   UNL A   1      42.663  22.180  24.945  1.00  0.00    -0.237 OA
ATOM     73  O   UNL A   1      42.709  21.959  27.396  1.00  0.00    -0.237 OA
ATOM     74  O   UNL A   1      40.580  22.391  26.254  1.00  0.00    -0.744 OA
ENDBRANCH  68  71
ENDBRANCH  50  64
BRANCH  51  75
ATOM     75  C   UNL A   1      39.722  31.987  35.398  1.00  0.00     0.023 A 
ATOM     76  C   UNL A   1      40.189  33.313  35.487  1.00  0.00     0.012 A 
ATOM     77  C   UNL A   1      38.874  31.489  36.407  1.00  0.00     0.148 A 
ATOM     78  C   UNL A   1      39.837  34.120  36.570  1.00  0.00     0.002 A 
ATOM     79  C   UNL A   1      38.485  32.315  37.455  1.00  0.00     0.091 A 
ATOM     80  F   UNL A   1      38.458  30.218  36.318  1.00  0.00    -0.205 F 
ATOM     81  C   UNL A   1      38.977  33.626  37.546  1.00  0.00     0.022 A 
BRANCH  79  82
ATOM     82  S   UNL A   1      37.283  31.800  38.688  1.00  0.00     0.127 S 
ATOM     83  O   UNL A   1      36.222  32.787  38.500  1.00  0.00    -0.237 OA
ATOM     84  O   UNL A   1      36.950  30.447  38.242  1.00  0.00    -0.237 OA
ATOM     85  O   UNL A   1      37.983  31.856  39.964  1.00  0.00    -0.744 OA
ENDBRANCH  79  82
ENDBRANCH  51  75
BRANCH  63  86
ATOM     86  C   UNL A   1      45.141  27.788  34.070  1.00  0.00     0.023 A 
ATOM     87  C   UNL A   1      46.307  28.578  34.027  1.00  0.00     0.012 A 
ATOM     88  C   UNL A   1      45.089  26.675  34.932  1.00  0.00     0.148 A 
ATOM     89  C   UNL A   1      47.413  28.248  34.808  1.00  0.00     0.002 A 
ATOM     90  C   UNL A   1      46.180  26.379  35.741  1.00  0.00     0.091 A 
ATOM     91  F   UNL A   1      43.978  25.924  34.943  1.00  0.00    -0.205 F 
ATOM     92  C   UNL A   1      47.347  27.157  35.673  1.00  0.00     0.022 A 
BRANCH  90  93
ATOM     93  S   UNL A   1      46.144  25.050  36.950  1.00  0.00     0.127 S 
ATOM     94  O   UNL A   1      45.829  23.894  36.113  1.00  0.00    -0.237 OA
ATOM     95  O   UNL A   1      47.509  25.069  37.478  1.00  0.00    -0.237 OA
ATOM     96  O   UNL A   1      45.120  25.422  37.917  1.00  0.00    -0.744 OA
ENDBRANCH  90  93
ENDBRANCH  63  86
ENDBRANCH  37  38
ENDBRANCH  30  32
ENDBRANCH  29  30
ENDBRANCH  28  29
ENDBRANCH   1  28
TORSDOF 18
ENDMDL
MODEL 3
REMARK VINA RESULT:     -12.4      5.250      7.873
REMARK SMILES CC(C)C(=O)Nc1ccc(NC(=O)[C@@H]2[C@@H](C(=O)OCCOC(=O)c3ccc(-c4c5nc(c(-c6cccc(S(=O)(=O)[O-])c6F)c6ccc([nH]6)c(-c6cccc(S(=O)(=O)[O-])c6F)c6nc(c(-c7cccc(S(=O)(=O)[O-])c7F)c7ccc4[nH]7)C=C6)C=C5)cc3)C2(C)C)cc1Cl
REMARK SMILES IDX 19 1 18 2 16 3 17 4 15 5 14 6 87 7 88 8 89 9 12 10 11 11
REMARK SMILES IDX 13 13 10 14 7 15 8 16 91 17 9 18 90 19 92 20 6 21 4 22 5 23
REMARK SMILES IDX 2 25 1 26 3 27 20 28 21 29 22 30 23 31 24 32 25 33 86 34
REMARK SMILES IDX 26 35 85 36 27 37 28 38 29 39 79 40 30 41 84 42 78 43 80 44
REMARK SMILES IDX 31 45 83 46 77 47 76 48 32 50 64 51 44 52 63 53 45 54 48 55
REMARK SMILES IDX 62 56 81 57 46 58 47 59 61 61 82 62 49 63 33 64 34 65 42 66
REMARK SMILES IDX 35 67 37 68 43 69 36 70 38 71 39 72 40 73 41 74 65 75 66 76
REMARK SMILES IDX 74 77 67 78 69 79 75 80 68 81 70 82 71 83 72 84 73 85 50 86
REMARK SMILES IDX 51 87 59 88 52 89 54 90 60 91 53 92 55 93 56 94 57 95 58 96
REMARK H PARENT 11 12 6 24 80 49 48 60
REMARK Flexibility Score: inf
ROOT
ATOM      1  C   UNL A   1      35.211  20.521  25.002  1.00  0.00     0.274 C 
ENDROOT
BRANCH   1   2
ATOM      2  O   UNL A   1      34.451  21.604  24.436  1.00  0.00    -0.462 OA
BRANCH   2   3
ATOM      3  C   UNL A   1      33.120  21.389  24.319  1.00  0.00     0.310 C 
ATOM      4  O   UNL A   1      32.519  20.441  24.807  1.00  0.00    -0.252 OA
BRANCH   3   5
ATOM      5  C   UNL A   1      32.373  22.449  23.599  1.00  0.00     0.118 C 
ATOM      6  C   UNL A   1      32.982  23.816  23.346  1.00  0.00     0.100 C 
ATOM      7  C   UNL A   1      31.677  23.688  24.146  1.00  0.00    -0.009 C 
ATOM      8  C   UNL A   1      31.714  24.079  25.614  1.00  0.00     0.013 C 
ATOM      9  C   UNL A   1      30.363  24.062  23.485  1.00  0.00     0.013 C 
BRANCH   6  10
ATOM     10  C   UNL A   1      33.076  24.213  21.911  1.00  0.00     0.228 C 
ATOM     11  N   UNL A   1      32.981  25.512  21.479  1.00  0.00    -0.326 N 
ATOM     12  H   UNL A   1      33.132  25.607  20.511  1.00  0.00     0.169 HD
ATOM     13  O   UNL A   1      33.279  23.344  21.066  1.00  0.00    -0.274 OA
BRANCH  11  14
ATOM     14  C   UNL A   1      32.717  26.733  22.114  1.00  0.00     0.042 A 
ATOM     15  C   UNL A   1      32.071  28.930  23.748  1.00  0.00     0.060 A 
ATOM     16  C   UNL A   1      33.379  28.732  23.313  1.00  0.00     0.030 A 
ATOM     17  C   UNL A   1      31.060  28.165  23.163  1.00  0.00     0.066 A 
ATOM     18  C   UNL A   1      33.685  27.655  22.479  1.00  0.00     0.028 A 
ATOM     19  C   UNL A   1      31.384  27.036  22.400  1.00  0.00     0.048 A 
ATOM     20  Cl  UNL A   1      29.421  28.714  23.110  1.00  0.00    -0.082 Cl
BRANCH  15  21
ATOM     21  N   UNL A   1      31.869  29.952  24.683  1.00  0.00    -0.325 N 
ATOM     22  C   UNL A   1      31.867  29.926  26.048  1.00  0.00     0.226 C 
ATOM     23  O   UNL A   1      31.609  30.998  26.611  1.00  0.00    -0.274 OA
ATOM     24  H   UNL A   1      31.702  30.839  24.290  1.00  0.00     0.169 HD
BRANCH  22  25
ATOM     25  C   UNL A   1      32.270  28.715  26.903  1.00  0.00     0.072 C 
ATOM     26  C   UNL A   1      31.405  27.478  26.734  1.00  0.00     0.018 C 
ATOM     27  C   UNL A   1      33.758  28.382  26.871  1.00  0.00     0.018 C 
ENDBRANCH  22  25
ENDBRANCH  15  21
ENDBRANCH  11  14
ENDBRANCH   6  10
ENDBRANCH   3   5
ENDBRANCH   2   3
ENDBRANCH   1   2
BRANCH   1  28
ATOM     28  C   UNL A   1      36.711  20.740  24.773  1.00  0.00     0.275 C 
BRANCH  28  29
ATOM     29  O   UNL A   1      37.311  21.460  25.869  1.00  0.00    -0.458 OA
BRANCH  29  30
ATOM     30  C   UNL A   1      38.643  21.281  26.026  1.00  0.00     0.338 C 
ATOM     31  O   UNL A   1      39.297  20.300  25.715  1.00  0.00    -0.246 OA
BRANCH  30  32
ATOM     32  C   UNL A   1      39.261  22.507  26.551  1.00  0.00     0.060 A 
ATOM     33  C   UNL A   1      38.744  23.736  26.135  1.00  0.00     0.016 A 
ATOM     34  C   UNL A   1      40.405  22.455  27.345  1.00  0.00     0.016 A 
ATOM     35  C   UNL A   1      39.372  24.922  26.498  1.00  0.00     0.010 A 
ATOM     36  C   UNL A   1      41.035  23.650  27.714  1.00  0.00     0.010 A 
ATOM     37  C   UNL A   1      40.534  24.889  27.275  1.00  0.00    -0.014 A 
BRANCH  37  38
ATOM     38  C   UNL A   1      41.259  26.152  27.559  1.00  0.00     0.031 A 
ATOM     39  C   UNL A   1      40.597  27.218  28.388  1.00  0.00     0.074 A 
ATOM     40  C   UNL A   1      42.510  26.330  27.097  1.00  0.00     0.049 A 
ATOM     41  N   UNL A   1      41.035  28.409  28.705  1.00  0.00    -0.248 NA
ATOM     42  C   UNL A   1      39.267  26.901  28.933  1.00  0.00     0.031 C 
ATOM     43  C   UNL A   1      43.264  25.355  26.307  1.00  0.00     0.029 A 
ATOM     44  N   UNL A   1      43.364  27.398  27.216  1.00  0.00    -0.354 N 
ATOM     45  C   UNL A   1      40.021  29.000  29.448  1.00  0.00     0.074 A 
ATOM     46  C   UNL A   1      38.943  28.037  29.533  1.00  0.00     0.031 C 
ATOM     47  C   UNL A   1      44.468  25.872  26.009  1.00  0.00     0.029 A 
ATOM     48  C   UNL A   1      44.554  27.225  26.549  1.00  0.00     0.049 A 
ATOM     49  H   UNL A   1      43.146  28.208  27.729  1.00  0.00     0.167 HD
ATOM     50  C   UNL A   1      39.994  30.228  30.019  1.00  0.00     0.034 A 
ATOM     51  C   UNL A   1      45.589  28.071  26.379  1.00  0.00     0.034 A 
ATOM     52  C   UNL A   1      41.083  31.165  29.964  1.00  0.00     0.049 A 
ATOM     53  C   UNL A   1      45.528  29.436  27.012  1.00  0.00     0.074 A 
ATOM     54  C   UNL A   1      41.163  32.427  30.525  1.00  0.00     0.029 A 
ATOM     55  N   UNL A   1      42.286  30.942  29.309  1.00  0.00    -0.354 N 
ATOM     56  N   UNL A   1      44.590  29.953  27.770  1.00  0.00    -0.248 NA
ATOM     57  C   UNL A   1      46.677  30.325  26.788  1.00  0.00     0.031 C 
ATOM     58  C   UNL A   1      42.411  32.972  30.200  1.00  0.00     0.029 A 
ATOM     59  C   UNL A   1      43.115  32.041  29.452  1.00  0.00     0.049 A 
ATOM     60  H   UNL A   1      42.515  30.123  28.814  1.00  0.00     0.167 HD
ATOM     61  C   UNL A   1      45.050  31.211  28.141  1.00  0.00     0.074 A 
ATOM     62  C   UNL A   1      46.360  31.371  27.540  1.00  0.00     0.031 C 
ATOM     63  C   UNL A   1      44.440  32.157  28.898  1.00  0.00     0.034 A 
BRANCH  50  64
ATOM     64  C   UNL A   1      38.753  30.615  30.778  1.00  0.00     0.023 A 
ATOM     65  C   UNL A   1      38.654  30.314  32.152  1.00  0.00     0.012 A 
ATOM     66  C   UNL A   1      37.701  31.305  30.145  1.00  0.00     0.148 A 
ATOM     67  C   UNL A   1      37.514  30.665  32.876  1.00  0.00     0.002 A 
ATOM     68  C   UNL A   1      36.586  31.687  30.882  1.00  0.00     0.091 A 
ATOM     69  F   UNL A   1      37.801  31.560  28.832  1.00  0.00    -0.205 F 
ATOM     70  C   UNL A   1      36.486  31.358  32.243  1.00  0.00     0.022 A 
BRANCH  68  71
ATOM     71  S   UNL A   1      35.241  32.644  30.170  1.00  0.00     0.127 S 
ATOM     72  O   UNL A   1      35.939  33.850  29.727  1.00  0.00    -0.237 OA
ATOM     73  O   UNL A   1      34.780  31.774  29.087  1.00  0.00    -0.237 OA
ATOM     74  O   UNL A   1      34.276  32.833  31.244  1.00  0.00    -0.744 OA
ENDBRANCH  68  71
ENDBRANCH  50  64
BRANCH  51  75
ATOM     75  C   UNL A   1      46.791  27.634  25.613  1.00  0.00     0.023 A 
ATOM     76  C   UNL A   1      46.834  27.841  24.220  1.00  0.00     0.012 A 
ATOM     77  C   UNL A   1      47.897  27.044  26.254  1.00  0.00     0.148 A 
ATOM     78  C   UNL A   1      47.947  27.446  23.477  1.00  0.00     0.002 A 
ATOM     79  C   UNL A   1      49.025  26.703  25.516  1.00  0.00     0.091 A 
ATOM     80  F   UNL A   1      47.829  26.835  27.576  1.00  0.00    -0.205 F 
ATOM     81  C   UNL A   1      49.046  26.890  24.126  1.00  0.00     0.022 A 
BRANCH  79  82
ATOM     82  S   UNL A   1      50.530  26.096  26.287  1.00  0.00     0.127 S 
ATOM     83  O   UNL A   1      50.859  27.188  27.200  1.00  0.00    -0.237 OA
ATOM     84  O   UNL A   1      50.066  24.870  26.937  1.00  0.00    -0.237 OA
ATOM     85  O   UNL A   1      51.468  25.878  25.195  1.00  0.00    -0.744 OA
ENDBRANCH  79  82
ENDBRANCH  51  75
BRANCH  63  86
ATOM     86  C   UNL A   1      45.191  33.436  29.154  1.00  0.00     0.023 A 
ATOM     87  C   UNL A   1      46.052  33.532  30.265  1.00  0.00     0.012 A 
ATOM     88  C   UNL A   1      45.103  34.515  28.251  1.00  0.00     0.148 A 
ATOM     89  C   UNL A   1      46.792  34.692  30.489  1.00  0.00     0.002 A 
ATOM     90  C   UNL A   1      45.877  35.650  28.457  1.00  0.00     0.091 A 
ATOM     91  F   UNL A   1      44.261  34.413  27.211  1.00  0.00    -0.205 F 
ATOM     92  C   UNL A   1      46.714  35.746  29.581  1.00  0.00     0.022 A 
BRANCH  90  93
ATOM     93  S   UNL A   1      45.908  37.014  27.287  1.00  0.00     0.127 S 
ATOM     94  O   UNL A   1      46.548  36.397  26.126  1.00  0.00    -0.237 OA
ATOM     95  O   UNL A   1      44.485  37.311  27.114  1.00  0.00    -0.237 OA
ATOM     96  O   UNL A   1      46.668  38.075  27.934  1.00  0.00    -0.744 OA
ENDBRANCH  90  93
ENDBRANCH  63  86
ENDBRANCH  37  38
ENDBRANCH  30  32
ENDBRANCH  29  30
ENDBRANCH  28  29
ENDBRANCH   1  28
TORSDOF 18
ENDMDL
