MODEL 1
REMARK VINA RESULT:     -13.0      0.000      0.000
REMARK SMILES O=C1C[C@@H](c2cccc(O)c2)c2c(c(C(=O)OCCOC(=O)c3ccc(-c4c5nc(c(-c6cccc(S(=O)(=O)[O-])c6F)c6ccc([nH]6)c(-c6cccc(S(=O)(=O)[O-])c6F)c6nc(c(-c7cccc(S(=O)(=O)[O-])c7F)c7ccc4[nH]7)C=C6)C=C5)cc3)cn2-c2cccc(C(F)(F)F)c2)N1
REMARK SMILES IDX 19 1 18 2 17 3 15 4 16 5 14 6 1 7 2 8 3 9 98 10 4 11 13 12
REMARK SMILES IDX 12 14 87 15 86 16 5 17 6 18 11 19 7 20 9 21 8 22 10 23 88 25
REMARK SMILES IDX 89 26 97 27 90 28 92 29 91 30 93 31 94 32 95 33 96 34 20 35
REMARK SMILES IDX 21 36 22 37 23 38 24 39 85 40 25 41 84 42 26 43 27 44 28 45
REMARK SMILES IDX 78 46 29 47 83 48 77 49 79 50 30 51 82 52 76 53 75 54 31 56
REMARK SMILES IDX 63 57 43 58 62 59 44 60 47 61 61 62 80 63 45 64 46 65 60 67
REMARK SMILES IDX 81 68 48 69 32 70 33 71 41 72 34 73 36 74 42 75 35 76 37 77
REMARK SMILES IDX 38 78 39 79 40 80 64 81 65 82 73 83 66 84 68 85 74 86 67 87
REMARK SMILES IDX 69 88 70 89 71 90 72 91 49 92 50 93 58 94 51 95 53 96 59 97
REMARK SMILES IDX 52 98 54 99 55 100 56 101 57 102
REMARK H PARENT 98 13 10 24 79 55 47 66
REMARK Flexibility Score: inf
ROOT
ATOM      1  C   UNL A   1      37.043  21.604  24.621  1.00  0.00     0.275 C 
ENDROOT
BRANCH   1   2
ATOM      2  C   UNL A   1      35.809  21.106  25.365  1.00  0.00     0.275 C 
BRANCH   2   3
ATOM      3  O   UNL A   1      34.875  22.168  25.626  1.00  0.00    -0.458 OA
BRANCH   3   4
ATOM      4  C   UNL A   1      34.065  22.512  24.576  1.00  0.00     0.341 C 
ATOM      5  O   UNL A   1      33.596  21.723  23.772  1.00  0.00    -0.246 OA
BRANCH   4   6
ATOM      6  C   UNL A   1      33.757  23.934  24.554  1.00  0.00     0.102 A 
ATOM      7  O   UNL A   1      32.896  24.959  19.959  1.00  0.00    -0.275 OA
ATOM      8  C   UNL A   1      33.125  25.303  21.117  1.00  0.00     0.225 C 
ATOM      9  C   UNL A   1      33.402  26.755  21.482  1.00  0.00     0.115 C 
ATOM     10  N   UNL A   1      33.301  24.374  22.111  1.00  0.00    -0.324 N 
ATOM     11  C   UNL A   1      32.947  27.161  22.897  1.00  0.00     0.078 C 
ATOM     12  C   UNL A   1      33.421  24.727  23.434  1.00  0.00     0.078 A 
ATOM     13  H   UNL A   1      33.344  23.420  21.869  1.00  0.00     0.170 HD
ATOM     14  C   UNL A   1      33.182  26.020  23.847  1.00  0.00     0.055 A 
ATOM     15  N   UNL A   1      33.332  26.054  25.223  1.00  0.00    -0.317 N 
ATOM     16  C   UNL A   1      33.721  24.792  25.637  1.00  0.00     0.109 A 
BRANCH  11  17
ATOM     17  C   UNL A   1      31.525  27.694  22.860  1.00  0.00    -0.035 A 
ATOM     18  C   UNL A   1      30.430  26.959  23.338  1.00  0.00     0.005 A 
ATOM     19  C   UNL A   1      31.295  28.977  22.332  1.00  0.00     0.050 A 
ATOM     20  C   UNL A   1      29.146  27.510  23.320  1.00  0.00     0.004 A 
ATOM     21  C   UNL A   1      30.018  29.525  22.346  1.00  0.00     0.115 A 
ATOM     22  C   UNL A   1      28.938  28.800  22.835  1.00  0.00     0.046 A 
BRANCH  21  23
ATOM     23  O   UNL A   1      29.875  30.807  21.904  1.00  0.00    -0.508 OA
ATOM     24  H   UNL A   1      30.386  31.494  22.285  1.00  0.00     0.293 HD
ENDBRANCH  21  23
ENDBRANCH  11  17
BRANCH  15  25
ATOM     25  C   UNL A   1      33.178  27.147  26.110  1.00  0.00     0.046 A 
ATOM     26  C   UNL A   1      31.909  27.432  26.624  1.00  0.00     0.026 A 
ATOM     27  C   UNL A   1      34.260  27.978  26.413  1.00  0.00     0.039 A 
ATOM     28  C   UNL A   1      31.741  28.501  27.502  1.00  0.00     0.003 A 
ATOM     29  C   UNL A   1      34.098  29.065  27.286  1.00  0.00     0.058 A 
ATOM     30  C   UNL A   1      32.830  29.305  27.840  1.00  0.00     0.013 A 
BRANCH  29  31
ATOM     31  C   UNL A   1      35.248  29.981  27.629  1.00  0.00     0.416 C 
ATOM     32  F   UNL A   1      34.963  31.286  27.350  1.00  0.00    -0.166 F 
ATOM     33  F   UNL A   1      35.555  29.954  28.957  1.00  0.00    -0.166 F 
ATOM     34  F   UNL A   1      36.404  29.712  26.965  1.00  0.00    -0.166 F 
ENDBRANCH  29  31
ENDBRANCH  15  25
ENDBRANCH   4   6
ENDBRANCH   3   4
ENDBRANCH   2   3
ENDBRANCH   1   2
BRANCH   1  35
ATOM     35  O   UNL A   1      37.708  22.656  25.318  1.00  0.00    -0.458 OA
BRANCH  35  36
ATOM     36  C   UNL A   1      38.824  22.278  25.981  1.00  0.00     0.338 C 
ATOM     37  O   UNL A   1      39.339  21.170  25.978  1.00  0.00    -0.246 OA
BRANCH  36  38
ATOM     38  C   UNL A   1      39.242  23.342  26.892  1.00  0.00     0.060 A 
ATOM     39  C   UNL A   1      38.589  24.574  26.798  1.00  0.00     0.016 A 
ATOM     40  C   UNL A   1      40.419  23.182  27.636  1.00  0.00     0.016 A 
ATOM     41  C   UNL A   1      39.192  25.683  27.357  1.00  0.00     0.010 A 
ATOM     42  C   UNL A   1      41.027  24.291  28.179  1.00  0.00     0.010 A 
ATOM     43  C   UNL A   1      40.435  25.537  27.987  1.00  0.00    -0.014 A 
BRANCH  43  44
ATOM     44  C   UNL A   1      41.015  26.699  28.638  1.00  0.00     0.031 A 
ATOM     45  C   UNL A   1      42.380  26.984  28.128  1.00  0.00     0.074 A 
ATOM     46  C   UNL A   1      40.319  27.476  29.494  1.00  0.00     0.049 A 
ATOM     47  N   UNL A   1      43.490  26.928  28.786  1.00  0.00    -0.248 NA
ATOM     48  C   UNL A   1      42.558  27.139  26.672  1.00  0.00     0.031 C 
ATOM     49  C   UNL A   1      38.891  27.383  29.814  1.00  0.00     0.029 A 
ATOM     50  N   UNL A   1      40.703  28.607  30.151  1.00  0.00    -0.354 N 
ATOM     51  C   UNL A   1      44.468  27.317  27.875  1.00  0.00     0.074 A 
ATOM     52  C   UNL A   1      43.886  27.190  26.570  1.00  0.00     0.031 C 
ATOM     53  C   UNL A   1      38.485  28.545  30.374  1.00  0.00     0.029 A 
ATOM     54  C   UNL A   1      39.636  29.412  30.556  1.00  0.00     0.049 A 
ATOM     55  H   UNL A   1      41.644  28.836  30.324  1.00  0.00     0.167 HD
ATOM     56  C   UNL A   1      45.549  28.030  28.295  1.00  0.00     0.034 A 
ATOM     57  C   UNL A   1      39.690  30.721  30.918  1.00  0.00     0.034 A 
ATOM     58  C   UNL A   1      45.747  27.873  29.714  1.00  0.00     0.049 A 
ATOM     59  C   UNL A   1      41.097  31.032  31.249  1.00  0.00     0.074 A 
ATOM     60  C   UNL A   1      45.936  26.800  30.563  1.00  0.00     0.029 A 
ATOM     61  N   UNL A   1      45.352  28.923  30.506  1.00  0.00    -0.354 N 
ATOM     62  N   UNL A   1      41.717  30.539  32.282  1.00  0.00    -0.248 NA
ATOM     63  C   UNL A   1      41.948  31.536  30.183  1.00  0.00     0.031 C 
ATOM     64  C   UNL A   1      45.208  27.133  31.743  1.00  0.00     0.029 A 
ATOM     65  C   UNL A   1      44.691  28.420  31.590  1.00  0.00     0.049 A 
ATOM     66  H   UNL A   1      45.517  29.876  30.323  1.00  0.00     0.167 HD
ATOM     67  C   UNL A   1      42.972  30.212  31.791  1.00  0.00     0.074 A 
ATOM     68  C   UNL A   1      43.096  30.950  30.534  1.00  0.00     0.031 C 
ATOM     69  C   UNL A   1      43.656  29.142  32.292  1.00  0.00     0.034 A 
BRANCH  56  70
ATOM     70  C   UNL A   1      46.123  29.215  27.541  1.00  0.00     0.023 A 
ATOM     71  C   UNL A   1      47.533  29.306  27.482  1.00  0.00     0.012 A 
ATOM     72  C   UNL A   1      45.396  30.371  27.165  1.00  0.00     0.148 A 
ATOM     73  C   UNL A   1      48.178  30.502  27.151  1.00  0.00     0.002 A 
ATOM     74  C   UNL A   1      46.041  31.533  26.761  1.00  0.00     0.091 A 
ATOM     75  F   UNL A   1      44.072  30.418  27.313  1.00  0.00    -0.205 F 
ATOM     76  C   UNL A   1      47.433  31.616  26.788  1.00  0.00     0.022 A 
BRANCH  74  77
ATOM     77  S   UNL A   1      45.126  32.992  26.244  1.00  0.00     0.127 S 
ATOM     78  O   UNL A   1      44.616  33.485  27.520  1.00  0.00    -0.237 OA
ATOM     79  O   UNL A   1      46.183  33.805  25.641  1.00  0.00    -0.237 OA
ATOM     80  O   UNL A   1      44.123  32.521  25.297  1.00  0.00    -0.744 OA
ENDBRANCH  74  77
ENDBRANCH  56  70
BRANCH  57  81
ATOM     81  C   UNL A   1      38.698  31.812  30.727  1.00  0.00     0.023 A 
ATOM     82  C   UNL A   1      38.180  32.070  29.439  1.00  0.00     0.012 A 
ATOM     83  C   UNL A   1      38.037  32.391  31.832  1.00  0.00     0.148 A 
ATOM     84  C   UNL A   1      37.024  32.843  29.263  1.00  0.00     0.002 A 
ATOM     85  C   UNL A   1      36.893  33.164  31.653  1.00  0.00     0.091 A 
ATOM     86  F   UNL A   1      38.470  32.105  33.066  1.00  0.00    -0.205 F 
ATOM     87  C   UNL A   1      36.375  33.381  30.370  1.00  0.00     0.022 A 
BRANCH  85  88
ATOM     88  S   UNL A   1      35.987  33.863  33.040  1.00  0.00     0.127 S 
ATOM     89  O   UNL A   1      34.853  34.500  32.369  1.00  0.00    -0.237 OA
ATOM     90  O   UNL A   1      35.650  32.670  33.812  1.00  0.00    -0.237 OA
ATOM     91  O   UNL A   1      36.901  34.796  33.684  1.00  0.00    -0.744 OA
ENDBRANCH  85  88
ENDBRANCH  57  81
BRANCH  69  92
ATOM     92  C   UNL A   1      43.171  28.535  33.581  1.00  0.00     0.023 A 
ATOM     93  C   UNL A   1      42.131  27.583  33.650  1.00  0.00     0.012 A 
ATOM     94  C   UNL A   1      43.892  28.841  34.746  1.00  0.00     0.148 A 
ATOM     95  C   UNL A   1      41.805  26.972  34.865  1.00  0.00     0.002 A 
ATOM     96  C   UNL A   1      43.599  28.196  35.939  1.00  0.00     0.091 A 
ATOM     97  F   UNL A   1      44.874  29.751  34.662  1.00  0.00    -0.205 F 
ATOM     98  C   UNL A   1      42.548  27.268  36.007  1.00  0.00     0.022 A 
BRANCH  96  99
ATOM     99  S   UNL A   1      44.604  28.457  37.398  1.00  0.00     0.127 S 
ATOM    100  O   UNL A   1      44.208  29.804  37.803  1.00  0.00    -0.237 OA
ATOM    101  O   UNL A   1      44.148  27.390  38.292  1.00  0.00    -0.237 OA
ATOM    102  O   UNL A   1      45.987  28.311  36.962  1.00  0.00    -0.744 OA
ENDBRANCH  96  99
ENDBRANCH  69  92
ENDBRANCH  43  44
ENDBRANCH  36  38
ENDBRANCH  35  36
ENDBRANCH   1  35
TORSDOF 18
ENDMDL
MODEL 2
REMARK VINA RESULT:     -12.5      3.169      8.628
REMARK SMILES O=C1C[C@@H](c2cccc(O)c2)c2c(c(C(=O)OCCOC(=O)c3ccc(-c4c5nc(c(-c6cccc(S(=O)(=O)[O-])c6F)c6ccc([nH]6)c(-c6cccc(S(=O)(=O)[O-])c6F)c6nc(c(-c7cccc(S(=O)(=O)[O-])c7F)c7ccc4[nH]7)C=C6)C=C5)cc3)cn2-c2cccc(C(F)(F)F)c2)N1
REMARK SMILES IDX 19 1 18 2 17 3 15 4 16 5 14 6 1 7 2 8 3 9 98 10 4 11 13 12
REMARK SMILES IDX 12 14 87 15 86 16 5 17 6 18 11 19 7 20 9 21 8 22 10 23 88 25
REMARK SMILES IDX 89 26 97 27 90 28 92 29 91 30 93 31 94 32 95 33 96 34 20 35
REMARK SMILES IDX 21 36 22 37 23 38 24 39 85 40 25 41 84 42 26 43 27 44 28 45
REMARK SMILES IDX 78 46 29 47 83 48 77 49 79 50 30 51 82 52 76 53 75 54 31 56
REMARK SMILES IDX 63 57 43 58 62 59 44 60 47 61 61 62 80 63 45 64 46 65 60 67
REMARK SMILES IDX 81 68 48 69 32 70 33 71 41 72 34 73 36 74 42 75 35 76 37 77
REMARK SMILES IDX 38 78 39 79 40 80 64 81 65 82 73 83 66 84 68 85 74 86 67 87
REMARK SMILES IDX 69 88 70 89 71 90 72 91 49 92 50 93 58 94 51 95 53 96 59 97
REMARK SMILES IDX 52 98 54 99 55 100 56 101 57 102
REMARK H PARENT 98 13 10 24 79 55 47 66
REMARK Flexibility Score: inf
ROOT
ATOM      1  C   UNL A   1      32.158  29.994  26.987  1.00  0.00     0.275 C 
ENDROOT
BRANCH   1   2
ATOM      2  C   UNL A   1      31.587  28.618  26.661  1.00  0.00     0.275 C 
BRANCH   2   3
ATOM      3  O   UNL A   1      31.691  28.313  25.260  1.00  0.00    -0.458 OA
BRANCH   3   4
ATOM      4  C   UNL A   1      31.081  27.153  24.862  1.00  0.00     0.341 C 
ATOM      5  O   UNL A   1      29.986  27.091  24.329  1.00  0.00    -0.246 OA
BRANCH   4   6
ATOM      6  C   UNL A   1      31.917  25.982  25.081  1.00  0.00     0.102 A 
ATOM      7  O   UNL A   1      29.159  22.906  27.497  1.00  0.00    -0.275 OA
ATOM      8  C   UNL A   1      30.255  23.275  27.080  1.00  0.00     0.225 C 
ATOM      9  C   UNL A   1      31.547  22.594  27.511  1.00  0.00     0.115 C 
ATOM     10  N   UNL A   1      30.382  24.419  26.334  1.00  0.00    -0.324 N 
ATOM     11  C   UNL A   1      32.667  22.609  26.453  1.00  0.00     0.078 C 
ATOM     12  C   UNL A   1      31.567  24.782  25.742  1.00  0.00     0.078 A 
ATOM     13  H   UNL A   1      29.596  25.002  26.220  1.00  0.00     0.170 HD
ATOM     14  C   UNL A   1      32.640  23.917  25.712  1.00  0.00     0.055 A 
ATOM     15  N   UNL A   1      33.660  24.539  25.013  1.00  0.00    -0.317 N 
ATOM     16  C   UNL A   1      33.225  25.807  24.669  1.00  0.00     0.109 A 
BRANCH  11  17
ATOM     17  C   UNL A   1      32.586  21.368  25.583  1.00  0.00    -0.035 A 
ATOM     18  C   UNL A   1      32.217  21.416  24.230  1.00  0.00     0.005 A 
ATOM     19  C   UNL A   1      32.898  20.119  26.151  1.00  0.00     0.050 A 
ATOM     20  C   UNL A   1      32.197  20.250  23.460  1.00  0.00     0.004 A 
ATOM     21  C   UNL A   1      32.903  18.971  25.367  1.00  0.00     0.115 A 
ATOM     22  C   UNL A   1      32.552  19.025  24.024  1.00  0.00     0.046 A 
BRANCH  21  23
ATOM     23  O   UNL A   1      33.302  17.807  25.954  1.00  0.00    -0.508 OA
ATOM     24  H   UNL A   1      33.270  17.004  25.472  1.00  0.00     0.293 HD
ENDBRANCH  21  23
ENDBRANCH  11  17
BRANCH  15  25
ATOM     25  C   UNL A   1      34.953  24.053  24.702  1.00  0.00     0.046 A 
ATOM     26  C   UNL A   1      35.168  23.434  23.467  1.00  0.00     0.026 A 
ATOM     27  C   UNL A   1      35.985  24.122  25.642  1.00  0.00     0.039 A 
ATOM     28  C   UNL A   1      36.437  22.955  23.144  1.00  0.00     0.003 A 
ATOM     29  C   UNL A   1      37.263  23.630  25.330  1.00  0.00     0.058 A 
ATOM     30  C   UNL A   1      37.480  23.063  24.064  1.00  0.00     0.013 A 
BRANCH  29  31
ATOM     31  C   UNL A   1      38.396  23.689  26.326  1.00  0.00     0.416 C 
ATOM     32  F   UNL A   1      39.444  24.432  25.865  1.00  0.00    -0.166 F 
ATOM     33  F   UNL A   1      38.026  24.275  27.500  1.00  0.00    -0.166 F 
ATOM     34  F   UNL A   1      38.925  22.480  26.654  1.00  0.00    -0.166 F 
ENDBRANCH  29  31
ENDBRANCH  15  25
ENDBRANCH   4   6
ENDBRANCH   3   4
ENDBRANCH   2   3
ENDBRANCH   1   2
BRANCH   1  35
ATOM     35  O   UNL A   1      33.580  30.032  26.869  1.00  0.00    -0.458 OA
BRANCH  35  36
ATOM     36  C   UNL A   1      34.184  30.980  27.620  1.00  0.00     0.338 C 
ATOM     37  O   UNL A   1      33.699  32.035  28.000  1.00  0.00    -0.246 OA
BRANCH  36  38
ATOM     38  C   UNL A   1      35.605  30.666  27.760  1.00  0.00     0.060 A 
ATOM     39  C   UNL A   1      35.992  29.328  27.646  1.00  0.00     0.016 A 
ATOM     40  C   UNL A   1      36.478  31.652  28.243  1.00  0.00     0.016 A 
ATOM     41  C   UNL A   1      37.228  28.956  28.136  1.00  0.00     0.010 A 
ATOM     42  C   UNL A   1      37.703  31.277  28.745  1.00  0.00     0.010 A 
ATOM     43  C   UNL A   1      38.043  29.926  28.736  1.00  0.00    -0.014 A 
BRANCH  43  44
ATOM     44  C   UNL A   1      39.370  29.531  29.173  1.00  0.00     0.031 A 
ATOM     45  C   UNL A   1      39.603  29.887  30.596  1.00  0.00     0.074 A 
ATOM     46  C   UNL A   1      40.208  28.813  28.396  1.00  0.00     0.049 A 
ATOM     47  N   UNL A   1      40.460  30.733  31.061  1.00  0.00    -0.248 NA
ATOM     48  C   UNL A   1      38.631  29.410  31.598  1.00  0.00     0.031 C 
ATOM     49  C   UNL A   1      39.912  28.214  27.091  1.00  0.00     0.029 A 
ATOM     50  N   UNL A   1      41.457  28.338  28.670  1.00  0.00    -0.354 N 
ATOM     51  C   UNL A   1      40.309  30.674  32.444  1.00  0.00     0.074 A 
ATOM     52  C   UNL A   1      39.039  30.054  32.691  1.00  0.00     0.031 C 
ATOM     53  C   UNL A   1      40.830  27.260  26.821  1.00  0.00     0.029 A 
ATOM     54  C   UNL A   1      41.835  27.258  27.870  1.00  0.00     0.049 A 
ATOM     55  H   UNL A   1      42.037  28.721  29.366  1.00  0.00     0.167 HD
ATOM     56  C   UNL A   1      41.388  30.829  33.258  1.00  0.00     0.034 A 
ATOM     57  C   UNL A   1      42.840  26.374  28.110  1.00  0.00     0.034 A 
ATOM     58  C   UNL A   1      42.460  31.499  32.565  1.00  0.00     0.049 A 
ATOM     59  C   UNL A   1      43.747  26.993  29.101  1.00  0.00     0.074 A 
ATOM     60  C   UNL A   1      42.596  32.704  31.904  1.00  0.00     0.029 A 
ATOM     61  N   UNL A   1      43.500  30.710  32.139  1.00  0.00    -0.354 N 
ATOM     62  N   UNL A   1      44.486  28.034  28.846  1.00  0.00    -0.248 NA
ATOM     63  C   UNL A   1      43.495  26.728  30.508  1.00  0.00     0.031 C 
ATOM     64  C   UNL A   1      43.431  32.417  30.784  1.00  0.00     0.029 A 
ATOM     65  C   UNL A   1      43.832  31.083  30.868  1.00  0.00     0.049 A 
ATOM     66  H   UNL A   1      43.932  29.996  32.662  1.00  0.00     0.167 HD
ATOM     67  C   UNL A   1      44.364  28.815  29.985  1.00  0.00     0.074 A 
ATOM     68  C   UNL A   1      43.842  27.914  31.013  1.00  0.00     0.031 C 
ATOM     69  C   UNL A   1      44.405  30.177  29.900  1.00  0.00     0.034 A 
BRANCH  56  70
ATOM     70  C   UNL A   1      41.649  29.978  34.487  1.00  0.00     0.023 A 
ATOM     71  C   UNL A   1      42.207  30.635  35.607  1.00  0.00     0.012 A 
ATOM     72  C   UNL A   1      41.670  28.561  34.507  1.00  0.00     0.148 A 
ATOM     73  C   UNL A   1      42.824  29.926  36.643  1.00  0.00     0.002 A 
ATOM     74  C   UNL A   1      42.213  27.860  35.575  1.00  0.00     0.091 A 
ATOM     75  F   UNL A   1      41.284  27.862  33.439  1.00  0.00    -0.205 F 
ATOM     76  C   UNL A   1      42.825  28.538  36.629  1.00  0.00     0.022 A 
BRANCH  74  77
ATOM     77  S   UNL A   1      42.207  26.062  35.628  1.00  0.00     0.127 S 
ATOM     78  O   UNL A   1      42.772  25.807  36.950  1.00  0.00    -0.237 OA
ATOM     79  O   UNL A   1      40.780  25.768  35.494  1.00  0.00    -0.237 OA
ATOM     80  O   UNL A   1      43.016  25.626  34.496  1.00  0.00    -0.744 OA
ENDBRANCH  74  77
ENDBRANCH  56  70
BRANCH  57  81
ATOM     81  C   UNL A   1      42.943  24.927  27.790  1.00  0.00     0.023 A 
ATOM     82  C   UNL A   1      41.904  24.050  28.173  1.00  0.00     0.012 A 
ATOM     83  C   UNL A   1      43.893  24.456  26.858  1.00  0.00     0.148 A 
ATOM     84  C   UNL A   1      41.795  22.768  27.617  1.00  0.00     0.002 A 
ATOM     85  C   UNL A   1      43.785  23.180  26.313  1.00  0.00     0.091 A 
ATOM     86  F   UNL A   1      44.846  25.293  26.429  1.00  0.00    -0.205 F 
ATOM     87  C   UNL A   1      42.729  22.337  26.680  1.00  0.00     0.022 A 
BRANCH  85  88
ATOM     88  S   UNL A   1      44.937  22.571  25.074  1.00  0.00     0.127 S 
ATOM     89  O   UNL A   1      44.396  21.243  24.785  1.00  0.00    -0.237 OA
ATOM     90  O   UNL A   1      44.771  23.547  24.001  1.00  0.00    -0.237 OA
ATOM     91  O   UNL A   1      46.244  22.555  25.718  1.00  0.00    -0.744 OA
ENDBRANCH  85  88
ENDBRANCH  57  81
BRANCH  69  92
ATOM     92  C   UNL A   1      44.898  30.790  28.617  1.00  0.00     0.023 A 
ATOM     93  C   UNL A   1      44.042  31.214  27.578  1.00  0.00     0.012 A 
ATOM     94  C   UNL A   1      46.270  31.072  28.527  1.00  0.00     0.148 A 
ATOM     95  C   UNL A   1      44.556  31.880  26.461  1.00  0.00     0.002 A 
ATOM     96  C   UNL A   1      46.768  31.777  27.441  1.00  0.00     0.091 A 
ATOM     97  F   UNL A   1      47.069  30.658  29.522  1.00  0.00    -0.205 F 
ATOM     98  C   UNL A   1      45.917  32.175  26.398  1.00  0.00     0.022 A 
BRANCH  96  99
ATOM     99  S   UNL A   1      48.486  32.280  27.379  1.00  0.00     0.127 S 
ATOM    100  O   UNL A   1      49.179  30.994  27.354  1.00  0.00    -0.237 OA
ATOM    101  O   UNL A   1      48.550  33.035  26.126  1.00  0.00    -0.237 OA
ATOM    102  O   UNL A   1      48.708  33.093  28.569  1.00  0.00    -0.744 OA
ENDBRANCH  96  99
ENDBRANCH  69  92
ENDBRANCH  43  44
ENDBRANCH  36  38
ENDBRANCH  35  36
ENDBRANCH   1  35
TORSDOF 18
ENDMDL
MODEL 3
REMARK VINA RESULT:     -12.2      2.924      7.160
REMARK SMILES O=C1C[C@@H](c2cccc(O)c2)c2c(c(C(=O)OCCOC(=O)c3ccc(-c4c5nc(c(-c6cccc(S(=O)(=O)[O-])c6F)c6ccc([nH]6)c(-c6cccc(S(=O)(=O)[O-])c6F)c6nc(c(-c7cccc(S(=O)(=O)[O-])c7F)c7ccc4[nH]7)C=C6)C=C5)cc3)cn2-c2cccc(C(F)(F)F)c2)N1
REMARK SMILES IDX 19 1 18 2 17 3 15 4 16 5 14 6 1 7 2 8 3 9 98 10 4 11 13 12
REMARK SMILES IDX 12 14 87 15 86 16 5 17 6 18 11 19 7 20 9 21 8 22 10 23 88 25
REMARK SMILES IDX 89 26 97 27 90 28 92 29 91 30 93 31 94 32 95 33 96 34 20 35
REMARK SMILES IDX 21 36 22 37 23 38 24 39 85 40 25 41 84 42 26 43 27 44 28 45
REMARK SMILES IDX 78 46 29 47 83 48 77 49 79 50 30 51 82 52 76 53 75 54 31 56
REMARK SMILES IDX 63 57 43 58 62 59 44 60 47 61 61 62 80 63 45 64 46 65 60 67
REMARK SMILES IDX 81 68 48 69 32 70 33 71 41 72 34 73 36 74 42 75 35 76 37 77
REMARK SMILES IDX 38 78 39 79 40 80 64 81 65 82 73 83 66 84 68 85 74 86 67 87
REMARK SMILES IDX 69 88 70 89 71 90 72 91 49 92 50 93 58 94 51 95 53 96 59 97
REMARK SMILES IDX 52 98 54 99 55 100 56 101 57 102
REMARK H PARENT 98 13 10 24 79 55 47 66
REMARK Flexibility Score: inf
ROOT
ATOM      1  C   UNL A   1      35.971  20.338  25.132  1.00  0.00     0.275 C 
ENDROOT
BRANCH   1   2
ATOM      2  C   UNL A   1      35.159  21.198  26.096  1.00  0.00     0.275 C 
BRANCH   2   3
ATOM      3  O   UNL A   1      35.043  22.555  25.636  1.00  0.00    -0.458 OA
BRANCH   3   4
ATOM      4  C   UNL A   1      33.974  22.811  24.818  1.00  0.00     0.341 C 
ATOM      5  O   UNL A   1      33.289  21.955  24.283  1.00  0.00    -0.246 OA
BRANCH   4   6
ATOM      6  C   UNL A   1      33.690  24.233  24.703  1.00  0.00     0.102 A 
ATOM      7  O   UNL A   1      32.688  24.941  20.077  1.00  0.00    -0.275 OA
ATOM      8  C   UNL A   1      32.962  25.362  21.198  1.00  0.00     0.225 C 
ATOM      9  C   UNL A   1      33.276  26.831  21.448  1.00  0.00     0.115 C 
ATOM     10  N   UNL A   1      33.157  24.505  22.251  1.00  0.00    -0.324 N 
ATOM     11  C   UNL A   1      32.877  27.348  22.844  1.00  0.00     0.078 C 
ATOM     12  C   UNL A   1      33.328  24.950  23.540  1.00  0.00     0.078 A 
ATOM     13  H   UNL A   1      33.175  23.535  22.077  1.00  0.00     0.170 HD
ATOM     14  C   UNL A   1      33.125  26.273  23.866  1.00  0.00     0.055 A 
ATOM     15  N   UNL A   1      33.323  26.404  25.230  1.00  0.00    -0.317 N 
ATOM     16  C   UNL A   1      33.705  25.168  25.722  1.00  0.00     0.109 A 
BRANCH  11  17
ATOM     17  C   UNL A   1      31.464  27.903  22.815  1.00  0.00    -0.035 A 
ATOM     18  C   UNL A   1      30.356  27.174  23.273  1.00  0.00     0.005 A 
ATOM     19  C   UNL A   1      31.255  29.202  22.317  1.00  0.00     0.050 A 
ATOM     20  C   UNL A   1      29.080  27.746  23.264  1.00  0.00     0.004 A 
ATOM     21  C   UNL A   1      29.987  29.770  22.341  1.00  0.00     0.115 A 
ATOM     22  C   UNL A   1      28.894  29.051  22.809  1.00  0.00     0.046 A 
BRANCH  21  23
ATOM     23  O   UNL A   1      29.866  31.064  21.928  1.00  0.00    -0.508 OA
ATOM     24  H   UNL A   1      29.040  31.381  21.619  1.00  0.00     0.293 HD
ENDBRANCH  21  23
ENDBRANCH  11  17
BRANCH  15  25
ATOM     25  C   UNL A   1      33.218  27.560  26.040  1.00  0.00     0.046 A 
ATOM     26  C   UNL A   1      31.948  28.048  26.368  1.00  0.00     0.026 A 
ATOM     27  C   UNL A   1      34.361  28.252  26.447  1.00  0.00     0.039 A 
ATOM     28  C   UNL A   1      31.828  29.182  27.168  1.00  0.00     0.003 A 
ATOM     29  C   UNL A   1      34.250  29.404  27.243  1.00  0.00     0.058 A 
ATOM     30  C   UNL A   1      32.970  29.849  27.612  1.00  0.00     0.013 A 
BRANCH  29  31
ATOM     31  C   UNL A   1      35.468  30.173  27.695  1.00  0.00     0.416 C 
ATOM     32  F   UNL A   1      35.756  29.946  29.009  1.00  0.00    -0.166 F 
ATOM     33  F   UNL A   1      36.591  29.815  27.011  1.00  0.00    -0.166 F 
ATOM     34  F   UNL A   1      35.362  31.523  27.574  1.00  0.00    -0.166 F 
ENDBRANCH  29  31
ENDBRANCH  15  25
ENDBRANCH   4   6
ENDBRANCH   3   4
ENDBRANCH   2   3
ENDBRANCH   1   2
BRANCH   1  35
ATOM     35  O   UNL A   1      37.179  20.977  24.723  1.00  0.00    -0.458 OA
BRANCH  35  36
ATOM     36  C   UNL A   1      38.300  20.485  25.295  1.00  0.00     0.338 C 
ATOM     37  O   UNL A   1      38.535  19.316  25.563  1.00  0.00    -0.246 OA
BRANCH  36  38
ATOM     38  C   UNL A   1      39.145  21.587  25.753  1.00  0.00     0.060 A 
ATOM     39  C   UNL A   1      40.420  21.276  26.233  1.00  0.00     0.016 A 
ATOM     40  C   UNL A   1      38.575  22.856  25.931  1.00  0.00     0.016 A 
ATOM     41  C   UNL A   1      41.079  22.211  27.005  1.00  0.00     0.010 A 
ATOM     42  C   UNL A   1      39.227  23.782  26.714  1.00  0.00     0.010 A 
ATOM     43  C   UNL A   1      40.447  23.430  27.287  1.00  0.00    -0.014 A 
BRANCH  43  44
ATOM     44  C   UNL A   1      41.189  24.430  28.033  1.00  0.00     0.031 A 
ATOM     45  C   UNL A   1      40.455  25.720  28.092  1.00  0.00     0.074 A 
ATOM     46  C   UNL A   1      42.334  24.148  28.689  1.00  0.00     0.049 A 
ATOM     47  N   UNL A   1      40.811  26.848  27.574  1.00  0.00    -0.248 NA
ATOM     48  C   UNL A   1      39.070  25.707  28.598  1.00  0.00     0.031 C 
ATOM     49  C   UNL A   1      42.945  22.828  28.877  1.00  0.00     0.029 A 
ATOM     50  N   UNL A   1      43.120  24.957  29.455  1.00  0.00    -0.354 N 
ATOM     51  C   UNL A   1      39.810  27.744  27.940  1.00  0.00     0.074 A 
ATOM     52  C   UNL A   1      38.680  26.954  28.336  1.00  0.00     0.031 C 
ATOM     53  C   UNL A   1      43.828  22.889  29.899  1.00  0.00     0.029 A 
ATOM     54  C   UNL A   1      43.929  24.264  30.358  1.00  0.00     0.049 A 
ATOM     55  H   UNL A   1      43.118  25.938  29.379  1.00  0.00     0.167 HD
ATOM     56  C   UNL A   1      40.118  29.042  28.207  1.00  0.00     0.034 A 
ATOM     57  C   UNL A   1      44.552  24.771  31.455  1.00  0.00     0.034 A 
ATOM     58  C   UNL A   1      41.382  29.402  27.614  1.00  0.00     0.049 A 
ATOM     59  C   UNL A   1      44.611  26.239  31.292  1.00  0.00     0.074 A 
ATOM     60  C   UNL A   1      41.903  29.384  26.335  1.00  0.00     0.029 A 
ATOM     61  N   UNL A   1      42.457  29.476  28.465  1.00  0.00    -0.354 N 
ATOM     62  N   UNL A   1      45.337  26.833  30.389  1.00  0.00    -0.248 NA
ATOM     63  C   UNL A   1      43.518  27.026  31.840  1.00  0.00     0.031 C 
ATOM     64  C   UNL A   1      43.262  28.987  26.498  1.00  0.00     0.029 A 
ATOM     65  C   UNL A   1      43.523  28.870  27.864  1.00  0.00     0.049 A 
ATOM     66  H   UNL A   1      42.458  29.893  29.356  1.00  0.00     0.167 HD
ATOM     67  C   UNL A   1      44.509  27.835  29.904  1.00  0.00     0.074 A 
ATOM     68  C   UNL A   1      43.455  27.980  30.908  1.00  0.00     0.031 C 
ATOM     69  C   UNL A   1      44.588  28.228  28.599  1.00  0.00     0.034 A 
BRANCH  56  70
ATOM     70  C   UNL A   1      39.536  29.826  29.369  1.00  0.00     0.023 A 
ATOM     71  C   UNL A   1      39.044  31.119  29.079  1.00  0.00     0.012 A 
ATOM     72  C   UNL A   1      39.718  29.509  30.738  1.00  0.00     0.148 A 
ATOM     73  C   UNL A   1      38.827  32.066  30.085  1.00  0.00     0.002 A 
ATOM     74  C   UNL A   1      39.427  30.426  31.739  1.00  0.00     0.091 A 
ATOM     75  F   UNL A   1      40.297  28.363  31.098  1.00  0.00    -0.205 F 
ATOM     76  C   UNL A   1      39.016  31.720  31.417  1.00  0.00     0.022 A 
BRANCH  74  77
ATOM     77  S   UNL A   1      39.616  30.018  33.480  1.00  0.00     0.127 S 
ATOM     78  O   UNL A   1      39.226  31.273  34.118  1.00  0.00    -0.237 OA
ATOM     79  O   UNL A   1      38.659  28.921  33.631  1.00  0.00    -0.237 OA
ATOM     80  O   UNL A   1      41.008  29.624  33.650  1.00  0.00    -0.744 OA
ENDBRANCH  74  77
ENDBRANCH  56  70
BRANCH  57  81
ATOM     81  C   UNL A   1      44.843  24.143  32.770  1.00  0.00     0.023 A 
ATOM     82  C   UNL A   1      43.972  23.157  33.284  1.00  0.00     0.012 A 
ATOM     83  C   UNL A   1      46.112  24.280  33.373  1.00  0.00     0.148 A 
ATOM     84  C   UNL A   1      44.367  22.314  34.332  1.00  0.00     0.002 A 
ATOM     85  C   UNL A   1      46.498  23.445  34.419  1.00  0.00     0.091 A 
ATOM     86  F   UNL A   1      46.980  25.161  32.859  1.00  0.00    -0.205 F 
ATOM     87  C   UNL A   1      45.632  22.452  34.892  1.00  0.00     0.022 A 
BRANCH  85  88
ATOM     88  S   UNL A   1      48.130  23.546  35.167  1.00  0.00     0.127 S 
ATOM     89  O   UNL A   1      48.009  22.606  36.282  1.00  0.00    -0.237 OA
ATOM     90  O   UNL A   1      48.991  23.096  34.077  1.00  0.00    -0.237 OA
ATOM     91  O   UNL A   1      48.297  24.935  35.572  1.00  0.00    -0.744 OA
ENDBRANCH  85  88
ENDBRANCH  57  81
BRANCH  69  92
ATOM     92  C   UNL A   1      45.785  27.789  27.800  1.00  0.00     0.023 A 
ATOM     93  C   UNL A   1      47.078  28.328  27.973  1.00  0.00     0.012 A 
ATOM     94  C   UNL A   1      45.615  26.692  26.940  1.00  0.00     0.148 A 
ATOM     95  C   UNL A   1      48.170  27.797  27.280  1.00  0.00     0.002 A 
ATOM     96  C   UNL A   1      46.709  26.136  26.292  1.00  0.00     0.091 A 
ATOM     97  F   UNL A   1      44.378  26.195  26.784  1.00  0.00    -0.205 F 
ATOM     98  C   UNL A   1      47.988  26.691  26.449  1.00  0.00     0.022 A 
BRANCH  96  99
ATOM     99  S   UNL A   1      46.539  24.645  25.314  1.00  0.00     0.127 S 
ATOM    100  O   UNL A   1      46.737  23.600  26.315  1.00  0.00    -0.237 OA
ATOM    101  O   UNL A   1      45.171  24.755  24.804  1.00  0.00    -0.237 OA
ATOM    102  O   UNL A   1      47.563  24.729  24.278  1.00  0.00    -0.744 OA
ENDBRANCH  96  99
ENDBRANCH  69  92
ENDBRANCH  43  44
ENDBRANCH  36  38
ENDBRANCH  35  36
ENDBRANCH   1  35
TORSDOF 18
ENDMDL
