MODEL 1
REMARK VINA RESULT:     -10.7      0.000      0.000
REMARK SMILES CC1(C)CCC(CCCO)(C(=O)OCCOC(=O)c2ccc(-c3c4nc(c(-c5cccc(S(=O)(=O)[O-])c5F)c5ccc([nH]5)c(-c5cccc(S(=O)(=O)[O-])c5F)c5nc(c(-c6cccc(S(=O)(=O)[O-])c6F)c6ccc3[nH]6)C=C5)C=C4)cc2)CC1
REMARK SMILES IDX 14 1 13 2 11 3 12 4 6 5 1 6 2 7 3 8 4 9 83 10 5 11 82 12
REMARK SMILES IDX 7 13 8 14 9 15 10 16 15 18 16 19 17 20 18 21 19 22 20 23
REMARK SMILES IDX 81 24 21 25 80 26 22 27 23 28 24 29 74 30 25 31 79 32 73 33
REMARK SMILES IDX 75 34 26 35 78 36 72 37 71 38 27 40 59 41 39 42 58 43 40 44
REMARK SMILES IDX 43 45 57 46 76 47 41 48 42 49 56 51 77 52 44 53 28 54 29 55
REMARK SMILES IDX 37 56 30 57 32 58 38 59 31 60 33 61 34 62 35 63 36 64 60 65
REMARK SMILES IDX 61 66 69 67 62 68 64 69 70 70 63 71 65 72 66 73 67 74 68 75
REMARK SMILES IDX 45 76 46 77 54 78 47 79 49 80 55 81 48 82 50 83 51 84 52 85
REMARK SMILES IDX 53 86
REMARK H PARENT 10 17 75 39 43 50
REMARK Flexibility Score: inf
ROOT
ATOM      1  C   UNL A   1      33.250  28.936  24.420  1.00  0.00     0.274 C 
ENDROOT
BRANCH   1   2
ATOM      2  O   UNL A   1      33.477  27.554  24.787  1.00  0.00    -0.462 OA
BRANCH   2   3
ATOM      3  C   UNL A   1      33.036  26.608  23.914  1.00  0.00     0.312 C 
ATOM      4  O   UNL A   1      32.736  26.843  22.747  1.00  0.00    -0.252 OA
BRANCH   3   5
ATOM      5  C   UNL A   1      32.758  25.247  24.578  1.00  0.00     0.068 C 
ATOM      6  C   UNL A   1      34.721  21.980  24.682  1.00  0.00     0.011 C 
ATOM      7  C   UNL A   1      35.120  23.347  24.099  1.00  0.00    -0.035 C 
ATOM      8  C   UNL A   1      36.525  23.211  23.474  1.00  0.00     0.011 C 
ATOM      9  C   UNL A   1      34.145  23.769  22.993  1.00  0.00     0.007 C 
ATOM     10  C   UNL A   1      35.146  24.440  25.188  1.00  0.00     0.007 C 
ATOM     11  C   UNL A   1      32.755  24.141  23.488  1.00  0.00     0.019 C 
ATOM     12  C   UNL A   1      33.756  24.861  25.694  1.00  0.00     0.019 C 
BRANCH   5  13
ATOM     13  C   UNL A   1      31.296  25.318  25.130  1.00  0.00     0.021 C 
BRANCH  13  14
ATOM     14  C   UNL A   1      30.991  24.691  26.497  1.00  0.00     0.029 C 
BRANCH  14  15
ATOM     15  C   UNL A   1      30.394  23.288  26.512  1.00  0.00     0.156 C 
BRANCH  15  16
ATOM     16  O   UNL A   1      31.330  22.301  26.117  1.00  0.00    -0.396 OA
ATOM     17  H   UNL A   1      32.022  22.221  26.794  1.00  0.00     0.210 HD
ENDBRANCH  15  16
ENDBRANCH  14  15
ENDBRANCH  13  14
ENDBRANCH   5  13
ENDBRANCH   3   5
ENDBRANCH   2   3
ENDBRANCH   1   2
BRANCH   1  18
ATOM     18  C   UNL A   1      32.022  29.489  25.127  1.00  0.00     0.275 C 
BRANCH  18  19
ATOM     19  O   UNL A   1      32.343  29.642  26.514  1.00  0.00    -0.458 OA
BRANCH  19  20
ATOM     20  C   UNL A   1      32.880  30.828  26.869  1.00  0.00     0.338 C 
ATOM     21  O   UNL A   1      32.328  31.923  26.820  1.00  0.00    -0.246 OA
BRANCH  20  22
ATOM     22  C   UNL A   1      34.242  30.620  27.401  1.00  0.00     0.060 A 
ATOM     23  C   UNL A   1      34.706  29.338  27.706  1.00  0.00     0.016 A 
ATOM     24  C   UNL A   1      35.028  31.731  27.708  1.00  0.00     0.016 A 
ATOM     25  C   UNL A   1      35.886  29.177  28.432  1.00  0.00     0.010 A 
ATOM     26  C   UNL A   1      36.269  31.554  28.324  1.00  0.00     0.010 A 
ATOM     27  C   UNL A   1      36.697  30.278  28.734  1.00  0.00    -0.014 A 
BRANCH  27  28
ATOM     28  C   UNL A   1      37.985  30.125  29.470  1.00  0.00     0.031 A 
ATOM     29  C   UNL A   1      39.087  29.274  28.894  1.00  0.00     0.074 A 
ATOM     30  C   UNL A   1      38.151  30.688  30.683  1.00  0.00     0.049 A 
ATOM     31  N   UNL A   1      40.127  28.754  29.492  1.00  0.00    -0.248 NA
ATOM     32  C   UNL A   1      38.994  28.944  27.460  1.00  0.00     0.031 C 
ATOM     33  C   UNL A   1      37.186  31.558  31.358  1.00  0.00     0.029 A 
ATOM     34  N   UNL A   1      39.187  30.587  31.583  1.00  0.00    -0.354 N 
ATOM     35  C   UNL A   1      40.754  27.956  28.541  1.00  0.00     0.074 A 
ATOM     36  C   UNL A   1      39.996  28.086  27.314  1.00  0.00     0.031 C 
ATOM     37  C   UNL A   1      37.674  31.922  32.550  1.00  0.00     0.029 A 
ATOM     38  C   UNL A   1      38.935  31.228  32.775  1.00  0.00     0.049 A 
ATOM     39  H   UNL A   1      40.024  30.106  31.392  1.00  0.00     0.167 HD
ATOM     40  C   UNL A   1      41.858  27.186  28.681  1.00  0.00     0.034 A 
ATOM     41  C   UNL A   1      39.599  31.208  33.947  1.00  0.00     0.034 A 
ATOM     42  C   UNL A   1      42.663  27.141  29.873  1.00  0.00     0.049 A 
ATOM     43  C   UNL A   1      40.838  30.372  34.072  1.00  0.00     0.074 A 
ATOM     44  C   UNL A   1      43.829  26.430  30.098  1.00  0.00     0.029 A 
ATOM     45  N   UNL A   1      42.402  27.857  31.032  1.00  0.00    -0.354 N 
ATOM     46  N   UNL A   1      41.418  29.624  33.164  1.00  0.00    -0.248 NA
ATOM     47  C   UNL A   1      41.512  30.372  35.376  1.00  0.00     0.031 C 
ATOM     48  C   UNL A   1      44.276  26.720  31.392  1.00  0.00     0.029 A 
ATOM     49  C   UNL A   1      43.388  27.612  31.972  1.00  0.00     0.049 A 
ATOM     50  H   UNL A   1      41.628  28.450  31.165  1.00  0.00     0.167 HD
ATOM     51  C   UNL A   1      42.529  29.069  33.786  1.00  0.00     0.074 A 
ATOM     52  C   UNL A   1      42.558  29.592  35.137  1.00  0.00     0.031 C 
ATOM     53  C   UNL A   1      43.427  28.181  33.294  1.00  0.00     0.034 A 
BRANCH  40  54
ATOM     54  C   UNL A   1      42.291  26.345  27.509  1.00  0.00     0.023 A 
ATOM     55  C   UNL A   1      43.156  26.889  26.540  1.00  0.00     0.012 A 
ATOM     56  C   UNL A   1      41.905  24.992  27.412  1.00  0.00     0.148 A 
ATOM     57  C   UNL A   1      43.618  26.105  25.483  1.00  0.00     0.002 A 
ATOM     58  C   UNL A   1      42.397  24.208  26.375  1.00  0.00     0.091 A 
ATOM     59  F   UNL A   1      41.058  24.500  28.328  1.00  0.00    -0.205 F 
ATOM     60  C   UNL A   1      43.248  24.763  25.406  1.00  0.00     0.022 A 
BRANCH  58  61
ATOM     61  S   UNL A   1      42.033  22.453  26.244  1.00  0.00     0.127 S 
ATOM     62  O   UNL A   1      42.632  21.932  27.471  1.00  0.00    -0.237 OA
ATOM     63  O   UNL A   1      40.569  22.436  26.226  1.00  0.00    -0.237 OA
ATOM     64  O   UNL A   1      42.654  22.013  25.002  1.00  0.00    -0.744 OA
ENDBRANCH  58  61
ENDBRANCH  40  54
BRANCH  41  65
ATOM     65  C   UNL A   1      39.082  32.014  35.088  1.00  0.00     0.023 A 
ATOM     66  C   UNL A   1      38.193  31.422  36.004  1.00  0.00     0.012 A 
ATOM     67  C   UNL A   1      39.545  33.323  35.331  1.00  0.00     0.148 A 
ATOM     68  C   UNL A   1      37.775  32.117  37.139  1.00  0.00     0.002 A 
ATOM     69  C   UNL A   1      39.180  33.983  36.499  1.00  0.00     0.091 A 
ATOM     70  F   UNL A   1      40.368  33.887  34.434  1.00  0.00    -0.205 F 
ATOM     71  C   UNL A   1      38.284  33.389  37.397  1.00  0.00     0.022 A 
BRANCH  69  72
ATOM     72  S   UNL A   1      39.949  35.537  36.972  1.00  0.00     0.127 S 
ATOM     73  O   UNL A   1      39.297  35.822  38.247  1.00  0.00    -0.237 OA
ATOM     74  O   UNL A   1      41.362  35.170  37.073  1.00  0.00    -0.237 OA
ATOM     75  O   UNL A   1      39.653  36.452  35.877  1.00  0.00    -0.744 OA
ENDBRANCH  69  72
ENDBRANCH  41  65
BRANCH  53  76
ATOM     76  C   UNL A   1      44.521  27.725  34.216  1.00  0.00     0.023 A 
ATOM     77  C   UNL A   1      45.716  28.467  34.284  1.00  0.00     0.012 A 
ATOM     78  C   UNL A   1      44.348  26.608  35.054  1.00  0.00     0.148 A 
ATOM     79  C   UNL A   1      46.733  28.091  35.159  1.00  0.00     0.002 A 
ATOM     80  C   UNL A   1      45.353  26.258  35.948  1.00  0.00     0.091 A 
ATOM     81  F   UNL A   1      43.213  25.901  34.955  1.00  0.00    -0.205 F 
ATOM     82  C   UNL A   1      46.548  26.995  35.998  1.00  0.00     0.022 A 
BRANCH  80  83
ATOM     83  S   UNL A   1      45.158  24.903  37.112  1.00  0.00     0.127 S 
ATOM     84  O   UNL A   1      44.192  25.457  38.058  1.00  0.00    -0.237 OA
ATOM     85  O   UNL A   1      44.636  23.829  36.264  1.00  0.00    -0.237 OA
ATOM     86  O   UNL A   1      46.491  24.649  37.644  1.00  0.00    -0.744 OA
ENDBRANCH  80  83
ENDBRANCH  53  76
ENDBRANCH  27  28
ENDBRANCH  20  22
ENDBRANCH  19  20
ENDBRANCH  18  19
ENDBRANCH   1  18
TORSDOF 18
ENDMDL
MODEL 2
REMARK VINA RESULT:     -10.6      5.048      9.856
REMARK SMILES CC1(C)CCC(CCCO)(C(=O)OCCOC(=O)c2ccc(-c3c4nc(c(-c5cccc(S(=O)(=O)[O-])c5F)c5ccc([nH]5)c(-c5cccc(S(=O)(=O)[O-])c5F)c5nc(c(-c6cccc(S(=O)(=O)[O-])c6F)c6ccc3[nH]6)C=C5)C=C4)cc2)CC1
REMARK SMILES IDX 14 1 13 2 11 3 12 4 6 5 1 6 2 7 3 8 4 9 83 10 5 11 82 12
REMARK SMILES IDX 7 13 8 14 9 15 10 16 15 18 16 19 17 20 18 21 19 22 20 23
REMARK SMILES IDX 81 24 21 25 80 26 22 27 23 28 24 29 74 30 25 31 79 32 73 33
REMARK SMILES IDX 75 34 26 35 78 36 72 37 71 38 27 40 59 41 39 42 58 43 40 44
REMARK SMILES IDX 43 45 57 46 76 47 41 48 42 49 56 51 77 52 44 53 28 54 29 55
REMARK SMILES IDX 37 56 30 57 32 58 38 59 31 60 33 61 34 62 35 63 36 64 60 65
REMARK SMILES IDX 61 66 69 67 62 68 64 69 70 70 63 71 65 72 66 73 67 74 68 75
REMARK SMILES IDX 45 76 46 77 54 78 47 79 49 80 55 81 48 82 50 83 51 84 52 85
REMARK SMILES IDX 53 86
REMARK H PARENT 10 17 75 39 43 50
REMARK Flexibility Score: inf
ROOT
ATOM      1  C   UNL A   1      36.295  23.059  23.549  1.00  0.00     0.274 C 
ENDROOT
BRANCH   1   2
ATOM      2  O   UNL A   1      35.049  23.171  24.277  1.00  0.00    -0.462 OA
BRANCH   2   3
ATOM      3  C   UNL A   1      33.976  22.515  23.758  1.00  0.00     0.312 C 
ATOM      4  O   UNL A   1      33.600  22.632  22.595  1.00  0.00    -0.252 OA
BRANCH   3   5
ATOM      5  C   UNL A   1      33.154  21.757  24.816  1.00  0.00     0.068 C 
ATOM      6  C   UNL A   1      32.385  18.057  25.322  1.00  0.00     0.011 C 
ATOM      7  C   UNL A   1      33.321  18.735  24.306  1.00  0.00    -0.035 C 
ATOM      8  C   UNL A   1      33.940  17.637  23.415  1.00  0.00     0.011 C 
ATOM      9  C   UNL A   1      32.537  19.696  23.405  1.00  0.00     0.007 C 
ATOM     10  C   UNL A   1      34.448  19.518  25.013  1.00  0.00     0.007 C 
ATOM     11  C   UNL A   1      32.034  20.948  24.108  1.00  0.00     0.019 C 
ATOM     12  C   UNL A   1      33.981  20.806  25.712  1.00  0.00     0.019 C 
BRANCH   5  13
ATOM     13  C   UNL A   1      32.429  22.847  25.672  1.00  0.00     0.021 C 
BRANCH  13  14
ATOM     14  C   UNL A   1      30.927  23.078  25.458  1.00  0.00     0.029 C 
BRANCH  14  15
ATOM     15  C   UNL A   1      30.004  22.874  26.655  1.00  0.00     0.156 C 
BRANCH  15  16
ATOM     16  O   UNL A   1      30.711  22.477  27.817  1.00  0.00    -0.396 OA
ATOM     17  H   UNL A   1      31.654  22.677  27.708  1.00  0.00     0.210 HD
ENDBRANCH  15  16
ENDBRANCH  14  15
ENDBRANCH  13  14
ENDBRANCH   5  13
ENDBRANCH   3   5
ENDBRANCH   2   3
ENDBRANCH   1   2
BRANCH   1  18
ATOM     18  C   UNL A   1      37.065  21.821  23.981  1.00  0.00     0.275 C 
BRANCH  18  19
ATOM     19  O   UNL A   1      37.259  21.895  25.398  1.00  0.00    -0.458 OA
BRANCH  19  20
ATOM     20  C   UNL A   1      38.484  21.549  25.847  1.00  0.00     0.338 C 
ATOM     21  O   UNL A   1      39.030  20.459  25.707  1.00  0.00    -0.246 OA
BRANCH  20  22
ATOM     22  C   UNL A   1      39.125  22.711  26.493  1.00  0.00     0.060 A 
ATOM     23  C   UNL A   1      38.727  24.014  26.185  1.00  0.00     0.016 A 
ATOM     24  C   UNL A   1      40.218  22.502  27.334  1.00  0.00     0.016 A 
ATOM     25  C   UNL A   1      39.497  25.097  26.608  1.00  0.00     0.010 A 
ATOM     26  C   UNL A   1      40.911  23.597  27.856  1.00  0.00     0.010 A 
ATOM     27  C   UNL A   1      40.588  24.909  27.467  1.00  0.00    -0.014 A 
BRANCH  27  28
ATOM     28  C   UNL A   1      41.398  26.057  27.967  1.00  0.00     0.031 A 
ATOM     29  C   UNL A   1      40.746  27.143  28.784  1.00  0.00     0.074 A 
ATOM     30  C   UNL A   1      42.701  26.168  27.640  1.00  0.00     0.049 A 
ATOM     31  N   UNL A   1      41.170  28.354  29.036  1.00  0.00    -0.248 NA
ATOM     32  C   UNL A   1      39.431  26.834  29.374  1.00  0.00     0.031 C 
ATOM     33  C   UNL A   1      43.475  25.186  26.879  1.00  0.00     0.029 A 
ATOM     34  N   UNL A   1      43.602  27.180  27.883  1.00  0.00    -0.354 N 
ATOM     35  C   UNL A   1      40.138  28.984  29.723  1.00  0.00     0.074 A 
ATOM     36  C   UNL A   1      39.078  28.010  29.878  1.00  0.00     0.031 C 
ATOM     37  C   UNL A   1      44.730  25.630  26.729  1.00  0.00     0.029 A 
ATOM     38  C   UNL A   1      44.825  26.974  27.285  1.00  0.00     0.049 A 
ATOM     39  H   UNL A   1      43.393  27.970  28.430  1.00  0.00     0.167 HD
ATOM     40  C   UNL A   1      40.082  30.257  30.179  1.00  0.00     0.034 A 
ATOM     41  C   UNL A   1      45.883  27.792  27.131  1.00  0.00     0.034 A 
ATOM     42  C   UNL A   1      41.179  31.186  30.110  1.00  0.00     0.049 A 
ATOM     43  C   UNL A   1      45.811  29.189  27.671  1.00  0.00     0.074 A 
ATOM     44  C   UNL A   1      41.239  32.484  30.589  1.00  0.00     0.029 A 
ATOM     45  N   UNL A   1      42.417  30.909  29.552  1.00  0.00    -0.354 N 
ATOM     46  N   UNL A   1      44.830  29.770  28.319  1.00  0.00    -0.248 NA
ATOM     47  C   UNL A   1      46.986  30.045  27.461  1.00  0.00     0.031 C 
ATOM     48  C   UNL A   1      42.516  32.990  30.323  1.00  0.00     0.029 A 
ATOM     49  C   UNL A   1      43.251  32.006  29.681  1.00  0.00     0.049 A 
ATOM     50  H   UNL A   1      42.666  30.057  29.125  1.00  0.00     0.167 HD
ATOM     51  C   UNL A   1      45.270  31.057  28.597  1.00  0.00     0.074 A 
ATOM     52  C   UNL A   1      46.619  31.160  28.078  1.00  0.00     0.031 C 
ATOM     53  C   UNL A   1      44.607  32.073  29.201  1.00  0.00     0.034 A 
BRANCH  40  54
ATOM     54  C   UNL A   1      38.805  30.723  30.825  1.00  0.00     0.023 A 
ATOM     55  C   UNL A   1      38.672  30.673  32.226  1.00  0.00     0.012 A 
ATOM     56  C   UNL A   1      37.770  31.287  30.051  1.00  0.00     0.148 A 
ATOM     57  C   UNL A   1      37.521  31.160  32.846  1.00  0.00     0.002 A 
ATOM     58  C   UNL A   1      36.642  31.803  30.679  1.00  0.00     0.091 A 
ATOM     59  F   UNL A   1      37.903  31.301  28.717  1.00  0.00    -0.205 F 
ATOM     60  C   UNL A   1      36.512  31.735  32.075  1.00  0.00     0.022 A 
BRANCH  58  61
ATOM     61  S   UNL A   1      35.330  32.627  29.768  1.00  0.00     0.127 S 
ATOM     62  O   UNL A   1      34.901  31.575  28.847  1.00  0.00    -0.237 OA
ATOM     63  O   UNL A   1      34.365  32.943  30.823  1.00  0.00    -0.237 OA
ATOM     64  O   UNL A   1      35.950  33.792  29.151  1.00  0.00    -0.744 OA
ENDBRANCH  58  61
ENDBRANCH  40  54
BRANCH  41  65
ATOM     65  C   UNL A   1      47.095  27.288  26.426  1.00  0.00     0.023 A 
ATOM     66  C   UNL A   1      47.346  27.703  25.104  1.00  0.00     0.012 A 
ATOM     67  C   UNL A   1      48.049  26.489  27.086  1.00  0.00     0.148 A 
ATOM     68  C   UNL A   1      48.524  27.332  24.456  1.00  0.00     0.002 A 
ATOM     69  C   UNL A   1      49.251  26.182  26.459  1.00  0.00     0.091 A 
ATOM     70  F   UNL A   1      47.782  26.074  28.333  1.00  0.00    -0.205 F 
ATOM     71  C   UNL A   1      49.485  26.590  25.140  1.00  0.00     0.022 A 
BRANCH  69  72
ATOM     72  S   UNL A   1      50.596  25.393  27.353  1.00  0.00     0.127 S 
ATOM     73  O   UNL A   1      50.961  26.423  28.321  1.00  0.00    -0.237 OA
ATOM     74  O   UNL A   1      49.944  24.215  27.926  1.00  0.00    -0.237 OA
ATOM     75  O   UNL A   1      51.591  25.080  26.335  1.00  0.00    -0.744 OA
ENDBRANCH  69  72
ENDBRANCH  41  65
BRANCH  53  76
ATOM     76  C   UNL A   1      45.331  33.382  29.341  1.00  0.00     0.023 A 
ATOM     77  C   UNL A   1      46.121  33.611  30.484  1.00  0.00     0.012 A 
ATOM     78  C   UNL A   1      45.282  34.353  28.324  1.00  0.00     0.148 A 
ATOM     79  C   UNL A   1      46.836  34.800  30.622  1.00  0.00     0.002 A 
ATOM     80  C   UNL A   1      46.023  35.521  28.453  1.00  0.00     0.091 A 
ATOM     81  F   UNL A   1      44.503  34.124  27.256  1.00  0.00    -0.205 F 
ATOM     82  C   UNL A   1      46.796  35.748  29.604  1.00  0.00     0.022 A 
BRANCH  80  83
ATOM     83  S   UNL A   1      46.080  36.758  27.151  1.00  0.00     0.127 S 
ATOM     84  O   UNL A   1      44.694  37.218  27.114  1.00  0.00    -0.237 OA
ATOM     85  O   UNL A   1      47.033  37.735  27.683  1.00  0.00    -0.237 OA
ATOM     86  O   UNL A   1      46.547  36.055  25.963  1.00  0.00    -0.744 OA
ENDBRANCH  80  83
ENDBRANCH  53  76
ENDBRANCH  27  28
ENDBRANCH  20  22
ENDBRANCH  19  20
ENDBRANCH  18  19
ENDBRANCH   1  18
TORSDOF 18
ENDMDL
MODEL 3
REMARK VINA RESULT:     -10.5      5.265      9.945
REMARK SMILES CC1(C)CCC(CCCO)(C(=O)OCCOC(=O)c2ccc(-c3c4nc(c(-c5cccc(S(=O)(=O)[O-])c5F)c5ccc([nH]5)c(-c5cccc(S(=O)(=O)[O-])c5F)c5nc(c(-c6cccc(S(=O)(=O)[O-])c6F)c6ccc3[nH]6)C=C5)C=C4)cc2)CC1
REMARK SMILES IDX 14 1 13 2 11 3 12 4 6 5 1 6 2 7 3 8 4 9 83 10 5 11 82 12
REMARK SMILES IDX 7 13 8 14 9 15 10 16 15 18 16 19 17 20 18 21 19 22 20 23
REMARK SMILES IDX 81 24 21 25 80 26 22 27 23 28 24 29 74 30 25 31 79 32 73 33
REMARK SMILES IDX 75 34 26 35 78 36 72 37 71 38 27 40 59 41 39 42 58 43 40 44
REMARK SMILES IDX 43 45 57 46 76 47 41 48 42 49 56 51 77 52 44 53 28 54 29 55
REMARK SMILES IDX 37 56 30 57 32 58 38 59 31 60 33 61 34 62 35 63 36 64 60 65
REMARK SMILES IDX 61 66 69 67 62 68 64 69 70 70 63 71 65 72 66 73 67 74 68 75
REMARK SMILES IDX 45 76 46 77 54 78 47 79 49 80 55 81 48 82 50 83 51 84 52 85
REMARK SMILES IDX 53 86
REMARK H PARENT 10 17 75 39 43 50
REMARK Flexibility Score: inf
ROOT
ATOM      1  C   UNL A   1      35.600  21.294  25.374  1.00  0.00     0.274 C 
ENDROOT
BRANCH   1   2
ATOM      2  O   UNL A   1      35.021  22.350  24.570  1.00  0.00    -0.462 OA
BRANCH   2   3
ATOM      3  C   UNL A   1      34.731  23.516  25.209  1.00  0.00     0.312 C 
ATOM      4  O   UNL A   1      35.500  24.081  25.982  1.00  0.00    -0.252 OA
BRANCH   3   5
ATOM      5  C   UNL A   1      33.270  23.964  25.027  1.00  0.00     0.068 C 
ATOM      6  C   UNL A   1      31.703  27.160  23.660  1.00  0.00     0.011 C 
ATOM      7  C   UNL A   1      33.180  26.729  23.698  1.00  0.00    -0.035 C 
ATOM      8  C   UNL A   1      34.028  27.867  23.091  1.00  0.00     0.011 C 
ATOM      9  C   UNL A   1      33.641  26.507  25.144  1.00  0.00     0.007 C 
ATOM     10  C   UNL A   1      33.411  25.432  22.894  1.00  0.00     0.007 C 
ATOM     11  C   UNL A   1      33.039  25.282  25.815  1.00  0.00     0.019 C 
ATOM     12  C   UNL A   1      32.838  24.167  23.556  1.00  0.00     0.019 C 
BRANCH   5  13
ATOM     13  C   UNL A   1      32.387  22.878  25.727  1.00  0.00     0.021 C 
BRANCH  13  14
ATOM     14  C   UNL A   1      31.494  23.297  26.903  1.00  0.00     0.029 C 
BRANCH  14  15
ATOM     15  C   UNL A   1      30.031  22.867  26.865  1.00  0.00     0.156 C 
BRANCH  15  16
ATOM     16  O   UNL A   1      29.153  23.910  27.251  1.00  0.00    -0.396 OA
ATOM     17  H   UNL A   1      29.665  24.637  27.638  1.00  0.00     0.210 HD
ENDBRANCH  15  16
ENDBRANCH  14  15
ENDBRANCH  13  14
ENDBRANCH   5  13
ENDBRANCH   3   5
ENDBRANCH   2   3
ENDBRANCH   1   2
BRANCH   1  18
ATOM     18  C   UNL A   1      36.920  20.824  24.781  1.00  0.00     0.275 C 
BRANCH  18  19
ATOM     19  O   UNL A   1      37.898  21.842  25.020  1.00  0.00    -0.458 OA
BRANCH  19  20
ATOM     20  C   UNL A   1      38.898  21.516  25.865  1.00  0.00     0.338 C 
ATOM     21  O   UNL A   1      39.365  20.395  26.043  1.00  0.00    -0.246 OA
BRANCH  20  22
ATOM     22  C   UNL A   1      39.416  22.734  26.520  1.00  0.00     0.060 A 
ATOM     23  C   UNL A   1      38.980  24.002  26.126  1.00  0.00     0.016 A 
ATOM     24  C   UNL A   1      40.437  22.616  27.462  1.00  0.00     0.016 A 
ATOM     25  C   UNL A   1      39.650  25.140  26.573  1.00  0.00     0.010 A 
ATOM     26  C   UNL A   1      41.021  23.765  28.001  1.00  0.00     0.010 A 
ATOM     27  C   UNL A   1      40.666  25.043  27.533  1.00  0.00    -0.014 A 
BRANCH  27  28
ATOM     28  C   UNL A   1      41.366  26.250  28.058  1.00  0.00     0.031 A 
ATOM     29  C   UNL A   1      40.600  27.290  28.834  1.00  0.00     0.074 A 
ATOM     30  C   UNL A   1      42.671  26.456  27.788  1.00  0.00     0.049 A 
ATOM     31  N   UNL A   1      40.921  28.530  29.094  1.00  0.00    -0.248 NA
ATOM     32  C   UNL A   1      39.286  26.888  29.368  1.00  0.00     0.031 C 
ATOM     33  C   UNL A   1      43.549  25.529  27.072  1.00  0.00     0.029 A 
ATOM     34  N   UNL A   1      43.482  27.533  28.061  1.00  0.00    -0.354 N 
ATOM     35  C   UNL A   1      39.815  29.086  29.728  1.00  0.00     0.074 A 
ATOM     36  C   UNL A   1      38.824  28.037  29.845  1.00  0.00     0.031 C 
ATOM     37  C   UNL A   1      44.773  26.064  26.974  1.00  0.00     0.029 A 
ATOM     38  C   UNL A   1      44.743  27.415  27.520  1.00  0.00     0.049 A 
ATOM     39  H   UNL A   1      43.191  28.309  28.591  1.00  0.00     0.167 HD
ATOM     40  C   UNL A   1      39.645  30.355  30.169  1.00  0.00     0.034 A 
ATOM     41  C   UNL A   1      45.744  28.308  27.407  1.00  0.00     0.034 A 
ATOM     42  C   UNL A   1      40.672  31.362  30.141  1.00  0.00     0.049 A 
ATOM     43  C   UNL A   1      45.545  29.700  27.930  1.00  0.00     0.074 A 
ATOM     44  C   UNL A   1      40.614  32.663  30.609  1.00  0.00     0.029 A 
ATOM     45  N   UNL A   1      41.951  31.174  29.641  1.00  0.00    -0.354 N 
ATOM     46  N   UNL A   1      44.495  30.210  28.527  1.00  0.00    -0.248 NA
ATOM     47  C   UNL A   1      46.661  30.638  27.764  1.00  0.00     0.031 C 
ATOM     48  C   UNL A   1      41.861  33.261  30.396  1.00  0.00     0.029 A 
ATOM     49  C   UNL A   1      42.695  32.331  29.797  1.00  0.00     0.049 A 
ATOM     50  H   UNL A   1      42.281  30.340  29.234  1.00  0.00     0.167 HD
ATOM     51  C   UNL A   1      44.826  31.528  28.813  1.00  0.00     0.074 A 
ATOM     52  C   UNL A   1      46.185  31.728  28.354  1.00  0.00     0.031 C 
ATOM     53  C   UNL A   1      44.063  32.495  29.377  1.00  0.00     0.034 A 
BRANCH  40  54
ATOM     54  C   UNL A   1      38.309  30.729  30.754  1.00  0.00     0.023 A 
ATOM     55  C   UNL A   1      38.037  30.456  32.108  1.00  0.00     0.012 A 
ATOM     56  C   UNL A   1      37.354  31.423  29.982  1.00  0.00     0.148 A 
ATOM     57  C   UNL A   1      36.829  30.853  32.683  1.00  0.00     0.002 A 
ATOM     58  C   UNL A   1      36.168  31.847  30.571  1.00  0.00     0.091 A 
ATOM     59  F   UNL A   1      37.619  31.649  28.687  1.00  0.00    -0.205 F 
ATOM     60  C   UNL A   1      35.901  31.558  31.918  1.00  0.00     0.022 A 
BRANCH  58  61
ATOM     61  S   UNL A   1      34.952  32.825  29.680  1.00  0.00     0.127 S 
ATOM     62  O   UNL A   1      34.028  33.197  30.751  1.00  0.00    -0.237 OA
ATOM     63  O   UNL A   1      35.757  33.932  29.160  1.00  0.00    -0.237 OA
ATOM     64  O   UNL A   1      34.409  31.943  28.656  1.00  0.00    -0.744 OA
ENDBRANCH  58  61
ENDBRANCH  40  54
BRANCH  41  65
ATOM     65  C   UNL A   1      47.020  27.892  26.760  1.00  0.00     0.023 A 
ATOM     66  C   UNL A   1      48.016  27.270  27.537  1.00  0.00     0.012 A 
ATOM     67  C   UNL A   1      47.209  28.010  25.369  1.00  0.00     0.148 A 
ATOM     68  C   UNL A   1      49.176  26.775  26.940  1.00  0.00     0.002 A 
ATOM     69  C   UNL A   1      48.335  27.453  24.772  1.00  0.00     0.091 A 
ATOM     70  F   UNL A   1      46.267  28.633  24.646  1.00  0.00    -0.205 F 
ATOM     71  C   UNL A   1      49.325  26.847  25.556  1.00  0.00     0.022 A 
BRANCH  69  72
ATOM     72  S   UNL A   1      48.489  27.350  22.984  1.00  0.00     0.127 S 
ATOM     73  O   UNL A   1      49.854  27.818  22.771  1.00  0.00    -0.237 OA
ATOM     74  O   UNL A   1      48.280  25.924  22.732  1.00  0.00    -0.237 OA
ATOM     75  O   UNL A   1      47.425  28.203  22.466  1.00  0.00    -0.744 OA
ENDBRANCH  69  72
ENDBRANCH  41  65
BRANCH  53  76
ATOM     76  C   UNL A   1      44.681  33.855  29.537  1.00  0.00     0.023 A 
ATOM     77  C   UNL A   1      45.367  34.162  30.728  1.00  0.00     0.012 A 
ATOM     78  C   UNL A   1      44.638  34.801  28.496  1.00  0.00     0.148 A 
ATOM     79  C   UNL A   1      45.985  35.401  30.888  1.00  0.00     0.002 A 
ATOM     80  C   UNL A   1      45.285  36.021  28.650  1.00  0.00     0.091 A 
ATOM     81  F   UNL A   1      43.958  34.496  27.381  1.00  0.00    -0.205 F 
ATOM     82  C   UNL A   1      45.953  36.325  29.847  1.00  0.00     0.022 A 
BRANCH  80  83
ATOM     83  S   UNL A   1      45.350  37.234  27.326  1.00  0.00     0.127 S 
ATOM     84  O   UNL A   1      46.085  38.327  27.957  1.00  0.00    -0.237 OA
ATOM     85  O   UNL A   1      46.092  36.524  26.281  1.00  0.00    -0.237 OA
ATOM     86  O   UNL A   1      43.962  37.517  26.985  1.00  0.00    -0.744 OA
ENDBRANCH  80  83
ENDBRANCH  53  76
ENDBRANCH  27  28
ENDBRANCH  20  22
ENDBRANCH  19  20
ENDBRANCH  18  19
ENDBRANCH   1  18
TORSDOF 18
ENDMDL
