MODEL 1
REMARK VINA RESULT:     -12.2      0.000      0.000
REMARK SMILES COc1cc(Cl)c2c(c1)C=C(C(=O)OCCOC(=O)c1ccc(-c3c4nc(c(-c5cccc(S(=O)(=O)[O-])c5F)c5ccc([nH]5)c(-c5cccc(S(=O)(=O)[O-])c5F)c5nc(c(-c6cccc(S(=O)(=O)[O-])c6F)c6ccc3[nH]6)C=C5)C=C4)cc1)[C@@H](C(F)(F)F)O2
REMARK SMILES IDX 16 1 15 2 14 3 12 4 13 5 11 6 3 7 4 8 9 9 5 10 8 11 6 12
REMARK SMILES IDX 7 13 10 14 88 15 83 16 2 17 1 18 84 19 85 20 86 21 87 22
REMARK SMILES IDX 17 23 18 24 19 25 20 26 21 27 82 28 22 29 81 30 23 31 24 32
REMARK SMILES IDX 25 33 75 34 26 35 80 36 74 37 76 38 27 39 79 40 73 41 72 42
REMARK SMILES IDX 28 44 60 45 40 46 59 47 41 48 44 49 58 50 77 51 42 52 43 53
REMARK SMILES IDX 57 55 78 56 45 57 29 58 30 59 38 60 31 61 33 62 39 63 32 64
REMARK SMILES IDX 34 65 35 66 36 67 37 68 61 69 62 70 70 71 63 72 65 73 71 74
REMARK SMILES IDX 64 75 66 76 67 77 68 78 69 79 46 80 47 81 55 82 48 83 50 84
REMARK SMILES IDX 56 85 49 86 51 87 52 88 53 89 54 90
REMARK H PARENT 76 43 44 54
REMARK Flexibility Score: inf
ROOT
ATOM      1  C   UNL A   1      36.383  20.591  25.204  1.00  0.00     0.275 C 
ENDROOT
BRANCH   1   2
ATOM      2  C   UNL A   1      35.091  21.399  25.081  1.00  0.00     0.275 C 
BRANCH   2   3
ATOM      3  O   UNL A   1      35.365  22.813  24.969  1.00  0.00    -0.459 OA
BRANCH   3   4
ATOM      4  C   UNL A   1      35.113  23.359  23.755  1.00  0.00     0.338 C 
ATOM      5  O   UNL A   1      35.595  23.017  22.690  1.00  0.00    -0.246 OA
BRANCH   4   6
ATOM      6  C   UNL A   1      34.137  24.459  23.878  1.00  0.00     0.087 C 
ATOM      7  C   UNL A   1      32.583  28.321  26.302  1.00  0.00     0.121 A 
ATOM      8  C   UNL A   1      31.395  28.317  25.578  1.00  0.00     0.070 A 
ATOM      9  C   UNL A   1      33.575  27.388  26.014  1.00  0.00     0.058 A 
ATOM     10  C   UNL A   1      31.202  27.365  24.569  1.00  0.00     0.087 A 
ATOM     11  C   UNL A   1      33.367  26.417  25.026  1.00  0.00     0.022 A 
ATOM     12  Cl  UNL A   1      29.712  27.398  23.691  1.00  0.00    -0.080 Cl
ATOM     13  C   UNL A   1      32.187  26.408  24.285  1.00  0.00     0.146 A 
ATOM     14  C   UNL A   1      34.374  25.398  24.799  1.00  0.00     0.027 C 
ATOM     15  O   UNL A   1      31.958  25.514  23.272  1.00  0.00    -0.474 OA
ATOM     16  C   UNL A   1      32.877  24.405  23.067  1.00  0.00     0.316 C 
BRANCH   7  17
ATOM     17  O   UNL A   1      32.889  29.254  27.253  1.00  0.00    -0.497 OA
ATOM     18  C   UNL A   1      32.439  30.569  26.938  1.00  0.00     0.278 C 
ENDBRANCH   7  17
BRANCH  16  19
ATOM     19  C   UNL A   1      32.113  23.093  23.306  1.00  0.00     0.430 C 
ATOM     20  F   UNL A   1      30.797  23.226  23.013  1.00  0.00    -0.167 F 
ATOM     21  F   UNL A   1      32.578  22.089  22.523  1.00  0.00    -0.167 F 
ATOM     22  F   UNL A   1      32.201  22.676  24.590  1.00  0.00    -0.167 F 
ENDBRANCH  16  19
ENDBRANCH   4   6
ENDBRANCH   3   4
ENDBRANCH   2   3
ENDBRANCH   1   2
BRANCH   1  23
ATOM     23  O   UNL A   1      37.528  21.429  24.974  1.00  0.00    -0.458 OA
BRANCH  23  24
ATOM     24  C   UNL A   1      38.624  21.104  25.694  1.00  0.00     0.338 C 
ATOM     25  O   UNL A   1      39.183  20.019  25.739  1.00  0.00    -0.246 OA
BRANCH  24  26
ATOM     26  C   UNL A   1      39.137  22.284  26.399  1.00  0.00     0.060 A 
ATOM     27  C   UNL A   1      38.598  23.532  26.101  1.00  0.00     0.016 A 
ATOM     28  C   UNL A   1      40.275  22.180  27.196  1.00  0.00     0.016 A 
ATOM     29  C   UNL A   1      39.285  24.687  26.458  1.00  0.00     0.010 A 
ATOM     30  C   UNL A   1      40.885  23.344  27.670  1.00  0.00     0.010 A 
ATOM     31  C   UNL A   1      40.432  24.609  27.259  1.00  0.00    -0.014 A 
BRANCH  31  32
ATOM     32  C   UNL A   1      41.165  25.846  27.648  1.00  0.00     0.031 A 
ATOM     33  C   UNL A   1      40.489  26.898  28.488  1.00  0.00     0.074 A 
ATOM     34  C   UNL A   1      42.439  26.026  27.245  1.00  0.00     0.049 A 
ATOM     35  N   UNL A   1      40.905  28.100  28.794  1.00  0.00    -0.248 NA
ATOM     36  C   UNL A   1      39.170  26.565  29.055  1.00  0.00     0.031 C 
ATOM     37  C   UNL A   1      43.221  25.073  26.453  1.00  0.00     0.029 A 
ATOM     38  N   UNL A   1      43.301  27.076  27.439  1.00  0.00    -0.354 N 
ATOM     39  C   UNL A   1      39.882  28.684  29.531  1.00  0.00     0.074 A 
ATOM     40  C   UNL A   1      38.821  27.706  29.633  1.00  0.00     0.031 C 
ATOM     41  C   UNL A   1      44.451  25.565  26.256  1.00  0.00     0.029 A 
ATOM     42  C   UNL A   1      44.522  26.903  26.830  1.00  0.00     0.049 A 
ATOM     43  H   UNL A   1      43.068  27.876  27.964  1.00  0.00     0.167 HD
ATOM     44  C   UNL A   1      39.837  29.918  30.085  1.00  0.00     0.034 A 
ATOM     45  C   UNL A   1      45.572  27.736  26.708  1.00  0.00     0.034 A 
ATOM     46  C   UNL A   1      40.919  30.863  30.035  1.00  0.00     0.049 A 
ATOM     47  C   UNL A   1      45.488  29.110  27.303  1.00  0.00     0.074 A 
ATOM     48  C   UNL A   1      40.975  32.131  30.588  1.00  0.00     0.029 A 
ATOM     49  N   UNL A   1      42.134  30.642  29.409  1.00  0.00    -0.354 N 
ATOM     50  N   UNL A   1      44.514  29.640  28.000  1.00  0.00    -0.248 NA
ATOM     51  C   UNL A   1      46.641  29.997  27.101  1.00  0.00     0.031 C 
ATOM     52  C   UNL A   1      42.224  32.680  30.286  1.00  0.00     0.029 A 
ATOM     53  C   UNL A   1      42.951  31.748  29.562  1.00  0.00     0.049 A 
ATOM     54  H   UNL A   1      42.382  29.820  28.928  1.00  0.00     0.167 HD
ATOM     55  C   UNL A   1      44.941  30.917  28.338  1.00  0.00     0.074 A 
ATOM     56  C   UNL A   1      46.269  31.076  27.778  1.00  0.00     0.031 C 
ATOM     57  C   UNL A   1      44.286  31.873  29.038  1.00  0.00     0.034 A 
BRANCH  44  58
ATOM     58  C   UNL A   1      38.594  30.320  30.831  1.00  0.00     0.023 A 
ATOM     59  C   UNL A   1      38.477  30.014  32.201  1.00  0.00     0.012 A 
ATOM     60  C   UNL A   1      37.591  31.086  30.202  1.00  0.00     0.148 A 
ATOM     61  C   UNL A   1      37.375  30.456  32.934  1.00  0.00     0.002 A 
ATOM     62  C   UNL A   1      36.511  31.548  30.946  1.00  0.00     0.091 A 
ATOM     63  F   UNL A   1      37.720  31.356  28.896  1.00  0.00    -0.205 F 
ATOM     64  C   UNL A   1      36.400  31.230  32.311  1.00  0.00     0.022 A 
BRANCH  62  65
ATOM     65  S   UNL A   1      35.225  32.594  30.253  1.00  0.00     0.127 S 
ATOM     66  O   UNL A   1      34.734  31.766  29.152  1.00  0.00    -0.237 OA
ATOM     67  O   UNL A   1      34.299  32.726  31.377  1.00  0.00    -0.237 OA
ATOM     68  O   UNL A   1      35.882  33.830  29.850  1.00  0.00    -0.744 OA
ENDBRANCH  62  65
ENDBRANCH  44  58
BRANCH  45  69
ATOM     69  C   UNL A   1      46.796  27.262  26.006  1.00  0.00     0.023 A 
ATOM     70  C   UNL A   1      46.966  27.576  24.645  1.00  0.00     0.012 A 
ATOM     71  C   UNL A   1      47.826  26.597  26.699  1.00  0.00     0.148 A 
ATOM     72  C   UNL A   1      48.147  27.236  23.984  1.00  0.00     0.002 A 
ATOM     73  C   UNL A   1      49.015  26.298  26.046  1.00  0.00     0.091 A 
ATOM     74  F   UNL A   1      47.637  26.315  27.996  1.00  0.00    -0.205 F 
ATOM     75  C   UNL A   1      49.175  26.609  24.686  1.00  0.00     0.022 A 
BRANCH  73  76
ATOM     76  S   UNL A   1      50.434  25.586  26.886  1.00  0.00     0.127 S 
ATOM     77  O   UNL A   1      51.372  25.400  25.781  1.00  0.00    -0.237 OA
ATOM     78  O   UNL A   1      50.789  26.650  27.824  1.00  0.00    -0.237 OA
ATOM     79  O   UNL A   1      49.954  24.360  27.509  1.00  0.00    -0.744 OA
ENDBRANCH  73  76
ENDBRANCH  45  69
BRANCH  57  80
ATOM     80  C   UNL A   1      44.986  33.181  29.272  1.00  0.00     0.023 A 
ATOM     81  C   UNL A   1      45.851  33.316  30.373  1.00  0.00     0.012 A 
ATOM     82  C   UNL A   1      44.889  34.221  28.326  1.00  0.00     0.148 A 
ATOM     83  C   UNL A   1      46.612  34.473  30.532  1.00  0.00     0.002 A 
ATOM     84  C   UNL A   1      45.676  35.356  28.473  1.00  0.00     0.091 A 
ATOM     85  F   UNL A   1      44.051  34.066  27.291  1.00  0.00    -0.205 F 
ATOM     86  C   UNL A   1      46.535  35.485  29.577  1.00  0.00     0.022 A 
BRANCH  84  87
ATOM     87  S   UNL A   1      45.700  36.681  27.261  1.00  0.00     0.127 S 
ATOM     88  O   UNL A   1      46.548  37.672  27.921  1.00  0.00    -0.237 OA
ATOM     89  O   UNL A   1      46.312  36.027  26.104  1.00  0.00    -0.237 OA
ATOM     90  O   UNL A   1      44.314  37.084  27.071  1.00  0.00    -0.744 OA
ENDBRANCH  84  87
ENDBRANCH  57  80
ENDBRANCH  31  32
ENDBRANCH  24  26
ENDBRANCH  23  24
ENDBRANCH   1  23
TORSDOF 16
ENDMDL
MODEL 2
REMARK VINA RESULT:     -12.0      4.680      9.879
REMARK SMILES COc1cc(Cl)c2c(c1)C=C(C(=O)OCCOC(=O)c1ccc(-c3c4nc(c(-c5cccc(S(=O)(=O)[O-])c5F)c5ccc([nH]5)c(-c5cccc(S(=O)(=O)[O-])c5F)c5nc(c(-c6cccc(S(=O)(=O)[O-])c6F)c6ccc3[nH]6)C=C5)C=C4)cc1)[C@@H](C(F)(F)F)O2
REMARK SMILES IDX 16 1 15 2 14 3 12 4 13 5 11 6 3 7 4 8 9 9 5 10 8 11 6 12
REMARK SMILES IDX 7 13 10 14 88 15 83 16 2 17 1 18 84 19 85 20 86 21 87 22
REMARK SMILES IDX 17 23 18 24 19 25 20 26 21 27 82 28 22 29 81 30 23 31 24 32
REMARK SMILES IDX 25 33 75 34 26 35 80 36 74 37 76 38 27 39 79 40 73 41 72 42
REMARK SMILES IDX 28 44 60 45 40 46 59 47 41 48 44 49 58 50 77 51 42 52 43 53
REMARK SMILES IDX 57 55 78 56 45 57 29 58 30 59 38 60 31 61 33 62 39 63 32 64
REMARK SMILES IDX 34 65 35 66 36 67 37 68 61 69 62 70 70 71 63 72 65 73 71 74
REMARK SMILES IDX 64 75 66 76 67 77 68 78 69 79 46 80 47 81 55 82 48 83 50 84
REMARK SMILES IDX 56 85 49 86 51 87 52 88 53 89 54 90
REMARK H PARENT 76 43 44 54
REMARK Flexibility Score: inf
ROOT
ATOM      1  C   UNL A   1      31.533  30.494  25.674  1.00  0.00     0.275 C 
ENDROOT
BRANCH   1   2
ATOM      2  C   UNL A   1      31.407  29.111  25.035  1.00  0.00     0.275 C 
BRANCH   2   3
ATOM      3  O   UNL A   1      32.282  28.156  25.674  1.00  0.00    -0.459 OA
BRANCH   3   4
ATOM      4  C   UNL A   1      31.659  27.154  26.342  1.00  0.00     0.338 C 
ATOM      5  O   UNL A   1      30.794  27.275  27.189  1.00  0.00    -0.246 OA
BRANCH   4   6
ATOM      6  C   UNL A   1      32.169  25.844  25.895  1.00  0.00     0.087 C 
ATOM      7  C   UNL A   1      35.948  23.040  24.860  1.00  0.00     0.121 A 
ATOM      8  C   UNL A   1      35.110  22.105  24.261  1.00  0.00     0.070 A 
ATOM      9  C   UNL A   1      35.407  24.175  25.459  1.00  0.00     0.058 A 
ATOM     10  C   UNL A   1      33.726  22.319  24.256  1.00  0.00     0.087 A 
ATOM     11  C   UNL A   1      34.025  24.402  25.425  1.00  0.00     0.022 A 
ATOM     12  Cl  UNL A   1      32.720  21.130  23.502  1.00  0.00    -0.080 Cl
ATOM     13  C   UNL A   1      33.172  23.468  24.837  1.00  0.00     0.146 A 
ATOM     14  C   UNL A   1      33.486  25.631  25.974  1.00  0.00     0.027 C 
ATOM     15  O   UNL A   1      31.811  23.617  24.825  1.00  0.00    -0.474 OA
ATOM     16  C   UNL A   1      31.218  24.872  25.262  1.00  0.00     0.316 C 
BRANCH   7  17
ATOM     17  O   UNL A   1      37.300  22.882  24.978  1.00  0.00    -0.497 OA
ATOM     18  C   UNL A   1      37.903  23.755  25.929  1.00  0.00     0.278 C 
ENDBRANCH   7  17
BRANCH  16  19
ATOM     19  C   UNL A   1      30.486  25.504  24.068  1.00  0.00     0.430 C 
ATOM     20  F   UNL A   1      31.322  26.263  23.320  1.00  0.00    -0.167 F 
ATOM     21  F   UNL A   1      29.976  24.564  23.235  1.00  0.00    -0.167 F 
ATOM     22  F   UNL A   1      29.460  26.296  24.457  1.00  0.00    -0.167 F 
ENDBRANCH  16  19
ENDBRANCH   4   6
ENDBRANCH   3   4
ENDBRANCH   2   3
ENDBRANCH   1   2
BRANCH   1  23
ATOM     23  O   UNL A   1      32.322  30.427  26.874  1.00  0.00    -0.458 OA
BRANCH  23  24
ATOM     24  C   UNL A   1      33.013  31.551  27.163  1.00  0.00     0.338 C 
ATOM     25  O   UNL A   1      32.591  32.697  27.169  1.00  0.00    -0.246 OA
BRANCH  24  26
ATOM     26  C   UNL A   1      34.385  31.216  27.560  1.00  0.00     0.060 A 
ATOM     27  C   UNL A   1      34.699  29.887  27.835  1.00  0.00     0.016 A 
ATOM     28  C   UNL A   1      35.294  32.229  27.853  1.00  0.00     0.016 A 
ATOM     29  C   UNL A   1      35.851  29.582  28.552  1.00  0.00     0.010 A 
ATOM     30  C   UNL A   1      36.515  31.902  28.449  1.00  0.00     0.010 A 
ATOM     31  C   UNL A   1      36.781  30.584  28.859  1.00  0.00    -0.014 A 
BRANCH  31  32
ATOM     32  C   UNL A   1      38.017  30.257  29.621  1.00  0.00     0.031 A 
ATOM     33  C   UNL A   1      39.083  29.388  29.005  1.00  0.00     0.074 A 
ATOM     34  C   UNL A   1      38.184  30.739  30.869  1.00  0.00     0.049 A 
ATOM     35  N   UNL A   1      40.147  28.870  29.563  1.00  0.00    -0.248 NA
ATOM     36  C   UNL A   1      38.936  29.047  27.578  1.00  0.00     0.031 C 
ATOM     37  C   UNL A   1      37.244  31.617  31.572  1.00  0.00     0.029 A 
ATOM     38  N   UNL A   1      39.200  30.556  31.772  1.00  0.00    -0.354 N 
ATOM     39  C   UNL A   1      40.757  28.098  28.581  1.00  0.00     0.074 A 
ATOM     40  C   UNL A   1      39.950  28.215  27.387  1.00  0.00     0.031 C 
ATOM     41  C   UNL A   1      37.739  31.918  32.779  1.00  0.00     0.029 A 
ATOM     42  C   UNL A   1      38.987  31.191  32.974  1.00  0.00     0.049 A 
ATOM     43  H   UNL A   1      40.004  30.022  31.580  1.00  0.00     0.167 HD
ATOM     44  C   UNL A   1      41.895  27.370  28.664  1.00  0.00     0.034 A 
ATOM     45  C   UNL A   1      39.689  31.165  34.122  1.00  0.00     0.034 A 
ATOM     46  C   UNL A   1      42.728  27.308  29.834  1.00  0.00     0.049 A 
ATOM     47  C   UNL A   1      40.930  30.327  34.200  1.00  0.00     0.074 A 
ATOM     48  C   UNL A   1      43.914  26.615  30.005  1.00  0.00     0.029 A 
ATOM     49  N   UNL A   1      42.472  27.969  31.024  1.00  0.00    -0.354 N 
ATOM     50  N   UNL A   1      41.493  29.610  33.259  1.00  0.00    -0.248 NA
ATOM     51  C   UNL A   1      41.635  30.296  35.489  1.00  0.00     0.031 C 
ATOM     52  C   UNL A   1      44.369  26.850  31.305  1.00  0.00     0.029 A 
ATOM     53  C   UNL A   1      43.477  27.702  31.936  1.00  0.00     0.049 A 
ATOM     54  H   UNL A   1      41.691  28.543  31.195  1.00  0.00     0.167 HD
ATOM     55  C   UNL A   1      42.628  29.055  33.834  1.00  0.00     0.074 A 
ATOM     56  C   UNL A   1      42.680  29.530  35.203  1.00  0.00     0.031 C 
ATOM     57  C   UNL A   1      43.537  28.219  33.278  1.00  0.00     0.034 A 
BRANCH  44  58
ATOM     58  C   UNL A   1      42.342  26.604  27.448  1.00  0.00     0.023 A 
ATOM     59  C   UNL A   1      43.087  27.260  26.450  1.00  0.00     0.012 A 
ATOM     60  C   UNL A   1      42.110  25.217  27.344  1.00  0.00     0.148 A 
ATOM     61  C   UNL A   1      43.590  26.550  25.359  1.00  0.00     0.002 A 
ATOM     62  C   UNL A   1      42.639  24.511  26.270  1.00  0.00     0.091 A 
ATOM     63  F   UNL A   1      41.389  24.618  28.303  1.00  0.00    -0.205 F 
ATOM     64  C   UNL A   1      43.375  25.176  25.275  1.00  0.00     0.022 A 
BRANCH  62  65
ATOM     65  S   UNL A   1      42.465  22.732  26.092  1.00  0.00     0.127 S 
ATOM     66  O   UNL A   1      43.064  22.508  24.776  1.00  0.00    -0.237 OA
ATOM     67  O   UNL A   1      43.256  22.232  27.215  1.00  0.00    -0.237 OA
ATOM     68  O   UNL A   1      41.038  22.454  26.174  1.00  0.00    -0.744 OA
ENDBRANCH  62  65
ENDBRANCH  44  58
BRANCH  45  69
ATOM     69  C   UNL A   1      39.228  31.988  35.273  1.00  0.00     0.023 A 
ATOM     70  C   UNL A   1      38.391  31.399  36.240  1.00  0.00     0.012 A 
ATOM     71  C   UNL A   1      39.691  33.304  35.465  1.00  0.00     0.148 A 
ATOM     72  C   UNL A   1      38.024  32.110  37.383  1.00  0.00     0.002 A 
ATOM     73  C   UNL A   1      39.355  33.991  36.625  1.00  0.00     0.091 A 
ATOM     74  F   UNL A   1      40.489  33.837  34.529  1.00  0.00    -0.205 F 
ATOM     75  C   UNL A   1      38.515  33.399  37.581  1.00  0.00     0.022 A 
BRANCH  73  76
ATOM     76  S   UNL A   1      40.017  35.613  37.021  1.00  0.00     0.127 S 
ATOM     77  O   UNL A   1      39.541  36.413  35.895  1.00  0.00    -0.237 OA
ATOM     78  O   UNL A   1      39.365  35.897  38.298  1.00  0.00    -0.237 OA
ATOM     79  O   UNL A   1      41.462  35.445  37.100  1.00  0.00    -0.744 OA
ENDBRANCH  73  76
ENDBRANCH  45  69
BRANCH  57  80
ATOM     80  C   UNL A   1      44.691  27.766  34.127  1.00  0.00     0.023 A 
ATOM     81  C   UNL A   1      45.843  28.569  34.214  1.00  0.00     0.012 A 
ATOM     82  C   UNL A   1      44.572  26.620  34.938  1.00  0.00     0.148 A 
ATOM     83  C   UNL A   1      46.867  28.235  35.100  1.00  0.00     0.002 A 
ATOM     84  C   UNL A   1      45.582  26.313  35.842  1.00  0.00     0.091 A 
ATOM     85  F   UNL A   1      43.465  25.872  34.828  1.00  0.00    -0.205 F 
ATOM     86  C   UNL A   1      46.731  27.117  35.921  1.00  0.00     0.022 A 
BRANCH  84  87
ATOM     87  S   UNL A   1      45.468  24.938  36.991  1.00  0.00     0.127 S 
ATOM     88  O   UNL A   1      44.255  25.272  37.735  1.00  0.00    -0.237 OA
ATOM     89  O   UNL A   1      45.336  23.794  36.088  1.00  0.00    -0.237 OA
ATOM     90  O   UNL A   1      46.696  24.959  37.773  1.00  0.00    -0.744 OA
ENDBRANCH  84  87
ENDBRANCH  57  80
ENDBRANCH  31  32
ENDBRANCH  24  26
ENDBRANCH  23  24
ENDBRANCH   1  23
TORSDOF 16
ENDMDL
MODEL 3
REMARK VINA RESULT:     -11.9      1.338      1.694
REMARK SMILES COc1cc(Cl)c2c(c1)C=C(C(=O)OCCOC(=O)c1ccc(-c3c4nc(c(-c5cccc(S(=O)(=O)[O-])c5F)c5ccc([nH]5)c(-c5cccc(S(=O)(=O)[O-])c5F)c5nc(c(-c6cccc(S(=O)(=O)[O-])c6F)c6ccc3[nH]6)C=C5)C=C4)cc1)[C@@H](C(F)(F)F)O2
REMARK SMILES IDX 16 1 15 2 14 3 12 4 13 5 11 6 3 7 4 8 9 9 5 10 8 11 6 12
REMARK SMILES IDX 7 13 10 14 88 15 83 16 2 17 1 18 84 19 85 20 86 21 87 22
REMARK SMILES IDX 17 23 18 24 19 25 20 26 21 27 82 28 22 29 81 30 23 31 24 32
REMARK SMILES IDX 25 33 75 34 26 35 80 36 74 37 76 38 27 39 79 40 73 41 72 42
REMARK SMILES IDX 28 44 60 45 40 46 59 47 41 48 44 49 58 50 77 51 42 52 43 53
REMARK SMILES IDX 57 55 78 56 45 57 29 58 30 59 38 60 31 61 33 62 39 63 32 64
REMARK SMILES IDX 34 65 35 66 36 67 37 68 61 69 62 70 70 71 63 72 65 73 71 74
REMARK SMILES IDX 64 75 66 76 67 77 68 78 69 79 46 80 47 81 55 82 48 83 50 84
REMARK SMILES IDX 56 85 49 86 51 87 52 88 53 89 54 90
REMARK H PARENT 76 43 44 54
REMARK Flexibility Score: inf
ROOT
ATOM      1  C   UNL A   1      36.658  20.467  24.967  1.00  0.00     0.275 C 
ENDROOT
BRANCH   1   2
ATOM      2  C   UNL A   1      35.261  21.007  24.661  1.00  0.00     0.275 C 
BRANCH   2   3
ATOM      3  O   UNL A   1      35.201  22.439  24.838  1.00  0.00    -0.459 OA
BRANCH   3   4
ATOM      4  C   UNL A   1      35.110  23.163  23.696  1.00  0.00     0.338 C 
ATOM      5  O   UNL A   1      35.725  22.971  22.664  1.00  0.00    -0.246 OA
BRANCH   4   6
ATOM      6  C   UNL A   1      34.126  24.252  23.855  1.00  0.00     0.087 C 
ATOM      7  C   UNL A   1      32.594  28.073  26.358  1.00  0.00     0.121 A 
ATOM      8  C   UNL A   1      31.390  28.065  25.662  1.00  0.00     0.070 A 
ATOM      9  C   UNL A   1      33.588  27.152  26.036  1.00  0.00     0.058 A 
ATOM     10  C   UNL A   1      31.183  27.123  24.647  1.00  0.00     0.087 A 
ATOM     11  C   UNL A   1      33.366  26.190  25.042  1.00  0.00     0.022 A 
ATOM     12  Cl  UNL A   1      29.672  27.152  23.804  1.00  0.00    -0.080 Cl
ATOM     13  C   UNL A   1      32.169  26.178  24.329  1.00  0.00     0.146 A 
ATOM     14  C   UNL A   1      34.376  25.183  24.781  1.00  0.00     0.027 C 
ATOM     15  O   UNL A   1      31.924  25.294  23.312  1.00  0.00    -0.474 OA
ATOM     16  C   UNL A   1      32.848  24.195  23.073  1.00  0.00     0.316 C 
BRANCH   7  17
ATOM     17  O   UNL A   1      32.914  28.997  27.312  1.00  0.00    -0.497 OA
ATOM     18  C   UNL A   1      33.823  29.999  26.863  1.00  0.00     0.278 C 
ENDBRANCH   7  17
BRANCH  16  19
ATOM     19  C   UNL A   1      32.102  22.874  23.315  1.00  0.00     0.430 C 
ATOM     20  F   UNL A   1      32.617  21.871  22.563  1.00  0.00    -0.167 F 
ATOM     21  F   UNL A   1      32.197  22.470  24.605  1.00  0.00    -0.167 F 
ATOM     22  F   UNL A   1      30.786  22.968  23.018  1.00  0.00    -0.167 F 
ENDBRANCH  16  19
ENDBRANCH   4   6
ENDBRANCH   3   4
ENDBRANCH   2   3
ENDBRANCH   1   2
BRANCH   1  23
ATOM     23  O   UNL A   1      37.603  21.544  25.078  1.00  0.00    -0.458 OA
BRANCH  23  24
ATOM     24  C   UNL A   1      38.738  21.236  25.744  1.00  0.00     0.338 C 
ATOM     25  O   UNL A   1      39.325  20.165  25.748  1.00  0.00    -0.246 OA
BRANCH  24  26
ATOM     26  C   UNL A   1      39.255  22.419  26.442  1.00  0.00     0.060 A 
ATOM     27  C   UNL A   1      38.707  23.665  26.148  1.00  0.00     0.016 A 
ATOM     28  C   UNL A   1      40.402  22.321  27.225  1.00  0.00     0.016 A 
ATOM     29  C   UNL A   1      39.393  24.823  26.497  1.00  0.00     0.010 A 
ATOM     30  C   UNL A   1      41.012  23.489  27.692  1.00  0.00     0.010 A 
ATOM     31  C   UNL A   1      40.550  24.751  27.284  1.00  0.00    -0.014 A 
BRANCH  31  32
ATOM     32  C   UNL A   1      41.281  25.991  27.663  1.00  0.00     0.031 A 
ATOM     33  C   UNL A   1      40.608  27.044  28.505  1.00  0.00     0.074 A 
ATOM     34  C   UNL A   1      42.552  26.174  27.250  1.00  0.00     0.049 A 
ATOM     35  N   UNL A   1      41.023  28.249  28.803  1.00  0.00    -0.248 NA
ATOM     36  C   UNL A   1      39.294  26.709  29.083  1.00  0.00     0.031 C 
ATOM     37  C   UNL A   1      43.331  25.220  26.456  1.00  0.00     0.029 A 
ATOM     38  N   UNL A   1      43.412  27.227  27.435  1.00  0.00    -0.354 N 
ATOM     39  C   UNL A   1      40.003  28.832  29.546  1.00  0.00     0.074 A 
ATOM     40  C   UNL A   1      38.946  27.852  29.659  1.00  0.00     0.031 C 
ATOM     41  C   UNL A   1      44.558  25.715  26.249  1.00  0.00     0.029 A 
ATOM     42  C   UNL A   1      44.629  27.056  26.818  1.00  0.00     0.049 A 
ATOM     43  H   UNL A   1      43.180  28.028  27.958  1.00  0.00     0.167 HD
ATOM     44  C   UNL A   1      39.959  30.068  30.096  1.00  0.00     0.034 A 
ATOM     45  C   UNL A   1      45.676  27.891  26.685  1.00  0.00     0.034 A 
ATOM     46  C   UNL A   1      41.038  31.016  30.035  1.00  0.00     0.049 A 
ATOM     47  C   UNL A   1      45.592  29.266  27.276  1.00  0.00     0.074 A 
ATOM     48  C   UNL A   1      41.095  32.286  30.583  1.00  0.00     0.029 A 
ATOM     49  N   UNL A   1      42.249  30.796  29.401  1.00  0.00    -0.354 N 
ATOM     50  N   UNL A   1      44.621  29.797  27.978  1.00  0.00    -0.248 NA
ATOM     51  C   UNL A   1      46.741  30.157  27.062  1.00  0.00     0.031 C 
ATOM     52  C   UNL A   1      42.339  32.838  30.270  1.00  0.00     0.029 A 
ATOM     53  C   UNL A   1      43.063  31.906  29.544  1.00  0.00     0.049 A 
ATOM     54  H   UNL A   1      42.496  29.973  28.921  1.00  0.00     0.167 HD
ATOM     55  C   UNL A   1      45.048  31.076  28.308  1.00  0.00     0.074 A 
ATOM     56  C   UNL A   1      46.371  31.237  27.738  1.00  0.00     0.031 C 
ATOM     57  C   UNL A   1      44.394  32.032  29.009  1.00  0.00     0.034 A 
BRANCH  44  58
ATOM     58  C   UNL A   1      38.720  30.469  30.850  1.00  0.00     0.023 A 
ATOM     59  C   UNL A   1      38.612  30.161  32.220  1.00  0.00     0.012 A 
ATOM     60  C   UNL A   1      37.713  31.236  30.228  1.00  0.00     0.148 A 
ATOM     61  C   UNL A   1      37.514  30.602  32.960  1.00  0.00     0.002 A 
ATOM     62  C   UNL A   1      36.638  31.697  30.978  1.00  0.00     0.091 A 
ATOM     63  F   UNL A   1      37.835  31.506  28.921  1.00  0.00    -0.205 F 
ATOM     64  C   UNL A   1      36.535  31.377  32.343  1.00  0.00     0.022 A 
BRANCH  62  65
ATOM     65  S   UNL A   1      35.348  32.743  30.294  1.00  0.00     0.127 S 
ATOM     66  O   UNL A   1      34.381  32.774  31.392  1.00  0.00    -0.237 OA
ATOM     67  O   UNL A   1      36.059  34.002  30.074  1.00  0.00    -0.237 OA
ATOM     68  O   UNL A   1      34.886  32.079  29.084  1.00  0.00    -0.744 OA
ENDBRANCH  62  65
ENDBRANCH  44  58
BRANCH  45  69
ATOM     69  C   UNL A   1      46.895  27.418  25.976  1.00  0.00     0.023 A 
ATOM     70  C   UNL A   1      47.761  26.522  26.630  1.00  0.00     0.012 A 
ATOM     71  C   UNL A   1      47.145  27.769  24.635  1.00  0.00     0.148 A 
ATOM     72  C   UNL A   1      48.857  25.980  25.958  1.00  0.00     0.002 A 
ATOM     73  C   UNL A   1      48.215  27.195  23.959  1.00  0.00     0.091 A 
ATOM     74  F   UNL A   1      46.302  28.622  24.036  1.00  0.00    -0.205 F 
ATOM     75  C   UNL A   1      49.077  26.306  24.622  1.00  0.00     0.022 A 
BRANCH  73  76
ATOM     76  S   UNL A   1      48.522  27.470  22.211  1.00  0.00     0.127 S 
ATOM     77  O   UNL A   1      48.648  26.103  21.712  1.00  0.00    -0.237 OA
ATOM     78  O   UNL A   1      47.304  28.167  21.801  1.00  0.00    -0.237 OA
ATOM     79  O   UNL A   1      49.735  28.273  22.141  1.00  0.00    -0.744 OA
ENDBRANCH  73  76
ENDBRANCH  45  69
BRANCH  57  80
ATOM     80  C   UNL A   1      45.092  33.344  29.233  1.00  0.00     0.023 A 
ATOM     81  C   UNL A   1      45.862  33.528  30.397  1.00  0.00     0.012 A 
ATOM     82  C   UNL A   1      45.093  34.332  28.229  1.00  0.00     0.148 A 
ATOM     83  C   UNL A   1      46.625  34.683  30.559  1.00  0.00     0.002 A 
ATOM     84  C   UNL A   1      45.882  35.464  28.384  1.00  0.00     0.091 A 
ATOM     85  F   UNL A   1      44.345  34.130  27.135  1.00  0.00    -0.205 F 
ATOM     86  C   UNL A   1      46.645  35.643  29.550  1.00  0.00     0.022 A 
BRANCH  84  87
ATOM     87  S   UNL A   1      46.031  36.722  27.111  1.00  0.00     0.127 S 
ATOM     88  O   UNL A   1      46.436  35.926  25.953  1.00  0.00    -0.237 OA
ATOM     89  O   UNL A   1      44.669  37.251  27.041  1.00  0.00    -0.237 OA
ATOM     90  O   UNL A   1      47.029  37.668  27.588  1.00  0.00    -0.744 OA
ENDBRANCH  84  87
ENDBRANCH  57  80
ENDBRANCH  31  32
ENDBRANCH  24  26
ENDBRANCH  23  24
ENDBRANCH   1  23
TORSDOF 16
ENDMDL
