MODEL 1
REMARK VINA RESULT:     -11.5      0.000      0.000
REMARK SMILES CCc1c([N+](=O)[O-])cc(C(=O)OCCOC(=O)c2ccc(-c3c4nc(c(-c5cccc(S(=O)(=O)[O-])c5F)c5ccc([nH]5)c(-c5cccc(S(=O)(=O)[O-])c5F)c5nc(c(-c6cccc(S(=O)(=O)[O-])c6F)c6ccc3[nH]6)C=C5)C=C4)cc2)n1C
REMARK SMILES IDX 14 1 13 2 12 3 10 4 11 5 9 6 3 7 4 8 81 9 8 10 82 11 2 12
REMARK SMILES IDX 1 13 5 14 6 15 7 16 15 17 16 18 17 19 18 20 19 21 80 22
REMARK SMILES IDX 20 23 79 24 21 25 22 26 23 27 73 28 24 29 78 30 72 31 74 32
REMARK SMILES IDX 25 33 77 34 71 35 70 36 26 38 58 39 38 40 57 41 39 42 42 43
REMARK SMILES IDX 56 44 75 45 40 46 41 47 55 49 76 50 43 51 27 52 28 53 36 54
REMARK SMILES IDX 29 55 31 56 37 57 30 58 32 59 33 60 34 61 35 62 59 63 60 64
REMARK SMILES IDX 68 65 61 66 63 67 69 68 62 69 64 70 65 71 66 72 67 73 44 74
REMARK SMILES IDX 45 75 53 76 46 77 48 78 54 79 47 80 49 81 50 82 51 83 52 84
REMARK H PARENT 74 37 42 48
REMARK Flexibility Score: inf
ROOT
ATOM      1  C   UNL A   1      31.535  30.442  25.840  1.00  0.00     0.275 C 
ENDROOT
BRANCH   1   2
ATOM      2  C   UNL A   1      31.496  29.443  24.682  1.00  0.00     0.275 C 
BRANCH   2   3
ATOM      3  O   UNL A   1      30.233  29.494  23.987  1.00  0.00    -0.457 OA
BRANCH   3   4
ATOM      4  C   UNL A   1      30.216  28.997  22.718  1.00  0.00     0.355 C 
ATOM      5  O   UNL A   1      29.941  29.649  21.724  1.00  0.00    -0.244 OA
BRANCH   4   6
ATOM      6  C   UNL A   1      30.669  27.613  22.679  1.00  0.00     0.134 A 
ATOM      7  C   UNL A   1      30.922  25.359  22.993  1.00  0.00     0.096 A 
ATOM      8  C   UNL A   1      32.010  25.823  22.248  1.00  0.00     0.291 A 
ATOM      9  N   UNL A   1      30.134  26.480  23.283  1.00  0.00    -0.336 N 
ATOM     10  C   UNL A   1      31.771  27.183  21.957  1.00  0.00     0.121 A 
ATOM     11  C   UNL A   1      28.896  26.466  24.032  1.00  0.00     0.150 C 
BRANCH   7  12
ATOM     12  C   UNL A   1      30.696  23.921  23.408  1.00  0.00     0.058 C 
ATOM     13  C   UNL A   1      31.415  23.355  24.612  1.00  0.00     0.011 C 
ENDBRANCH   7  12
BRANCH   8  14
ATOM     14  N   UNL A   1      33.179  25.082  21.805  1.00  0.00     0.064 N 
ATOM     15  O   UNL A   1      33.265  24.789  20.606  1.00  0.00    -0.258 OA
ATOM     16  O   UNL A   1      34.007  24.788  22.676  1.00  0.00    -0.258 OA
ENDBRANCH   8  14
ENDBRANCH   4   6
ENDBRANCH   3   4
ENDBRANCH   2   3
ENDBRANCH   1   2
BRANCH   1  17
ATOM     17  O   UNL A   1      32.738  30.292  26.610  1.00  0.00    -0.458 OA
BRANCH  17  18
ATOM     18  C   UNL A   1      33.224  31.441  27.133  1.00  0.00     0.338 C 
ATOM     19  O   UNL A   1      32.629  32.494  27.287  1.00  0.00    -0.246 OA
BRANCH  18  20
ATOM     20  C   UNL A   1      34.583  31.205  27.635  1.00  0.00     0.060 A 
ATOM     21  C   UNL A   1      34.946  29.892  27.922  1.00  0.00     0.016 A 
ATOM     22  C   UNL A   1      35.445  32.257  27.928  1.00  0.00     0.016 A 
ATOM     23  C   UNL A   1      36.142  29.614  28.571  1.00  0.00     0.010 A 
ATOM     24  C   UNL A   1      36.677  31.975  28.526  1.00  0.00     0.010 A 
ATOM     25  C   UNL A   1      37.023  30.654  28.882  1.00  0.00    -0.014 A 
BRANCH  25  26
ATOM     26  C   UNL A   1      38.280  30.386  29.626  1.00  0.00     0.031 A 
ATOM     27  C   UNL A   1      39.305  29.459  29.033  1.00  0.00     0.074 A 
ATOM     28  C   UNL A   1      38.487  30.934  30.840  1.00  0.00     0.049 A 
ATOM     29  N   UNL A   1      40.347  28.907  29.593  1.00  0.00    -0.248 NA
ATOM     30  C   UNL A   1      39.118  29.089  27.619  1.00  0.00     0.031 C 
ATOM     31  C   UNL A   1      37.591  31.878  31.508  1.00  0.00     0.029 A 
ATOM     32  N   UNL A   1      39.506  30.748  31.741  1.00  0.00    -0.354 N 
ATOM     33  C   UNL A   1      40.894  28.066  28.632  1.00  0.00     0.074 A 
ATOM     34  C   UNL A   1      40.075  28.189  27.446  1.00  0.00     0.031 C 
ATOM     35  C   UNL A   1      38.089  32.177  32.717  1.00  0.00     0.029 A 
ATOM     36  C   UNL A   1      39.299  31.393  32.939  1.00  0.00     0.049 A 
ATOM     37  H   UNL A   1      40.306  30.208  31.549  1.00  0.00     0.167 HD
ATOM     38  C   UNL A   1      41.984  27.267  28.729  1.00  0.00     0.034 A 
ATOM     39  C   UNL A   1      39.976  31.319  34.101  1.00  0.00     0.034 A 
ATOM     40  C   UNL A   1      42.828  27.205  29.893  1.00  0.00     0.049 A 
ATOM     41  C   UNL A   1      41.181  30.423  34.186  1.00  0.00     0.074 A 
ATOM     42  C   UNL A   1      43.978  26.460  30.082  1.00  0.00     0.029 A 
ATOM     43  N   UNL A   1      42.618  27.924  31.061  1.00  0.00    -0.354 N 
ATOM     44  N   UNL A   1      41.711  29.663  33.259  1.00  0.00    -0.248 NA
ATOM     45  C   UNL A   1      41.895  30.388  35.471  1.00  0.00     0.031 C 
ATOM     46  C   UNL A   1      44.454  26.714  31.373  1.00  0.00     0.029 A 
ATOM     47  C   UNL A   1      43.617  27.640  31.975  1.00  0.00     0.049 A 
ATOM     48  H   UNL A   1      41.870  28.544  31.215  1.00  0.00     0.167 HD
ATOM     49  C   UNL A   1      42.840  29.091  33.832  1.00  0.00     0.074 A 
ATOM     50  C   UNL A   1      42.925  29.604  35.185  1.00  0.00     0.031 C 
ATOM     51  C   UNL A   1      43.721  28.212  33.294  1.00  0.00     0.034 A 
BRANCH  38  52
ATOM     52  C   UNL A   1      42.333  26.404  27.546  1.00  0.00     0.023 A 
ATOM     53  C   UNL A   1      43.101  26.932  26.489  1.00  0.00     0.012 A 
ATOM     54  C   UNL A   1      41.942  25.050  27.505  1.00  0.00     0.148 A 
ATOM     55  C   UNL A   1      43.443  26.139  25.394  1.00  0.00     0.002 A 
ATOM     56  C   UNL A   1      42.325  24.253  26.432  1.00  0.00     0.091 A 
ATOM     57  F   UNL A   1      41.194  24.569  28.508  1.00  0.00    -0.205 F 
ATOM     58  C   UNL A   1      43.065  24.798  25.371  1.00  0.00     0.022 A 
BRANCH  56  59
ATOM     59  S   UNL A   1      41.956  22.497  26.350  1.00  0.00     0.127 S 
ATOM     60  O   UNL A   1      42.491  22.022  27.625  1.00  0.00    -0.237 OA
ATOM     61  O   UNL A   1      40.495  22.492  26.263  1.00  0.00    -0.237 OA
ATOM     62  O   UNL A   1      42.635  21.998  25.162  1.00  0.00    -0.744 OA
ENDBRANCH  56  59
ENDBRANCH  38  52
BRANCH  39  63
ATOM     63  C   UNL A   1      39.532  32.127  35.273  1.00  0.00     0.023 A 
ATOM     64  C   UNL A   1      39.846  33.498  35.327  1.00  0.00     0.012 A 
ATOM     65  C   UNL A   1      38.775  31.555  36.317  1.00  0.00     0.148 A 
ATOM     66  C   UNL A   1      39.440  34.280  36.409  1.00  0.00     0.002 A 
ATOM     67  C   UNL A   1      38.324  32.351  37.362  1.00  0.00     0.091 A 
ATOM     68  F   UNL A   1      38.500  30.244  36.258  1.00  0.00    -0.205 F 
ATOM     69  C   UNL A   1      38.669  33.710  37.419  1.00  0.00     0.022 A 
BRANCH  67  70
ATOM     70  S   UNL A   1      37.217  31.735  38.636  1.00  0.00     0.127 S 
ATOM     71  O   UNL A   1      38.021  31.911  39.842  1.00  0.00    -0.237 OA
ATOM     72  O   UNL A   1      36.078  32.645  38.515  1.00  0.00    -0.237 OA
ATOM     73  O   UNL A   1      36.924  30.356  38.267  1.00  0.00    -0.744 OA
ENDBRANCH  67  70
ENDBRANCH  39  63
BRANCH  51  74
ATOM     74  C   UNL A   1      44.894  27.790  34.138  1.00  0.00     0.023 A 
ATOM     75  C   UNL A   1      46.024  28.623  34.239  1.00  0.00     0.012 A 
ATOM     76  C   UNL A   1      44.830  26.607  34.901  1.00  0.00     0.148 A 
ATOM     77  C   UNL A   1      47.089  28.270  35.069  1.00  0.00     0.002 A 
ATOM     78  C   UNL A   1      45.872  26.288  35.764  1.00  0.00     0.091 A 
ATOM     79  F   UNL A   1      43.751  25.821  34.775  1.00  0.00    -0.205 F 
ATOM     80  C   UNL A   1      47.006  27.112  35.840  1.00  0.00     0.022 A 
BRANCH  78  81
ATOM     81  S   UNL A   1      45.808  24.873  36.868  1.00  0.00     0.127 S 
ATOM     82  O   UNL A   1      45.821  23.757  35.922  1.00  0.00    -0.237 OA
ATOM     83  O   UNL A   1      47.039  25.029  37.644  1.00  0.00    -0.237 OA
ATOM     84  O   UNL A   1      44.582  25.020  37.642  1.00  0.00    -0.744 OA
ENDBRANCH  78  81
ENDBRANCH  51  74
ENDBRANCH  25  26
ENDBRANCH  18  20
ENDBRANCH  17  18
ENDBRANCH   1  17
TORSDOF 16
ENDMDL
MODEL 2
REMARK VINA RESULT:     -11.3      1.666      2.126
REMARK SMILES CCc1c([N+](=O)[O-])cc(C(=O)OCCOC(=O)c2ccc(-c3c4nc(c(-c5cccc(S(=O)(=O)[O-])c5F)c5ccc([nH]5)c(-c5cccc(S(=O)(=O)[O-])c5F)c5nc(c(-c6cccc(S(=O)(=O)[O-])c6F)c6ccc3[nH]6)C=C5)C=C4)cc2)n1C
REMARK SMILES IDX 14 1 13 2 12 3 10 4 11 5 9 6 3 7 4 8 81 9 8 10 82 11 2 12
REMARK SMILES IDX 1 13 5 14 6 15 7 16 15 17 16 18 17 19 18 20 19 21 80 22
REMARK SMILES IDX 20 23 79 24 21 25 22 26 23 27 73 28 24 29 78 30 72 31 74 32
REMARK SMILES IDX 25 33 77 34 71 35 70 36 26 38 58 39 38 40 57 41 39 42 42 43
REMARK SMILES IDX 56 44 75 45 40 46 41 47 55 49 76 50 43 51 27 52 28 53 36 54
REMARK SMILES IDX 29 55 31 56 37 57 30 58 32 59 33 60 34 61 35 62 59 63 60 64
REMARK SMILES IDX 68 65 61 66 63 67 69 68 62 69 64 70 65 71 66 72 67 73 44 74
REMARK SMILES IDX 45 75 53 76 46 77 48 78 54 79 47 80 49 81 50 82 51 83 52 84
REMARK H PARENT 74 37 42 48
REMARK Flexibility Score: inf
ROOT
ATOM      1  C   UNL A   1      31.582  30.447  25.716  1.00  0.00     0.275 C 
ENDROOT
BRANCH   1   2
ATOM      2  C   UNL A   1      31.804  29.366  24.656  1.00  0.00     0.275 C 
BRANCH   2   3
ATOM      3  O   UNL A   1      30.563  28.990  24.023  1.00  0.00    -0.457 OA
BRANCH   3   4
ATOM      4  C   UNL A   1      30.613  27.929  23.169  1.00  0.00     0.355 C 
ATOM      5  O   UNL A   1      30.233  27.956  22.010  1.00  0.00    -0.244 OA
BRANCH   4   6
ATOM      6  C   UNL A   1      31.274  26.782  23.778  1.00  0.00     0.134 A 
ATOM      7  C   UNL A   1      32.713  25.079  24.300  1.00  0.00     0.096 A 
ATOM      8  C   UNL A   1      31.577  24.956  25.105  1.00  0.00     0.291 A 
ATOM      9  N   UNL A   1      32.488  26.180  23.465  1.00  0.00    -0.336 N 
ATOM     10  C   UNL A   1      30.763  26.082  24.859  1.00  0.00     0.121 A 
ATOM     11  C   UNL A   1      33.411  26.682  22.469  1.00  0.00     0.150 C 
BRANCH   7  12
ATOM     12  C   UNL A   1      33.916  24.162  24.339  1.00  0.00     0.058 C 
ATOM     13  C   UNL A   1      33.858  22.805  23.675  1.00  0.00     0.011 C 
ENDBRANCH   7  12
BRANCH   8  14
ATOM     14  N   UNL A   1      31.255  23.902  26.053  1.00  0.00     0.064 N 
ATOM     15  O   UNL A   1      31.466  24.113  27.253  1.00  0.00    -0.258 OA
ATOM     16  O   UNL A   1      30.797  22.856  25.579  1.00  0.00    -0.258 OA
ENDBRANCH   8  14
ENDBRANCH   4   6
ENDBRANCH   3   4
ENDBRANCH   2   3
ENDBRANCH   1   2
BRANCH   1  17
ATOM     17  O   UNL A   1      32.545  30.334  26.776  1.00  0.00    -0.458 OA
BRANCH  17  18
ATOM     18  C   UNL A   1      33.121  31.500  27.146  1.00  0.00     0.338 C 
ATOM     19  O   UNL A   1      32.609  32.606  27.164  1.00  0.00    -0.246 OA
BRANCH  18  20
ATOM     20  C   UNL A   1      34.464  31.228  27.672  1.00  0.00     0.060 A 
ATOM     21  C   UNL A   1      34.786  29.906  27.966  1.00  0.00     0.016 A 
ATOM     22  C   UNL A   1      35.349  32.257  27.979  1.00  0.00     0.016 A 
ATOM     23  C   UNL A   1      35.963  29.596  28.636  1.00  0.00     0.010 A 
ATOM     24  C   UNL A   1      36.562  31.942  28.600  1.00  0.00     0.010 A 
ATOM     25  C   UNL A   1      36.866  30.613  28.962  1.00  0.00    -0.014 A 
BRANCH  25  26
ATOM     26  C   UNL A   1      38.102  30.312  29.729  1.00  0.00     0.031 A 
ATOM     27  C   UNL A   1      39.140  29.404  29.127  1.00  0.00     0.074 A 
ATOM     28  C   UNL A   1      38.279  30.812  30.967  1.00  0.00     0.049 A 
ATOM     29  N   UNL A   1      40.165  28.826  29.694  1.00  0.00    -0.248 NA
ATOM     30  C   UNL A   1      38.989  29.088  27.696  1.00  0.00     0.031 C 
ATOM     31  C   UNL A   1      37.368  31.735  31.647  1.00  0.00     0.029 A 
ATOM     32  N   UNL A   1      39.273  30.589  31.887  1.00  0.00    -0.354 N 
ATOM     33  C   UNL A   1      40.735  28.020  28.716  1.00  0.00     0.074 A 
ATOM     34  C   UNL A   1      39.948  28.192  27.515  1.00  0.00     0.031 C 
ATOM     35  C   UNL A   1      37.835  31.986  32.879  1.00  0.00     0.029 A 
ATOM     36  C   UNL A   1      39.036  31.188  33.103  1.00  0.00     0.049 A 
ATOM     37  H   UNL A   1      40.076  30.053  31.695  1.00  0.00     0.167 HD
ATOM     38  C   UNL A   1      41.819  27.214  28.812  1.00  0.00     0.034 A 
ATOM     39  C   UNL A   1      39.682  31.068  34.279  1.00  0.00     0.034 A 
ATOM     40  C   UNL A   1      42.632  27.105  29.994  1.00  0.00     0.049 A 
ATOM     41  C   UNL A   1      40.882  30.164  34.362  1.00  0.00     0.074 A 
ATOM     42  C   UNL A   1      43.775  26.349  30.185  1.00  0.00     0.029 A 
ATOM     43  N   UNL A   1      42.394  27.779  31.182  1.00  0.00    -0.354 N 
ATOM     44  N   UNL A   1      41.434  29.438  33.420  1.00  0.00    -0.248 NA
ATOM     45  C   UNL A   1      41.562  30.078  35.662  1.00  0.00     0.031 C 
ATOM     46  C   UNL A   1      44.217  26.551  31.497  1.00  0.00     0.029 A 
ATOM     47  C   UNL A   1      43.367  27.457  32.111  1.00  0.00     0.049 A 
ATOM     48  H   UNL A   1      41.644  28.397  31.340  1.00  0.00     0.167 HD
ATOM     49  C   UNL A   1      42.545  28.840  34.001  1.00  0.00     0.074 A 
ATOM     50  C   UNL A   1      42.596  29.301  35.374  1.00  0.00     0.031 C 
ATOM     51  C   UNL A   1      43.437  27.979  33.453  1.00  0.00     0.034 A 
BRANCH  38  52
ATOM     52  C   UNL A   1      42.197  26.395  27.606  1.00  0.00     0.023 A 
ATOM     53  C   UNL A   1      42.913  26.987  26.546  1.00  0.00     0.012 A 
ATOM     54  C   UNL A   1      41.886  25.021  27.545  1.00  0.00     0.148 A 
ATOM     55  C   UNL A   1      43.281  26.236  25.430  1.00  0.00     0.002 A 
ATOM     56  C   UNL A   1      42.296  24.268  26.451  1.00  0.00     0.091 A 
ATOM     57  F   UNL A   1      41.186  24.479  28.552  1.00  0.00    -0.205 F 
ATOM     58  C   UNL A   1      42.982  24.876  25.388  1.00  0.00     0.022 A 
BRANCH  56  59
ATOM     59  S   UNL A   1      42.030  22.495  26.341  1.00  0.00     0.127 S 
ATOM     60  O   UNL A   1      42.700  22.172  25.082  1.00  0.00    -0.237 OA
ATOM     61  O   UNL A   1      42.713  22.005  27.539  1.00  0.00    -0.237 OA
ATOM     62  O   UNL A   1      40.585  22.304  26.347  1.00  0.00    -0.744 OA
ENDBRANCH  56  59
ENDBRANCH  38  52
BRANCH  39  63
ATOM     63  C   UNL A   1      39.209  31.832  35.469  1.00  0.00     0.023 A 
ATOM     64  C   UNL A   1      38.276  31.242  36.343  1.00  0.00     0.012 A 
ATOM     65  C   UNL A   1      39.699  33.122  35.758  1.00  0.00     0.148 A 
ATOM     66  C   UNL A   1      37.819  31.932  37.467  1.00  0.00     0.002 A 
ATOM     67  C   UNL A   1      39.284  33.779  36.910  1.00  0.00     0.091 A 
ATOM     68  F   UNL A   1      40.574  33.675  34.905  1.00  0.00    -0.205 F 
ATOM     69  C   UNL A   1      38.331  33.193  37.756  1.00  0.00     0.022 A 
BRANCH  67  70
ATOM     70  S   UNL A   1      39.988  35.347  37.432  1.00  0.00     0.127 S 
ATOM     71  O   UNL A   1      41.415  35.041  37.458  1.00  0.00    -0.237 OA
ATOM     72  O   UNL A   1      39.569  36.242  36.353  1.00  0.00    -0.237 OA
ATOM     73  O   UNL A   1      39.380  35.640  38.723  1.00  0.00    -0.744 OA
ENDBRANCH  67  70
ENDBRANCH  39  63
BRANCH  51  74
ATOM     74  C   UNL A   1      44.586  27.521  34.311  1.00  0.00     0.023 A 
ATOM     75  C   UNL A   1      45.758  28.296  34.393  1.00  0.00     0.012 A 
ATOM     76  C   UNL A   1      44.461  26.364  35.107  1.00  0.00     0.148 A 
ATOM     77  C   UNL A   1      46.802  27.913  35.234  1.00  0.00     0.002 A 
ATOM     78  C   UNL A   1      45.484  26.015  35.980  1.00  0.00     0.091 A 
ATOM     79  F   UNL A   1      43.343  25.630  34.999  1.00  0.00    -0.205 F 
ATOM     80  C   UNL A   1      46.659  26.781  36.037  1.00  0.00     0.022 A 
BRANCH  78  81
ATOM     81  S   UNL A   1      45.347  24.636  37.122  1.00  0.00     0.127 S 
ATOM     82  O   UNL A   1      46.633  24.694  37.815  1.00  0.00    -0.237 OA
ATOM     83  O   UNL A   1      44.196  25.023  37.938  1.00  0.00    -0.237 OA
ATOM     84  O   UNL A   1      45.134  23.451  36.300  1.00  0.00    -0.744 OA
ENDBRANCH  78  81
ENDBRANCH  51  74
ENDBRANCH  25  26
ENDBRANCH  18  20
ENDBRANCH  17  18
ENDBRANCH   1  17
TORSDOF 16
ENDMDL
MODEL 3
REMARK VINA RESULT:     -11.1      5.443     10.163
REMARK SMILES CCc1c([N+](=O)[O-])cc(C(=O)OCCOC(=O)c2ccc(-c3c4nc(c(-c5cccc(S(=O)(=O)[O-])c5F)c5ccc([nH]5)c(-c5cccc(S(=O)(=O)[O-])c5F)c5nc(c(-c6cccc(S(=O)(=O)[O-])c6F)c6ccc3[nH]6)C=C5)C=C4)cc2)n1C
REMARK SMILES IDX 14 1 13 2 12 3 10 4 11 5 9 6 3 7 4 8 81 9 8 10 82 11 2 12
REMARK SMILES IDX 1 13 5 14 6 15 7 16 15 17 16 18 17 19 18 20 19 21 80 22
REMARK SMILES IDX 20 23 79 24 21 25 22 26 23 27 73 28 24 29 78 30 72 31 74 32
REMARK SMILES IDX 25 33 77 34 71 35 70 36 26 38 58 39 38 40 57 41 39 42 42 43
REMARK SMILES IDX 56 44 75 45 40 46 41 47 55 49 76 50 43 51 27 52 28 53 36 54
REMARK SMILES IDX 29 55 31 56 37 57 30 58 32 59 33 60 34 61 35 62 59 63 60 64
REMARK SMILES IDX 68 65 61 66 63 67 69 68 62 69 64 70 65 71 66 72 67 73 44 74
REMARK SMILES IDX 45 75 53 76 46 77 48 78 54 79 47 80 49 81 50 82 51 83 52 84
REMARK H PARENT 74 37 42 48
REMARK Flexibility Score: inf
ROOT
ATOM      1  C   UNL A   1      35.863  21.374  25.699  1.00  0.00     0.275 C 
ENDROOT
BRANCH   1   2
ATOM      2  C   UNL A   1      34.759  21.438  24.641  1.00  0.00     0.275 C 
BRANCH   2   3
ATOM      3  O   UNL A   1      33.887  22.567  24.860  1.00  0.00    -0.457 OA
BRANCH   3   4
ATOM      4  C   UNL A   1      34.178  23.703  24.166  1.00  0.00     0.355 C 
ATOM      5  O   UNL A   1      35.000  23.772  23.266  1.00  0.00    -0.244 OA
BRANCH   4   6
ATOM      6  C   UNL A   1      33.311  24.807  24.558  1.00  0.00     0.134 A 
ATOM      7  C   UNL A   1      31.751  26.482  24.612  1.00  0.00     0.096 A 
ATOM      8  C   UNL A   1      32.483  26.525  25.802  1.00  0.00     0.291 A 
ATOM      9  N   UNL A   1      32.303  25.448  23.846  1.00  0.00    -0.336 N 
ATOM     10  C   UNL A   1      33.348  25.411  25.804  1.00  0.00     0.121 A 
ATOM     11  C   UNL A   1      31.849  25.039  22.534  1.00  0.00     0.150 C 
BRANCH   7  12
ATOM     12  C   UNL A   1      30.611  27.410  24.252  1.00  0.00     0.058 C 
ATOM     13  C   UNL A   1      30.887  28.856  23.909  1.00  0.00     0.011 C 
ENDBRANCH   7  12
BRANCH   8  14
ATOM     14  N   UNL A   1      32.392  27.496  26.880  1.00  0.00     0.064 N 
ATOM     15  O   UNL A   1      33.334  28.282  27.038  1.00  0.00    -0.258 OA
ATOM     16  O   UNL A   1      31.368  27.455  27.573  1.00  0.00    -0.258 OA
ENDBRANCH   8  14
ENDBRANCH   4   6
ENDBRANCH   3   4
ENDBRANCH   2   3
ENDBRANCH   1   2
BRANCH   1  17
ATOM     17  O   UNL A   1      37.051  22.041  25.245  1.00  0.00    -0.458 OA
BRANCH  17  18
ATOM     18  C   UNL A   1      38.202  21.580  25.784  1.00  0.00     0.338 C 
ATOM     19  O   UNL A   1      38.677  20.463  25.672  1.00  0.00    -0.246 OA
BRANCH  18  20
ATOM     20  C   UNL A   1      38.903  22.688  26.443  1.00  0.00     0.060 A 
ATOM     21  C   UNL A   1      38.438  23.978  26.204  1.00  0.00     0.016 A 
ATOM     22  C   UNL A   1      40.060  22.479  27.187  1.00  0.00     0.016 A 
ATOM     23  C   UNL A   1      39.160  25.083  26.641  1.00  0.00     0.010 A 
ATOM     24  C   UNL A   1      40.756  23.588  27.679  1.00  0.00     0.010 A 
ATOM     25  C   UNL A   1      40.330  24.899  27.384  1.00  0.00    -0.014 A 
BRANCH  25  26
ATOM     26  C   UNL A   1      41.146  26.065  27.812  1.00  0.00     0.031 A 
ATOM     27  C   UNL A   1      40.510  27.147  28.640  1.00  0.00     0.074 A 
ATOM     28  C   UNL A   1      42.434  26.175  27.430  1.00  0.00     0.049 A 
ATOM     29  N   UNL A   1      40.953  28.342  28.925  1.00  0.00    -0.248 NA
ATOM     30  C   UNL A   1      39.185  26.847  29.209  1.00  0.00     0.031 C 
ATOM     31  C   UNL A   1      43.179  25.178  26.660  1.00  0.00     0.029 A 
ATOM     32  N   UNL A   1      43.334  27.194  27.612  1.00  0.00    -0.354 N 
ATOM     33  C   UNL A   1      39.934  28.964  29.636  1.00  0.00     0.074 A 
ATOM     34  C   UNL A   1      38.853  28.010  29.750  1.00  0.00     0.031 C 
ATOM     35  C   UNL A   1      44.415  25.640  26.421  1.00  0.00     0.029 A 
ATOM     36  C   UNL A   1      44.528  26.992  26.958  1.00  0.00     0.049 A 
ATOM     37  H   UNL A   1      43.146  27.992  28.158  1.00  0.00     0.167 HD
ATOM     38  C   UNL A   1      39.907  30.217  30.150  1.00  0.00     0.034 A 
ATOM     39  C   UNL A   1      45.574  27.820  26.766  1.00  0.00     0.034 A 
ATOM     40  C   UNL A   1      41.015  31.132  30.087  1.00  0.00     0.049 A 
ATOM     41  C   UNL A   1      45.518  29.207  27.344  1.00  0.00     0.074 A 
ATOM     42  C   UNL A   1      41.108  32.410  30.610  1.00  0.00     0.029 A 
ATOM     43  N   UNL A   1      42.229  30.862  29.471  1.00  0.00    -0.354 N 
ATOM     44  N   UNL A   1      44.566  29.771  28.047  1.00  0.00    -0.248 NA
ATOM     45  C   UNL A   1      46.689  30.068  27.121  1.00  0.00     0.031 C 
ATOM     46  C   UNL A   1      42.371  32.920  30.293  1.00  0.00     0.029 A 
ATOM     47  C   UNL A   1      43.076  31.948  29.600  1.00  0.00     0.049 A 
ATOM     48  H   UNL A   1      42.454  30.021  29.012  1.00  0.00     0.167 HD
ATOM     49  C   UNL A   1      45.036  31.034  28.384  1.00  0.00     0.074 A 
ATOM     50  C   UNL A   1      46.365  31.149  27.818  1.00  0.00     0.031 C 
ATOM     51  C   UNL A   1      44.421  32.017  29.087  1.00  0.00     0.034 A 
BRANCH  38  52
ATOM     52  C   UNL A   1      38.644  30.671  30.835  1.00  0.00     0.023 A 
ATOM     53  C   UNL A   1      38.495  30.498  32.226  1.00  0.00     0.012 A 
ATOM     54  C   UNL A   1      37.624  31.315  30.106  1.00  0.00     0.148 A 
ATOM     55  C   UNL A   1      37.336  30.926  32.874  1.00  0.00     0.002 A 
ATOM     56  C   UNL A   1      36.493  31.780  30.766  1.00  0.00     0.091 A 
ATOM     57  F   UNL A   1      37.773  31.451  28.781  1.00  0.00    -0.205 F 
ATOM     58  C   UNL A   1      36.342  31.576  32.147  1.00  0.00     0.022 A 
BRANCH  56  59
ATOM     59  S   UNL A   1      35.194  32.698  29.932  1.00  0.00     0.127 S 
ATOM     60  O   UNL A   1      34.258  32.950  31.027  1.00  0.00    -0.237 OA
ATOM     61  O   UNL A   1      35.909  33.883  29.457  1.00  0.00    -0.237 OA
ATOM     62  O   UNL A   1      34.699  31.826  28.875  1.00  0.00    -0.744 OA
ENDBRANCH  56  59
ENDBRANCH  38  52
BRANCH  39  63
ATOM     63  C   UNL A   1      46.763  27.351  25.999  1.00  0.00     0.023 A 
ATOM     64  C   UNL A   1      46.819  27.571  24.610  1.00  0.00     0.012 A 
ATOM     65  C   UNL A   1      47.849  26.720  26.639  1.00  0.00     0.148 A 
ATOM     66  C   UNL A   1      47.922  27.146  23.867  1.00  0.00     0.002 A 
ATOM     67  C   UNL A   1      48.969  26.353  25.902  1.00  0.00     0.091 A 
ATOM     68  F   UNL A   1      47.771  26.503  27.959  1.00  0.00    -0.205 F 
ATOM     69  C   UNL A   1      49.001  26.550  24.514  1.00  0.00     0.022 A 
BRANCH  67  70
ATOM     70  S   UNL A   1      50.457  25.701  26.670  1.00  0.00     0.127 S 
ATOM     71  O   UNL A   1      49.967  24.461  27.266  1.00  0.00    -0.237 OA
ATOM     72  O   UNL A   1      51.340  25.523  25.517  1.00  0.00    -0.237 OA
ATOM     73  O   UNL A   1      50.896  26.724  27.609  1.00  0.00    -0.744 OA
ENDBRANCH  67  70
ENDBRANCH  39  63
BRANCH  51  74
ATOM     74  C   UNL A   1      45.194  33.282  29.345  1.00  0.00     0.023 A 
ATOM     75  C   UNL A   1      46.029  33.380  30.474  1.00  0.00     0.012 A 
ATOM     76  C   UNL A   1      45.156  34.340  28.414  1.00  0.00     0.148 A 
ATOM     77  C   UNL A   1      46.798  34.524  30.687  1.00  0.00     0.002 A 
ATOM     78  C   UNL A   1      45.962  35.455  28.607  1.00  0.00     0.091 A 
ATOM     79  F   UNL A   1      44.339  34.233  27.356  1.00  0.00    -0.205 F 
ATOM     80  C   UNL A   1      46.774  35.554  29.747  1.00  0.00     0.022 A 
BRANCH  78  81
ATOM     81  S   UNL A   1      46.073  36.782  27.401  1.00  0.00     0.127 S 
ATOM     82  O   UNL A   1      46.513  36.063  26.206  1.00  0.00    -0.237 OA
ATOM     83  O   UNL A   1      44.694  37.268  27.347  1.00  0.00    -0.237 OA
ATOM     84  O   UNL A   1      47.030  37.739  27.941  1.00  0.00    -0.744 OA
ENDBRANCH  78  81
ENDBRANCH  51  74
ENDBRANCH  25  26
ENDBRANCH  18  20
ENDBRANCH  17  18
ENDBRANCH   1  17
TORSDOF 16
ENDMDL
