MODEL 1
REMARK VINA RESULT:     -12.2      0.000      0.000
REMARK SMILES O=C(OCCOC(=O)[C@@H]1CCn2c(C(=O)c3ccccc3)ccc21)c1ccc(-c2c3nc(c(-c4cccc(S(=O)(=O)[O-])c4F)c4ccc([nH]4)c(-c4cccc(S(=O)(=O)[O-])c4F)c4nc(c(-c5cccc(S(=O)(=O)[O-])c5F)c5ccc2[nH]5)C=C4)C=C3)cc1
REMARK SMILES IDX 4 1 3 2 2 3 1 4 25 5 26 6 87 7 27 8 86 9 28 10 29 11 30 12
REMARK SMILES IDX 80 13 31 14 85 15 79 16 81 17 32 18 84 19 78 20 77 21 33 23
REMARK SMILES IDX 65 24 45 25 64 26 46 27 49 28 63 29 82 30 47 31 48 32 62 34
REMARK SMILES IDX 83 35 50 36 34 37 35 38 43 39 36 40 38 41 44 42 37 43 39 44
REMARK SMILES IDX 40 45 41 46 42 47 66 48 67 49 75 50 68 51 70 52 76 53 69 54
REMARK SMILES IDX 71 55 72 56 73 57 74 58 51 59 52 60 60 61 53 62 55 63 61 64
REMARK SMILES IDX 54 65 56 66 57 67 58 68 59 69 5 70 6 71 7 72 8 73 9 74 10 75
REMARK SMILES IDX 24 76 11 77 12 78 23 79 13 80 22 81 14 82 15 83 16 84 17 85
REMARK SMILES IDX 21 86 18 87 20 88 19 89
REMARK H PARENT 81 22 49 33
REMARK Flexibility Score: inf
ROOT
ATOM      1  C   UNL A   1      32.986  29.971  26.409  1.00  0.00     0.275 C 
ENDROOT
BRANCH   1   2
ATOM      2  O   UNL A   1      33.453  30.712  27.541  1.00  0.00    -0.458 OA
BRANCH   2   3
ATOM      3  C   UNL A   1      34.662  31.277  27.752  1.00  0.00     0.338 C 
ATOM      4  O   UNL A   1      34.785  32.482  27.530  1.00  0.00    -0.246 OA
BRANCH   3   5
ATOM      5  C   UNL A   1      35.896  30.505  28.119  1.00  0.00     0.060 A 
ATOM      6  C   UNL A   1      37.063  30.344  27.356  1.00  0.00     0.016 A 
ATOM      7  C   UNL A   1      35.868  29.908  29.390  1.00  0.00     0.016 A 
ATOM      8  C   UNL A   1      38.211  29.729  27.881  1.00  0.00     0.010 A 
ATOM      9  C   UNL A   1      37.004  29.289  29.914  1.00  0.00     0.010 A 
ATOM     10  C   UNL A   1      38.199  29.228  29.178  1.00  0.00    -0.014 A 
BRANCH  10  11
ATOM     11  C   UNL A   1      39.345  28.494  29.759  1.00  0.00     0.031 A 
ATOM     12  C   UNL A   1      40.003  29.123  30.945  1.00  0.00     0.074 A 
ATOM     13  C   UNL A   1      39.877  27.400  29.176  1.00  0.00     0.049 A 
ATOM     14  N   UNL A   1      41.143  28.842  31.507  1.00  0.00    -0.248 NA
ATOM     15  C   UNL A   1      39.288  30.264  31.546  1.00  0.00     0.031 C 
ATOM     16  C   UNL A   1      39.318  26.682  28.033  1.00  0.00     0.029 A 
ATOM     17  N   UNL A   1      41.052  26.737  29.433  1.00  0.00    -0.354 N 
ATOM     18  C   UNL A   1      41.300  29.800  32.498  1.00  0.00     0.074 A 
ATOM     19  C   UNL A   1      40.190  30.719  32.393  1.00  0.00     0.031 C 
ATOM     20  C   UNL A   1      40.196  25.749  27.620  1.00  0.00     0.029 A 
ATOM     21  C   UNL A   1      41.367  25.783  28.490  1.00  0.00     0.049 A 
ATOM     22  H   UNL A   1      41.617  26.926  30.217  1.00  0.00     0.167 HD
ATOM     23  C   UNL A   1      42.252  29.875  33.453  1.00  0.00     0.034 A 
ATOM     24  C   UNL A   1      42.476  25.026  28.351  1.00  0.00     0.034 A 
ATOM     25  C   UNL A   1      43.319  28.930  33.569  1.00  0.00     0.049 A 
ATOM     26  C   UNL A   1      43.543  25.123  29.413  1.00  0.00     0.074 A 
ATOM     27  C   UNL A   1      44.297  28.845  34.539  1.00  0.00     0.029 A 
ATOM     28  N   UNL A   1      43.549  27.903  32.665  1.00  0.00    -0.354 N 
ATOM     29  N   UNL A   1      43.604  25.935  30.442  1.00  0.00    -0.248 NA
ATOM     30  C   UNL A   1      44.653  24.160  29.344  1.00  0.00     0.031 C 
ATOM     31  C   UNL A   1      45.135  27.776  34.205  1.00  0.00     0.029 A 
ATOM     32  C   UNL A   1      44.656  27.176  33.049  1.00  0.00     0.049 A 
ATOM     33  H   UNL A   1      43.002  27.720  31.867  1.00  0.00     0.167 HD
ATOM     34  C   UNL A   1      44.708  25.530  31.184  1.00  0.00     0.074 A 
ATOM     35  C   UNL A   1      45.303  24.417  30.472  1.00  0.00     0.031 C 
ATOM     36  C   UNL A   1      45.177  26.025  32.356  1.00  0.00     0.034 A 
BRANCH  23  37
ATOM     37  C   UNL A   1      42.121  31.006  34.433  1.00  0.00     0.023 A 
ATOM     38  C   UNL A   1      41.421  30.805  35.644  1.00  0.00     0.012 A 
ATOM     39  C   UNL A   1      42.595  32.288  34.113  1.00  0.00     0.148 A 
ATOM     40  C   UNL A   1      41.114  31.880  36.473  1.00  0.00     0.002 A 
ATOM     41  C   UNL A   1      42.338  33.345  34.976  1.00  0.00     0.091 A 
ATOM     42  F   UNL A   1      43.236  32.464  32.949  1.00  0.00    -0.205 F 
ATOM     43  C   UNL A   1      41.575  33.150  36.140  1.00  0.00     0.022 A 
BRANCH  41  44
ATOM     44  S   UNL A   1      42.951  35.003  34.675  1.00  0.00     0.127 S 
ATOM     45  O   UNL A   1      44.386  34.768  34.540  1.00  0.00    -0.237 OA
ATOM     46  O   UNL A   1      42.268  35.360  33.432  1.00  0.00    -0.237 OA
ATOM     47  O   UNL A   1      42.550  35.792  35.834  1.00  0.00    -0.744 OA
ENDBRANCH  41  44
ENDBRANCH  23  37
BRANCH  24  48
ATOM     48  C   UNL A   1      42.596  24.049  27.229  1.00  0.00     0.023 A 
ATOM     49  C   UNL A   1      43.236  24.439  26.036  1.00  0.00     0.012 A 
ATOM     50  C   UNL A   1      42.090  22.739  27.336  1.00  0.00     0.148 A 
ATOM     51  C   UNL A   1      43.339  23.558  24.958  1.00  0.00     0.002 A 
ATOM     52  C   UNL A   1      42.225  21.854  26.270  1.00  0.00     0.091 A 
ATOM     53  F   UNL A   1      41.493  22.383  28.483  1.00  0.00    -0.205 F 
ATOM     54  C   UNL A   1      42.836  22.265  25.075  1.00  0.00     0.022 A 
BRANCH  52  55
ATOM     55  S   UNL A   1      41.685  20.141  26.344  1.00  0.00     0.127 S 
ATOM     56  O   UNL A   1      42.181  19.728  27.655  1.00  0.00    -0.237 OA
ATOM     57  O   UNL A   1      40.233  20.285  26.249  1.00  0.00    -0.237 OA
ATOM     58  O   UNL A   1      42.309  19.483  25.203  1.00  0.00    -0.744 OA
ENDBRANCH  52  55
ENDBRANCH  24  48
BRANCH  36  59
ATOM     59  C   UNL A   1      46.337  25.332  33.013  1.00  0.00     0.023 A 
ATOM     60  C   UNL A   1      47.643  25.830  32.856  1.00  0.00     0.012 A 
ATOM     61  C   UNL A   1      46.089  24.299  33.940  1.00  0.00     0.148 A 
ATOM     62  C   UNL A   1      48.687  25.311  33.619  1.00  0.00     0.002 A 
ATOM     63  C   UNL A   1      47.122  23.828  34.736  1.00  0.00     0.091 A 
ATOM     64  F   UNL A   1      44.836  23.830  34.052  1.00  0.00    -0.205 F 
ATOM     65  C   UNL A   1      48.424  24.328  34.572  1.00  0.00     0.022 A 
BRANCH  63  66
ATOM     66  S   UNL A   1      46.848  22.664  36.076  1.00  0.00     0.127 S 
ATOM     67  O   UNL A   1      46.467  21.456  35.346  1.00  0.00    -0.237 OA
ATOM     68  O   UNL A   1      48.166  22.607  36.708  1.00  0.00    -0.237 OA
ATOM     69  O   UNL A   1      45.800  23.242  36.907  1.00  0.00    -0.744 OA
ENDBRANCH  63  66
ENDBRANCH  36  59
ENDBRANCH  10  11
ENDBRANCH   3   5
ENDBRANCH   2   3
ENDBRANCH   1   2
BRANCH   1  70
ATOM     70  C   UNL A   1      33.206  28.457  26.495  1.00  0.00     0.274 C 
BRANCH  70  71
ATOM     71  O   UNL A   1      33.699  27.838  25.291  1.00  0.00    -0.462 OA
BRANCH  71  72
ATOM     72  C   UNL A   1      32.991  26.751  24.846  1.00  0.00     0.315 C 
ATOM     73  O   UNL A   1      33.043  25.654  25.396  1.00  0.00    -0.251 OA
BRANCH  72  74
ATOM     74  C   UNL A   1      32.280  27.011  23.508  1.00  0.00     0.148 C 
ATOM     75  C   UNL A   1      32.427  28.415  22.897  1.00  0.00     0.043 C 
ATOM     76  C   UNL A   1      30.803  26.884  23.629  1.00  0.00     0.033 A 
ATOM     77  C   UNL A   1      31.021  28.984  22.626  1.00  0.00     0.124 C 
ATOM     78  N   UNL A   1      30.130  27.987  23.175  1.00  0.00    -0.341 N 
ATOM     79  C   UNL A   1      29.885  25.950  24.013  1.00  0.00     0.025 A 
ATOM     80  C   UNL A   1      28.782  27.866  23.338  1.00  0.00     0.090 A 
ATOM     81  C   UNL A   1      28.620  26.562  23.825  1.00  0.00     0.032 A 
BRANCH  80  82
ATOM     82  C   UNL A   1      27.674  28.793  23.124  1.00  0.00     0.209 C 
ATOM     83  O   UNL A   1      26.511  28.469  23.383  1.00  0.00    -0.287 OA
BRANCH  82  84
ATOM     84  C   UNL A   1      27.839  30.201  22.692  1.00  0.00     0.024 A 
ATOM     85  C   UNL A   1      27.925  30.450  21.312  1.00  0.00     0.012 A 
ATOM     86  C   UNL A   1      28.078  31.242  23.593  1.00  0.00     0.012 A 
ATOM     87  C   UNL A   1      28.206  31.734  20.838  1.00  0.00     0.001 A 
ATOM     88  C   UNL A   1      28.338  32.532  23.113  1.00  0.00     0.001 A 
ATOM     89  C   UNL A   1      28.403  32.776  21.740  1.00  0.00     0.000 A 
ENDBRANCH  82  84
ENDBRANCH  80  82
ENDBRANCH  72  74
ENDBRANCH  71  72
ENDBRANCH  70  71
ENDBRANCH   1  70
TORSDOF 16
ENDMDL
MODEL 2
REMARK VINA RESULT:     -12.2      4.002      6.954
REMARK SMILES O=C(OCCOC(=O)[C@@H]1CCn2c(C(=O)c3ccccc3)ccc21)c1ccc(-c2c3nc(c(-c4cccc(S(=O)(=O)[O-])c4F)c4ccc([nH]4)c(-c4cccc(S(=O)(=O)[O-])c4F)c4nc(c(-c5cccc(S(=O)(=O)[O-])c5F)c5ccc2[nH]5)C=C4)C=C3)cc1
REMARK SMILES IDX 4 1 3 2 2 3 1 4 25 5 26 6 87 7 27 8 86 9 28 10 29 11 30 12
REMARK SMILES IDX 80 13 31 14 85 15 79 16 81 17 32 18 84 19 78 20 77 21 33 23
REMARK SMILES IDX 65 24 45 25 64 26 46 27 49 28 63 29 82 30 47 31 48 32 62 34
REMARK SMILES IDX 83 35 50 36 34 37 35 38 43 39 36 40 38 41 44 42 37 43 39 44
REMARK SMILES IDX 40 45 41 46 42 47 66 48 67 49 75 50 68 51 70 52 76 53 69 54
REMARK SMILES IDX 71 55 72 56 73 57 74 58 51 59 52 60 60 61 53 62 55 63 61 64
REMARK SMILES IDX 54 65 56 66 57 67 58 68 59 69 5 70 6 71 7 72 8 73 9 74 10 75
REMARK SMILES IDX 24 76 11 77 12 78 23 79 13 80 22 81 14 82 15 83 16 84 17 85
REMARK SMILES IDX 21 86 18 87 20 88 19 89
REMARK H PARENT 81 22 49 33
REMARK Flexibility Score: inf
ROOT
ATOM      1  C   UNL A   1      32.879  33.888  27.658  1.00  0.00     0.275 C 
ENDROOT
BRANCH   1   2
ATOM      2  O   UNL A   1      34.058  33.131  27.364  1.00  0.00    -0.458 OA
BRANCH   2   3
ATOM      3  C   UNL A   1      34.282  31.807  27.516  1.00  0.00     0.338 C 
ATOM      4  O   UNL A   1      33.354  31.032  27.285  1.00  0.00    -0.246 OA
BRANCH   3   5
ATOM      5  C   UNL A   1      35.552  31.231  28.071  1.00  0.00     0.060 A 
ATOM      6  C   UNL A   1      36.810  31.849  28.144  1.00  0.00     0.016 A 
ATOM      7  C   UNL A   1      35.438  29.935  28.601  1.00  0.00     0.016 A 
ATOM      8  C   UNL A   1      37.884  31.261  28.833  1.00  0.00     0.010 A 
ATOM      9  C   UNL A   1      36.504  29.343  29.281  1.00  0.00     0.010 A 
ATOM     10  C   UNL A   1      37.726  30.018  29.436  1.00  0.00    -0.014 A 
BRANCH  10  11
ATOM     11  C   UNL A   1      38.840  29.308  30.102  1.00  0.00     0.031 A 
ATOM     12  C   UNL A   1      39.267  29.843  31.432  1.00  0.00     0.074 A 
ATOM     13  C   UNL A   1      39.544  28.331  29.495  1.00  0.00     0.049 A 
ATOM     14  N   UNL A   1      40.338  29.584  32.126  1.00  0.00    -0.248 NA
ATOM     15  C   UNL A   1      38.375  30.851  32.034  1.00  0.00     0.031 C 
ATOM     16  C   UNL A   1      39.218  27.711  28.213  1.00  0.00     0.029 A 
ATOM     17  N   UNL A   1      40.726  27.731  29.854  1.00  0.00    -0.354 N 
ATOM     18  C   UNL A   1      40.268  30.429  33.223  1.00  0.00     0.074 A 
ATOM     19  C   UNL A   1      39.106  31.270  33.049  1.00  0.00     0.031 C 
ATOM     20  C   UNL A   1      40.225  26.899  27.841  1.00  0.00     0.029 A 
ATOM     21  C   UNL A   1      41.255  26.918  28.875  1.00  0.00     0.049 A 
ATOM     22  H   UNL A   1      41.156  27.869  30.729  1.00  0.00     0.167 HD
ATOM     23  C   UNL A   1      41.066  30.463  34.311  1.00  0.00     0.034 A 
ATOM     24  C   UNL A   1      42.435  26.266  28.825  1.00  0.00     0.034 A 
ATOM     25  C   UNL A   1      42.186  29.592  34.487  1.00  0.00     0.049 A 
ATOM     26  C   UNL A   1      43.330  26.318  30.039  1.00  0.00     0.074 A 
ATOM     27  C   UNL A   1      43.022  29.468  35.578  1.00  0.00     0.029 A 
ATOM     28  N   UNL A   1      42.632  28.696  33.526  1.00  0.00    -0.354 N 
ATOM     29  N   UNL A   1      43.173  27.007  31.144  1.00  0.00    -0.248 NA
ATOM     30  C   UNL A   1      44.520  25.453  30.037  1.00  0.00     0.031 C 
ATOM     31  C   UNL A   1      43.991  28.509  35.264  1.00  0.00     0.029 A 
ATOM     32  C   UNL A   1      43.734  28.013  33.993  1.00  0.00     0.049 A 
ATOM     33  H   UNL A   1      42.220  28.567  32.641  1.00  0.00     0.167 HD
ATOM     34  C   UNL A   1      44.194  26.602  31.996  1.00  0.00     0.074 A 
ATOM     35  C   UNL A   1      44.980  25.625  31.270  1.00  0.00     0.031 C 
ATOM     36  C   UNL A   1      44.448  26.991  33.270  1.00  0.00     0.034 A 
BRANCH  23  37
ATOM     37  C   UNL A   1      40.698  31.461  35.373  1.00  0.00     0.023 A 
ATOM     38  C   UNL A   1      41.588  32.513  35.683  1.00  0.00     0.012 A 
ATOM     39  C   UNL A   1      39.527  31.298  36.132  1.00  0.00     0.148 A 
ATOM     40  C   UNL A   1      41.365  33.328  36.789  1.00  0.00     0.002 A 
ATOM     41  C   UNL A   1      39.282  32.154  37.197  1.00  0.00     0.091 A 
ATOM     42  F   UNL A   1      38.707  30.280  35.837  1.00  0.00    -0.205 F 
ATOM     43  C   UNL A   1      40.211  33.150  37.545  1.00  0.00     0.022 A 
BRANCH  41  44
ATOM     44  S   UNL A   1      37.789  32.054  38.186  1.00  0.00     0.127 S 
ATOM     45  O   UNL A   1      38.274  32.478  39.497  1.00  0.00    -0.237 OA
ATOM     46  O   UNL A   1      36.913  33.013  37.515  1.00  0.00    -0.237 OA
ATOM     47  O   UNL A   1      37.347  30.666  38.099  1.00  0.00    -0.744 OA
ENDBRANCH  41  44
ENDBRANCH  23  37
BRANCH  24  48
ATOM     48  C   UNL A   1      42.798  25.436  27.639  1.00  0.00     0.023 A 
ATOM     49  C   UNL A   1      43.598  25.994  26.622  1.00  0.00     0.012 A 
ATOM     50  C   UNL A   1      42.365  24.101  27.513  1.00  0.00     0.148 A 
ATOM     51  C   UNL A   1      43.930  25.254  25.486  1.00  0.00     0.002 A 
ATOM     52  C   UNL A   1      42.728  23.357  26.394  1.00  0.00     0.091 A 
ATOM     53  F   UNL A   1      41.614  23.584  28.496  1.00  0.00    -0.205 F 
ATOM     54  C   UNL A   1      43.498  23.935  25.372  1.00  0.00     0.022 A 
BRANCH  52  55
ATOM     55  S   UNL A   1      42.293  21.626  26.186  1.00  0.00     0.127 S 
ATOM     56  O   UNL A   1      40.875  21.712  25.844  1.00  0.00    -0.237 OA
ATOM     57  O   UNL A   1      43.172  21.231  25.085  1.00  0.00    -0.237 OA
ATOM     58  O   UNL A   1      42.592  20.990  27.463  1.00  0.00    -0.744 OA
ENDBRANCH  52  55
ENDBRANCH  24  48
BRANCH  36  59
ATOM     59  C   UNL A   1      45.562  26.314  34.017  1.00  0.00     0.023 A 
ATOM     60  C   UNL A   1      46.847  26.883  34.044  1.00  0.00     0.012 A 
ATOM     61  C   UNL A   1      45.266  25.213  34.848  1.00  0.00     0.148 A 
ATOM     62  C   UNL A   1      47.825  26.367  34.893  1.00  0.00     0.002 A 
ATOM     63  C   UNL A   1      46.226  24.742  35.730  1.00  0.00     0.091 A 
ATOM     64  F   UNL A   1      44.037  24.678  34.784  1.00  0.00    -0.205 F 
ATOM     65  C   UNL A   1      47.509  25.313  35.750  1.00  0.00     0.022 A 
BRANCH  63  66
ATOM     66  S   UNL A   1      45.865  23.482  36.959  1.00  0.00     0.127 S 
ATOM     67  O   UNL A   1      47.184  23.258  37.549  1.00  0.00    -0.237 OA
ATOM     68  O   UNL A   1      44.913  24.168  37.832  1.00  0.00    -0.237 OA
ATOM     69  O   UNL A   1      45.312  22.350  36.228  1.00  0.00    -0.744 OA
ENDBRANCH  63  66
ENDBRANCH  36  59
ENDBRANCH  10  11
ENDBRANCH   3   5
ENDBRANCH   2   3
ENDBRANCH   1   2
BRANCH   1  70
ATOM     70  C   UNL A   1      33.104  35.101  28.567  1.00  0.00     0.274 C 
BRANCH  70  71
ATOM     71  O   UNL A   1      32.286  35.141  29.752  1.00  0.00    -0.462 OA
BRANCH  71  72
ATOM     72  C   UNL A   1      32.632  36.084  30.686  1.00  0.00     0.315 C 
ATOM     73  O   UNL A   1      32.712  37.281  30.422  1.00  0.00    -0.251 OA
BRANCH  72  74
ATOM     74  C   UNL A   1      33.071  35.466  32.023  1.00  0.00     0.148 C 
ATOM     75  C   UNL A   1      33.386  36.437  33.175  1.00  0.00     0.043 C 
ATOM     76  C   UNL A   1      34.350  34.718  31.897  1.00  0.00     0.033 A 
ATOM     77  C   UNL A   1      34.802  36.136  33.699  1.00  0.00     0.124 C 
ATOM     78  N   UNL A   1      35.299  35.121  32.799  1.00  0.00    -0.341 N 
ATOM     79  C   UNL A   1      34.860  33.680  31.173  1.00  0.00     0.025 A 
ATOM     80  C   UNL A   1      36.475  34.452  32.634  1.00  0.00     0.090 A 
ATOM     81  C   UNL A   1      36.188  33.510  31.638  1.00  0.00     0.032 A 
BRANCH  80  82
ATOM     82  C   UNL A   1      37.790  34.599  33.254  1.00  0.00     0.209 C 
ATOM     83  O   UNL A   1      37.916  34.654  34.481  1.00  0.00    -0.287 OA
BRANCH  82  84
ATOM     84  C   UNL A   1      39.069  34.589  32.504  1.00  0.00     0.024 A 
ATOM     85  C   UNL A   1      39.002  34.411  31.111  1.00  0.00     0.012 A 
ATOM     86  C   UNL A   1      40.313  34.577  33.138  1.00  0.00     0.012 A 
ATOM     87  C   UNL A   1      40.169  34.266  30.357  1.00  0.00     0.001 A 
ATOM     88  C   UNL A   1      41.482  34.453  32.376  1.00  0.00     0.001 A 
ATOM     89  C   UNL A   1      41.410  34.297  30.990  1.00  0.00     0.000 A 
ENDBRANCH  82  84
ENDBRANCH  80  82
ENDBRANCH  72  74
ENDBRANCH  71  72
ENDBRANCH  70  71
ENDBRANCH   1  70
TORSDOF 16
ENDMDL
MODEL 3
REMARK VINA RESULT:     -12.1      5.942     12.336
REMARK SMILES O=C(OCCOC(=O)[C@@H]1CCn2c(C(=O)c3ccccc3)ccc21)c1ccc(-c2c3nc(c(-c4cccc(S(=O)(=O)[O-])c4F)c4ccc([nH]4)c(-c4cccc(S(=O)(=O)[O-])c4F)c4nc(c(-c5cccc(S(=O)(=O)[O-])c5F)c5ccc2[nH]5)C=C4)C=C3)cc1
REMARK SMILES IDX 4 1 3 2 2 3 1 4 25 5 26 6 87 7 27 8 86 9 28 10 29 11 30 12
REMARK SMILES IDX 80 13 31 14 85 15 79 16 81 17 32 18 84 19 78 20 77 21 33 23
REMARK SMILES IDX 65 24 45 25 64 26 46 27 49 28 63 29 82 30 47 31 48 32 62 34
REMARK SMILES IDX 83 35 50 36 34 37 35 38 43 39 36 40 38 41 44 42 37 43 39 44
REMARK SMILES IDX 40 45 41 46 42 47 66 48 67 49 75 50 68 51 70 52 76 53 69 54
REMARK SMILES IDX 71 55 72 56 73 57 74 58 51 59 52 60 60 61 53 62 55 63 61 64
REMARK SMILES IDX 54 65 56 66 57 67 58 68 59 69 5 70 6 71 7 72 8 73 9 74 10 75
REMARK SMILES IDX 24 76 11 77 12 78 23 79 13 80 22 81 14 82 15 83 16 84 17 85
REMARK SMILES IDX 21 86 18 87 20 88 19 89
REMARK H PARENT 81 22 49 33
REMARK Flexibility Score: inf
ROOT
ATOM      1  C   UNL A   1      40.794  21.145  27.727  1.00  0.00     0.275 C 
ENDROOT
BRANCH   1   2
ATOM      2  O   UNL A   1      40.088  21.556  26.552  1.00  0.00    -0.458 OA
BRANCH   2   3
ATOM      3  C   UNL A   1      39.206  22.569  26.396  1.00  0.00     0.338 C 
ATOM      4  O   UNL A   1      38.218  22.373  25.690  1.00  0.00    -0.246 OA
BRANCH   3   5
ATOM      5  C   UNL A   1      39.422  23.956  26.928  1.00  0.00     0.060 A 
ATOM      6  C   UNL A   1      39.186  24.418  28.232  1.00  0.00     0.016 A 
ATOM      7  C   UNL A   1      39.951  24.873  26.005  1.00  0.00     0.016 A 
ATOM      8  C   UNL A   1      39.581  25.701  28.645  1.00  0.00     0.010 A 
ATOM      9  C   UNL A   1      40.339  26.152  26.408  1.00  0.00     0.010 A 
ATOM     10  C   UNL A   1      40.192  26.564  27.743  1.00  0.00    -0.014 A 
BRANCH  10  11
ATOM     11  C   UNL A   1      40.554  27.956  28.092  1.00  0.00     0.031 A 
ATOM     12  C   UNL A   1      42.015  28.252  28.209  1.00  0.00     0.074 A 
ATOM     13  C   UNL A   1      39.634  28.880  28.437  1.00  0.00     0.049 A 
ATOM     14  N   UNL A   1      42.612  29.292  28.718  1.00  0.00    -0.248 NA
ATOM     15  C   UNL A   1      42.924  27.198  27.726  1.00  0.00     0.031 C 
ATOM     16  C   UNL A   1      38.184  28.720  28.346  1.00  0.00     0.029 A 
ATOM     17  N   UNL A   1      39.788  30.123  29.001  1.00  0.00    -0.354 N 
ATOM     18  C   UNL A   1      43.965  28.994  28.655  1.00  0.00     0.074 A 
ATOM     19  C   UNL A   1      44.090  27.646  28.151  1.00  0.00     0.031 C 
ATOM     20  C   UNL A   1      37.582  29.772  28.930  1.00  0.00     0.029 A 
ATOM     21  C   UNL A   1      38.604  30.697  29.410  1.00  0.00     0.049 A 
ATOM     22  H   UNL A   1      40.663  30.563  29.103  1.00  0.00     0.167 HD
ATOM     23  C   UNL A   1      45.017  29.794  28.933  1.00  0.00     0.034 A 
ATOM     24  C   UNL A   1      38.378  31.837  30.094  1.00  0.00     0.034 A 
ATOM     25  C   UNL A   1      44.874  31.142  29.389  1.00  0.00     0.049 A 
ATOM     26  C   UNL A   1      39.558  32.722  30.416  1.00  0.00     0.074 A 
ATOM     27  C   UNL A   1      45.856  32.083  29.625  1.00  0.00     0.029 A 
ATOM     28  N   UNL A   1      43.657  31.737  29.686  1.00  0.00    -0.354 N 
ATOM     29  N   UNL A   1      40.833  32.495  30.208  1.00  0.00    -0.248 NA
ATOM     30  C   UNL A   1      39.272  34.044  30.994  1.00  0.00     0.031 C 
ATOM     31  C   UNL A   1      45.229  33.243  30.091  1.00  0.00     0.029 A 
ATOM     32  C   UNL A   1      43.857  33.034  30.108  1.00  0.00     0.049 A 
ATOM     33  H   UNL A   1      42.779  31.298  29.607  1.00  0.00     0.167 HD
ATOM     34  C   UNL A   1      41.493  33.669  30.552  1.00  0.00     0.074 A 
ATOM     35  C   UNL A   1      40.478  34.598  31.008  1.00  0.00     0.031 C 
ATOM     36  C   UNL A   1      42.816  33.957  30.484  1.00  0.00     0.034 A 
BRANCH  23  37
ATOM     37  C   UNL A   1      46.379  29.201  28.709  1.00  0.00     0.023 A 
ATOM     38  C   UNL A   1      47.034  29.402  27.474  1.00  0.00     0.012 A 
ATOM     39  C   UNL A   1      46.962  28.363  29.674  1.00  0.00     0.148 A 
ATOM     40  C   UNL A   1      48.200  28.705  27.167  1.00  0.00     0.002 A 
ATOM     41  C   UNL A   1      48.157  27.718  29.383  1.00  0.00     0.091 A 
ATOM     42  F   UNL A   1      46.313  28.166  30.830  1.00  0.00    -0.205 F 
ATOM     43  C   UNL A   1      48.762  27.864  28.123  1.00  0.00     0.022 A 
BRANCH  41  44
ATOM     44  S   UNL A   1      48.999  26.674  30.574  1.00  0.00     0.127 S 
ATOM     45  O   UNL A   1      50.120  26.172  29.785  1.00  0.00    -0.237 OA
ATOM     46  O   UNL A   1      49.361  27.631  31.617  1.00  0.00    -0.237 OA
ATOM     47  O   UNL A   1      48.021  25.671  30.984  1.00  0.00    -0.744 OA
ENDBRANCH  41  44
ENDBRANCH  23  37
BRANCH  24  48
ATOM     48  C   UNL A   1      36.988  32.259  30.435  1.00  0.00     0.023 A 
ATOM     49  C   UNL A   1      36.468  31.963  31.711  1.00  0.00     0.012 A 
ATOM     50  C   UNL A   1      36.182  32.954  29.513  1.00  0.00     0.148 A 
ATOM     51  C   UNL A   1      35.160  32.318  32.051  1.00  0.00     0.002 A 
ATOM     52  C   UNL A   1      34.891  33.335  29.869  1.00  0.00     0.091 A 
ATOM     53  F   UNL A   1      36.698  33.236  28.308  1.00  0.00    -0.205 F 
ATOM     54  C   UNL A   1      34.373  33.006  31.132  1.00  0.00     0.022 A 
BRANCH  52  55
ATOM     55  S   UNL A   1      33.820  34.295  28.791  1.00  0.00     0.127 S 
ATOM     56  O   UNL A   1      33.367  33.282  27.840  1.00  0.00    -0.237 OA
ATOM     57  O   UNL A   1      32.800  34.763  29.729  1.00  0.00    -0.237 OA
ATOM     58  O   UNL A   1      34.663  35.344  28.234  1.00  0.00    -0.744 OA
ENDBRANCH  52  55
ENDBRANCH  24  48
BRANCH  36  59
ATOM     59  C   UNL A   1      43.263  35.352  30.817  1.00  0.00     0.023 A 
ATOM     60  C   UNL A   1      43.767  35.648  32.096  1.00  0.00     0.012 A 
ATOM     61  C   UNL A   1      43.356  36.312  29.788  1.00  0.00     0.148 A 
ATOM     62  C   UNL A   1      44.363  36.883  32.346  1.00  0.00     0.002 A 
ATOM     63  C   UNL A   1      44.001  37.515  30.029  1.00  0.00     0.091 A 
ATOM     64  F   UNL A   1      42.846  36.008  28.585  1.00  0.00    -0.205 F 
ATOM     65  C   UNL A   1      44.500  37.806  31.309  1.00  0.00     0.022 A 
BRANCH  63  66
ATOM     66  S   UNL A   1      44.340  38.702  28.723  1.00  0.00     0.127 S 
ATOM     67  O   UNL A   1      45.059  39.746  29.450  1.00  0.00    -0.237 OA
ATOM     68  O   UNL A   1      45.164  37.918  27.802  1.00  0.00    -0.237 OA
ATOM     69  O   UNL A   1      43.043  39.098  28.190  1.00  0.00    -0.744 OA
ENDBRANCH  63  66
ENDBRANCH  36  59
ENDBRANCH  10  11
ENDBRANCH   3   5
ENDBRANCH   2   3
ENDBRANCH   1   2
BRANCH   1  70
ATOM     70  C   UNL A   1      41.549  19.819  27.592  1.00  0.00     0.274 C 
BRANCH  70  71
ATOM     71  O   UNL A   1      42.889  19.924  27.072  1.00  0.00    -0.462 OA
BRANCH  71  72
ATOM     72  C   UNL A   1      43.097  19.356  25.841  1.00  0.00     0.315 C 
ATOM     73  O   UNL A   1      42.713  18.224  25.558  1.00  0.00    -0.251 OA
BRANCH  72  74
ATOM     74  C   UNL A   1      43.998  20.210  24.935  1.00  0.00     0.148 C 
ATOM     75  C   UNL A   1      45.519  20.034  25.092  1.00  0.00     0.043 C 
ATOM     76  C   UNL A   1      43.832  21.665  25.198  1.00  0.00     0.033 A 
ATOM     77  C   UNL A   1      46.150  21.413  25.356  1.00  0.00     0.124 C 
ATOM     78  N   UNL A   1      45.016  22.302  25.462  1.00  0.00    -0.341 N 
ATOM     79  C   UNL A   1      42.835  22.596  25.198  1.00  0.00     0.025 A 
ATOM     80  C   UNL A   1      44.832  23.623  25.743  1.00  0.00     0.090 A 
ATOM     81  C   UNL A   1      43.461  23.823  25.533  1.00  0.00     0.032 A 
BRANCH  80  82
ATOM     82  C   UNL A   1      45.743  24.673  26.190  1.00  0.00     0.209 C 
ATOM     83  O   UNL A   1      46.084  24.763  27.373  1.00  0.00    -0.287 OA
BRANCH  82  84
ATOM     84  C   UNL A   1      46.410  25.638  25.282  1.00  0.00     0.024 A 
ATOM     85  C   UNL A   1      47.746  25.379  24.932  1.00  0.00     0.012 A 
ATOM     86  C   UNL A   1      45.826  26.851  24.912  1.00  0.00     0.012 A 
ATOM     87  C   UNL A   1      48.476  26.307  24.184  1.00  0.00     0.001 A 
ATOM     88  C   UNL A   1      46.554  27.768  24.143  1.00  0.00     0.001 A 
ATOM     89  C   UNL A   1      47.875  27.497  23.782  1.00  0.00     0.000 A 
ENDBRANCH  82  84
ENDBRANCH  80  82
ENDBRANCH  72  74
ENDBRANCH  71  72
ENDBRANCH  70  71
ENDBRANCH   1  70
TORSDOF 16
ENDMDL
