MODEL 1
REMARK VINA RESULT:     -11.9      0.000      0.000
REMARK SMILES C[C@@H](C(=O)OCCOC(=O)c1ccc(-c2c3nc(c(-c4cccc(S(=O)(=O)[O-])c4F)c4ccc([nH]4)c(-c4cccc(S(=O)(=O)[O-])c4F)c4nc(c(-c5cccc(S(=O)(=O)[O-])c5F)c5ccc2[nH]5)C=C4)C=C3)cc1)[C@H]1CCOC2(CCCCC2)C1
REMARK SMILES IDX 7 1 6 2 5 3 3 4 4 5 2 6 1 7 74 8 75 9 84 10 76 11 78 12
REMARK SMILES IDX 77 13 79 14 83 15 80 16 82 17 81 18 8 19 9 20 10 21 11 22
REMARK SMILES IDX 12 23 73 24 13 25 72 26 14 27 15 28 16 29 66 30 17 31 71 32
REMARK SMILES IDX 65 33 67 34 18 35 70 36 64 37 63 38 19 40 51 41 31 42 50 43
REMARK SMILES IDX 32 44 35 45 49 46 68 47 33 48 34 49 48 51 69 52 36 53 20 54
REMARK SMILES IDX 21 55 29 56 22 57 24 58 30 59 23 60 25 61 26 62 27 63 28 64
REMARK SMILES IDX 52 65 53 66 61 67 54 68 56 69 62 70 55 71 57 72 58 73 59 74
REMARK SMILES IDX 60 75 37 76 38 77 46 78 39 79 41 80 47 81 40 82 42 83 43 84
REMARK SMILES IDX 44 85 45 86
REMARK H PARENT 67 39 35 50
REMARK Flexibility Score: inf
ROOT
ATOM      1  C   UNL A   1      36.061  20.455  24.973  1.00  0.00     0.275 C 
ENDROOT
BRANCH   1   2
ATOM      2  C   UNL A   1      34.667  21.030  24.747  1.00  0.00     0.274 C 
BRANCH   2   3
ATOM      3  O   UNL A   1      34.740  22.471  24.737  1.00  0.00    -0.462 OA
BRANCH   3   4
ATOM      4  C   UNL A   1      34.775  23.080  23.522  1.00  0.00     0.309 C 
ATOM      5  O   UNL A   1      35.786  23.215  22.843  1.00  0.00    -0.252 OA
BRANCH   4   6
ATOM      6  C   UNL A   1      33.402  23.596  23.070  1.00  0.00     0.099 C 
ATOM      7  C   UNL A   1      33.124  23.320  21.591  1.00  0.00     0.020 C 
BRANCH   6   8
ATOM      8  C   UNL A   1      33.261  25.087  23.503  1.00  0.00     0.008 C 
ATOM      9  C   UNL A   1      32.536  26.016  22.520  1.00  0.00     0.033 C 
ATOM     10  C   UNL A   1      32.595  25.221  24.893  1.00  0.00     0.040 C 
ATOM     11  C   UNL A   1      32.480  27.440  23.059  1.00  0.00     0.161 C 
ATOM     12  C   UNL A   1      32.544  26.694  25.365  1.00  0.00     0.069 C 
ATOM     13  O   UNL A   1      31.899  27.484  24.355  1.00  0.00    -0.375 OA
ATOM     14  C   UNL A   1      33.955  27.204  25.729  1.00  0.00     0.035 C 
ATOM     15  C   UNL A   1      31.664  26.839  26.626  1.00  0.00     0.035 C 
ATOM     16  C   UNL A   1      33.957  28.654  26.205  1.00  0.00     0.003 C 
ATOM     17  C   UNL A   1      31.638  28.286  27.140  1.00  0.00     0.003 C 
ATOM     18  C   UNL A   1      33.038  28.834  27.407  1.00  0.00     0.000 C 
ENDBRANCH   6   8
ENDBRANCH   4   6
ENDBRANCH   3   4
ENDBRANCH   2   3
ENDBRANCH   1   2
BRANCH   1  19
ATOM     19  O   UNL A   1      36.828  21.402  25.736  1.00  0.00    -0.458 OA
BRANCH  19  20
ATOM     20  C   UNL A   1      38.171  21.234  25.735  1.00  0.00     0.338 C 
ATOM     21  O   UNL A   1      38.790  20.276  25.307  1.00  0.00    -0.246 OA
BRANCH  20  22
ATOM     22  C   UNL A   1      38.816  22.422  26.336  1.00  0.00     0.060 A 
ATOM     23  C   UNL A   1      38.267  23.688  26.155  1.00  0.00     0.016 A 
ATOM     24  C   UNL A   1      40.030  22.287  27.015  1.00  0.00     0.016 A 
ATOM     25  C   UNL A   1      38.983  24.813  26.567  1.00  0.00     0.010 A 
ATOM     26  C   UNL A   1      40.697  23.423  27.501  1.00  0.00     0.010 A 
ATOM     27  C   UNL A   1      40.211  24.714  27.237  1.00  0.00    -0.014 A 
BRANCH  27  28
ATOM     28  C   UNL A   1      40.997  25.952  27.562  1.00  0.00     0.031 A 
ATOM     29  C   UNL A   1      40.450  26.979  28.529  1.00  0.00     0.074 A 
ATOM     30  C   UNL A   1      42.235  26.153  27.058  1.00  0.00     0.049 A 
ATOM     31  N   UNL A   1      40.898  28.180  28.797  1.00  0.00    -0.248 NA
ATOM     32  C   UNL A   1      39.231  26.624  29.275  1.00  0.00     0.031 C 
ATOM     33  C   UNL A   1      42.934  25.257  26.138  1.00  0.00     0.029 A 
ATOM     34  N   UNL A   1      43.146  27.162  27.280  1.00  0.00    -0.354 N 
ATOM     35  C   UNL A   1      39.952  28.764  29.633  1.00  0.00     0.074 A 
ATOM     36  C   UNL A   1      38.930  27.769  29.870  1.00  0.00     0.031 C 
ATOM     37  C   UNL A   1      44.192  25.688  25.967  1.00  0.00     0.029 A 
ATOM     38  C   UNL A   1      44.362  26.958  26.665  1.00  0.00     0.049 A 
ATOM     39  H   UNL A   1      42.947  27.956  27.827  1.00  0.00     0.167 HD
ATOM     40  C   UNL A   1      39.931  30.018  30.148  1.00  0.00     0.034 A 
ATOM     41  C   UNL A   1      45.482  27.712  26.638  1.00  0.00     0.034 A 
ATOM     42  C   UNL A   1      41.005  30.967  30.025  1.00  0.00     0.049 A 
ATOM     43  C   UNL A   1      45.478  29.059  27.307  1.00  0.00     0.074 A 
ATOM     44  C   UNL A   1      41.063  32.268  30.497  1.00  0.00     0.029 A 
ATOM     45  N   UNL A   1      42.228  30.703  29.432  1.00  0.00    -0.354 N 
ATOM     46  N   UNL A   1      44.544  29.617  28.037  1.00  0.00    -0.248 NA
ATOM     47  C   UNL A   1      46.677  29.893  27.127  1.00  0.00     0.031 C 
ATOM     48  C   UNL A   1      42.328  32.787  30.197  1.00  0.00     0.029 A 
ATOM     49  C   UNL A   1      43.055  31.809  29.541  1.00  0.00     0.049 A 
ATOM     50  H   UNL A   1      42.474  29.855  28.997  1.00  0.00     0.167 HD
ATOM     51  C   UNL A   1      45.030  30.874  28.381  1.00  0.00     0.074 A 
ATOM     52  C   UNL A   1      46.369  30.969  27.837  1.00  0.00     0.031 C 
ATOM     53  C   UNL A   1      44.402  31.877  29.040  1.00  0.00     0.034 A 
BRANCH  40  54
ATOM     54  C   UNL A   1      38.698  30.446  30.898  1.00  0.00     0.023 A 
ATOM     55  C   UNL A   1      38.603  30.235  32.286  1.00  0.00     0.012 A 
ATOM     56  C   UNL A   1      37.655  31.115  30.225  1.00  0.00     0.148 A 
ATOM     57  C   UNL A   1      37.478  30.664  32.991  1.00  0.00     0.002 A 
ATOM     58  C   UNL A   1      36.555  31.574  30.941  1.00  0.00     0.091 A 
ATOM     59  F   UNL A   1      37.752  31.282  28.899  1.00  0.00    -0.205 F 
ATOM     60  C   UNL A   1      36.461  31.342  32.321  1.00  0.00     0.022 A 
BRANCH  58  61
ATOM     61  S   UNL A   1      35.239  32.522  30.164  1.00  0.00     0.127 S 
ATOM     62  O   UNL A   1      35.962  33.704  29.698  1.00  0.00    -0.237 OA
ATOM     63  O   UNL A   1      34.791  31.622  29.100  1.00  0.00    -0.237 OA
ATOM     64  O   UNL A   1      34.253  32.754  31.210  1.00  0.00    -0.744 OA
ENDBRANCH  58  61
ENDBRANCH  40  54
BRANCH  41  65
ATOM     65  C   UNL A   1      46.713  27.197  25.969  1.00  0.00     0.023 A 
ATOM     66  C   UNL A   1      46.915  27.469  24.601  1.00  0.00     0.012 A 
ATOM     67  C   UNL A   1      47.711  26.497  26.674  1.00  0.00     0.148 A 
ATOM     68  C   UNL A   1      48.078  27.050  23.952  1.00  0.00     0.002 A 
ATOM     69  C   UNL A   1      48.901  26.156  26.043  1.00  0.00     0.091 A 
ATOM     70  F   UNL A   1      47.494  26.197  27.964  1.00  0.00    -0.205 F 
ATOM     71  C   UNL A   1      49.082  26.414  24.677  1.00  0.00     0.022 A 
BRANCH  69  72
ATOM     72  S   UNL A   1      50.294  25.525  26.988  1.00  0.00     0.127 S 
ATOM     73  O   UNL A   1      50.543  26.613  27.929  1.00  0.00    -0.237 OA
ATOM     74  O   UNL A   1      49.748  24.306  27.586  1.00  0.00    -0.237 OA
ATOM     75  O   UNL A   1      51.328  25.278  25.989  1.00  0.00    -0.744 OA
ENDBRANCH  69  72
ENDBRANCH  41  65
BRANCH  53  76
ATOM     76  C   UNL A   1      45.140  33.182  29.187  1.00  0.00     0.023 A 
ATOM     77  C   UNL A   1      45.971  33.372  30.308  1.00  0.00     0.012 A 
ATOM     78  C   UNL A   1      45.074  34.180  28.196  1.00  0.00     0.148 A 
ATOM     79  C   UNL A   1      46.709  34.545  30.455  1.00  0.00     0.002 A 
ATOM     80  C   UNL A   1      45.839  35.333  28.332  1.00  0.00     0.091 A 
ATOM     81  F   UNL A   1      44.261  33.990  27.147  1.00  0.00    -0.205 F 
ATOM     82  C   UNL A   1      46.651  35.521  29.463  1.00  0.00     0.022 A 
BRANCH  80  83
ATOM     83  S   UNL A   1      45.883  36.608  27.066  1.00  0.00     0.127 S 
ATOM     84  O   UNL A   1      46.880  37.530  27.606  1.00  0.00    -0.237 OA
ATOM     85  O   UNL A   1      46.318  35.865  25.883  1.00  0.00    -0.237 OA
ATOM     86  O   UNL A   1      44.524  37.127  26.982  1.00  0.00    -0.744 OA
ENDBRANCH  80  83
ENDBRANCH  53  76
ENDBRANCH  27  28
ENDBRANCH  20  22
ENDBRANCH  19  20
ENDBRANCH   1  19
TORSDOF 15
ENDMDL
MODEL 2
REMARK VINA RESULT:     -11.7      4.802     10.002
REMARK SMILES C[C@@H](C(=O)OCCOC(=O)c1ccc(-c2c3nc(c(-c4cccc(S(=O)(=O)[O-])c4F)c4ccc([nH]4)c(-c4cccc(S(=O)(=O)[O-])c4F)c4nc(c(-c5cccc(S(=O)(=O)[O-])c5F)c5ccc2[nH]5)C=C4)C=C3)cc1)[C@H]1CCOC2(CCCCC2)C1
REMARK SMILES IDX 7 1 6 2 5 3 3 4 4 5 2 6 1 7 74 8 75 9 84 10 76 11 78 12
REMARK SMILES IDX 77 13 79 14 83 15 80 16 82 17 81 18 8 19 9 20 10 21 11 22
REMARK SMILES IDX 12 23 73 24 13 25 72 26 14 27 15 28 16 29 66 30 17 31 71 32
REMARK SMILES IDX 65 33 67 34 18 35 70 36 64 37 63 38 19 40 51 41 31 42 50 43
REMARK SMILES IDX 32 44 35 45 49 46 68 47 33 48 34 49 48 51 69 52 36 53 20 54
REMARK SMILES IDX 21 55 29 56 22 57 24 58 30 59 23 60 25 61 26 62 27 63 28 64
REMARK SMILES IDX 52 65 53 66 61 67 54 68 56 69 62 70 55 71 57 72 58 73 59 74
REMARK SMILES IDX 60 75 37 76 38 77 46 78 39 79 41 80 47 81 40 82 42 83 43 84
REMARK SMILES IDX 44 85 45 86
REMARK H PARENT 67 39 35 50
REMARK Flexibility Score: inf
ROOT
ATOM      1  C   UNL A   1      31.490  29.765  25.839  1.00  0.00     0.275 C 
ENDROOT
BRANCH   1   2
ATOM      2  C   UNL A   1      30.971  29.717  24.406  1.00  0.00     0.274 C 
BRANCH   2   3
ATOM      3  O   UNL A   1      31.233  28.414  23.845  1.00  0.00    -0.462 OA
BRANCH   3   4
ATOM      4  C   UNL A   1      30.303  27.908  22.993  1.00  0.00     0.309 C 
ATOM      5  O   UNL A   1      29.873  28.495  22.007  1.00  0.00    -0.252 OA
BRANCH   4   6
ATOM      6  C   UNL A   1      29.826  26.505  23.389  1.00  0.00     0.099 C 
ATOM      7  C   UNL A   1      28.447  26.512  24.051  1.00  0.00     0.020 C 
BRANCH   6   8
ATOM      8  C   UNL A   1      30.952  25.807  24.212  1.00  0.00     0.008 C 
ATOM      9  C   UNL A   1      30.564  25.308  25.610  1.00  0.00     0.033 C 
ATOM     10  C   UNL A   1      31.595  24.638  23.430  1.00  0.00     0.040 C 
ATOM     11  C   UNL A   1      31.756  24.662  26.306  1.00  0.00     0.161 C 
ATOM     12  C   UNL A   1      32.777  24.010  24.206  1.00  0.00     0.069 C 
ATOM     13  O   UNL A   1      32.325  23.629  25.514  1.00  0.00    -0.375 OA
ATOM     14  C   UNL A   1      33.988  24.969  24.236  1.00  0.00     0.035 C 
ATOM     15  C   UNL A   1      33.246  22.701  23.535  1.00  0.00     0.035 C 
ATOM     16  C   UNL A   1      35.183  24.392  24.988  1.00  0.00     0.003 C 
ATOM     17  C   UNL A   1      34.450  22.085  24.262  1.00  0.00     0.003 C 
ATOM     18  C   UNL A   1      35.617  23.062  24.385  1.00  0.00     0.000 C 
ENDBRANCH   6   8
ENDBRANCH   4   6
ENDBRANCH   3   4
ENDBRANCH   2   3
ENDBRANCH   1   2
BRANCH   1  19
ATOM     19  O   UNL A   1      32.791  30.378  25.833  1.00  0.00    -0.458 OA
BRANCH  19  20
ATOM     20  C   UNL A   1      33.060  31.233  26.847  1.00  0.00     0.338 C 
ATOM     21  O   UNL A   1      32.342  32.124  27.266  1.00  0.00    -0.246 OA
BRANCH  20  22
ATOM     22  C   UNL A   1      34.392  30.923  27.411  1.00  0.00     0.060 A 
ATOM     23  C   UNL A   1      34.773  29.602  27.630  1.00  0.00     0.016 A 
ATOM     24  C   UNL A   1      35.239  31.961  27.810  1.00  0.00     0.016 A 
ATOM     25  C   UNL A   1      35.950  29.334  28.332  1.00  0.00     0.010 A 
ATOM     26  C   UNL A   1      36.462  31.673  28.437  1.00  0.00     0.010 A 
ATOM     27  C   UNL A   1      36.814  30.352  28.760  1.00  0.00    -0.014 A 
BRANCH  27  28
ATOM     28  C   UNL A   1      38.011  30.023  29.606  1.00  0.00     0.031 A 
ATOM     29  C   UNL A   1      39.185  29.270  29.019  1.00  0.00     0.074 A 
ATOM     30  C   UNL A   1      38.104  30.442  30.888  1.00  0.00     0.049 A 
ATOM     31  N   UNL A   1      40.218  28.747  29.630  1.00  0.00    -0.248 NA
ATOM     32  C   UNL A   1      39.191  29.056  27.562  1.00  0.00     0.031 C 
ATOM     33  C   UNL A   1      37.086  31.205  31.608  1.00  0.00     0.029 A 
ATOM     34  N   UNL A   1      39.124  30.319  31.804  1.00  0.00    -0.354 N 
ATOM     35  C   UNL A   1      40.919  28.038  28.660  1.00  0.00     0.074 A 
ATOM     36  C   UNL A   1      40.223  28.239  27.409  1.00  0.00     0.031 C 
ATOM     37  C   UNL A   1      37.571  31.578  32.800  1.00  0.00     0.029 A 
ATOM     38  C   UNL A   1      38.891  30.984  32.988  1.00  0.00     0.049 A 
ATOM     39  H   UNL A   1      39.945  29.803  31.631  1.00  0.00     0.167 HD
ATOM     40  C   UNL A   1      42.035  27.282  28.801  1.00  0.00     0.034 A 
ATOM     41  C   UNL A   1      39.634  31.089  34.110  1.00  0.00     0.034 A 
ATOM     42  C   UNL A   1      42.806  27.184  30.011  1.00  0.00     0.049 A 
ATOM     43  C   UNL A   1      40.926  30.325  34.211  1.00  0.00     0.074 A 
ATOM     44  C   UNL A   1      43.940  26.425  30.251  1.00  0.00     0.029 A 
ATOM     45  N   UNL A   1      42.557  27.904  31.167  1.00  0.00    -0.354 N 
ATOM     46  N   UNL A   1      41.535  29.607  33.300  1.00  0.00    -0.248 NA
ATOM     47  C   UNL A   1      41.623  30.367  35.506  1.00  0.00     0.031 C 
ATOM     48  C   UNL A   1      44.381  26.695  31.552  1.00  0.00     0.029 A 
ATOM     49  C   UNL A   1      43.523  27.623  32.118  1.00  0.00     0.049 A 
ATOM     50  H   UNL A   1      41.803  28.524  31.294  1.00  0.00     0.167 HD
ATOM     51  C   UNL A   1      42.669  29.092  33.917  1.00  0.00     0.074 A 
ATOM     52  C   UNL A   1      42.700  29.635  35.259  1.00  0.00     0.031 C 
ATOM     53  C   UNL A   1      43.573  28.205  33.433  1.00  0.00     0.034 A 
BRANCH  40  54
ATOM     54  C   UNL A   1      42.496  26.487  27.609  1.00  0.00     0.023 A 
ATOM     55  C   UNL A   1      43.360  27.067  26.661  1.00  0.00     0.012 A 
ATOM     56  C   UNL A   1      42.115  25.138  27.463  1.00  0.00     0.148 A 
ATOM     57  C   UNL A   1      43.821  26.323  25.574  1.00  0.00     0.002 A 
ATOM     58  C   UNL A   1      42.608  24.391  26.400  1.00  0.00     0.091 A 
ATOM     59  F   UNL A   1      41.269  24.611  28.361  1.00  0.00    -0.205 F 
ATOM     60  C   UNL A   1      43.453  24.984  25.450  1.00  0.00     0.022 A 
BRANCH  58  61
ATOM     61  S   UNL A   1      42.242  22.641  26.211  1.00  0.00     0.127 S 
ATOM     62  O   UNL A   1      42.837  22.082  27.424  1.00  0.00    -0.237 OA
ATOM     63  O   UNL A   1      40.778  22.627  26.188  1.00  0.00    -0.237 OA
ATOM     64  O   UNL A   1      42.866  22.242  24.958  1.00  0.00    -0.744 OA
ENDBRANCH  58  61
ENDBRANCH  40  54
BRANCH  41  65
ATOM     65  C   UNL A   1      39.183  31.972  35.226  1.00  0.00     0.023 A 
ATOM     66  C   UNL A   1      38.329  31.445  36.215  1.00  0.00     0.012 A 
ATOM     67  C   UNL A   1      39.629  33.301  35.355  1.00  0.00     0.148 A 
ATOM     68  C   UNL A   1      37.928  32.224  37.303  1.00  0.00     0.002 A 
ATOM     69  C   UNL A   1      39.293  34.044  36.481  1.00  0.00     0.091 A 
ATOM     70  F   UNL A   1      40.402  33.816  34.385  1.00  0.00    -0.205 F 
ATOM     71  C   UNL A   1      38.427  33.515  37.448  1.00  0.00     0.022 A 
BRANCH  69  72
ATOM     72  S   UNL A   1      40.078  35.627  36.806  1.00  0.00     0.127 S 
ATOM     73  O   UNL A   1      41.496  35.283  36.748  1.00  0.00    -0.237 OA
ATOM     74  O   UNL A   1      39.599  36.455  35.698  1.00  0.00    -0.237 OA
ATOM     75  O   UNL A   1      39.559  36.029  38.108  1.00  0.00    -0.744 OA
ENDBRANCH  69  72
ENDBRANCH  41  65
BRANCH  53  76
ATOM     76  C   UNL A   1      44.658  27.738  34.366  1.00  0.00     0.023 A 
ATOM     77  C   UNL A   1      45.866  28.461  34.423  1.00  0.00     0.012 A 
ATOM     78  C   UNL A   1      44.465  26.644  35.231  1.00  0.00     0.148 A 
ATOM     79  C   UNL A   1      46.875  28.091  35.309  1.00  0.00     0.002 A 
ATOM     80  C   UNL A   1      45.463  26.301  36.137  1.00  0.00     0.091 A 
ATOM     81  F   UNL A   1      43.318  25.955  35.147  1.00  0.00    -0.205 F 
ATOM     82  C   UNL A   1      46.670  27.018  36.173  1.00  0.00     0.022 A 
BRANCH  80  83
ATOM     83  S   UNL A   1      45.253  24.979  37.337  1.00  0.00     0.127 S 
ATOM     84  O   UNL A   1      44.066  25.424  38.065  1.00  0.00    -0.237 OA
ATOM     85  O   UNL A   1      45.042  23.808  36.485  1.00  0.00    -0.237 OA
ATOM     86  O   UNL A   1      46.489  24.946  38.107  1.00  0.00    -0.744 OA
ENDBRANCH  80  83
ENDBRANCH  53  76
ENDBRANCH  27  28
ENDBRANCH  20  22
ENDBRANCH  19  20
ENDBRANCH   1  19
TORSDOF 15
ENDMDL
MODEL 3
REMARK VINA RESULT:     -11.6      5.120     10.087
REMARK SMILES C[C@@H](C(=O)OCCOC(=O)c1ccc(-c2c3nc(c(-c4cccc(S(=O)(=O)[O-])c4F)c4ccc([nH]4)c(-c4cccc(S(=O)(=O)[O-])c4F)c4nc(c(-c5cccc(S(=O)(=O)[O-])c5F)c5ccc2[nH]5)C=C4)C=C3)cc1)[C@H]1CCOC2(CCCCC2)C1
REMARK SMILES IDX 7 1 6 2 5 3 3 4 4 5 2 6 1 7 74 8 75 9 84 10 76 11 78 12
REMARK SMILES IDX 77 13 79 14 83 15 80 16 82 17 81 18 8 19 9 20 10 21 11 22
REMARK SMILES IDX 12 23 73 24 13 25 72 26 14 27 15 28 16 29 66 30 17 31 71 32
REMARK SMILES IDX 65 33 67 34 18 35 70 36 64 37 63 38 19 40 51 41 31 42 50 43
REMARK SMILES IDX 32 44 35 45 49 46 68 47 33 48 34 49 48 51 69 52 36 53 20 54
REMARK SMILES IDX 21 55 29 56 22 57 24 58 30 59 23 60 25 61 26 62 27 63 28 64
REMARK SMILES IDX 52 65 53 66 61 67 54 68 56 69 62 70 55 71 57 72 58 73 59 74
REMARK SMILES IDX 60 75 37 76 38 77 46 78 39 79 41 80 47 81 40 82 42 83 43 84
REMARK SMILES IDX 44 85 45 86
REMARK H PARENT 67 39 35 50
REMARK Flexibility Score: inf
ROOT
ATOM      1  C   UNL A   1      31.592  29.524  26.704  1.00  0.00     0.275 C 
ENDROOT
BRANCH   1   2
ATOM      2  C   UNL A   1      31.947  28.103  27.131  1.00  0.00     0.274 C 
BRANCH   2   3
ATOM      3  O   UNL A   1      30.882  27.209  26.748  1.00  0.00    -0.462 OA
BRANCH   3   4
ATOM      4  C   UNL A   1      31.136  26.344  25.731  1.00  0.00     0.309 C 
ATOM      5  O   UNL A   1      32.078  25.561  25.705  1.00  0.00    -0.252 OA
BRANCH   4   6
ATOM      6  C   UNL A   1      30.112  26.441  24.591  1.00  0.00     0.099 C 
ATOM      7  C   UNL A   1      30.155  25.233  23.653  1.00  0.00     0.020 C 
BRANCH   6   8
ATOM      8  C   UNL A   1      30.268  27.826  23.895  1.00  0.00     0.008 C 
ATOM      9  C   UNL A   1      31.488  27.995  22.979  1.00  0.00     0.033 C 
ATOM     10  C   UNL A   1      28.997  28.218  23.104  1.00  0.00     0.040 C 
ATOM     11  C   UNL A   1      31.524  29.394  22.376  1.00  0.00     0.161 C 
ATOM     12  C   UNL A   1      29.115  29.635  22.495  1.00  0.00     0.069 C 
ATOM     13  O   UNL A   1      30.311  29.704  21.704  1.00  0.00    -0.375 OA
ATOM     14  C   UNL A   1      29.050  30.715  23.597  1.00  0.00     0.035 C 
ATOM     15  C   UNL A   1      27.956  29.912  21.512  1.00  0.00     0.035 C 
ATOM     16  C   UNL A   1      29.157  32.134  23.045  1.00  0.00     0.003 C 
ATOM     17  C   UNL A   1      28.027  31.332  20.932  1.00  0.00     0.003 C 
ATOM     18  C   UNL A   1      28.064  32.404  22.018  1.00  0.00     0.000 C 
ENDBRANCH   6   8
ENDBRANCH   4   6
ENDBRANCH   3   4
ENDBRANCH   2   3
ENDBRANCH   1   2
BRANCH   1  19
ATOM     19  O   UNL A   1      32.796  30.189  26.285  1.00  0.00    -0.458 OA
BRANCH  19  20
ATOM     20  C   UNL A   1      33.206  31.232  27.044  1.00  0.00     0.338 C 
ATOM     21  O   UNL A   1      32.605  32.271  27.249  1.00  0.00    -0.246 OA
BRANCH  20  22
ATOM     22  C   UNL A   1      34.530  30.925  27.627  1.00  0.00     0.060 A 
ATOM     23  C   UNL A   1      34.931  29.604  27.809  1.00  0.00     0.016 A 
ATOM     24  C   UNL A   1      35.350  31.963  28.079  1.00  0.00     0.016 A 
ATOM     25  C   UNL A   1      36.097  29.332  28.527  1.00  0.00     0.010 A 
ATOM     26  C   UNL A   1      36.564  31.674  28.722  1.00  0.00     0.010 A 
ATOM     27  C   UNL A   1      36.933  30.350  29.008  1.00  0.00    -0.014 A 
BRANCH  27  28
ATOM     28  C   UNL A   1      38.117  30.011  29.869  1.00  0.00     0.031 A 
ATOM     29  C   UNL A   1      39.288  29.240  29.299  1.00  0.00     0.074 A 
ATOM     30  C   UNL A   1      38.202  30.438  31.148  1.00  0.00     0.049 A 
ATOM     31  N   UNL A   1      40.308  28.709  29.924  1.00  0.00    -0.248 NA
ATOM     32  C   UNL A   1      39.305  29.015  27.844  1.00  0.00     0.031 C 
ATOM     33  C   UNL A   1      37.186  31.219  31.853  1.00  0.00     0.029 A 
ATOM     34  N   UNL A   1      39.212  30.310  32.076  1.00  0.00    -0.354 N 
ATOM     35  C   UNL A   1      41.010  27.985  28.967  1.00  0.00     0.074 A 
ATOM     36  C   UNL A   1      40.329  28.185  27.707  1.00  0.00     0.031 C 
ATOM     37  C   UNL A   1      37.665  31.596  33.047  1.00  0.00     0.029 A 
ATOM     38  C   UNL A   1      38.974  30.987  33.253  1.00  0.00     0.049 A 
ATOM     39  H   UNL A   1      40.028  29.783  31.915  1.00  0.00     0.167 HD
ATOM     40  C   UNL A   1      42.115  27.216  29.124  1.00  0.00     0.034 A 
ATOM     41  C   UNL A   1      39.708  31.090  34.382  1.00  0.00     0.034 A 
ATOM     42  C   UNL A   1      42.872  27.117  30.343  1.00  0.00     0.049 A 
ATOM     43  C   UNL A   1      40.989  30.311  34.501  1.00  0.00     0.074 A 
ATOM     44  C   UNL A   1      43.994  26.346  30.600  1.00  0.00     0.029 A 
ATOM     45  N   UNL A   1      42.620  27.849  31.491  1.00  0.00    -0.354 N 
ATOM     46  N   UNL A   1      41.598  29.579  33.601  1.00  0.00    -0.248 NA
ATOM     47  C   UNL A   1      41.673  30.354  35.803  1.00  0.00     0.031 C 
ATOM     48  C   UNL A   1      44.426  26.621  31.903  1.00  0.00     0.029 A 
ATOM     49  C   UNL A   1      43.574  27.563  32.454  1.00  0.00     0.049 A 
ATOM     50  H   UNL A   1      41.873  28.479  31.606  1.00  0.00     0.167 HD
ATOM     51  C   UNL A   1      42.720  29.055  34.234  1.00  0.00     0.074 A 
ATOM     52  C   UNL A   1      42.744  29.607  35.572  1.00  0.00     0.031 C 
ATOM     53  C   UNL A   1      43.618  28.154  33.765  1.00  0.00     0.034 A 
BRANCH  40  54
ATOM     54  C   UNL A   1      42.579  26.407  27.942  1.00  0.00     0.023 A 
ATOM     55  C   UNL A   1      43.548  26.926  27.064  1.00  0.00     0.012 A 
ATOM     56  C   UNL A   1      42.089  25.100  27.740  1.00  0.00     0.148 A 
ATOM     57  C   UNL A   1      44.009  26.165  25.989  1.00  0.00     0.002 A 
ATOM     58  C   UNL A   1      42.580  24.334  26.690  1.00  0.00     0.091 A 
ATOM     59  F   UNL A   1      41.146  24.634  28.570  1.00  0.00    -0.205 F 
ATOM     60  C   UNL A   1      43.533  24.868  25.808  1.00  0.00     0.022 A 
BRANCH  58  61
ATOM     61  S   UNL A   1      42.075  22.628  26.435  1.00  0.00     0.127 S 
ATOM     62  O   UNL A   1      42.568  21.988  27.653  1.00  0.00    -0.237 OA
ATOM     63  O   UNL A   1      40.617  22.741  26.353  1.00  0.00    -0.237 OA
ATOM     64  O   UNL A   1      42.715  22.209  25.196  1.00  0.00    -0.744 OA
ENDBRANCH  58  61
ENDBRANCH  40  54
BRANCH  41  65
ATOM     65  C   UNL A   1      39.256  31.988  35.486  1.00  0.00     0.023 A 
ATOM     66  C   UNL A   1      38.434  31.462  36.503  1.00  0.00     0.012 A 
ATOM     67  C   UNL A   1      39.673  33.329  35.578  1.00  0.00     0.148 A 
ATOM     68  C   UNL A   1      38.034  32.256  37.581  1.00  0.00     0.002 A 
ATOM     69  C   UNL A   1      39.340  34.088  36.694  1.00  0.00     0.091 A 
ATOM     70  F   UNL A   1      40.415  33.840  34.583  1.00  0.00    -0.205 F 
ATOM     71  C   UNL A   1      38.505  33.561  37.689  1.00  0.00     0.022 A 
BRANCH  69  72
ATOM     72  S   UNL A   1      40.093  35.696  36.969  1.00  0.00     0.127 S 
ATOM     73  O   UNL A   1      39.653  36.445  35.796  1.00  0.00    -0.237 OA
ATOM     74  O   UNL A   1      39.489  36.120  38.233  1.00  0.00    -0.237 OA
ATOM     75  O   UNL A   1      41.521  35.416  37.064  1.00  0.00    -0.744 OA
ENDBRANCH  69  72
ENDBRANCH  41  65
BRANCH  53  76
ATOM     76  C   UNL A   1      44.687  27.680  34.713  1.00  0.00     0.023 A 
ATOM     77  C   UNL A   1      45.876  28.428  34.827  1.00  0.00     0.012 A 
ATOM     78  C   UNL A   1      44.496  26.554  35.536  1.00  0.00     0.148 A 
ATOM     79  C   UNL A   1      46.869  28.051  35.728  1.00  0.00     0.002 A 
ATOM     80  C   UNL A   1      45.476  26.203  36.458  1.00  0.00     0.091 A 
ATOM     81  F   UNL A   1      43.368  25.843  35.397  1.00  0.00    -0.205 F 
ATOM     82  C   UNL A   1      46.665  26.945  36.551  1.00  0.00     0.022 A 
BRANCH  80  83
ATOM     83  S   UNL A   1      45.265  24.838  37.608  1.00  0.00     0.127 S 
ATOM     84  O   UNL A   1      44.152  25.311  38.429  1.00  0.00    -0.237 OA
ATOM     85  O   UNL A   1      44.935  23.723  36.719  1.00  0.00    -0.237 OA
ATOM     86  O   UNL A   1      46.542  24.700  38.295  1.00  0.00    -0.744 OA
ENDBRANCH  80  83
ENDBRANCH  53  76
ENDBRANCH  27  28
ENDBRANCH  20  22
ENDBRANCH  19  20
ENDBRANCH   1  19
TORSDOF 15
ENDMDL
