MODEL 1
REMARK VINA RESULT:     -10.7      0.000      0.000
REMARK SMILES CC(C)CCOc1ccc(/C=C2\SC(=S)N(CC(=O)OCCOC(=O)c3ccc(-c4c5nc(c(-c6cccc(S(=O)(=O)[O-])c6F)c6ccc([nH]6)c(-c6cccc(S(=O)(=O)[O-])c6F)c6nc(c(-c7cccc(S(=O)(=O)[O-])c7F)c7ccc4[nH]7)C=C6)C=C5)cc3)C2=O)cc1
REMARK SMILES IDX 20 1 18 2 19 3 17 4 16 5 11 6 12 7 13 8 89 9 14 10 90 11
REMARK SMILES IDX 15 12 10 13 7 14 8 15 92 16 9 17 91 18 6 19 5 20 4 21 2 22
REMARK SMILES IDX 1 23 3 24 21 25 22 26 23 27 24 28 25 29 26 30 27 31 88 32
REMARK SMILES IDX 28 33 87 34 29 35 30 36 31 37 81 38 32 39 86 40 80 41 82 42
REMARK SMILES IDX 33 43 85 44 79 45 78 46 34 48 66 49 46 50 65 51 47 52 50 53
REMARK SMILES IDX 64 54 83 55 48 56 49 57 63 59 84 60 51 61 35 62 36 63 44 64
REMARK SMILES IDX 37 65 39 66 45 67 38 68 40 69 41 70 42 71 43 72 67 73 68 74
REMARK SMILES IDX 76 75 69 76 71 77 77 78 70 79 72 80 73 81 74 82 75 83 52 84
REMARK SMILES IDX 53 85 61 86 54 87 56 88 62 89 55 90 57 91 58 92 59 93 60 94
REMARK H PARENT 82 47 50 58
REMARK Flexibility Score: inf
ROOT
ATOM      1  O   UNL A   1      31.098  27.735  25.067  1.00  0.00    -0.461 OA
ENDROOT
BRANCH   1   2
ATOM      2  C   UNL A   1      30.359  27.299  24.008  1.00  0.00     0.326 C 
ATOM      3  O   UNL A   1      29.769  28.027  23.219  1.00  0.00    -0.250 OA
BRANCH   2   4
ATOM      4  C   UNL A   1      30.319  25.779  23.903  1.00  0.00     0.250 C 
BRANCH   4   5
ATOM      5  N   UNL A   1      31.653  25.186  23.895  1.00  0.00    -0.282 N 
ATOM      6  C   UNL A   1      34.151  23.369  25.773  1.00  0.00     0.029 C 
ATOM      7  C   UNL A   1      33.448  23.963  24.797  1.00  0.00     0.081 C 
ATOM      8  S   UNL A   1      33.953  24.303  23.186  1.00  0.00    -0.054 SA
ATOM      9  C   UNL A   1      32.087  24.514  25.025  1.00  0.00     0.266 C 
ATOM     10  C   UNL A   1      32.503  25.213  22.815  1.00  0.00     0.148 C 
ATOM     11  O   UNL A   1      31.486  24.447  26.087  1.00  0.00    -0.268 OA
ATOM     12  S   UNL A   1      32.282  25.968  21.345  1.00  0.00    -0.052 S 
BRANCH   6  13
ATOM     13  C   UNL A   1      35.580  23.026  25.710  1.00  0.00    -0.024 A 
ATOM     14  C   UNL A   1      38.300  22.433  25.904  1.00  0.00     0.119 A 
ATOM     15  C   UNL A   1      37.373  21.395  25.839  1.00  0.00     0.047 A 
ATOM     16  C   UNL A   1      37.895  23.755  25.779  1.00  0.00     0.047 A 
ATOM     17  C   UNL A   1      36.008  21.692  25.744  1.00  0.00     0.012 A 
ATOM     18  C   UNL A   1      36.539  24.049  25.741  1.00  0.00     0.012 A 
BRANCH  14  19
ATOM     19  O   UNL A   1      39.627  22.189  26.120  1.00  0.00    -0.494 OA
BRANCH  19  20
ATOM     20  C   UNL A   1      39.905  20.774  26.123  1.00  0.00     0.230 C 
BRANCH  20  21
ATOM     21  C   UNL A   1      41.257  20.421  26.772  1.00  0.00     0.044 C 
BRANCH  21  22
ATOM     22  C   UNL A   1      42.279  19.765  25.814  1.00  0.00    -0.014 C 
ATOM     23  C   UNL A   1      43.501  20.653  25.578  1.00  0.00     0.007 C 
ATOM     24  C   UNL A   1      42.719  18.403  26.357  1.00  0.00     0.007 C 
ENDBRANCH  21  22
ENDBRANCH  20  21
ENDBRANCH  19  20
ENDBRANCH  14  19
ENDBRANCH   6  13
ENDBRANCH   4   5
ENDBRANCH   2   4
ENDBRANCH   1   2
BRANCH   1  25
ATOM     25  C   UNL A   1      31.619  29.074  24.978  1.00  0.00     0.274 C 
BRANCH  25  26
ATOM     26  C   UNL A   1      32.081  29.556  26.350  1.00  0.00     0.275 C 
BRANCH  26  27
ATOM     27  O   UNL A   1      33.331  30.255  26.225  1.00  0.00    -0.458 OA
BRANCH  27  28
ATOM     28  C   UNL A   1      33.571  31.193  27.172  1.00  0.00     0.338 C 
ATOM     29  O   UNL A   1      32.876  32.152  27.455  1.00  0.00    -0.246 OA
BRANCH  28  30
ATOM     30  C   UNL A   1      34.847  30.878  27.836  1.00  0.00     0.060 A 
ATOM     31  C   UNL A   1      35.057  29.600  28.357  1.00  0.00     0.016 A 
ATOM     32  C   UNL A   1      35.796  31.880  28.019  1.00  0.00     0.016 A 
ATOM     33  C   UNL A   1      36.191  29.335  29.121  1.00  0.00     0.010 A 
ATOM     34  C   UNL A   1      36.962  31.596  28.733  1.00  0.00     0.010 A 
ATOM     35  C   UNL A   1      37.155  30.332  29.320  1.00  0.00    -0.014 A 
BRANCH  35  36
ATOM     36  C   UNL A   1      38.344  30.076  30.175  1.00  0.00     0.031 A 
ATOM     37  C   UNL A   1      39.412  29.123  29.709  1.00  0.00     0.074 A 
ATOM     38  C   UNL A   1      38.451  30.668  31.381  1.00  0.00     0.049 A 
ATOM     39  N   UNL A   1      40.444  28.654  30.361  1.00  0.00    -0.248 NA
ATOM     40  C   UNL A   1      39.297  28.618  28.329  1.00  0.00     0.031 C 
ATOM     41  C   UNL A   1      37.490  31.616  31.948  1.00  0.00     0.029 A 
ATOM     42  N   UNL A   1      39.406  30.538  32.360  1.00  0.00    -0.354 N 
ATOM     43  C   UNL A   1      41.063  27.757  29.500  1.00  0.00     0.074 A 
ATOM     44  C   UNL A   1      40.296  27.749  28.273  1.00  0.00     0.031 C 
ATOM     45  C   UNL A   1      37.897  31.973  33.176  1.00  0.00     0.029 A 
ATOM     46  C   UNL A   1      39.116  31.242  33.506  1.00  0.00     0.049 A 
ATOM     47  H   UNL A   1      40.219  29.993  32.252  1.00  0.00     0.167 HD
ATOM     48  C   UNL A   1      42.177  27.015  29.707  1.00  0.00     0.034 A 
ATOM     49  C   UNL A   1      39.743  31.271  34.699  1.00  0.00     0.034 A 
ATOM     50  C   UNL A   1      42.978  27.075  30.901  1.00  0.00     0.049 A 
ATOM     51  C   UNL A   1      40.986  30.447  34.894  1.00  0.00     0.074 A 
ATOM     52  C   UNL A   1      44.157  26.405  31.179  1.00  0.00     0.029 A 
ATOM     53  N   UNL A   1      42.689  27.854  32.010  1.00  0.00    -0.354 N 
ATOM     54  N   UNL A   1      41.608  29.673  34.037  1.00  0.00    -0.248 NA
ATOM     55  C   UNL A   1      41.631  30.518  36.214  1.00  0.00     0.031 C 
ATOM     56  C   UNL A   1      44.577  26.773  32.463  1.00  0.00     0.029 A 
ATOM     57  C   UNL A   1      43.666  27.681  32.976  1.00  0.00     0.049 A 
ATOM     58  H   UNL A   1      41.905  28.444  32.098  1.00  0.00     0.167 HD
ATOM     59  C   UNL A   1      42.730  29.193  34.702  1.00  0.00     0.074 A 
ATOM     60  C   UNL A   1      42.716  29.780  36.025  1.00  0.00     0.031 C 
ATOM     61  C   UNL A   1      43.676  28.327  34.263  1.00  0.00     0.034 A 
BRANCH  48  62
ATOM     62  C   UNL A   1      42.626  26.091  28.607  1.00  0.00     0.023 A 
ATOM     63  C   UNL A   1      41.904  24.908  28.353  1.00  0.00     0.012 A 
ATOM     64  C   UNL A   1      43.710  26.433  27.774  1.00  0.00     0.148 A 
ATOM     65  C   UNL A   1      42.267  24.068  27.301  1.00  0.00     0.002 A 
ATOM     66  C   UNL A   1      44.042  25.611  26.704  1.00  0.00     0.091 A 
ATOM     67  F   UNL A   1      44.397  27.553  28.047  1.00  0.00    -0.205 F 
ATOM     68  C   UNL A   1      43.327  24.424  26.471  1.00  0.00     0.022 A 
BRANCH  66  69
ATOM     69  S   UNL A   1      45.343  26.022  25.535  1.00  0.00     0.127 S 
ATOM     70  O   UNL A   1      46.518  26.069  26.405  1.00  0.00    -0.237 OA
ATOM     71  O   UNL A   1      45.309  24.878  24.621  1.00  0.00    -0.237 OA
ATOM     72  O   UNL A   1      44.957  27.290  24.934  1.00  0.00    -0.744 OA
ENDBRANCH  66  69
ENDBRANCH  48  62
BRANCH  49  73
ATOM     73  C   UNL A   1      39.222  32.138  35.794  1.00  0.00     0.023 A 
ATOM     74  C   UNL A   1      39.550  33.508  35.805  1.00  0.00     0.012 A 
ATOM     75  C   UNL A   1      38.393  31.623  36.809  1.00  0.00     0.148 A 
ATOM     76  C   UNL A   1      39.085  34.341  36.823  1.00  0.00     0.002 A 
ATOM     77  C   UNL A   1      37.887  32.472  37.788  1.00  0.00     0.091 A 
ATOM     78  F   UNL A   1      38.111  30.312  36.799  1.00  0.00    -0.205 F 
ATOM     79  C   UNL A   1      38.245  33.828  37.806  1.00  0.00     0.022 A 
BRANCH  77  80
ATOM     80  S   UNL A   1      36.692  31.911  39.006  1.00  0.00     0.127 S 
ATOM     81  O   UNL A   1      36.590  30.487  38.694  1.00  0.00    -0.237 OA
ATOM     82  O   UNL A   1      37.369  32.217  40.267  1.00  0.00    -0.237 OA
ATOM     83  O   UNL A   1      35.496  32.706  38.766  1.00  0.00    -0.744 OA
ENDBRANCH  77  80
ENDBRANCH  49  73
BRANCH  61  84
ATOM     84  C   UNL A   1      44.802  27.989  35.202  1.00  0.00     0.023 A 
ATOM     85  C   UNL A   1      45.962  28.788  35.218  1.00  0.00     0.012 A 
ATOM     86  C   UNL A   1      44.681  26.928  36.122  1.00  0.00     0.148 A 
ATOM     87  C   UNL A   1      46.996  28.520  36.114  1.00  0.00     0.002 A 
ATOM     88  C   UNL A   1      45.696  26.694  37.042  1.00  0.00     0.091 A 
ATOM     89  F   UNL A   1      43.578  26.165  36.078  1.00  0.00    -0.205 F 
ATOM     90  C   UNL A   1      46.857  27.482  37.034  1.00  0.00     0.022 A 
BRANCH  88  91
ATOM     91  S   UNL A   1      45.558  25.437  38.319  1.00  0.00     0.127 S 
ATOM     92  O   UNL A   1      45.139  26.229  39.473  1.00  0.00    -0.237 OA
ATOM     93  O   UNL A   1      44.525  24.552  37.778  1.00  0.00    -0.237 OA
ATOM     94  O   UNL A   1      46.878  24.828  38.419  1.00  0.00    -0.744 OA
ENDBRANCH  88  91
ENDBRANCH  61  84
ENDBRANCH  35  36
ENDBRANCH  28  30
ENDBRANCH  27  28
ENDBRANCH  26  27
ENDBRANCH  25  26
ENDBRANCH   1  25
TORSDOF 20
ENDMDL
MODEL 2
REMARK VINA RESULT:     -10.4      4.367      9.909
REMARK SMILES CC(C)CCOc1ccc(/C=C2\SC(=S)N(CC(=O)OCCOC(=O)c3ccc(-c4c5nc(c(-c6cccc(S(=O)(=O)[O-])c6F)c6ccc([nH]6)c(-c6cccc(S(=O)(=O)[O-])c6F)c6nc(c(-c7cccc(S(=O)(=O)[O-])c7F)c7ccc4[nH]7)C=C6)C=C5)cc3)C2=O)cc1
REMARK SMILES IDX 20 1 18 2 19 3 17 4 16 5 11 6 12 7 13 8 89 9 14 10 90 11
REMARK SMILES IDX 15 12 10 13 7 14 8 15 92 16 9 17 91 18 6 19 5 20 4 21 2 22
REMARK SMILES IDX 1 23 3 24 21 25 22 26 23 27 24 28 25 29 26 30 27 31 88 32
REMARK SMILES IDX 28 33 87 34 29 35 30 36 31 37 81 38 32 39 86 40 80 41 82 42
REMARK SMILES IDX 33 43 85 44 79 45 78 46 34 48 66 49 46 50 65 51 47 52 50 53
REMARK SMILES IDX 64 54 83 55 48 56 49 57 63 59 84 60 51 61 35 62 36 63 44 64
REMARK SMILES IDX 37 65 39 66 45 67 38 68 40 69 41 70 42 71 43 72 67 73 68 74
REMARK SMILES IDX 76 75 69 76 71 77 77 78 70 79 72 80 73 81 74 82 75 83 52 84
REMARK SMILES IDX 53 85 61 86 54 87 56 88 62 89 55 90 57 91 58 92 59 93 60 94
REMARK H PARENT 82 47 50 58
REMARK Flexibility Score: inf
ROOT
ATOM      1  O   UNL A   1      44.152  22.512  26.489  1.00  0.00    -0.461 OA
ENDROOT
BRANCH   1   2
ATOM      2  C   UNL A   1      43.019  21.758  26.413  1.00  0.00     0.326 C 
ATOM      3  O   UNL A   1      42.687  21.087  25.443  1.00  0.00    -0.250 OA
BRANCH   2   4
ATOM      4  C   UNL A   1      42.169  21.841  27.677  1.00  0.00     0.250 C 
BRANCH   4   5
ATOM      5  N   UNL A   1      41.296  23.010  27.685  1.00  0.00    -0.282 N 
ATOM      6  C   UNL A   1      40.799  26.388  28.872  1.00  0.00     0.029 C 
ATOM      7  C   UNL A   1      40.700  25.221  28.217  1.00  0.00     0.081 C 
ATOM      8  S   UNL A   1      39.415  24.684  27.204  1.00  0.00    -0.054 SA
ATOM      9  C   UNL A   1      41.713  24.144  28.360  1.00  0.00     0.266 C 
ATOM     10  C   UNL A   1      40.092  23.079  27.025  1.00  0.00     0.148 C 
ATOM     11  O   UNL A   1      42.721  24.234  29.044  1.00  0.00    -0.268 OA
ATOM     12  S   UNL A   1      39.314  21.879  26.168  1.00  0.00    -0.052 S 
BRANCH   6  13
ATOM     13  C   UNL A   1      39.735  27.397  28.990  1.00  0.00    -0.024 A 
ATOM     14  C   UNL A   1      37.917  29.475  29.398  1.00  0.00     0.119 A 
ATOM     15  C   UNL A   1      38.626  29.405  28.199  1.00  0.00     0.047 A 
ATOM     16  C   UNL A   1      38.035  28.472  30.350  1.00  0.00     0.047 A 
ATOM     17  C   UNL A   1      39.539  28.363  27.996  1.00  0.00     0.012 A 
ATOM     18  C   UNL A   1      38.982  27.472  30.170  1.00  0.00     0.012 A 
BRANCH  14  19
ATOM     19  O   UNL A   1      37.110  30.538  29.685  1.00  0.00    -0.494 OA
BRANCH  19  20
ATOM     20  C   UNL A   1      36.504  30.398  30.987  1.00  0.00     0.230 C 
BRANCH  20  21
ATOM     21  C   UNL A   1      36.274  31.746  31.698  1.00  0.00     0.044 C 
BRANCH  21  22
ATOM     22  C   UNL A   1      37.476  32.246  32.533  1.00  0.00    -0.014 C 
ATOM     23  C   UNL A   1      38.379  31.100  32.988  1.00  0.00     0.007 C 
ATOM     24  C   UNL A   1      38.289  33.269  31.736  1.00  0.00     0.007 C 
ENDBRANCH  21  22
ENDBRANCH  20  21
ENDBRANCH  19  20
ENDBRANCH  14  19
ENDBRANCH   6  13
ENDBRANCH   4   5
ENDBRANCH   2   4
ENDBRANCH   1   2
BRANCH   1  25
ATOM     25  C   UNL A   1      45.253  22.101  25.659  1.00  0.00     0.274 C 
BRANCH  25  26
ATOM     26  C   UNL A   1      45.487  23.117  24.545  1.00  0.00     0.275 C 
BRANCH  26  27
ATOM     27  O   UNL A   1      45.014  24.410  24.959  1.00  0.00    -0.458 OA
BRANCH  27  28
ATOM     28  C   UNL A   1      45.964  25.369  25.071  1.00  0.00     0.338 C 
ATOM     29  O   UNL A   1      47.033  25.421  24.490  1.00  0.00    -0.246 OA
BRANCH  28  30
ATOM     30  C   UNL A   1      45.503  26.380  26.036  1.00  0.00     0.060 A 
ATOM     31  C   UNL A   1      46.438  27.108  26.773  1.00  0.00     0.016 A 
ATOM     32  C   UNL A   1      44.140  26.537  26.272  1.00  0.00     0.016 A 
ATOM     33  C   UNL A   1      46.015  27.953  27.798  1.00  0.00     0.010 A 
ATOM     34  C   UNL A   1      43.715  27.431  27.258  1.00  0.00     0.010 A 
ATOM     35  C   UNL A   1      44.648  28.121  28.053  1.00  0.00    -0.014 A 
BRANCH  35  36
ATOM     36  C   UNL A   1      44.187  28.979  29.176  1.00  0.00     0.031 A 
ATOM     37  C   UNL A   1      43.901  28.366  30.520  1.00  0.00     0.074 A 
ATOM     38  C   UNL A   1      43.992  30.298  28.984  1.00  0.00     0.049 A 
ATOM     39  N   UNL A   1      43.356  28.908  31.578  1.00  0.00    -0.248 NA
ATOM     40  C   UNL A   1      44.264  26.948  30.695  1.00  0.00     0.031 C 
ATOM     41  C   UNL A   1      44.237  31.018  27.733  1.00  0.00     0.029 A 
ATOM     42  N   UNL A   1      43.514  31.266  29.835  1.00  0.00    -0.354 N 
ATOM     43  C   UNL A   1      43.252  27.890  32.518  1.00  0.00     0.074 A 
ATOM     44  C   UNL A   1      43.797  26.695  31.911  1.00  0.00     0.031 C 
ATOM     45  C   UNL A   1      43.899  32.307  27.893  1.00  0.00     0.029 A 
ATOM     46  C   UNL A   1      43.365  32.497  29.238  1.00  0.00     0.049 A 
ATOM     47  H   UNL A   1      43.300  31.094  30.780  1.00  0.00     0.167 HD
ATOM     48  C   UNL A   1      42.759  27.948  33.778  1.00  0.00     0.034 A 
ATOM     49  C   UNL A   1      42.829  33.640  29.710  1.00  0.00     0.034 A 
ATOM     50  C   UNL A   1      42.281  29.151  34.406  1.00  0.00     0.049 A 
ATOM     51  C   UNL A   1      42.302  33.676  31.119  1.00  0.00     0.074 A 
ATOM     52  C   UNL A   1      41.818  29.320  35.699  1.00  0.00     0.029 A 
ATOM     53  N   UNL A   1      42.213  30.391  33.790  1.00  0.00    -0.354 N 
ATOM     54  N   UNL A   1      42.295  32.727  32.023  1.00  0.00    -0.248 NA
ATOM     55  C   UNL A   1      41.730  34.949  31.582  1.00  0.00     0.031 C 
ATOM     56  C   UNL A   1      41.460  30.663  35.863  1.00  0.00     0.029 A 
ATOM     57  C   UNL A   1      41.714  31.330  34.677  1.00  0.00     0.049 A 
ATOM     58  H   UNL A   1      42.481  30.576  32.861  1.00  0.00     0.167 HD
ATOM     59  C   UNL A   1      41.752  33.296  33.169  1.00  0.00     0.074 A 
ATOM     60  C   UNL A   1      41.461  34.679  32.852  1.00  0.00     0.031 C 
ATOM     61  C   UNL A   1      41.495  32.720  34.369  1.00  0.00     0.034 A 
BRANCH  48  62
ATOM     62  C   UNL A   1      42.739  26.678  34.587  1.00  0.00     0.023 A 
ATOM     63  C   UNL A   1      41.516  26.012  34.807  1.00  0.00     0.012 A 
ATOM     64  C   UNL A   1      43.935  26.104  35.059  1.00  0.00     0.148 A 
ATOM     65  C   UNL A   1      41.482  24.805  35.503  1.00  0.00     0.002 A 
ATOM     66  C   UNL A   1      43.898  24.881  35.720  1.00  0.00     0.091 A 
ATOM     67  F   UNL A   1      45.085  26.765  34.859  1.00  0.00    -0.205 F 
ATOM     68  C   UNL A   1      42.672  24.234  35.949  1.00  0.00     0.022 A 
BRANCH  66  69
ATOM     69  S   UNL A   1      45.383  24.030  36.266  1.00  0.00     0.127 S 
ATOM     70  O   UNL A   1      46.400  24.629  35.403  1.00  0.00    -0.237 OA
ATOM     71  O   UNL A   1      45.466  24.428  37.672  1.00  0.00    -0.237 OA
ATOM     72  O   UNL A   1      45.135  22.612  36.051  1.00  0.00    -0.744 OA
ENDBRANCH  66  69
ENDBRANCH  48  62
BRANCH  49  73
ATOM     73  C   UNL A   1      42.794  34.856  28.850  1.00  0.00     0.023 A 
ATOM     74  C   UNL A   1      41.589  35.220  28.217  1.00  0.00     0.012 A 
ATOM     75  C   UNL A   1      43.934  35.664  28.669  1.00  0.00     0.148 A 
ATOM     76  C   UNL A   1      41.528  36.348  27.399  1.00  0.00     0.002 A 
ATOM     77  C   UNL A   1      43.851  36.818  27.898  1.00  0.00     0.091 A 
ATOM     78  F   UNL A   1      45.079  35.290  29.257  1.00  0.00    -0.205 F 
ATOM     79  C   UNL A   1      42.653  37.153  27.249  1.00  0.00     0.022 A 
BRANCH  77  80
ATOM     80  S   UNL A   1      45.219  37.974  27.769  1.00  0.00     0.127 S 
ATOM     81  O   UNL A   1      46.241  37.160  27.116  1.00  0.00    -0.237 OA
ATOM     82  O   UNL A   1      44.651  39.034  26.934  1.00  0.00    -0.237 OA
ATOM     83  O   UNL A   1      45.505  38.385  29.137  1.00  0.00    -0.744 OA
ENDBRANCH  77  80
ENDBRANCH  49  73
BRANCH  61  84
ATOM     84  C   UNL A   1      40.908  33.588  35.449  1.00  0.00     0.023 A 
ATOM     85  C   UNL A   1      39.511  33.644  35.617  1.00  0.00     0.012 A 
ATOM     86  C   UNL A   1      41.742  34.286  36.345  1.00  0.00     0.148 A 
ATOM     87  C   UNL A   1      38.950  34.403  36.643  1.00  0.00     0.002 A 
ATOM     88  C   UNL A   1      41.178  35.006  37.392  1.00  0.00     0.091 A 
ATOM     89  F   UNL A   1      43.069  34.237  36.156  1.00  0.00    -0.205 F 
ATOM     90  C   UNL A   1      39.784  35.074  37.537  1.00  0.00     0.022 A 
BRANCH  88  91
ATOM     91  S   UNL A   1      42.180  35.822  38.641  1.00  0.00     0.127 S 
ATOM     92  O   UNL A   1      43.037  36.679  37.823  1.00  0.00    -0.237 OA
ATOM     93  O   UNL A   1      41.177  36.537  39.430  1.00  0.00    -0.237 OA
ATOM     94  O   UNL A   1      42.862  34.754  39.362  1.00  0.00    -0.744 OA
ENDBRANCH  88  91
ENDBRANCH  61  84
ENDBRANCH  35  36
ENDBRANCH  28  30
ENDBRANCH  27  28
ENDBRANCH  26  27
ENDBRANCH  25  26
ENDBRANCH   1  25
TORSDOF 20
ENDMDL
MODEL 3
REMARK VINA RESULT:     -10.4      1.567      7.678
REMARK SMILES CC(C)CCOc1ccc(/C=C2\SC(=S)N(CC(=O)OCCOC(=O)c3ccc(-c4c5nc(c(-c6cccc(S(=O)(=O)[O-])c6F)c6ccc([nH]6)c(-c6cccc(S(=O)(=O)[O-])c6F)c6nc(c(-c7cccc(S(=O)(=O)[O-])c7F)c7ccc4[nH]7)C=C6)C=C5)cc3)C2=O)cc1
REMARK SMILES IDX 20 1 18 2 19 3 17 4 16 5 11 6 12 7 13 8 89 9 14 10 90 11
REMARK SMILES IDX 15 12 10 13 7 14 8 15 92 16 9 17 91 18 6 19 5 20 4 21 2 22
REMARK SMILES IDX 1 23 3 24 21 25 22 26 23 27 24 28 25 29 26 30 27 31 88 32
REMARK SMILES IDX 28 33 87 34 29 35 30 36 31 37 81 38 32 39 86 40 80 41 82 42
REMARK SMILES IDX 33 43 85 44 79 45 78 46 34 48 66 49 46 50 65 51 47 52 50 53
REMARK SMILES IDX 64 54 83 55 48 56 49 57 63 59 84 60 51 61 35 62 36 63 44 64
REMARK SMILES IDX 37 65 39 66 45 67 38 68 40 69 41 70 42 71 43 72 67 73 68 74
REMARK SMILES IDX 76 75 69 76 71 77 77 78 70 79 72 80 73 81 74 82 75 83 52 84
REMARK SMILES IDX 53 85 61 86 54 87 56 88 62 89 55 90 57 91 58 92 59 93 60 94
REMARK H PARENT 82 47 50 58
REMARK Flexibility Score: inf
ROOT
ATOM      1  O   UNL A   1      30.981  28.138  25.137  1.00  0.00    -0.461 OA
ENDROOT
BRANCH   1   2
ATOM      2  C   UNL A   1      30.220  27.758  24.072  1.00  0.00     0.326 C 
ATOM      3  O   UNL A   1      29.809  28.513  23.199  1.00  0.00    -0.250 OA
BRANCH   2   4
ATOM      4  C   UNL A   1      29.906  26.266  24.075  1.00  0.00     0.250 C 
BRANCH   4   5
ATOM      5  N   UNL A   1      31.111  25.443  24.053  1.00  0.00    -0.282 N 
ATOM      6  C   UNL A   1      33.330  23.303  25.941  1.00  0.00     0.029 C 
ATOM      7  C   UNL A   1      32.699  23.964  24.959  1.00  0.00     0.081 C 
ATOM      8  S   UNL A   1      33.182  24.125  23.314  1.00  0.00    -0.054 SA
ATOM      9  C   UNL A   1      31.470  24.762  25.203  1.00  0.00     0.266 C 
ATOM     10  C   UNL A   1      31.902  25.261  22.944  1.00  0.00     0.148 C 
ATOM     11  O   UNL A   1      30.916  24.858  26.288  1.00  0.00    -0.268 OA
ATOM     12  S   UNL A   1      31.752  25.968  21.441  1.00  0.00    -0.052 S 
BRANCH   6  13
ATOM     13  C   UNL A   1      34.670  22.705  25.848  1.00  0.00    -0.024 A 
ATOM     14  C   UNL A   1      37.189  21.608  25.355  1.00  0.00     0.119 A 
ATOM     15  C   UNL A   1      37.087  22.924  25.803  1.00  0.00     0.047 A 
ATOM     16  C   UNL A   1      36.060  20.808  25.243  1.00  0.00     0.047 A 
ATOM     17  C   UNL A   1      35.823  23.475  26.048  1.00  0.00     0.012 A 
ATOM     18  C   UNL A   1      34.805  21.372  25.432  1.00  0.00     0.012 A 
BRANCH  14  19
ATOM     19  O   UNL A   1      38.390  21.072  24.989  1.00  0.00    -0.494 OA
BRANCH  19  20
ATOM     20  C   UNL A   1      39.399  21.314  25.991  1.00  0.00     0.230 C 
BRANCH  20  21
ATOM     21  C   UNL A   1      40.313  20.099  26.239  1.00  0.00     0.044 C 
BRANCH  21  22
ATOM     22  C   UNL A   1      41.801  20.450  26.477  1.00  0.00    -0.014 C 
ATOM     23  C   UNL A   1      42.006  21.255  27.760  1.00  0.00     0.007 C 
ATOM     24  C   UNL A   1      42.649  19.176  26.516  1.00  0.00     0.007 C 
ENDBRANCH  21  22
ENDBRANCH  20  21
ENDBRANCH  19  20
ENDBRANCH  14  19
ENDBRANCH   6  13
ENDBRANCH   4   5
ENDBRANCH   2   4
ENDBRANCH   1   2
BRANCH   1  25
ATOM     25  C   UNL A   1      31.459  29.495  25.131  1.00  0.00     0.274 C 
BRANCH  25  26
ATOM     26  C   UNL A   1      31.976  29.883  26.514  1.00  0.00     0.275 C 
BRANCH  26  27
ATOM     27  O   UNL A   1      33.348  30.300  26.422  1.00  0.00    -0.458 OA
BRANCH  27  28
ATOM     28  C   UNL A   1      33.702  31.322  27.237  1.00  0.00     0.338 C 
ATOM     29  O   UNL A   1      33.044  32.309  27.513  1.00  0.00    -0.246 OA
BRANCH  28  30
ATOM     30  C   UNL A   1      35.052  31.062  27.761  1.00  0.00     0.060 A 
ATOM     31  C   UNL A   1      35.443  29.752  28.043  1.00  0.00     0.016 A 
ATOM     32  C   UNL A   1      35.895  32.130  28.057  1.00  0.00     0.016 A 
ATOM     33  C   UNL A   1      36.657  29.507  28.683  1.00  0.00     0.010 A 
ATOM     34  C   UNL A   1      37.139  31.878  28.643  1.00  0.00     0.010 A 
ATOM     35  C   UNL A   1      37.516  30.568  28.993  1.00  0.00    -0.014 A 
BRANCH  35  36
ATOM     36  C   UNL A   1      38.789  30.325  29.721  1.00  0.00     0.031 A 
ATOM     37  C   UNL A   1      38.961  30.840  31.124  1.00  0.00     0.074 A 
ATOM     38  C   UNL A   1      39.802  29.674  29.115  1.00  0.00     0.049 A 
ATOM     39  N   UNL A   1      40.034  30.862  31.872  1.00  0.00    -0.248 NA
ATOM     40  C   UNL A   1      37.771  31.421  31.769  1.00  0.00     0.031 C 
ATOM     41  C   UNL A   1      39.763  29.118  27.760  1.00  0.00     0.029 A 
ATOM     42  N   UNL A   1      41.074  29.393  29.552  1.00  0.00    -0.354 N 
ATOM     43  C   UNL A   1      39.668  31.512  33.044  1.00  0.00     0.074 A 
ATOM     44  C   UNL A   1      38.270  31.864  32.915  1.00  0.00     0.031 C 
ATOM     45  C   UNL A   1      40.956  28.575  27.474  1.00  0.00     0.029 A 
ATOM     46  C   UNL A   1      41.860  28.787  28.599  1.00  0.00     0.049 A 
ATOM     47  H   UNL A   1      41.391  29.605  30.459  1.00  0.00     0.167 HD
ATOM     48  C   UNL A   1      40.424  31.780  34.136  1.00  0.00     0.034 A 
ATOM     49  C   UNL A   1      43.170  28.469  28.617  1.00  0.00     0.034 A 
ATOM     50  C   UNL A   1      41.793  31.368  34.292  1.00  0.00     0.049 A 
ATOM     51  C   UNL A   1      43.980  28.767  29.850  1.00  0.00     0.074 A 
ATOM     52  C   UNL A   1      42.624  31.542  35.386  1.00  0.00     0.029 A 
ATOM     53  N   UNL A   1      42.532  30.694  33.332  1.00  0.00    -0.354 N 
ATOM     54  N   UNL A   1      43.594  29.300  30.983  1.00  0.00    -0.248 NA
ATOM     55  C   UNL A   1      45.403  28.397  29.816  1.00  0.00     0.031 C 
ATOM     56  C   UNL A   1      43.869  30.981  35.083  1.00  0.00     0.029 A 
ATOM     57  C   UNL A   1      43.809  30.446  33.807  1.00  0.00     0.049 A 
ATOM     58  H   UNL A   1      42.198  30.431  32.444  1.00  0.00     0.167 HD
ATOM     59  C   UNL A   1      44.714  29.299  31.806  1.00  0.00     0.074 A 
ATOM     60  C   UNL A   1      45.789  28.691  31.049  1.00  0.00     0.031 C 
ATOM     61  C   UNL A   1      44.848  29.778  33.067  1.00  0.00     0.034 A 
BRANCH  48  62
ATOM     62  C   UNL A   1      39.782  32.528  35.273  1.00  0.00     0.023 A 
ATOM     63  C   UNL A   1      39.831  33.936  35.296  1.00  0.00     0.012 A 
ATOM     64  C   UNL A   1      39.063  31.844  36.273  1.00  0.00     0.148 A 
ATOM     65  C   UNL A   1      39.192  34.651  36.308  1.00  0.00     0.002 A 
ATOM     66  C   UNL A   1      38.398  32.565  37.258  1.00  0.00     0.091 A 
ATOM     67  F   UNL A   1      39.048  30.503  36.246  1.00  0.00    -0.205 F 
ATOM     68  C   UNL A   1      38.468  33.968  37.282  1.00  0.00     0.022 A 
BRANCH  66  69
ATOM     69  S   UNL A   1      37.378  31.779  38.511  1.00  0.00     0.127 S 
ATOM     70  O   UNL A   1      38.242  31.859  39.688  1.00  0.00    -0.237 OA
ATOM     71  O   UNL A   1      36.208  32.659  38.553  1.00  0.00    -0.237 OA
ATOM     72  O   UNL A   1      37.107  30.434  38.022  1.00  0.00    -0.744 OA
ENDBRANCH  66  69
ENDBRANCH  48  62
BRANCH  49  73
ATOM     73  C   UNL A   1      43.791  27.800  27.439  1.00  0.00     0.023 A 
ATOM     74  C   UNL A   1      44.608  28.550  26.571  1.00  0.00     0.012 A 
ATOM     75  C   UNL A   1      43.594  26.430  27.182  1.00  0.00     0.148 A 
ATOM     76  C   UNL A   1      45.194  27.953  25.454  1.00  0.00     0.002 A 
ATOM     77  C   UNL A   1      44.227  25.829  26.100  1.00  0.00     0.091 A 
ATOM     78  F   UNL A   1      42.792  25.735  28.003  1.00  0.00    -0.205 F 
ATOM     79  C   UNL A   1      45.015  26.592  25.225  1.00  0.00     0.022 A 
BRANCH  77  80
ATOM     80  S   UNL A   1      44.153  24.056  25.820  1.00  0.00     0.127 S 
ATOM     81  O   UNL A   1      45.062  23.892  24.688  1.00  0.00    -0.237 OA
ATOM     82  O   UNL A   1      44.648  23.521  27.089  1.00  0.00    -0.237 OA
ATOM     83  O   UNL A   1      42.749  23.767  25.560  1.00  0.00    -0.744 OA
ENDBRANCH  77  80
ENDBRANCH  49  73
BRANCH  61  84
ATOM     84  C   UNL A   1      46.190  29.629  33.732  1.00  0.00     0.023 A 
ATOM     85  C   UNL A   1      47.149  30.653  33.605  1.00  0.00     0.012 A 
ATOM     86  C   UNL A   1      46.472  28.514  34.546  1.00  0.00     0.148 A 
ATOM     87  C   UNL A   1      48.379  30.556  34.254  1.00  0.00     0.002 A 
ATOM     88  C   UNL A   1      47.682  28.445  35.224  1.00  0.00     0.091 A 
ATOM     89  F   UNL A   1      45.554  27.539  34.637  1.00  0.00    -0.205 F 
ATOM     90  C   UNL A   1      48.640  29.459  35.073  1.00  0.00     0.022 A 
BRANCH  88  91
ATOM     91  S   UNL A   1      48.062  27.113  36.370  1.00  0.00     0.127 S 
ATOM     92  O   UNL A   1      49.383  27.505  36.856  1.00  0.00    -0.237 OA
ATOM     93  O   UNL A   1      46.988  27.232  37.357  1.00  0.00    -0.237 OA
ATOM     94  O   UNL A   1      48.019  25.888  35.582  1.00  0.00    -0.744 OA
ENDBRANCH  88  91
ENDBRANCH  61  84
ENDBRANCH  35  36
ENDBRANCH  28  30
ENDBRANCH  27  28
ENDBRANCH  26  27
ENDBRANCH  25  26
ENDBRANCH   1  25
TORSDOF 20
ENDMDL
