MODEL 1
REMARK VINA RESULT:     -11.2      0.000      0.000
REMARK SMILES CC(C)(C)c1cc(NC(=O)CSC[C@H]([NH3+])C(=O)OCCOC(=O)c2ccc(-c3c4nc(c(-c5cccc(S(=O)(=O)[O-])c5F)c5ccc([nH]5)c(-c5cccc(S(=O)(=O)[O-])c5F)c5nc(c(-c6cccc(S(=O)(=O)[O-])c6F)c6ccc3[nH]6)C=C5)C=C4)cc2)on1
REMARK SMILES IDX 18 1 16 2 17 3 14 4 13 5 12 6 11 7 9 8 8 9 10 11 7 12 5 13
REMARK SMILES IDX 6 14 88 15 87 16 2 17 1 18 3 19 4 20 15 21 19 25 20 26 21 27
REMARK SMILES IDX 22 28 23 29 24 30 25 31 86 32 26 33 85 34 27 35 28 36 29 37
REMARK SMILES IDX 79 38 30 39 84 40 78 41 80 42 31 43 83 44 77 45 76 46 32 48
REMARK SMILES IDX 64 49 44 50 63 51 45 52 48 53 62 54 81 55 46 56 47 57 61 59
REMARK SMILES IDX 82 60 49 61 33 62 34 63 42 64 35 65 37 66 43 67 36 68 38 69
REMARK SMILES IDX 39 70 40 71 41 72 65 73 66 74 74 75 67 76 69 77 75 78 68 79
REMARK SMILES IDX 70 80 71 81 72 82 73 83 50 84 51 85 59 86 52 87 54 88 60 89
REMARK SMILES IDX 53 90 55 91 56 92 57 93 58 94
REMARK H PARENT 8 10 15 22 15 23 15 24 80 47 48 58
REMARK Flexibility Score: inf
ROOT
ATOM      1  O   UNL A   1      32.567  28.950  23.114  1.00  0.00    -0.458 OA
ENDROOT
BRANCH   1   2
ATOM      2  C   UNL A   1      33.282  28.006  22.440  1.00  0.00     0.365 C 
ATOM      3  O   UNL A   1      34.315  28.243  21.823  1.00  0.00    -0.245 OA
BRANCH   2   4
ATOM      4  C   UNL A   1      32.640  26.617  22.464  1.00  0.00     0.301 C 
BRANCH   4   5
ATOM      5  C   UNL A   1      33.709  25.534  22.642  1.00  0.00     0.147 C 
BRANCH   5   6
ATOM      6  S   UNL A   1      33.820  24.815  24.325  1.00  0.00    -0.145 SA
BRANCH   6   7
ATOM      7  C   UNL A   1      35.106  23.510  24.137  1.00  0.00     0.170 C 
BRANCH   7   8
ATOM      8  C   UNL A   1      35.725  23.113  25.467  1.00  0.00     0.236 C 
ATOM      9  N   UNL A   1      35.464  21.913  26.063  1.00  0.00    -0.294 N 
ATOM     10  H   UNL A   1      35.959  21.720  26.892  1.00  0.00     0.173 HD
ATOM     11  O   UNL A   1      36.559  23.840  26.024  1.00  0.00    -0.274 OA
BRANCH   9  12
ATOM     12  C   UNL A   1      34.593  20.949  25.639  1.00  0.00     0.231 A 
ATOM     13  C   UNL A   1      33.535  19.226  24.759  1.00  0.00     0.091 A 
ATOM     14  C   UNL A   1      34.823  19.796  24.933  1.00  0.00     0.097 A 
ATOM     15  N   UNL A   1      32.607  19.961  25.383  1.00  0.00    -0.082 NA
ATOM     16  O   UNL A   1      33.272  21.032  25.921  1.00  0.00    -0.338 OA
BRANCH  13  17
ATOM     17  C   UNL A   1      33.131  17.954  24.053  1.00  0.00     0.008 C 
ATOM     18  C   UNL A   1      32.255  18.253  22.821  1.00  0.00     0.018 C 
ATOM     19  C   UNL A   1      32.320  17.032  24.990  1.00  0.00     0.018 C 
ATOM     20  C   UNL A   1      34.403  17.213  23.598  1.00  0.00     0.018 C 
ENDBRANCH  13  17
ENDBRANCH   9  12
ENDBRANCH   7   8
ENDBRANCH   6   7
ENDBRANCH   5   6
ENDBRANCH   4   5
BRANCH   4  21
ATOM     21  N   UNL A   1      31.816  26.373  21.253  1.00  0.00    -0.345 N 
ATOM     22  H   UNL A   1      32.064  25.469  20.850  1.00  0.00     0.345 HD
ATOM     23  H   UNL A   1      31.992  27.109  20.568  1.00  0.00     0.345 HD
ATOM     24  H   UNL A   1      30.828  26.373  21.507  1.00  0.00     0.345 HD
ENDBRANCH   4  21
ENDBRANCH   2   4
ENDBRANCH   1   2
BRANCH   1  25
ATOM     25  C   UNL A   1      32.958  29.122  24.491  1.00  0.00     0.274 C 
BRANCH  25  26
ATOM     26  C   UNL A   1      31.960  29.958  25.305  1.00  0.00     0.275 C 
BRANCH  26  27
ATOM     27  O   UNL A   1      32.334  30.080  26.692  1.00  0.00    -0.458 OA
BRANCH  27  28
ATOM     28  C   UNL A   1      32.914  31.258  27.033  1.00  0.00     0.338 C 
ATOM     29  O   UNL A   1      32.397  32.363  26.993  1.00  0.00    -0.246 OA
BRANCH  28  30
ATOM     30  C   UNL A   1      34.244  31.019  27.626  1.00  0.00     0.060 A 
ATOM     31  C   UNL A   1      34.583  29.705  27.970  1.00  0.00     0.016 A 
ATOM     32  C   UNL A   1      35.124  32.067  27.901  1.00  0.00     0.016 A 
ATOM     33  C   UNL A   1      35.803  29.423  28.576  1.00  0.00     0.010 A 
ATOM     34  C   UNL A   1      36.338  31.788  28.537  1.00  0.00     0.010 A 
ATOM     35  C   UNL A   1      36.678  30.468  28.888  1.00  0.00    -0.014 A 
BRANCH  35  36
ATOM     36  C   UNL A   1      37.900  30.187  29.674  1.00  0.00     0.031 A 
ATOM     37  C   UNL A   1      38.934  29.257  29.109  1.00  0.00     0.074 A 
ATOM     38  C   UNL A   1      38.080  30.758  30.879  1.00  0.00     0.049 A 
ATOM     39  N   UNL A   1      40.022  28.794  29.662  1.00  0.00    -0.248 NA
ATOM     40  C   UNL A   1      38.708  28.785  27.732  1.00  0.00     0.031 C 
ATOM     41  C   UNL A   1      37.162  31.705  31.508  1.00  0.00     0.029 A 
ATOM     42  N   UNL A   1      39.087  30.600  31.798  1.00  0.00    -0.354 N 
ATOM     43  C   UNL A   1      40.593  27.946  28.722  1.00  0.00     0.074 A 
ATOM     44  C   UNL A   1      39.730  27.960  27.559  1.00  0.00     0.031 C 
ATOM     45  C   UNL A   1      37.628  32.016  32.729  1.00  0.00     0.029 A 
ATOM     46  C   UNL A   1      38.855  31.264  32.979  1.00  0.00     0.049 A 
ATOM     47  H   UNL A   1      39.895  30.065  31.628  1.00  0.00     0.167 HD
ATOM     48  C   UNL A   1      41.737  27.229  28.816  1.00  0.00     0.034 A 
ATOM     49  C   UNL A   1      39.536  31.236  34.141  1.00  0.00     0.034 A 
ATOM     50  C   UNL A   1      42.601  27.242  29.966  1.00  0.00     0.049 A 
ATOM     51  C   UNL A   1      40.787  30.401  34.234  1.00  0.00     0.074 A 
ATOM     52  C   UNL A   1      43.800  26.577  30.149  1.00  0.00     0.029 A 
ATOM     53  N   UNL A   1      42.354  27.952  31.131  1.00  0.00    -0.354 N 
ATOM     54  N   UNL A   1      41.363  29.671  33.310  1.00  0.00    -0.248 NA
ATOM     55  C   UNL A   1      41.494  30.404  35.523  1.00  0.00     0.031 C 
ATOM     56  C   UNL A   1      44.268  26.869  31.436  1.00  0.00     0.029 A 
ATOM     57  C   UNL A   1      43.370  27.732  32.045  1.00  0.00     0.049 A 
ATOM     58  H   UNL A   1      41.572  28.528  31.286  1.00  0.00     0.167 HD
ATOM     59  C   UNL A   1      42.510  29.145  33.895  1.00  0.00     0.074 A 
ATOM     60  C   UNL A   1      42.561  29.666  35.247  1.00  0.00     0.031 C 
ATOM     61  C   UNL A   1      43.427  28.295  33.371  1.00  0.00     0.034 A 
BRANCH  48  62
ATOM     62  C   UNL A   1      42.126  26.382  27.634  1.00  0.00     0.023 A 
ATOM     63  C   UNL A   1      42.829  26.964  26.559  1.00  0.00     0.012 A 
ATOM     64  C   UNL A   1      41.829  25.006  27.602  1.00  0.00     0.148 A 
ATOM     65  C   UNL A   1      43.203  26.195  25.457  1.00  0.00     0.002 A 
ATOM     66  C   UNL A   1      42.241  24.238  26.518  1.00  0.00     0.091 A 
ATOM     67  F   UNL A   1      41.137  24.476  28.621  1.00  0.00    -0.205 F 
ATOM     68  C   UNL A   1      42.917  24.832  25.442  1.00  0.00     0.022 A 
BRANCH  66  69
ATOM     69  S   UNL A   1      41.981  22.462  26.439  1.00  0.00     0.127 S 
ATOM     70  O   UNL A   1      40.521  22.376  26.435  1.00  0.00    -0.237 OA
ATOM     71  O   UNL A   1      42.614  22.113  25.167  1.00  0.00    -0.237 OA
ATOM     72  O   UNL A   1      42.638  21.907  27.614  1.00  0.00    -0.744 OA
ENDBRANCH  66  69
ENDBRANCH  48  62
BRANCH  49  73
ATOM     73  C   UNL A   1      39.055  32.035  35.304  1.00  0.00     0.023 A 
ATOM     74  C   UNL A   1      39.194  33.436  35.290  1.00  0.00     0.012 A 
ATOM     75  C   UNL A   1      38.436  31.417  36.409  1.00  0.00     0.148 A 
ATOM     76  C   UNL A   1      38.743  34.205  36.364  1.00  0.00     0.002 A 
ATOM     77  C   UNL A   1      37.940  32.193  37.450  1.00  0.00     0.091 A 
ATOM     78  F   UNL A   1      38.334  30.080  36.415  1.00  0.00    -0.205 F 
ATOM     79  C   UNL A   1      38.106  33.586  37.437  1.00  0.00     0.022 A 
BRANCH  77  80
ATOM     80  S   UNL A   1      36.998  31.491  38.810  1.00  0.00     0.127 S 
ATOM     81  O   UNL A   1      36.815  30.112  38.369  1.00  0.00    -0.237 OA
ATOM     82  O   UNL A   1      37.917  31.661  39.936  1.00  0.00    -0.237 OA
ATOM     83  O   UNL A   1      35.785  32.294  38.901  1.00  0.00    -0.744 OA
ENDBRANCH  77  80
ENDBRANCH  49  73
BRANCH  61  84
ATOM     84  C   UNL A   1      44.577  27.882  34.253  1.00  0.00     0.023 A 
ATOM     85  C   UNL A   1      45.738  28.678  34.300  1.00  0.00     0.012 A 
ATOM     86  C   UNL A   1      44.477  26.752  35.089  1.00  0.00     0.148 A 
ATOM     87  C   UNL A   1      46.796  28.339  35.143  1.00  0.00     0.002 A 
ATOM     88  C   UNL A   1      45.517  26.447  35.961  1.00  0.00     0.091 A 
ATOM     89  F   UNL A   1      43.371  25.998  35.017  1.00  0.00    -0.205 F 
ATOM     90  C   UNL A   1      46.681  27.232  35.980  1.00  0.00     0.022 A 
BRANCH  88  91
ATOM     91  S   UNL A   1      45.417  25.096  37.140  1.00  0.00     0.127 S 
ATOM     92  O   UNL A   1      45.218  23.945  36.261  1.00  0.00    -0.237 OA
ATOM     93  O   UNL A   1      46.730  25.148  37.786  1.00  0.00    -0.237 OA
ATOM     94  O   UNL A   1      44.300  25.412  38.020  1.00  0.00    -0.744 OA
ENDBRANCH  88  91
ENDBRANCH  61  84
ENDBRANCH  35  36
ENDBRANCH  28  30
ENDBRANCH  27  28
ENDBRANCH  26  27
ENDBRANCH  25  26
ENDBRANCH   1  25
TORSDOF 21
ENDMDL
MODEL 2
REMARK VINA RESULT:     -11.1      1.931      2.527
REMARK SMILES CC(C)(C)c1cc(NC(=O)CSC[C@H]([NH3+])C(=O)OCCOC(=O)c2ccc(-c3c4nc(c(-c5cccc(S(=O)(=O)[O-])c5F)c5ccc([nH]5)c(-c5cccc(S(=O)(=O)[O-])c5F)c5nc(c(-c6cccc(S(=O)(=O)[O-])c6F)c6ccc3[nH]6)C=C5)C=C4)cc2)on1
REMARK SMILES IDX 18 1 16 2 17 3 14 4 13 5 12 6 11 7 9 8 8 9 10 11 7 12 5 13
REMARK SMILES IDX 6 14 88 15 87 16 2 17 1 18 3 19 4 20 15 21 19 25 20 26 21 27
REMARK SMILES IDX 22 28 23 29 24 30 25 31 86 32 26 33 85 34 27 35 28 36 29 37
REMARK SMILES IDX 79 38 30 39 84 40 78 41 80 42 31 43 83 44 77 45 76 46 32 48
REMARK SMILES IDX 64 49 44 50 63 51 45 52 48 53 62 54 81 55 46 56 47 57 61 59
REMARK SMILES IDX 82 60 49 61 33 62 34 63 42 64 35 65 37 66 43 67 36 68 38 69
REMARK SMILES IDX 39 70 40 71 41 72 65 73 66 74 74 75 67 76 69 77 75 78 68 79
REMARK SMILES IDX 70 80 71 81 72 82 73 83 50 84 51 85 59 86 52 87 54 88 60 89
REMARK SMILES IDX 53 90 55 91 56 92 57 93 58 94
REMARK H PARENT 8 10 15 22 15 23 15 24 80 47 48 58
REMARK Flexibility Score: inf
ROOT
ATOM      1  O   UNL A   1      32.779  28.749  23.279  1.00  0.00    -0.458 OA
ENDROOT
BRANCH   1   2
ATOM      2  C   UNL A   1      32.740  27.435  22.922  1.00  0.00     0.365 C 
ATOM      3  O   UNL A   1      33.562  26.903  22.185  1.00  0.00    -0.245 OA
BRANCH   2   4
ATOM      4  C   UNL A   1      31.526  26.685  23.476  1.00  0.00     0.301 C 
BRANCH   4   5
ATOM      5  C   UNL A   1      31.306  25.378  22.707  1.00  0.00     0.147 C 
BRANCH   5   6
ATOM      6  S   UNL A   1      31.093  23.885  23.751  1.00  0.00    -0.145 SA
BRANCH   6   7
ATOM      7  C   UNL A   1      31.135  24.564  25.462  1.00  0.00     0.170 C 
BRANCH   7   8
ATOM      8  C   UNL A   1      30.910  23.491  26.515  1.00  0.00     0.236 C 
ATOM      9  N   UNL A   1      31.822  22.504  26.756  1.00  0.00    -0.294 N 
ATOM     10  H   UNL A   1      31.616  21.891  27.499  1.00  0.00     0.173 HD
ATOM     11  O   UNL A   1      29.916  23.521  27.253  1.00  0.00    -0.274 OA
BRANCH   9  12
ATOM     12  C   UNL A   1      32.988  22.271  26.083  1.00  0.00     0.231 A 
ATOM     13  C   UNL A   1      35.011  22.245  25.207  1.00  0.00     0.091 A 
ATOM     14  C   UNL A   1      34.203  22.900  26.172  1.00  0.00     0.097 A 
ATOM     15  N   UNL A   1      34.337  21.243  24.631  1.00  0.00    -0.082 NA
ATOM     16  O   UNL A   1      33.080  21.270  25.177  1.00  0.00    -0.338 OA
BRANCH  13  17
ATOM     17  C   UNL A   1      36.451  22.494  24.826  1.00  0.00     0.008 C 
ATOM     18  C   UNL A   1      36.588  22.780  23.318  1.00  0.00     0.018 C 
ATOM     19  C   UNL A   1      37.332  21.267  25.150  1.00  0.00     0.018 C 
ATOM     20  C   UNL A   1      36.972  23.708  25.618  1.00  0.00     0.018 C 
ENDBRANCH  13  17
ENDBRANCH   9  12
ENDBRANCH   7   8
ENDBRANCH   6   7
ENDBRANCH   5   6
ENDBRANCH   4   5
BRANCH   4  21
ATOM     21  N   UNL A   1      30.307  27.532  23.466  1.00  0.00    -0.345 N 
ATOM     22  H   UNL A   1      30.490  28.384  22.935  1.00  0.00     0.345 HD
ATOM     23  H   UNL A   1      30.054  27.777  24.424  1.00  0.00     0.345 HD
ATOM     24  H   UNL A   1      29.540  27.020  23.031  1.00  0.00     0.345 HD
ENDBRANCH   4  21
ENDBRANCH   2   4
ENDBRANCH   1   2
BRANCH   1  25
ATOM     25  C   UNL A   1      33.074  28.981  24.671  1.00  0.00     0.274 C 
BRANCH  25  26
ATOM     26  C   UNL A   1      32.066  29.914  25.358  1.00  0.00     0.275 C 
BRANCH  26  27
ATOM     27  O   UNL A   1      32.344  30.102  26.759  1.00  0.00    -0.458 OA
BRANCH  27  28
ATOM     28  C   UNL A   1      32.935  31.280  27.079  1.00  0.00     0.338 C 
ATOM     29  O   UNL A   1      32.427  32.387  27.033  1.00  0.00    -0.246 OA
BRANCH  28  30
ATOM     30  C   UNL A   1      34.272  31.038  27.659  1.00  0.00     0.060 A 
ATOM     31  C   UNL A   1      34.623  29.719  27.970  1.00  0.00     0.016 A 
ATOM     32  C   UNL A   1      35.144  32.086  27.953  1.00  0.00     0.016 A 
ATOM     33  C   UNL A   1      35.849  29.433  28.562  1.00  0.00     0.010 A 
ATOM     34  C   UNL A   1      36.364  31.802  28.576  1.00  0.00     0.010 A 
ATOM     35  C   UNL A   1      36.717  30.478  28.893  1.00  0.00    -0.014 A 
BRANCH  35  36
ATOM     36  C   UNL A   1      37.946  30.189  29.665  1.00  0.00     0.031 A 
ATOM     37  C   UNL A   1      38.967  29.252  29.089  1.00  0.00     0.074 A 
ATOM     38  C   UNL A   1      38.144  30.759  30.867  1.00  0.00     0.049 A 
ATOM     39  N   UNL A   1      40.059  28.782  29.630  1.00  0.00    -0.248 NA
ATOM     40  C   UNL A   1      38.723  28.781  27.715  1.00  0.00     0.031 C 
ATOM     41  C   UNL A   1      37.240  31.713  31.507  1.00  0.00     0.029 A 
ATOM     42  N   UNL A   1      39.160  30.595  31.775  1.00  0.00    -0.354 N 
ATOM     43  C   UNL A   1      40.613  27.930  28.683  1.00  0.00     0.074 A 
ATOM     44  C   UNL A   1      39.737  27.948  27.531  1.00  0.00     0.031 C 
ATOM     45  C   UNL A   1      37.722  32.021  32.723  1.00  0.00     0.029 A 
ATOM     46  C   UNL A   1      38.946  31.261  32.959  1.00  0.00     0.049 A 
ATOM     47  H   UNL A   1      39.963  30.054  31.597  1.00  0.00     0.167 HD
ATOM     48  C   UNL A   1      41.754  27.205  28.764  1.00  0.00     0.034 A 
ATOM     49  C   UNL A   1      39.641  31.229  34.113  1.00  0.00     0.034 A 
ATOM     50  C   UNL A   1      42.631  27.213  29.904  1.00  0.00     0.049 A 
ATOM     51  C   UNL A   1      40.887  30.385  34.191  1.00  0.00     0.074 A 
ATOM     52  C   UNL A   1      43.827  26.540  30.074  1.00  0.00     0.029 A 
ATOM     53  N   UNL A   1      42.402  27.925  31.072  1.00  0.00    -0.354 N 
ATOM     54  N   UNL A   1      41.448  29.651  33.261  1.00  0.00    -0.248 NA
ATOM     55  C   UNL A   1      41.609  30.385  35.472  1.00  0.00     0.031 C 
ATOM     56  C   UNL A   1      44.312  26.829  31.356  1.00  0.00     0.029 A 
ATOM     57  C   UNL A   1      43.427  27.698  31.974  1.00  0.00     0.049 A 
ATOM     58  H   UNL A   1      41.625  28.506  31.236  1.00  0.00     0.167 HD
ATOM     59  C   UNL A   1      42.597  29.118  33.834  1.00  0.00     0.074 A 
ATOM     60  C   UNL A   1      42.667  29.638  35.184  1.00  0.00     0.031 C 
ATOM     61  C   UNL A   1      43.503  28.262  33.299  1.00  0.00     0.034 A 
BRANCH  48  62
ATOM     62  C   UNL A   1      42.123  26.355  27.578  1.00  0.00     0.023 A 
ATOM     63  C   UNL A   1      42.816  26.931  26.495  1.00  0.00     0.012 A 
ATOM     64  C   UNL A   1      41.817  24.980  27.552  1.00  0.00     0.148 A 
ATOM     65  C   UNL A   1      43.172  26.159  25.389  1.00  0.00     0.002 A 
ATOM     66  C   UNL A   1      42.211  24.209  26.463  1.00  0.00     0.091 A 
ATOM     67  F   UNL A   1      41.135  24.455  28.579  1.00  0.00    -0.205 F 
ATOM     68  C   UNL A   1      42.878  24.799  25.378  1.00  0.00     0.022 A 
BRANCH  66  69
ATOM     69  S   UNL A   1      41.940  22.434  26.389  1.00  0.00     0.127 S 
ATOM     70  O   UNL A   1      42.585  22.090  25.122  1.00  0.00    -0.237 OA
ATOM     71  O   UNL A   1      42.648  21.963  27.580  1.00  0.00    -0.237 OA
ATOM     72  O   UNL A   1      40.497  22.247  26.429  1.00  0.00    -0.744 OA
ENDBRANCH  66  69
ENDBRANCH  48  62
BRANCH  49  73
ATOM     73  C   UNL A   1      39.178  32.031  35.281  1.00  0.00     0.023 A 
ATOM     74  C   UNL A   1      38.255  31.473  36.185  1.00  0.00     0.012 A 
ATOM     75  C   UNL A   1      39.668  33.332  35.514  1.00  0.00     0.148 A 
ATOM     76  C   UNL A   1      37.813  32.203  37.290  1.00  0.00     0.002 A 
ATOM     77  C   UNL A   1      39.267  34.032  36.646  1.00  0.00     0.091 A 
ATOM     78  F   UNL A   1      40.528  33.856  34.629  1.00  0.00    -0.205 F 
ATOM     79  C   UNL A   1      38.327  33.475  37.527  1.00  0.00     0.022 A 
BRANCH  77  80
ATOM     80  S   UNL A   1      39.970  35.623  37.094  1.00  0.00     0.127 S 
ATOM     81  O   UNL A   1      41.383  35.292  37.257  1.00  0.00    -0.237 OA
ATOM     82  O   UNL A   1      39.660  36.436  35.917  1.00  0.00    -0.237 OA
ATOM     83  O   UNL A   1      39.271  36.033  38.305  1.00  0.00    -0.744 OA
ENDBRANCH  77  80
ENDBRANCH  49  73
BRANCH  61  84
ATOM     84  C   UNL A   1      44.660  27.841  34.168  1.00  0.00     0.023 A 
ATOM     85  C   UNL A   1      45.809  28.653  34.237  1.00  0.00     0.012 A 
ATOM     86  C   UNL A   1      44.578  26.686  34.972  1.00  0.00     0.148 A 
ATOM     87  C   UNL A   1      46.873  28.306  35.069  1.00  0.00     0.002 A 
ATOM     88  C   UNL A   1      45.624  26.372  35.833  1.00  0.00     0.091 A 
ATOM     89  F   UNL A   1      43.484  25.917  34.879  1.00  0.00    -0.205 F 
ATOM     90  C   UNL A   1      46.776  27.174  35.875  1.00  0.00     0.022 A 
BRANCH  88  91
ATOM     91  S   UNL A   1      45.546  24.986  36.974  1.00  0.00     0.127 S 
ATOM     92  O   UNL A   1      46.821  25.107  37.679  1.00  0.00    -0.237 OA
ATOM     93  O   UNL A   1      44.370  25.313  37.782  1.00  0.00    -0.237 OA
ATOM     94  O   UNL A   1      45.398  23.795  36.149  1.00  0.00    -0.744 OA
ENDBRANCH  88  91
ENDBRANCH  61  84
ENDBRANCH  35  36
ENDBRANCH  28  30
ENDBRANCH  27  28
ENDBRANCH  26  27
ENDBRANCH  25  26
ENDBRANCH   1  25
TORSDOF 21
ENDMDL
MODEL 3
REMARK VINA RESULT:     -10.8      5.479      8.822
REMARK SMILES CC(C)(C)c1cc(NC(=O)CSC[C@H]([NH3+])C(=O)OCCOC(=O)c2ccc(-c3c4nc(c(-c5cccc(S(=O)(=O)[O-])c5F)c5ccc([nH]5)c(-c5cccc(S(=O)(=O)[O-])c5F)c5nc(c(-c6cccc(S(=O)(=O)[O-])c6F)c6ccc3[nH]6)C=C5)C=C4)cc2)on1
REMARK SMILES IDX 18 1 16 2 17 3 14 4 13 5 12 6 11 7 9 8 8 9 10 11 7 12 5 13
REMARK SMILES IDX 6 14 88 15 87 16 2 17 1 18 3 19 4 20 15 21 19 25 20 26 21 27
REMARK SMILES IDX 22 28 23 29 24 30 25 31 86 32 26 33 85 34 27 35 28 36 29 37
REMARK SMILES IDX 79 38 30 39 84 40 78 41 80 42 31 43 83 44 77 45 76 46 32 48
REMARK SMILES IDX 64 49 44 50 63 51 45 52 48 53 62 54 81 55 46 56 47 57 61 59
REMARK SMILES IDX 82 60 49 61 33 62 34 63 42 64 35 65 37 66 43 67 36 68 38 69
REMARK SMILES IDX 39 70 40 71 41 72 65 73 66 74 74 75 67 76 69 77 75 78 68 79
REMARK SMILES IDX 70 80 71 81 72 82 73 83 50 84 51 85 59 86 52 87 54 88 60 89
REMARK SMILES IDX 53 90 55 91 56 92 57 93 58 94
REMARK H PARENT 8 10 15 22 15 23 15 24 80 47 48 58
REMARK Flexibility Score: inf
ROOT
ATOM      1  O   UNL A   1      37.408  20.857  24.663  1.00  0.00    -0.458 OA
ENDROOT
BRANCH   1   2
ATOM      2  C   UNL A   1      36.133  20.895  25.141  1.00  0.00     0.365 C 
ATOM      3  O   UNL A   1      35.247  20.126  24.786  1.00  0.00    -0.245 OA
BRANCH   2   4
ATOM      4  C   UNL A   1      35.882  22.039  26.127  1.00  0.00     0.301 C 
BRANCH   4   5
ATOM      5  C   UNL A   1      34.639  22.837  25.718  1.00  0.00     0.147 C 
BRANCH   5   6
ATOM      6  S   UNL A   1      33.063  22.259  26.456  1.00  0.00    -0.145 SA
BRANCH   6   7
ATOM      7  C   UNL A   1      31.809  23.359  25.674  1.00  0.00     0.170 C 
BRANCH   7   8
ATOM      8  C   UNL A   1      30.692  23.735  26.633  1.00  0.00     0.236 C 
ATOM      9  N   UNL A   1      29.940  24.862  26.470  1.00  0.00    -0.294 N 
ATOM     10  H   UNL A   1      29.199  24.990  27.107  1.00  0.00     0.173 HD
ATOM     11  O   UNL A   1      30.370  22.981  27.562  1.00  0.00    -0.274 OA
BRANCH   9  12
ATOM     12  C   UNL A   1      30.099  25.835  25.523  1.00  0.00     0.231 A 
ATOM     13  C   UNL A   1      30.629  27.578  24.281  1.00  0.00     0.091 A 
ATOM     14  C   UNL A   1      30.947  26.912  25.493  1.00  0.00     0.097 A 
ATOM     15  N   UNL A   1      29.698  26.899  23.601  1.00  0.00    -0.082 NA
ATOM     16  O   UNL A   1      29.370  25.821  24.383  1.00  0.00    -0.338 OA
BRANCH  13  17
ATOM     17  C   UNL A   1      31.217  28.837  23.690  1.00  0.00     0.008 C 
ATOM     18  C   UNL A   1      30.481  29.243  22.398  1.00  0.00     0.018 C 
ATOM     19  C   UNL A   1      32.708  28.642  23.336  1.00  0.00     0.018 C 
ATOM     20  C   UNL A   1      31.091  29.975  24.720  1.00  0.00     0.018 C 
ENDBRANCH  13  17
ENDBRANCH   9  12
ENDBRANCH   7   8
ENDBRANCH   6   7
ENDBRANCH   5   6
ENDBRANCH   4   5
BRANCH   4  21
ATOM     21  N   UNL A   1      37.071  22.917  26.261  1.00  0.00    -0.345 N 
ATOM     22  H   UNL A   1      37.717  22.736  25.493  1.00  0.00     0.345 HD
ATOM     23  H   UNL A   1      37.537  22.726  27.149  1.00  0.00     0.345 HD
ATOM     24  H   UNL A   1      36.778  23.894  26.235  1.00  0.00     0.345 HD
ENDBRANCH   4  21
ENDBRANCH   2   4
ENDBRANCH   1   2
BRANCH   1  25
ATOM     25  C   UNL A   1      38.068  19.585  24.826  1.00  0.00     0.274 C 
BRANCH  25  26
ATOM     26  C   UNL A   1      39.059  19.561  25.998  1.00  0.00     0.275 C 
BRANCH  26  27
ATOM     27  O   UNL A   1      40.434  19.534  25.568  1.00  0.00    -0.458 OA
BRANCH  27  28
ATOM     28  C   UNL A   1      41.351  19.719  26.550  1.00  0.00     0.338 C 
ATOM     29  O   UNL A   1      42.059  18.864  27.056  1.00  0.00    -0.246 OA
BRANCH  28  30
ATOM     30  C   UNL A   1      41.508  21.159  26.836  1.00  0.00     0.060 A 
ATOM     31  C   UNL A   1      41.528  22.046  25.753  1.00  0.00     0.016 A 
ATOM     32  C   UNL A   1      41.695  21.632  28.135  1.00  0.00     0.016 A 
ATOM     33  C   UNL A   1      41.720  23.409  25.956  1.00  0.00     0.010 A 
ATOM     34  C   UNL A   1      41.918  22.999  28.337  1.00  0.00     0.010 A 
ATOM     35  C   UNL A   1      41.943  23.890  27.249  1.00  0.00    -0.014 A 
BRANCH  35  36
ATOM     36  C   UNL A   1      42.305  25.311  27.446  1.00  0.00     0.031 A 
ATOM     37  C   UNL A   1      43.663  25.785  27.017  1.00  0.00     0.074 A 
ATOM     38  C   UNL A   1      41.428  26.166  28.004  1.00  0.00     0.049 A 
ATOM     39  N   UNL A   1      44.225  26.952  27.184  1.00  0.00    -0.248 NA
ATOM     40  C   UNL A   1      44.501  24.808  26.300  1.00  0.00     0.031 C 
ATOM     41  C   UNL A   1      40.070  25.826  28.423  1.00  0.00     0.029 A 
ATOM     42  N   UNL A   1      41.564  27.491  28.336  1.00  0.00    -0.354 N 
ATOM     43  C   UNL A   1      45.495  26.843  26.633  1.00  0.00     0.074 A 
ATOM     44  C   UNL A   1      45.622  25.494  26.123  1.00  0.00     0.031 C 
ATOM     45  C   UNL A   1      39.508  26.904  28.994  1.00  0.00     0.029 A 
ATOM     46  C   UNL A   1      40.478  27.996  29.012  1.00  0.00     0.049 A 
ATOM     47  H   UNL A   1      42.359  28.025  28.114  1.00  0.00     0.167 HD
ATOM     48  C   UNL A   1      46.463  27.785  26.552  1.00  0.00     0.034 A 
ATOM     49  C   UNL A   1      40.304  29.192  29.607  1.00  0.00     0.034 A 
ATOM     50  C   UNL A   1      46.319  29.131  27.039  1.00  0.00     0.049 A 
ATOM     51  C   UNL A   1      41.411  30.211  29.536  1.00  0.00     0.074 A 
ATOM     52  C   UNL A   1      47.228  30.171  26.976  1.00  0.00     0.029 A 
ATOM     53  N   UNL A   1      45.194  29.619  27.686  1.00  0.00    -0.354 N 
ATOM     54  N   UNL A   1      42.575  30.126  28.937  1.00  0.00    -0.248 NA
ATOM     55  C   UNL A   1      41.172  31.500  30.201  1.00  0.00     0.031 C 
ATOM     56  C   UNL A   1      46.659  31.285  27.605  1.00  0.00     0.029 A 
ATOM     57  C   UNL A   1      45.388  30.943  28.041  1.00  0.00     0.049 A 
ATOM     58  H   UNL A   1      44.376  29.102  27.866  1.00  0.00     0.167 HD
ATOM     59  C   UNL A   1      43.198  31.354  29.134  1.00  0.00     0.074 A 
ATOM     60  C   UNL A   1      42.269  32.175  29.884  1.00  0.00     0.031 C 
ATOM     61  C   UNL A   1      44.433  31.759  28.747  1.00  0.00     0.034 A 
BRANCH  48  62
ATOM     62  C   UNL A   1      47.761  27.393  25.896  1.00  0.00     0.023 A 
ATOM     63  C   UNL A   1      48.805  26.861  26.679  1.00  0.00     0.012 A 
ATOM     64  C   UNL A   1      47.934  27.516  24.504  1.00  0.00     0.148 A 
ATOM     65  C   UNL A   1      50.013  26.486  26.091  1.00  0.00     0.002 A 
ATOM     66  C   UNL A   1      49.126  27.103  23.920  1.00  0.00     0.091 A 
ATOM     67  F   UNL A   1      46.939  28.048  23.780  1.00  0.00    -0.205 F 
ATOM     68  C   UNL A   1      50.169  26.599  24.712  1.00  0.00     0.022 A 
BRANCH  66  69
ATOM     69  S   UNL A   1      49.396  27.143  22.144  1.00  0.00     0.127 S 
ATOM     70  O   UNL A   1      48.508  26.075  21.686  1.00  0.00    -0.237 OA
ATOM     71  O   UNL A   1      48.953  28.493  21.794  1.00  0.00    -0.237 OA
ATOM     72  O   UNL A   1      50.818  26.903  21.949  1.00  0.00    -0.744 OA
ENDBRANCH  66  69
ENDBRANCH  48  62
BRANCH  49  73
ATOM     73  C   UNL A   1      39.025  29.492  30.312  1.00  0.00     0.023 A 
ATOM     74  C   UNL A   1      38.788  28.942  31.586  1.00  0.00     0.012 A 
ATOM     75  C   UNL A   1      38.055  30.339  29.739  1.00  0.00     0.148 A 
ATOM     76  C   UNL A   1      37.602  29.214  32.269  1.00  0.00     0.002 A 
ATOM     77  C   UNL A   1      36.901  30.650  30.447  1.00  0.00     0.091 A 
ATOM     78  F   UNL A   1      38.287  30.833  28.515  1.00  0.00    -0.205 F 
ATOM     79  C   UNL A   1      36.665  30.077  31.706  1.00  0.00     0.022 A 
BRANCH  77  80
ATOM     80  S   UNL A   1      35.700  31.848  29.852  1.00  0.00     0.127 S 
ATOM     81  O   UNL A   1      35.072  31.121  28.752  1.00  0.00    -0.237 OA
ATOM     82  O   UNL A   1      34.850  32.037  31.029  1.00  0.00    -0.237 OA
ATOM     83  O   UNL A   1      36.473  33.024  29.476  1.00  0.00    -0.744 OA
ENDBRANCH  77  80
ENDBRANCH  49  73
BRANCH  61  84
ATOM     84  C   UNL A   1      44.852  33.160  29.114  1.00  0.00     0.023 A 
ATOM     85  C   UNL A   1      45.466  33.399  30.358  1.00  0.00     0.012 A 
ATOM     86  C   UNL A   1      44.707  34.221  28.198  1.00  0.00     0.148 A 
ATOM     87  C   UNL A   1      45.902  34.678  30.700  1.00  0.00     0.002 A 
ATOM     88  C   UNL A   1      45.185  35.485  28.527  1.00  0.00     0.091 A 
ATOM     89  F   UNL A   1      44.103  33.977  27.026  1.00  0.00    -0.205 F 
ATOM     90  C   UNL A   1      45.772  35.717  29.781  1.00  0.00     0.022 A 
BRANCH  88  91
ATOM     91  S   UNL A   1      45.145  36.859  27.371  1.00  0.00     0.127 S 
ATOM     92  O   UNL A   1      43.717  36.960  27.076  1.00  0.00    -0.237 OA
ATOM     93  O   UNL A   1      45.679  37.959  28.176  1.00  0.00    -0.237 OA
ATOM     94  O   UNL A   1      45.990  36.467  26.251  1.00  0.00    -0.744 OA
ENDBRANCH  88  91
ENDBRANCH  61  84
ENDBRANCH  35  36
ENDBRANCH  28  30
ENDBRANCH  27  28
ENDBRANCH  26  27
ENDBRANCH  25  26
ENDBRANCH   1  25
TORSDOF 21
ENDMDL
