MODEL 1
REMARK VINA RESULT:     -12.9      0.000      0.000
REMARK SMILES CC1=NN(c2ccc(Cl)c(C(=O)OCCOC(=O)c3ccc(-c4c5nc(c(-c6cccc(S(=O)(=O)[O-])c6F)c6ccc([nH]6)c(-c6cccc(S(=O)(=O)[O-])c6F)c6nc(c(-c7cccc(S(=O)(=O)[O-])c7F)c7ccc4[nH]7)C=C6)C=C5)cc3)c2)C(=O)/C1=C\c1ccccc1Cl
REMARK SMILES IDX 15 1 14 2 13 3 11 4 12 5 10 6 5 7 6 8 82 9 7 10 8 11 9 12
REMARK SMILES IDX 4 13 1 14 2 15 3 16 85 17 83 18 86 19 84 20 87 21 88 22
REMARK SMILES IDX 92 23 89 24 91 25 93 26 90 27 16 28 17 29 18 30 19 31 20 32
REMARK SMILES IDX 81 33 21 34 80 35 22 36 23 37 24 38 74 39 25 40 79 41 73 42
REMARK SMILES IDX 75 43 26 44 78 45 72 46 71 47 27 49 59 50 39 51 58 52 40 53
REMARK SMILES IDX 43 54 57 55 76 56 41 57 42 58 56 60 77 61 44 62 28 63 29 64
REMARK SMILES IDX 37 65 30 66 32 67 38 68 31 69 33 70 34 71 35 72 36 73 60 74
REMARK SMILES IDX 61 75 69 76 62 77 64 78 70 79 63 80 65 81 66 82 67 83 68 84
REMARK SMILES IDX 45 85 46 86 54 87 47 88 49 89 55 90 48 91 50 92 51 93 52 94
REMARK SMILES IDX 53 95
REMARK H PARENT 75 48 43 59
REMARK Flexibility Score: inf
ROOT
ATOM      1  C   UNL A   1      37.726  20.468  24.781  1.00  0.00     0.275 C 
ENDROOT
BRANCH   1   2
ATOM      2  C   UNL A   1      36.258  20.208  25.105  1.00  0.00     0.275 C 
BRANCH   2   3
ATOM      3  O   UNL A   1      35.764  21.169  26.062  1.00  0.00    -0.458 OA
BRANCH   3   4
ATOM      4  C   UNL A   1      34.420  21.212  26.204  1.00  0.00     0.339 C 
ATOM      5  O   UNL A   1      33.800  21.328  27.250  1.00  0.00    -0.246 OA
BRANCH   4   6
ATOM      6  C   UNL A   1      33.728  21.157  24.902  1.00  0.00     0.080 A 
ATOM      7  C   UNL A   1      32.773  22.472  23.083  1.00  0.00     0.070 A 
ATOM      8  C   UNL A   1      32.035  21.357  22.685  1.00  0.00     0.030 A 
ATOM      9  C   UNL A   1      33.627  22.357  24.180  1.00  0.00     0.045 A 
ATOM     10  C   UNL A   1      32.183  20.137  23.355  1.00  0.00     0.023 A 
ATOM     11  C   UNL A   1      33.015  20.036  24.477  1.00  0.00     0.055 A 
ATOM     12  Cl  UNL A   1      33.026  18.531  25.327  1.00  0.00    -0.083 Cl
BRANCH   7  13
ATOM     13  N   UNL A   1      32.588  23.731  22.487  1.00  0.00    -0.196 N 
ATOM     14  C   UNL A   1      32.787  25.802  19.539  1.00  0.00     0.069 C 
ATOM     15  C   UNL A   1      32.690  25.178  20.893  1.00  0.00     0.071 C 
ATOM     16  N   UNL A   1      32.879  23.904  21.137  1.00  0.00    -0.169 NA
ATOM     17  C   UNL A   1      32.388  25.932  22.121  1.00  0.00     0.065 C 
ATOM     18  C   UNL A   1      32.202  24.893  23.166  1.00  0.00     0.280 C 
ATOM     19  C   UNL A   1      32.491  27.259  22.277  1.00  0.00     0.025 C 
ATOM     20  O   UNL A   1      31.847  25.052  24.315  1.00  0.00    -0.267 OA
BRANCH  19  21
ATOM     21  C   UNL A   1      32.561  27.872  23.610  1.00  0.00    -0.006 A 
ATOM     22  C   UNL A   1      33.796  27.952  24.265  1.00  0.00     0.009 A 
ATOM     23  C   UNL A   1      31.426  28.444  24.221  1.00  0.00     0.048 A 
ATOM     24  C   UNL A   1      33.901  28.613  25.493  1.00  0.00     0.001 A 
ATOM     25  C   UNL A   1      31.537  29.105  25.447  1.00  0.00     0.021 A 
ATOM     26  Cl  UNL A   1      29.860  28.375  23.488  1.00  0.00    -0.084 Cl
ATOM     27  C   UNL A   1      32.776  29.194  26.078  1.00  0.00     0.002 A 
ENDBRANCH  19  21
ENDBRANCH   7  13
ENDBRANCH   4   6
ENDBRANCH   3   4
ENDBRANCH   2   3
ENDBRANCH   1   2
BRANCH   1  28
ATOM     28  O   UNL A   1      38.201  21.591  25.542  1.00  0.00    -0.458 OA
BRANCH  28  29
ATOM     29  C   UNL A   1      39.386  21.405  26.165  1.00  0.00     0.338 C 
ATOM     30  O   UNL A   1      40.081  20.402  26.156  1.00  0.00    -0.246 OA
BRANCH  29  31
ATOM     31  C   UNL A   1      39.787  22.642  26.848  1.00  0.00     0.060 A 
ATOM     32  C   UNL A   1      39.279  23.853  26.391  1.00  0.00     0.016 A 
ATOM     33  C   UNL A   1      40.791  22.623  27.812  1.00  0.00     0.016 A 
ATOM     34  C   UNL A   1      39.879  25.050  26.774  1.00  0.00     0.010 A 
ATOM     35  C   UNL A   1      41.293  23.834  28.301  1.00  0.00     0.010 A 
ATOM     36  C   UNL A   1      40.890  25.064  27.746  1.00  0.00    -0.014 A 
BRANCH  36  37
ATOM     37  C   UNL A   1      41.542  26.342  28.161  1.00  0.00     0.031 A 
ATOM     38  C   UNL A   1      40.762  27.378  28.936  1.00  0.00     0.074 A 
ATOM     39  C   UNL A   1      42.828  26.596  27.835  1.00  0.00     0.049 A 
ATOM     40  N   UNL A   1      41.077  28.619  29.209  1.00  0.00    -0.248 NA
ATOM     41  C   UNL A   1      39.448  26.970  29.463  1.00  0.00     0.031 C 
ATOM     42  C   UNL A   1      43.715  25.690  27.104  1.00  0.00     0.029 A 
ATOM     43  N   UNL A   1      43.609  27.707  28.059  1.00  0.00    -0.354 N 
ATOM     44  C   UNL A   1      39.969  29.164  29.849  1.00  0.00     0.074 A 
ATOM     45  C   UNL A   1      38.979  28.114  29.946  1.00  0.00     0.031 C 
ATOM     46  C   UNL A   1      44.917  26.266  26.957  1.00  0.00     0.029 A 
ATOM     47  C   UNL A   1      44.863  27.617  27.500  1.00  0.00     0.049 A 
ATOM     48  H   UNL A   1      43.300  28.488  28.571  1.00  0.00     0.167 HD
ATOM     49  C   UNL A   1      39.792  30.423  30.322  1.00  0.00     0.034 A 
ATOM     50  C   UNL A   1      45.848  28.530  27.383  1.00  0.00     0.034 A 
ATOM     51  C   UNL A   1      40.807  31.442  30.304  1.00  0.00     0.049 A 
ATOM     52  C   UNL A   1      45.634  29.911  27.934  1.00  0.00     0.074 A 
ATOM     53  C   UNL A   1      40.739  32.731  30.805  1.00  0.00     0.029 A 
ATOM     54  N   UNL A   1      42.078  31.287  29.776  1.00  0.00    -0.354 N 
ATOM     55  N   UNL A   1      44.595  30.392  28.571  1.00  0.00    -0.248 NA
ATOM     56  C   UNL A   1      46.733  30.873  27.759  1.00  0.00     0.031 C 
ATOM     57  C   UNL A   1      41.970  33.356  30.575  1.00  0.00     0.029 A 
ATOM     58  C   UNL A   1      42.808  32.450  29.947  1.00  0.00     0.049 A 
ATOM     59  H   UNL A   1      42.413  30.468  29.343  1.00  0.00     0.167 HD
ATOM     60  C   UNL A   1      44.923  31.704  28.894  1.00  0.00     0.074 A 
ATOM     61  C   UNL A   1      46.268  31.931  28.409  1.00  0.00     0.031 C 
ATOM     62  C   UNL A   1      44.169  32.642  29.515  1.00  0.00     0.034 A 
BRANCH  49  63
ATOM     63  C   UNL A   1      38.459  30.769  30.935  1.00  0.00     0.023 A 
ATOM     64  C   UNL A   1      38.235  30.532  32.306  1.00  0.00     0.012 A 
ATOM     65  C   UNL A   1      37.456  31.402  30.172  1.00  0.00     0.148 A 
ATOM     66  C   UNL A   1      37.026  30.894  32.901  1.00  0.00     0.002 A 
ATOM     67  C   UNL A   1      36.270  31.797  30.781  1.00  0.00     0.091 A 
ATOM     68  F   UNL A   1      37.680  31.604  28.865  1.00  0.00    -0.205 F 
ATOM     69  C   UNL A   1      36.050  31.535  32.143  1.00  0.00     0.022 A 
BRANCH  67  70
ATOM     70  S   UNL A   1      34.986  32.702  29.909  1.00  0.00     0.127 S 
ATOM     71  O   UNL A   1      34.045  32.994  30.990  1.00  0.00    -0.237 OA
ATOM     72  O   UNL A   1      35.716  33.867  29.406  1.00  0.00    -0.237 OA
ATOM     73  O   UNL A   1      34.493  31.804  28.876  1.00  0.00    -0.744 OA
ENDBRANCH  67  70
ENDBRANCH  49  63
BRANCH  50  74
ATOM     74  C   UNL A   1      47.132  28.162  26.721  1.00  0.00     0.023 A 
ATOM     75  C   UNL A   1      48.245  27.822  27.513  1.00  0.00     0.012 A 
ATOM     76  C   UNL A   1      47.249  28.113  25.317  1.00  0.00     0.148 A 
ATOM     77  C   UNL A   1      49.457  27.463  26.920  1.00  0.00     0.002 A 
ATOM     78  C   UNL A   1      48.440  27.695  24.734  1.00  0.00     0.091 A 
ATOM     79  F   UNL A   1      46.189  28.466  24.576  1.00  0.00    -0.205 F 
ATOM     80  C   UNL A   1      49.550  27.385  25.533  1.00  0.00     0.022 A 
BRANCH  78  81
ATOM     81  S   UNL A   1      48.590  27.431  22.964  1.00  0.00     0.127 S 
ATOM     82  O   UNL A   1      48.472  25.979  22.865  1.00  0.00    -0.237 OA
ATOM     83  O   UNL A   1      47.445  28.179  22.443  1.00  0.00    -0.237 OA
ATOM     84  O   UNL A   1      49.884  27.994  22.599  1.00  0.00    -0.744 OA
ENDBRANCH  78  81
ENDBRANCH  50  74
BRANCH  62  85
ATOM     85  C   UNL A   1      44.793  33.991  29.750  1.00  0.00     0.023 A 
ATOM     86  C   UNL A   1      45.535  34.223  30.925  1.00  0.00     0.012 A 
ATOM     87  C   UNL A   1      44.695  35.006  28.779  1.00  0.00     0.148 A 
ATOM     88  C   UNL A   1      46.148  35.457  31.142  1.00  0.00     0.002 A 
ATOM     89  C   UNL A   1      45.346  36.217  28.982  1.00  0.00     0.091 A 
ATOM     90  F   UNL A   1      43.965  34.772  27.679  1.00  0.00    -0.205 F 
ATOM     91  C   UNL A   1      46.064  36.448  30.167  1.00  0.00     0.022 A 
BRANCH  89  92
ATOM     92  S   UNL A   1      45.363  37.515  27.739  1.00  0.00     0.127 S 
ATOM     93  O   UNL A   1      44.001  38.038  27.838  1.00  0.00    -0.237 OA
ATOM     94  O   UNL A   1      46.400  38.416  28.242  1.00  0.00    -0.237 OA
ATOM     95  O   UNL A   1      45.693  36.857  26.482  1.00  0.00    -0.744 OA
ENDBRANCH  89  92
ENDBRANCH  62  85
ENDBRANCH  36  37
ENDBRANCH  29  31
ENDBRANCH  28  29
ENDBRANCH   1  28
TORSDOF 16
ENDMDL
MODEL 2
REMARK VINA RESULT:     -12.6      0.956      7.399
REMARK SMILES CC1=NN(c2ccc(Cl)c(C(=O)OCCOC(=O)c3ccc(-c4c5nc(c(-c6cccc(S(=O)(=O)[O-])c6F)c6ccc([nH]6)c(-c6cccc(S(=O)(=O)[O-])c6F)c6nc(c(-c7cccc(S(=O)(=O)[O-])c7F)c7ccc4[nH]7)C=C6)C=C5)cc3)c2)C(=O)/C1=C\c1ccccc1Cl
REMARK SMILES IDX 15 1 14 2 13 3 11 4 12 5 10 6 5 7 6 8 82 9 7 10 8 11 9 12
REMARK SMILES IDX 4 13 1 14 2 15 3 16 85 17 83 18 86 19 84 20 87 21 88 22
REMARK SMILES IDX 92 23 89 24 91 25 93 26 90 27 16 28 17 29 18 30 19 31 20 32
REMARK SMILES IDX 81 33 21 34 80 35 22 36 23 37 24 38 74 39 25 40 79 41 73 42
REMARK SMILES IDX 75 43 26 44 78 45 72 46 71 47 27 49 59 50 39 51 58 52 40 53
REMARK SMILES IDX 43 54 57 55 76 56 41 57 42 58 56 60 77 61 44 62 28 63 29 64
REMARK SMILES IDX 37 65 30 66 32 67 38 68 31 69 33 70 34 71 35 72 36 73 60 74
REMARK SMILES IDX 61 75 69 76 62 77 64 78 70 79 63 80 65 81 66 82 67 83 68 84
REMARK SMILES IDX 45 85 46 86 54 87 47 88 49 89 55 90 48 91 50 92 51 93 52 94
REMARK SMILES IDX 53 95
REMARK H PARENT 75 48 43 59
REMARK Flexibility Score: inf
ROOT
ATOM      1  C   UNL A   1      38.780  19.203  25.350  1.00  0.00     0.275 C 
ENDROOT
BRANCH   1   2
ATOM      2  C   UNL A   1      37.792  20.147  24.670  1.00  0.00     0.275 C 
BRANCH   2   3
ATOM      3  O   UNL A   1      36.433  19.796  25.001  1.00  0.00    -0.458 OA
BRANCH   3   4
ATOM      4  C   UNL A   1      35.632  20.828  25.351  1.00  0.00     0.339 C 
ATOM      5  O   UNL A   1      35.843  21.650  26.229  1.00  0.00    -0.246 OA
BRANCH   4   6
ATOM      6  C   UNL A   1      34.434  20.908  24.493  1.00  0.00     0.080 A 
ATOM      7  C   UNL A   1      33.002  22.387  23.185  1.00  0.00     0.070 A 
ATOM      8  C   UNL A   1      31.991  21.428  23.237  1.00  0.00     0.030 A 
ATOM      9  C   UNL A   1      34.223  22.111  23.800  1.00  0.00     0.045 A 
ATOM     10  C   UNL A   1      32.217  20.197  23.864  1.00  0.00     0.023 A 
ATOM     11  C   UNL A   1      33.431  19.938  24.510  1.00  0.00     0.055 A 
ATOM     12  Cl  UNL A   1      33.569  18.452  25.380  1.00  0.00    -0.083 Cl
BRANCH   7  13
ATOM     13  N   UNL A   1      32.783  23.662  22.638  1.00  0.00    -0.196 N 
ATOM     14  C   UNL A   1      32.903  25.842  19.764  1.00  0.00     0.069 C 
ATOM     15  C   UNL A   1      32.835  25.168  21.095  1.00  0.00     0.071 C 
ATOM     16  N   UNL A   1      33.054  23.891  21.292  1.00  0.00    -0.169 NA
ATOM     17  C   UNL A   1      32.532  25.871  22.354  1.00  0.00     0.065 C 
ATOM     18  C   UNL A   1      32.380  24.791  23.362  1.00  0.00     0.280 C 
ATOM     19  C   UNL A   1      32.608  27.193  22.556  1.00  0.00     0.025 C 
ATOM     20  O   UNL A   1      32.035  24.901  24.520  1.00  0.00    -0.267 OA
BRANCH  19  21
ATOM     21  C   UNL A   1      32.681  27.759  23.911  1.00  0.00    -0.006 A 
ATOM     22  C   UNL A   1      33.926  27.884  24.536  1.00  0.00     0.009 A 
ATOM     23  C   UNL A   1      31.533  28.243  24.572  1.00  0.00     0.048 A 
ATOM     24  C   UNL A   1      34.029  28.503  25.786  1.00  0.00     0.001 A 
ATOM     25  C   UNL A   1      31.641  28.862  25.819  1.00  0.00     0.021 A 
ATOM     26  Cl  UNL A   1      29.953  28.112  23.876  1.00  0.00    -0.084 Cl
ATOM     27  C   UNL A   1      32.890  28.998  26.422  1.00  0.00     0.002 A 
ENDBRANCH  19  21
ENDBRANCH   7  13
ENDBRANCH   4   6
ENDBRANCH   3   4
ENDBRANCH   2   3
ENDBRANCH   1   2
BRANCH   1  28
ATOM     28  O   UNL A   1      39.258  19.795  26.570  1.00  0.00    -0.458 OA
BRANCH  28  29
ATOM     29  C   UNL A   1      40.576  20.097  26.585  1.00  0.00     0.338 C 
ATOM     30  O   UNL A   1      41.507  19.378  26.263  1.00  0.00    -0.246 OA
BRANCH  29  31
ATOM     31  C   UNL A   1      40.759  21.491  27.007  1.00  0.00     0.060 A 
ATOM     32  C   UNL A   1      40.032  22.487  26.364  1.00  0.00     0.016 A 
ATOM     33  C   UNL A   1      41.768  21.831  27.905  1.00  0.00     0.016 A 
ATOM     34  C   UNL A   1      40.413  23.820  26.489  1.00  0.00     0.010 A 
ATOM     35  C   UNL A   1      42.052  23.180  28.137  1.00  0.00     0.010 A 
ATOM     36  C   UNL A   1      41.423  24.194  27.388  1.00  0.00    -0.014 A 
BRANCH  36  37
ATOM     37  C   UNL A   1      41.841  25.621  27.527  1.00  0.00     0.031 A 
ATOM     38  C   UNL A   1      43.154  26.089  26.944  1.00  0.00     0.074 A 
ATOM     39  C   UNL A   1      41.065  26.505  28.190  1.00  0.00     0.049 A 
ATOM     40  N   UNL A   1      43.787  27.220  27.129  1.00  0.00    -0.248 NA
ATOM     41  C   UNL A   1      43.856  25.158  26.044  1.00  0.00     0.031 C 
ATOM     42  C   UNL A   1      39.765  26.209  28.795  1.00  0.00     0.029 A 
ATOM     43  N   UNL A   1      41.267  27.834  28.484  1.00  0.00    -0.354 N 
ATOM     44  C   UNL A   1      44.996  27.098  26.453  1.00  0.00     0.074 A 
ATOM     45  C   UNL A   1      45.002  25.792  25.832  1.00  0.00     0.031 C 
ATOM     46  C   UNL A   1      39.277  27.319  29.368  1.00  0.00     0.029 A 
ATOM     47  C   UNL A   1      40.266  28.383  29.254  1.00  0.00     0.049 A 
ATOM     48  H   UNL A   1      42.050  28.342  28.174  1.00  0.00     0.167 HD
ATOM     49  C   UNL A   1      46.008  27.996  26.350  1.00  0.00     0.034 A 
ATOM     50  C   UNL A   1      40.170  29.587  29.852  1.00  0.00     0.034 A 
ATOM     51  C   UNL A   1      45.966  29.327  26.893  1.00  0.00     0.049 A 
ATOM     52  C   UNL A   1      41.295  30.570  29.704  1.00  0.00     0.074 A 
ATOM     53  C   UNL A   1      46.920  30.325  26.797  1.00  0.00     0.029 A 
ATOM     54  N   UNL A   1      44.910  29.854  27.618  1.00  0.00    -0.354 N 
ATOM     55  N   UNL A   1      42.411  30.451  29.026  1.00  0.00    -0.248 NA
ATOM     56  C   UNL A   1      41.146  31.860  30.395  1.00  0.00     0.031 C 
ATOM     57  C   UNL A   1      46.442  31.456  27.468  1.00  0.00     0.029 A 
ATOM     58  C   UNL A   1      45.183  31.166  27.967  1.00  0.00     0.049 A 
ATOM     59  H   UNL A   1      44.086  29.368  27.850  1.00  0.00     0.167 HD
ATOM     60  C   UNL A   1      43.084  31.655  29.189  1.00  0.00     0.074 A 
ATOM     61  C   UNL A   1      42.239  32.502  30.004  1.00  0.00     0.031 C 
ATOM     62  C   UNL A   1      44.304  32.019  28.725  1.00  0.00     0.034 A 
BRANCH  49  63
ATOM     63  C   UNL A   1      47.244  27.586  25.589  1.00  0.00     0.023 A 
ATOM     64  C   UNL A   1      48.256  26.852  26.240  1.00  0.00     0.012 A 
ATOM     65  C   UNL A   1      47.367  27.858  24.211  1.00  0.00     0.148 A 
ATOM     66  C   UNL A   1      49.382  26.420  25.539  1.00  0.00     0.002 A 
ATOM     67  C   UNL A   1      48.472  27.389  23.510  1.00  0.00     0.091 A 
ATOM     68  F   UNL A   1      46.403  28.573  23.613  1.00  0.00    -0.205 F 
ATOM     69  C   UNL A   1      49.485  26.678  24.175  1.00  0.00     0.022 A 
BRANCH  67  70
ATOM     70  S   UNL A   1      48.657  27.599  21.735  1.00  0.00     0.127 S 
ATOM     71  O   UNL A   1      49.562  28.746  21.666  1.00  0.00    -0.237 OA
ATOM     72  O   UNL A   1      49.256  26.325  21.334  1.00  0.00    -0.237 OA
ATOM     73  O   UNL A   1      47.316  27.828  21.216  1.00  0.00    -0.744 OA
ENDBRANCH  67  70
ENDBRANCH  49  63
BRANCH  50  74
ATOM     74  C   UNL A   1      38.952  29.932  30.640  1.00  0.00     0.023 A 
ATOM     75  C   UNL A   1      38.836  29.479  31.968  1.00  0.00     0.012 A 
ATOM     76  C   UNL A   1      37.925  30.731  30.098  1.00  0.00     0.148 A 
ATOM     77  C   UNL A   1      37.712  29.794  32.732  1.00  0.00     0.002 A 
ATOM     78  C   UNL A   1      36.838  31.094  30.884  1.00  0.00     0.091 A 
ATOM     79  F   UNL A   1      38.037  31.133  28.823  1.00  0.00    -0.205 F 
ATOM     80  C   UNL A   1      36.721  30.614  32.197  1.00  0.00     0.022 A 
BRANCH  78  81
ATOM     81  S   UNL A   1      35.598  32.261  30.313  1.00  0.00     0.127 S 
ATOM     82  O   UNL A   1      35.062  31.578  29.139  1.00  0.00    -0.237 OA
ATOM     83  O   UNL A   1      34.688  32.327  31.457  1.00  0.00    -0.237 OA
ATOM     84  O   UNL A   1      36.323  33.498  30.057  1.00  0.00    -0.744 OA
ENDBRANCH  78  81
ENDBRANCH  50  74
BRANCH  62  85
ATOM     85  C   UNL A   1      44.784  33.408  29.046  1.00  0.00     0.023 A 
ATOM     86  C   UNL A   1      45.458  33.652  30.259  1.00  0.00     0.012 A 
ATOM     87  C   UNL A   1      44.622  34.455  28.119  1.00  0.00     0.148 A 
ATOM     88  C   UNL A   1      45.938  34.927  30.556  1.00  0.00     0.002 A 
ATOM     89  C   UNL A   1      45.143  35.712  28.403  1.00  0.00     0.091 A 
ATOM     90  F   UNL A   1      43.958  34.206  26.981  1.00  0.00    -0.205 F 
ATOM     91  C   UNL A   1      45.792  35.952  29.625  1.00  0.00     0.022 A 
BRANCH  89  92
ATOM     92  S   UNL A   1      45.077  37.064  27.222  1.00  0.00     0.127 S 
ATOM     93  O   UNL A   1      45.663  38.161  27.992  1.00  0.00    -0.237 OA
ATOM     94  O   UNL A   1      45.917  36.568  26.131  1.00  0.00    -0.237 OA
ATOM     95  O   UNL A   1      43.670  37.222  26.876  1.00  0.00    -0.744 OA
ENDBRANCH  89  92
ENDBRANCH  62  85
ENDBRANCH  36  37
ENDBRANCH  29  31
ENDBRANCH  28  29
ENDBRANCH   1  28
TORSDOF 16
ENDMDL
MODEL 3
REMARK VINA RESULT:     -12.4      5.151     10.212
REMARK SMILES CC1=NN(c2ccc(Cl)c(C(=O)OCCOC(=O)c3ccc(-c4c5nc(c(-c6cccc(S(=O)(=O)[O-])c6F)c6ccc([nH]6)c(-c6cccc(S(=O)(=O)[O-])c6F)c6nc(c(-c7cccc(S(=O)(=O)[O-])c7F)c7ccc4[nH]7)C=C6)C=C5)cc3)c2)C(=O)/C1=C\c1ccccc1Cl
REMARK SMILES IDX 15 1 14 2 13 3 11 4 12 5 10 6 5 7 6 8 82 9 7 10 8 11 9 12
REMARK SMILES IDX 4 13 1 14 2 15 3 16 85 17 83 18 86 19 84 20 87 21 88 22
REMARK SMILES IDX 92 23 89 24 91 25 93 26 90 27 16 28 17 29 18 30 19 31 20 32
REMARK SMILES IDX 81 33 21 34 80 35 22 36 23 37 24 38 74 39 25 40 79 41 73 42
REMARK SMILES IDX 75 43 26 44 78 45 72 46 71 47 27 49 59 50 39 51 58 52 40 53
REMARK SMILES IDX 43 54 57 55 76 56 41 57 42 58 56 60 77 61 44 62 28 63 29 64
REMARK SMILES IDX 37 65 30 66 32 67 38 68 31 69 33 70 34 71 35 72 36 73 60 74
REMARK SMILES IDX 61 75 69 76 62 77 64 78 70 79 63 80 65 81 66 82 67 83 68 84
REMARK SMILES IDX 45 85 46 86 54 87 47 88 49 89 55 90 48 91 50 92 51 93 52 94
REMARK SMILES IDX 53 95
REMARK H PARENT 75 48 43 59
REMARK Flexibility Score: inf
ROOT
ATOM      1  C   UNL A   1      31.410  32.137  26.587  1.00  0.00     0.275 C 
ENDROOT
BRANCH   1   2
ATOM      2  C   UNL A   1      31.073  31.063  25.556  1.00  0.00     0.275 C 
BRANCH   2   3
ATOM      3  O   UNL A   1      32.135  30.091  25.460  1.00  0.00    -0.458 OA
BRANCH   3   4
ATOM      4  C   UNL A   1      32.163  29.369  24.316  1.00  0.00     0.339 C 
ATOM      5  O   UNL A   1      33.029  29.400  23.455  1.00  0.00    -0.246 OA
BRANCH   4   6
ATOM      6  C   UNL A   1      31.014  28.449  24.221  1.00  0.00     0.080 A 
ATOM      7  C   UNL A   1      30.209  26.193  24.687  1.00  0.00     0.070 A 
ATOM      8  C   UNL A   1      29.186  26.384  23.759  1.00  0.00     0.030 A 
ATOM      9  C   UNL A   1      31.107  27.236  24.923  1.00  0.00     0.045 A 
ATOM     10  C   UNL A   1      29.043  27.615  23.108  1.00  0.00     0.023 A 
ATOM     11  C   UNL A   1      29.966  28.646  23.321  1.00  0.00     0.055 A 
ATOM     12  Cl  UNL A   1      29.797  30.077  22.367  1.00  0.00    -0.083 Cl
BRANCH   7  13
ATOM     13  N   UNL A   1      30.431  24.947  25.296  1.00  0.00    -0.196 N 
ATOM     14  C   UNL A   1      29.452  22.513  27.774  1.00  0.00     0.069 C 
ATOM     15  C   UNL A   1      30.090  23.384  26.741  1.00  0.00     0.071 C 
ATOM     16  N   UNL A   1      29.594  24.524  26.324  1.00  0.00    -0.169 NA
ATOM     17  C   UNL A   1      31.369  23.070  26.082  1.00  0.00     0.065 C 
ATOM     18  C   UNL A   1      31.504  24.093  25.014  1.00  0.00     0.280 C 
ATOM     19  C   UNL A   1      32.286  22.195  26.516  1.00  0.00     0.025 C 
ATOM     20  O   UNL A   1      32.362  24.164  24.158  1.00  0.00    -0.267 OA
BRANCH  19  21
ATOM     21  C   UNL A   1      33.674  22.235  26.035  1.00  0.00    -0.006 A 
ATOM     22  C   UNL A   1      34.578  23.128  26.622  1.00  0.00     0.009 A 
ATOM     23  C   UNL A   1      34.137  21.349  25.041  1.00  0.00     0.048 A 
ATOM     24  C   UNL A   1      35.924  23.119  26.242  1.00  0.00     0.001 A 
ATOM     25  C   UNL A   1      35.482  21.343  24.667  1.00  0.00     0.021 A 
ATOM     26  Cl  UNL A   1      33.081  20.226  24.253  1.00  0.00    -0.084 Cl
ATOM     27  C   UNL A   1      36.376  22.223  25.273  1.00  0.00     0.002 A 
ENDBRANCH  19  21
ENDBRANCH   7  13
ENDBRANCH   4   6
ENDBRANCH   3   4
ENDBRANCH   2   3
ENDBRANCH   1   2
BRANCH   1  28
ATOM     28  O   UNL A   1      32.600  31.767  27.304  1.00  0.00    -0.458 OA
BRANCH  28  29
ATOM     29  C   UNL A   1      33.426  32.790  27.616  1.00  0.00     0.338 C 
ATOM     30  O   UNL A   1      33.157  33.980  27.647  1.00  0.00    -0.246 OA
BRANCH  29  31
ATOM     31  C   UNL A   1      34.747  32.265  27.986  1.00  0.00     0.060 A 
ATOM     32  C   UNL A   1      34.850  30.939  28.389  1.00  0.00     0.016 A 
ATOM     33  C   UNL A   1      35.838  33.120  28.107  1.00  0.00     0.016 A 
ATOM     34  C   UNL A   1      35.989  30.500  29.061  1.00  0.00     0.010 A 
ATOM     35  C   UNL A   1      37.032  32.635  28.652  1.00  0.00     0.010 A 
ATOM     36  C   UNL A   1      37.107  31.337  29.194  1.00  0.00    -0.014 A 
BRANCH  36  37
ATOM     37  C   UNL A   1      38.332  30.878  29.915  1.00  0.00     0.031 A 
ATOM     38  C   UNL A   1      39.258  29.871  29.276  1.00  0.00     0.074 A 
ATOM     39  C   UNL A   1      38.616  31.341  31.152  1.00  0.00     0.049 A 
ATOM     40  N   UNL A   1      40.248  29.200  29.810  1.00  0.00    -0.248 NA
ATOM     41  C   UNL A   1      39.036  29.566  27.852  1.00  0.00     0.031 C 
ATOM     42  C   UNL A   1      37.828  32.326  31.894  1.00  0.00     0.029 A 
ATOM     43  N   UNL A   1      39.641  31.027  32.014  1.00  0.00    -0.354 N 
ATOM     44  C   UNL A   1      40.699  28.330  28.823  1.00  0.00     0.074 A 
ATOM     45  C   UNL A   1      39.891  28.572  27.647  1.00  0.00     0.031 C 
ATOM     46  C   UNL A   1      38.403  32.551  33.084  1.00  0.00     0.029 A 
ATOM     47  C   UNL A   1      39.547  31.662  33.232  1.00  0.00     0.049 A 
ATOM     48  H   UNL A   1      40.371  30.409  31.782  1.00  0.00     0.167 HD
ATOM     49  C   UNL A   1      41.700  27.418  28.884  1.00  0.00     0.034 A 
ATOM     50  C   UNL A   1      40.262  31.513  34.365  1.00  0.00     0.034 A 
ATOM     51  C   UNL A   1      42.560  27.237  30.023  1.00  0.00     0.049 A 
ATOM     52  C   UNL A   1      41.379  30.511  34.399  1.00  0.00     0.074 A 
ATOM     53  C   UNL A   1      43.633  26.374  30.161  1.00  0.00     0.029 A 
ATOM     54  N   UNL A   1      42.459  27.941  31.212  1.00  0.00    -0.354 N 
ATOM     55  N   UNL A   1      41.816  29.729  33.442  1.00  0.00    -0.248 NA
ATOM     56  C   UNL A   1      42.112  30.376  35.667  1.00  0.00     0.031 C 
ATOM     57  C   UNL A   1      44.179  26.554  31.437  1.00  0.00     0.029 A 
ATOM     58  C   UNL A   1      43.456  27.540  32.085  1.00  0.00     0.049 A 
ATOM     59  H   UNL A   1      41.779  28.625  31.406  1.00  0.00     0.167 HD
ATOM     60  C   UNL A   1      42.886  29.028  33.983  1.00  0.00     0.074 A 
ATOM     61  C   UNL A   1      43.052  29.498  35.342  1.00  0.00     0.031 C 
ATOM     62  C   UNL A   1      43.648  28.063  33.414  1.00  0.00     0.034 A 
BRANCH  49  63
ATOM     63  C   UNL A   1      41.952  26.559  27.670  1.00  0.00     0.023 A 
ATOM     64  C   UNL A   1      42.678  27.080  26.581  1.00  0.00     0.012 A 
ATOM     65  C   UNL A   1      41.539  25.211  27.642  1.00  0.00     0.148 A 
ATOM     66  C   UNL A   1      42.964  26.284  25.472  1.00  0.00     0.002 A 
ATOM     67  C   UNL A   1      41.864  24.411  26.552  1.00  0.00     0.091 A 
ATOM     68  F   UNL A   1      40.835  24.736  28.680  1.00  0.00    -0.205 F 
ATOM     69  C   UNL A   1      42.568  24.950  25.462  1.00  0.00     0.022 A 
BRANCH  67  70
ATOM     70  S   UNL A   1      41.471  22.660  26.481  1.00  0.00     0.127 S 
ATOM     71  O   UNL A   1      40.012  22.689  26.371  1.00  0.00    -0.237 OA
ATOM     72  O   UNL A   1      42.164  22.236  25.263  1.00  0.00    -0.237 OA
ATOM     73  O   UNL A   1      41.995  22.080  27.709  1.00  0.00    -0.744 OA
ENDBRANCH  67  70
ENDBRANCH  49  63
BRANCH  50  74
ATOM     74  C   UNL A   1      39.945  32.346  35.561  1.00  0.00     0.023 A 
ATOM     75  C   UNL A   1      39.128  31.814  36.577  1.00  0.00     0.012 A 
ATOM     76  C   UNL A   1      40.471  33.645  35.714  1.00  0.00     0.148 A 
ATOM     77  C   UNL A   1      38.823  32.568  37.711  1.00  0.00     0.002 A 
ATOM     78  C   UNL A   1      40.214  34.365  36.875  1.00  0.00     0.091 A 
ATOM     79  F   UNL A   1      41.224  34.148  34.725  1.00  0.00    -0.205 F 
ATOM     80  C   UNL A   1      39.377  33.836  37.867  1.00  0.00     0.022 A 
BRANCH  78  81
ATOM     81  S   UNL A   1      41.007  35.941  37.210  1.00  0.00     0.127 S 
ATOM     82  O   UNL A   1      40.292  36.836  36.305  1.00  0.00    -0.237 OA
ATOM     83  O   UNL A   1      40.713  36.138  38.631  1.00  0.00    -0.237 OA
ATOM     84  O   UNL A   1      42.419  35.731  36.919  1.00  0.00    -0.744 OA
ENDBRANCH  78  81
ENDBRANCH  50  74
BRANCH  62  85
ATOM     85  C   UNL A   1      44.763  27.480  34.239  1.00  0.00     0.023 A 
ATOM     86  C   UNL A   1      46.030  28.097  34.238  1.00  0.00     0.012 A 
ATOM     87  C   UNL A   1      44.537  26.361  35.062  1.00  0.00     0.148 A 
ATOM     88  C   UNL A   1      47.064  27.588  35.023  1.00  0.00     0.002 A 
ATOM     89  C   UNL A   1      45.559  25.888  35.877  1.00  0.00     0.091 A 
ATOM     90  F   UNL A   1      43.330  25.776  35.032  1.00  0.00    -0.205 F 
ATOM     91  C   UNL A   1      46.826  26.494  35.850  1.00  0.00     0.022 A 
BRANCH  89  92
ATOM     92  S   UNL A   1      45.311  24.539  37.037  1.00  0.00     0.127 S 
ATOM     93  O   UNL A   1      44.113  24.977  37.752  1.00  0.00    -0.237 OA
ATOM     94  O   UNL A   1      45.106  23.395  36.148  1.00  0.00    -0.237 OA
ATOM     95  O   UNL A   1      46.529  24.471  37.835  1.00  0.00    -0.744 OA
ENDBRANCH  89  92
ENDBRANCH  62  85
ENDBRANCH  36  37
ENDBRANCH  29  31
ENDBRANCH  28  29
ENDBRANCH   1  28
TORSDOF 16
ENDMDL
