MODEL 1
REMARK VINA RESULT:     -11.3      0.000      0.000
REMARK SMILES CC[NH2+][C@@]1(C(=O)OCCOC(=O)c2ccc(-c3c4nc(c(-c5cccc(S(=O)(=O)[O-])c5F)c5ccc([nH]5)c(-c5cccc(S(=O)(=O)[O-])c5F)c5nc(c(-c6cccc(S(=O)(=O)[O-])c6F)c6ccc3[nH]6)C=C5)C=C4)cc2)CC[C@@H]([NH+]2CCC(C)(CC)CC2)C1
REMARK SMILES IDX 9 1 8 2 7 3 5 4 6 5 4 6 76 7 88 8 77 9 78 10 3 11 2 14 1 15
REMARK SMILES IDX 79 16 80 17 87 18 81 20 86 21 82 22 83 23 84 24 85 25 10 26
REMARK SMILES IDX 11 27 12 28 13 29 14 30 75 31 15 32 74 33 16 34 17 35 18 36
REMARK SMILES IDX 68 37 19 38 73 39 67 40 69 41 20 42 72 43 66 44 65 45 21 47
REMARK SMILES IDX 53 48 33 49 52 50 34 51 37 52 51 53 70 54 35 55 36 56 50 58
REMARK SMILES IDX 71 59 38 60 22 61 23 62 31 63 24 64 26 65 32 66 25 67 27 68
REMARK SMILES IDX 28 69 29 70 30 71 54 72 55 73 63 74 56 75 58 76 64 77 57 78
REMARK SMILES IDX 59 79 60 80 61 81 62 82 39 83 40 84 48 85 41 86 43 87 49 88
REMARK SMILES IDX 42 89 44 90 45 91 46 92 47 93
REMARK H PARENT 3 12 3 13 79 19 69 46 37 57
REMARK Flexibility Score: inf
ROOT
ATOM      1  C   UNL A   1      31.433  31.852  26.481  1.00  0.00     0.275 C 
ENDROOT
BRANCH   1   2
ATOM      2  C   UNL A   1      31.063  30.832  25.403  1.00  0.00     0.274 C 
BRANCH   2   3
ATOM      3  O   UNL A   1      31.570  29.530  25.748  1.00  0.00    -0.457 OA
BRANCH   3   4
ATOM      4  C   UNL A   1      32.346  28.920  24.810  1.00  0.00     0.368 C 
ATOM      5  O   UNL A   1      33.272  29.481  24.229  1.00  0.00    -0.245 OA
BRANCH   4   6
ATOM      6  C   UNL A   1      31.871  27.471  24.474  1.00  0.00     0.200 C 
ATOM      7  C   UNL A   1      31.917  26.653  25.772  1.00  0.00     0.087 C 
ATOM      8  C   UNL A   1      32.828  26.674  23.554  1.00  0.00     0.146 C 
ATOM      9  C   UNL A   1      33.397  26.307  25.908  1.00  0.00     0.072 C 
ATOM     10  C   UNL A   1      33.881  26.029  24.471  1.00  0.00     0.191 C 
BRANCH   6  11
ATOM     11  N   UNL A   1      30.534  27.469  23.826  1.00  0.00    -0.332 N 
ATOM     12  H   UNL A   1      30.299  26.503  23.602  1.00  0.00     0.347 HD
ATOM     13  H   UNL A   1      29.906  27.911  24.498  1.00  0.00     0.347 HD
BRANCH  11  14
ATOM     14  C   UNL A   1      30.407  28.254  22.599  1.00  0.00     0.257 C 
ATOM     15  C   UNL A   1      29.067  28.978  22.595  1.00  0.00     0.071 C 
ENDBRANCH  11  14
ENDBRANCH   6  11
BRANCH  10  16
ATOM     16  N   UNL A   1      34.192  24.617  24.222  1.00  0.00    -0.332 N 
ATOM     17  C   UNL A   1      33.056  23.703  24.212  1.00  0.00     0.263 C 
ATOM     18  C   UNL A   1      35.409  24.042  24.780  1.00  0.00     0.263 C 
ATOM     19  H   UNL A   1      34.471  24.724  23.246  1.00  0.00     0.348 HD
ATOM     20  C   UNL A   1      32.829  22.902  25.498  1.00  0.00     0.068 C 
ATOM     21  C   UNL A   1      35.251  23.289  26.101  1.00  0.00     0.068 C 
ATOM     22  C   UNL A   1      34.090  22.273  26.135  1.00  0.00    -0.022 C 
ATOM     23  C   UNL A   1      33.761  21.982  27.626  1.00  0.00     0.012 C 
BRANCH  22  24
ATOM     24  C   UNL A   1      34.475  20.887  25.532  1.00  0.00     0.004 C 
ATOM     25  C   UNL A   1      33.386  19.902  25.148  1.00  0.00     0.004 C 
ENDBRANCH  22  24
ENDBRANCH  10  16
ENDBRANCH   4   6
ENDBRANCH   3   4
ENDBRANCH   2   3
ENDBRANCH   1   2
BRANCH   1  26
ATOM     26  O   UNL A   1      32.616  31.443  27.188  1.00  0.00    -0.458 OA
BRANCH  26  27
ATOM     27  C   UNL A   1      33.433  32.461  27.552  1.00  0.00     0.338 C 
ATOM     28  O   UNL A   1      33.132  33.649  27.615  1.00  0.00    -0.246 OA
BRANCH  27  29
ATOM     29  C   UNL A   1      34.749  31.948  27.973  1.00  0.00     0.060 A 
ATOM     30  C   UNL A   1      34.845  30.589  28.294  1.00  0.00     0.016 A 
ATOM     31  C   UNL A   1      35.860  32.785  28.117  1.00  0.00     0.016 A 
ATOM     32  C   UNL A   1      36.045  30.064  28.764  1.00  0.00     0.010 A 
ATOM     33  C   UNL A   1      37.059  32.262  28.614  1.00  0.00     0.010 A 
ATOM     34  C   UNL A   1      37.149  30.903  28.956  1.00  0.00    -0.014 A 
BRANCH  34  35
ATOM     35  C   UNL A   1      38.336  30.371  29.661  1.00  0.00     0.031 A 
ATOM     36  C   UNL A   1      38.592  30.814  31.071  1.00  0.00     0.074 A 
ATOM     37  C   UNL A   1      39.163  29.496  29.063  1.00  0.00     0.049 A 
ATOM     38  N   UNL A   1      39.507  30.411  31.912  1.00  0.00    -0.248 NA
ATOM     39  C   UNL A   1      37.693  31.851  31.604  1.00  0.00     0.031 C 
ATOM     40  C   UNL A   1      39.031  29.010  27.693  1.00  0.00     0.029 A 
ATOM     41  N   UNL A   1      40.290  28.873  29.538  1.00  0.00    -0.354 N 
ATOM     42  C   UNL A   1      39.294  31.138  33.076  1.00  0.00     0.074 A 
ATOM     43  C   UNL A   1      38.173  32.021  32.826  1.00  0.00     0.031 C 
ATOM     44  C   UNL A   1      40.049  28.174  27.428  1.00  0.00     0.029 A 
ATOM     45  C   UNL A   1      40.909  28.076  28.606  1.00  0.00     0.049 A 
ATOM     46  H   UNL A   1      40.622  28.986  30.458  1.00  0.00     0.167 HD
ATOM     47  C   UNL A   1      39.963  31.074  34.250  1.00  0.00     0.034 A 
ATOM     48  C   UNL A   1      42.045  27.357  28.696  1.00  0.00     0.034 A 
ATOM     49  C   UNL A   1      41.104  30.233  34.483  1.00  0.00     0.049 A 
ATOM     50  C   UNL A   1      42.789  27.314  30.006  1.00  0.00     0.074 A 
ATOM     51  C   UNL A   1      41.856  30.098  35.636  1.00  0.00     0.029 A 
ATOM     52  N   UNL A   1      41.677  29.400  33.533  1.00  0.00    -0.354 N 
ATOM     53  N   UNL A   1      42.492  27.896  31.144  1.00  0.00    -0.248 NA
ATOM     54  C   UNL A   1      44.002  26.485  30.058  1.00  0.00     0.031 C 
ATOM     55  C   UNL A   1      42.898  29.200  35.375  1.00  0.00     0.029 A 
ATOM     56  C   UNL A   1      42.777  28.754  34.068  1.00  0.00     0.049 A 
ATOM     57  H   UNL A   1      41.347  29.285  32.612  1.00  0.00     0.167 HD
ATOM     58  C   UNL A   1      43.459  27.477  32.053  1.00  0.00     0.074 A 
ATOM     59  C   UNL A   1      44.340  26.576  31.338  1.00  0.00     0.031 C 
ATOM     60  C   UNL A   1      43.611  27.817  33.358  1.00  0.00     0.034 A 
BRANCH  47  61
ATOM     61  C   UNL A   1      39.454  31.942  35.368  1.00  0.00     0.023 A 
ATOM     62  C   UNL A   1      38.470  31.435  36.243  1.00  0.00     0.012 A 
ATOM     63  C   UNL A   1      39.934  33.252  35.551  1.00  0.00     0.148 A 
ATOM     64  C   UNL A   1      37.944  32.233  37.257  1.00  0.00     0.002 A 
ATOM     65  C   UNL A   1      39.431  34.028  36.588  1.00  0.00     0.091 A 
ATOM     66  F   UNL A   1      40.846  33.727  34.689  1.00  0.00    -0.205 F 
ATOM     67  C   UNL A   1      38.429  33.526  37.434  1.00  0.00     0.022 A 
BRANCH  65  68
ATOM     68  S   UNL A   1      40.039  35.684  36.925  1.00  0.00     0.127 S 
ATOM     69  O   UNL A   1      39.576  36.415  35.747  1.00  0.00    -0.237 OA
ATOM     70  O   UNL A   1      39.342  36.026  38.166  1.00  0.00    -0.237 OA
ATOM     71  O   UNL A   1      41.483  35.554  37.063  1.00  0.00    -0.744 OA
ENDBRANCH  65  68
ENDBRANCH  47  61
BRANCH  48  72
ATOM     72  C   UNL A   1      42.519  26.574  27.519  1.00  0.00     0.023 A 
ATOM     73  C   UNL A   1      43.328  27.194  26.548  1.00  0.00     0.012 A 
ATOM     74  C   UNL A   1      42.198  25.210  27.377  1.00  0.00     0.148 A 
ATOM     75  C   UNL A   1      43.786  26.478  25.442  1.00  0.00     0.002 A 
ATOM     76  C   UNL A   1      42.701  24.488  26.301  1.00  0.00     0.091 A 
ATOM     77  F   UNL A   1      41.415  24.642  28.306  1.00  0.00    -0.205 F 
ATOM     78  C   UNL A   1      43.483  25.123  25.323  1.00  0.00     0.022 A 
BRANCH  76  79
ATOM     79  S   UNL A   1      42.466  22.715  26.131  1.00  0.00     0.127 S 
ATOM     80  O   UNL A   1      43.182  22.205  27.298  1.00  0.00    -0.237 OA
ATOM     81  O   UNL A   1      41.009  22.599  26.203  1.00  0.00    -0.237 OA
ATOM     82  O   UNL A   1      43.036  22.363  24.838  1.00  0.00    -0.744 OA
ENDBRANCH  76  79
ENDBRANCH  48  72
BRANCH  60  83
ATOM     83  C   UNL A   1      44.751  27.190  34.119  1.00  0.00     0.023 A 
ATOM     84  C   UNL A   1      46.017  27.809  34.127  1.00  0.00     0.012 A 
ATOM     85  C   UNL A   1      44.547  26.030  34.894  1.00  0.00     0.148 A 
ATOM     86  C   UNL A   1      47.068  27.269  34.869  1.00  0.00     0.002 A 
ATOM     87  C   UNL A   1      45.585  25.524  35.668  1.00  0.00     0.091 A 
ATOM     88  F   UNL A   1      43.344  25.439  34.858  1.00  0.00    -0.205 F 
ATOM     89  C   UNL A   1      46.849  26.135  35.648  1.00  0.00     0.022 A 
BRANCH  87  90
ATOM     90  S   UNL A   1      45.354  24.127  36.774  1.00  0.00     0.127 S 
ATOM     91  O   UNL A   1      44.743  23.140  35.887  1.00  0.00    -0.237 OA
ATOM     92  O   UNL A   1      46.726  23.816  37.179  1.00  0.00    -0.237 OA
ATOM     93  O   UNL A   1      44.508  24.615  37.854  1.00  0.00    -0.744 OA
ENDBRANCH  87  90
ENDBRANCH  60  83
ENDBRANCH  34  35
ENDBRANCH  27  29
ENDBRANCH  26  27
ENDBRANCH   1  26
TORSDOF 18
ENDMDL
MODEL 2
REMARK VINA RESULT:     -11.3      5.056     10.358
REMARK SMILES CC[NH2+][C@@]1(C(=O)OCCOC(=O)c2ccc(-c3c4nc(c(-c5cccc(S(=O)(=O)[O-])c5F)c5ccc([nH]5)c(-c5cccc(S(=O)(=O)[O-])c5F)c5nc(c(-c6cccc(S(=O)(=O)[O-])c6F)c6ccc3[nH]6)C=C5)C=C4)cc2)CC[C@@H]([NH+]2CCC(C)(CC)CC2)C1
REMARK SMILES IDX 9 1 8 2 7 3 5 4 6 5 4 6 76 7 88 8 77 9 78 10 3 11 2 14 1 15
REMARK SMILES IDX 79 16 80 17 87 18 81 20 86 21 82 22 83 23 84 24 85 25 10 26
REMARK SMILES IDX 11 27 12 28 13 29 14 30 75 31 15 32 74 33 16 34 17 35 18 36
REMARK SMILES IDX 68 37 19 38 73 39 67 40 69 41 20 42 72 43 66 44 65 45 21 47
REMARK SMILES IDX 53 48 33 49 52 50 34 51 37 52 51 53 70 54 35 55 36 56 50 58
REMARK SMILES IDX 71 59 38 60 22 61 23 62 31 63 24 64 26 65 32 66 25 67 27 68
REMARK SMILES IDX 28 69 29 70 30 71 54 72 55 73 63 74 56 75 58 76 64 77 57 78
REMARK SMILES IDX 59 79 60 80 61 81 62 82 39 83 40 84 48 85 41 86 43 87 49 88
REMARK SMILES IDX 42 89 44 90 45 91 46 92 47 93
REMARK H PARENT 3 12 3 13 79 19 69 46 37 57
REMARK Flexibility Score: inf
ROOT
ATOM      1  C   UNL A   1      37.416  19.999  24.870  1.00  0.00     0.275 C 
ENDROOT
BRANCH   1   2
ATOM      2  C   UNL A   1      35.893  20.087  24.980  1.00  0.00     0.274 C 
BRANCH   2   3
ATOM      3  O   UNL A   1      35.451  21.440  24.763  1.00  0.00    -0.457 OA
BRANCH   3   4
ATOM      4  C   UNL A   1      34.786  22.027  25.795  1.00  0.00     0.368 C 
ATOM      5  O   UNL A   1      35.087  21.862  26.975  1.00  0.00    -0.245 OA
BRANCH   4   6
ATOM      6  C   UNL A   1      33.541  22.848  25.332  1.00  0.00     0.200 C 
ATOM      7  C   UNL A   1      33.716  23.157  23.839  1.00  0.00     0.087 C 
ATOM      8  C   UNL A   1      33.434  24.264  25.947  1.00  0.00     0.146 C 
ATOM      9  C   UNL A   1      34.688  24.333  23.843  1.00  0.00     0.072 C 
ATOM     10  C   UNL A   1      34.277  25.193  25.054  1.00  0.00     0.191 C 
BRANCH   6  11
ATOM     11  N   UNL A   1      32.273  22.137  25.639  1.00  0.00    -0.332 N 
ATOM     12  H   UNL A   1      32.222  21.318  25.035  1.00  0.00     0.347 HD
ATOM     13  H   UNL A   1      32.316  21.923  26.636  1.00  0.00     0.347 HD
BRANCH  11  14
ATOM     14  C   UNL A   1      31.040  22.902  25.457  1.00  0.00     0.257 C 
ATOM     15  C   UNL A   1      30.137  22.708  26.668  1.00  0.00     0.071 C 
ENDBRANCH  11  14
ENDBRANCH   6  11
BRANCH  10  16
ATOM     16  N   UNL A   1      33.668  26.475  24.682  1.00  0.00    -0.332 N 
ATOM     17  C   UNL A   1      32.865  27.126  25.712  1.00  0.00     0.263 C 
ATOM     18  C   UNL A   1      33.158  26.660  23.330  1.00  0.00     0.263 C 
ATOM     19  H   UNL A   1      34.534  27.011  24.626  1.00  0.00     0.348 HD
ATOM     20  C   UNL A   1      31.348  26.946  25.592  1.00  0.00     0.068 C 
ATOM     21  C   UNL A   1      31.659  26.427  23.140  1.00  0.00     0.068 C 
ATOM     22  C   UNL A   1      30.755  27.129  24.175  1.00  0.00    -0.022 C 
ATOM     23  C   UNL A   1      29.374  26.417  24.155  1.00  0.00     0.012 C 
BRANCH  22  24
ATOM     24  C   UNL A   1      30.447  28.613  23.808  1.00  0.00     0.004 C 
ATOM     25  C   UNL A   1      30.654  29.097  22.383  1.00  0.00     0.004 C 
ENDBRANCH  22  24
ENDBRANCH  10  16
ENDBRANCH   4   6
ENDBRANCH   3   4
ENDBRANCH   2   3
ENDBRANCH   1   2
BRANCH   1  26
ATOM     26  O   UNL A   1      38.034  21.207  25.345  1.00  0.00    -0.458 OA
BRANCH  26  27
ATOM     27  C   UNL A   1      39.216  21.021  25.980  1.00  0.00     0.338 C 
ATOM     28  O   UNL A   1      39.881  19.990  25.994  1.00  0.00    -0.246 OA
BRANCH  27  29
ATOM     29  C   UNL A   1      39.678  22.277  26.598  1.00  0.00     0.060 A 
ATOM     30  C   UNL A   1      39.119  23.474  26.137  1.00  0.00     0.016 A 
ATOM     31  C   UNL A   1      40.687  22.300  27.567  1.00  0.00     0.016 A 
ATOM     32  C   UNL A   1      39.566  24.694  26.635  1.00  0.00     0.010 A 
ATOM     33  C   UNL A   1      41.156  23.528  28.048  1.00  0.00     0.010 A 
ATOM     34  C   UNL A   1      40.608  24.729  27.569  1.00  0.00    -0.014 A 
BRANCH  34  35
ATOM     35  C   UNL A   1      41.214  26.033  27.914  1.00  0.00     0.031 A 
ATOM     36  C   UNL A   1      42.617  26.315  27.462  1.00  0.00     0.074 A 
ATOM     37  C   UNL A   1      40.524  26.959  28.602  1.00  0.00     0.049 A 
ATOM     38  N   UNL A   1      43.313  27.416  27.564  1.00  0.00    -0.248 NA
ATOM     39  C   UNL A   1      43.328  25.206  26.806  1.00  0.00     0.031 C 
ATOM     40  C   UNL A   1      39.166  26.792  29.113  1.00  0.00     0.029 A 
ATOM     41  N   UNL A   1      40.884  28.221  29.001  1.00  0.00    -0.354 N 
ATOM     42  C   UNL A   1      44.543  27.138  26.982  1.00  0.00     0.074 A 
ATOM     43  C   UNL A   1      44.503  25.758  26.544  1.00  0.00     0.031 C 
ATOM     44  C   UNL A   1      38.810  27.906  29.774  1.00  0.00     0.029 A 
ATOM     45  C   UNL A   1      39.919  28.859  29.743  1.00  0.00     0.049 A 
ATOM     46  H   UNL A   1      41.751  28.631  28.777  1.00  0.00     0.167 HD
ATOM     47  C   UNL A   1      45.608  27.956  26.817  1.00  0.00     0.034 A 
ATOM     48  C   UNL A   1      39.936  30.070  30.333  1.00  0.00     0.034 A 
ATOM     49  C   UNL A   1      45.665  29.310  27.292  1.00  0.00     0.049 A 
ATOM     50  C   UNL A   1      41.140  30.959  30.156  1.00  0.00     0.074 A 
ATOM     51  C   UNL A   1      46.700  30.221  27.180  1.00  0.00     0.029 A 
ATOM     52  N   UNL A   1      44.651  29.942  27.997  1.00  0.00    -0.354 N 
ATOM     53  N   UNL A   1      42.240  30.736  29.478  1.00  0.00    -0.248 NA
ATOM     54  C   UNL A   1      41.089  32.285  30.791  1.00  0.00     0.031 C 
ATOM     55  C   UNL A   1      46.319  31.397  27.837  1.00  0.00     0.029 A 
ATOM     56  C   UNL A   1      45.036  31.228  28.334  1.00  0.00     0.049 A 
ATOM     57  H   UNL A   1      43.783  29.535  28.223  1.00  0.00     0.167 HD
ATOM     58  C   UNL A   1      42.996  31.899  29.575  1.00  0.00     0.074 A 
ATOM     59  C   UNL A   1      42.219  32.835  30.363  1.00  0.00     0.031 C 
ATOM     60  C   UNL A   1      44.227  32.166  29.071  1.00  0.00     0.034 A 
BRANCH  47  61
ATOM     61  C   UNL A   1      46.790  27.390  26.079  1.00  0.00     0.023 A 
ATOM     62  C   UNL A   1      47.687  26.540  26.760  1.00  0.00     0.012 A 
ATOM     63  C   UNL A   1      47.022  27.699  24.726  1.00  0.00     0.148 A 
ATOM     64  C   UNL A   1      48.818  26.041  26.116  1.00  0.00     0.002 A 
ATOM     65  C   UNL A   1      48.131  27.167  24.081  1.00  0.00     0.091 A 
ATOM     66  F   UNL A   1      46.175  28.535  24.106  1.00  0.00    -0.205 F 
ATOM     67  C   UNL A   1      49.036  26.348  24.776  1.00  0.00     0.022 A 
BRANCH  65  68
ATOM     68  S   UNL A   1      48.460  27.464  22.340  1.00  0.00     0.127 S 
ATOM     69  O   UNL A   1      49.650  28.310  22.404  1.00  0.00    -0.237 OA
ATOM     70  O   UNL A   1      48.699  26.113  21.833  1.00  0.00    -0.237 OA
ATOM     71  O   UNL A   1      47.260  28.099  21.815  1.00  0.00    -0.744 OA
ENDBRANCH  65  68
ENDBRANCH  47  61
BRANCH  48  72
ATOM     72  C   UNL A   1      38.747  30.533  31.104  1.00  0.00     0.023 A 
ATOM     73  C   UNL A   1      38.700  30.336  32.497  1.00  0.00     0.012 A 
ATOM     74  C   UNL A   1      37.680  31.195  30.466  1.00  0.00     0.148 A 
ATOM     75  C   UNL A   1      37.599  30.767  33.238  1.00  0.00     0.002 A 
ATOM     76  C   UNL A   1      36.611  31.669  31.217  1.00  0.00     0.091 A 
ATOM     77  F   UNL A   1      37.739  31.359  29.137  1.00  0.00    -0.205 F 
ATOM     78  C   UNL A   1      36.560  31.442  32.602  1.00  0.00     0.022 A 
BRANCH  76  79
ATOM     79  S   UNL A   1      35.289  32.655  30.504  1.00  0.00     0.127 S 
ATOM     80  O   UNL A   1      35.987  33.896  30.176  1.00  0.00    -0.237 OA
ATOM     81  O   UNL A   1      34.901  31.844  29.350  1.00  0.00    -0.237 OA
ATOM     82  O   UNL A   1      34.271  32.759  31.539  1.00  0.00    -0.744 OA
ENDBRANCH  76  79
ENDBRANCH  48  72
BRANCH  60  83
ATOM     83  C   UNL A   1      44.807  33.536  29.318  1.00  0.00     0.023 A 
ATOM     84  C   UNL A   1      45.540  33.787  30.495  1.00  0.00     0.012 A 
ATOM     85  C   UNL A   1      44.694  34.550  28.346  1.00  0.00     0.148 A 
ATOM     86  C   UNL A   1      46.126  35.034  30.713  1.00  0.00     0.002 A 
ATOM     87  C   UNL A   1      45.320  35.775  28.549  1.00  0.00     0.091 A 
ATOM     88  F   UNL A   1      43.973  34.303  27.243  1.00  0.00    -0.205 F 
ATOM     89  C   UNL A   1      46.027  36.023  29.737  1.00  0.00     0.022 A 
BRANCH  87  90
ATOM     90  S   UNL A   1      45.323  37.063  27.296  1.00  0.00     0.127 S 
ATOM     91  O   UNL A   1      46.022  38.146  27.982  1.00  0.00    -0.237 OA
ATOM     92  O   UNL A   1      46.078  36.441  26.208  1.00  0.00    -0.237 OA
ATOM     93  O   UNL A   1      43.921  37.312  26.986  1.00  0.00    -0.744 OA
ENDBRANCH  87  90
ENDBRANCH  60  83
ENDBRANCH  34  35
ENDBRANCH  27  29
ENDBRANCH  26  27
ENDBRANCH   1  26
TORSDOF 18
ENDMDL
MODEL 3
REMARK VINA RESULT:     -11.2      4.702     10.395
REMARK SMILES CC[NH2+][C@@]1(C(=O)OCCOC(=O)c2ccc(-c3c4nc(c(-c5cccc(S(=O)(=O)[O-])c5F)c5ccc([nH]5)c(-c5cccc(S(=O)(=O)[O-])c5F)c5nc(c(-c6cccc(S(=O)(=O)[O-])c6F)c6ccc3[nH]6)C=C5)C=C4)cc2)CC[C@@H]([NH+]2CCC(C)(CC)CC2)C1
REMARK SMILES IDX 9 1 8 2 7 3 5 4 6 5 4 6 76 7 88 8 77 9 78 10 3 11 2 14 1 15
REMARK SMILES IDX 79 16 80 17 87 18 81 20 86 21 82 22 83 23 84 24 85 25 10 26
REMARK SMILES IDX 11 27 12 28 13 29 14 30 75 31 15 32 74 33 16 34 17 35 18 36
REMARK SMILES IDX 68 37 19 38 73 39 67 40 69 41 20 42 72 43 66 44 65 45 21 47
REMARK SMILES IDX 53 48 33 49 52 50 34 51 37 52 51 53 70 54 35 55 36 56 50 58
REMARK SMILES IDX 71 59 38 60 22 61 23 62 31 63 24 64 26 65 32 66 25 67 27 68
REMARK SMILES IDX 28 69 29 70 30 71 54 72 55 73 63 74 56 75 58 76 64 77 57 78
REMARK SMILES IDX 59 79 60 80 61 81 62 82 39 83 40 84 48 85 41 86 43 87 49 88
REMARK SMILES IDX 42 89 44 90 45 91 46 92 47 93
REMARK H PARENT 3 12 3 13 79 19 69 46 37 57
REMARK Flexibility Score: inf
ROOT
ATOM      1  C   UNL A   1      37.600  20.112  24.981  1.00  0.00     0.275 C 
ENDROOT
BRANCH   1   2
ATOM      2  C   UNL A   1      36.085  20.314  24.996  1.00  0.00     0.274 C 
BRANCH   2   3
ATOM      3  O   UNL A   1      35.741  21.582  24.407  1.00  0.00    -0.457 OA
BRANCH   3   4
ATOM      4  C   UNL A   1      35.001  22.423  25.181  1.00  0.00     0.368 C 
ATOM      5  O   UNL A   1      35.463  23.047  26.134  1.00  0.00    -0.245 OA
BRANCH   4   6
ATOM      6  C   UNL A   1      33.487  22.432  24.799  1.00  0.00     0.200 C 
ATOM      7  C   UNL A   1      33.391  22.287  23.274  1.00  0.00     0.087 C 
ATOM      8  C   UNL A   1      32.767  23.780  25.044  1.00  0.00     0.146 C 
ATOM      9  C   UNL A   1      33.688  23.698  22.775  1.00  0.00     0.072 C 
ATOM     10  C   UNL A   1      33.005  24.638  23.789  1.00  0.00     0.191 C 
BRANCH   6  11
ATOM     11  N   UNL A   1      32.731  21.387  25.536  1.00  0.00    -0.332 N 
ATOM     12  H   UNL A   1      33.361  20.977  26.226  1.00  0.00     0.347 HD
ATOM     13  H   UNL A   1      31.925  21.867  25.936  1.00  0.00     0.347 HD
BRANCH  11  14
ATOM     14  C   UNL A   1      32.179  20.298  24.734  1.00  0.00     0.257 C 
ATOM     15  C   UNL A   1      32.852  18.987  25.123  1.00  0.00     0.071 C 
ENDBRANCH  11  14
ENDBRANCH   6  11
BRANCH  10  16
ATOM     16  N   UNL A   1      31.838  25.338  23.242  1.00  0.00    -0.332 N 
ATOM     17  C   UNL A   1      32.122  26.448  22.338  1.00  0.00     0.263 C 
ATOM     18  C   UNL A   1      30.668  25.546  24.084  1.00  0.00     0.263 C 
ATOM     19  H   UNL A   1      31.504  24.577  22.649  1.00  0.00     0.348 HD
ATOM     20  C   UNL A   1      32.042  27.849  22.953  1.00  0.00     0.068 C 
ATOM     21  C   UNL A   1      30.572  26.906  24.776  1.00  0.00     0.068 C 
ATOM     22  C   UNL A   1      30.820  28.122  23.860  1.00  0.00    -0.022 C 
ATOM     23  C   UNL A   1      31.176  29.332  24.767  1.00  0.00     0.012 C 
BRANCH  22  24
ATOM     24  C   UNL A   1      29.544  28.566  23.080  1.00  0.00     0.004 C 
ATOM     25  C   UNL A   1      29.643  29.662  22.034  1.00  0.00     0.004 C 
ENDBRANCH  22  24
ENDBRANCH  10  16
ENDBRANCH   4   6
ENDBRANCH   3   4
ENDBRANCH   2   3
ENDBRANCH   1   2
BRANCH   1  26
ATOM     26  O   UNL A   1      38.282  21.321  25.357  1.00  0.00    -0.458 OA
BRANCH  26  27
ATOM     27  C   UNL A   1      39.376  21.131  26.132  1.00  0.00     0.338 C 
ATOM     28  O   UNL A   1      39.991  20.079  26.279  1.00  0.00    -0.246 OA
BRANCH  27  29
ATOM     29  C   UNL A   1      39.818  22.404  26.730  1.00  0.00     0.060 A 
ATOM     30  C   UNL A   1      39.242  23.584  26.247  1.00  0.00     0.016 A 
ATOM     31  C   UNL A   1      40.825  22.458  27.699  1.00  0.00     0.016 A 
ATOM     32  C   UNL A   1      39.671  24.819  26.724  1.00  0.00     0.010 A 
ATOM     33  C   UNL A   1      41.275  23.701  28.159  1.00  0.00     0.010 A 
ATOM     34  C   UNL A   1      40.710  24.886  27.659  1.00  0.00    -0.014 A 
BRANCH  34  35
ATOM     35  C   UNL A   1      41.296  26.205  27.983  1.00  0.00     0.031 A 
ATOM     36  C   UNL A   1      42.683  26.512  27.501  1.00  0.00     0.074 A 
ATOM     37  C   UNL A   1      40.600  27.121  28.677  1.00  0.00     0.049 A 
ATOM     38  N   UNL A   1      43.359  27.627  27.581  1.00  0.00    -0.248 NA
ATOM     39  C   UNL A   1      43.404  25.412  26.840  1.00  0.00     0.031 C 
ATOM     40  C   UNL A   1      39.256  26.931  29.216  1.00  0.00     0.029 A 
ATOM     41  N   UNL A   1      40.942  28.394  29.060  1.00  0.00    -0.354 N 
ATOM     42  C   UNL A   1      44.583  27.369  26.977  1.00  0.00     0.074 A 
ATOM     43  C   UNL A   1      44.563  25.985  26.551  1.00  0.00     0.031 C 
ATOM     44  C   UNL A   1      38.890  28.043  29.876  1.00  0.00     0.029 A 
ATOM     45  C   UNL A   1      39.979  29.018  29.815  1.00  0.00     0.049 A 
ATOM     46  H   UNL A   1      41.796  28.820  28.815  1.00  0.00     0.167 HD
ATOM     47  C   UNL A   1      45.628  28.207  26.785  1.00  0.00     0.034 A 
ATOM     48  C   UNL A   1      39.983  30.233  30.396  1.00  0.00     0.034 A 
ATOM     49  C   UNL A   1      45.666  29.566  27.249  1.00  0.00     0.049 A 
ATOM     50  C   UNL A   1      41.165  31.145  30.189  1.00  0.00     0.074 A 
ATOM     51  C   UNL A   1      46.680  30.497  27.110  1.00  0.00     0.029 A 
ATOM     52  N   UNL A   1      44.653  30.183  27.969  1.00  0.00    -0.354 N 
ATOM     53  N   UNL A   1      42.256  30.939  29.491  1.00  0.00    -0.248 NA
ATOM     54  C   UNL A   1      41.099  32.474  30.815  1.00  0.00     0.031 C 
ATOM     55  C   UNL A   1      46.288  31.670  27.766  1.00  0.00     0.029 A 
ATOM     56  C   UNL A   1      45.018  31.479  28.289  1.00  0.00     0.049 A 
ATOM     57  H   UNL A   1      43.798  29.760  28.215  1.00  0.00     0.167 HD
ATOM     58  C   UNL A   1      42.990  32.118  29.565  1.00  0.00     0.074 A 
ATOM     59  C   UNL A   1      42.209  33.044  30.361  1.00  0.00     0.031 C 
ATOM     60  C   UNL A   1      44.205  32.406  29.035  1.00  0.00     0.034 A 
BRANCH  47  61
ATOM     61  C   UNL A   1      46.806  27.660  26.028  1.00  0.00     0.023 A 
ATOM     62  C   UNL A   1      46.860  27.817  24.627  1.00  0.00     0.012 A 
ATOM     63  C   UNL A   1      47.849  26.985  26.690  1.00  0.00     0.148 A 
ATOM     64  C   UNL A   1      47.915  27.276  23.893  1.00  0.00     0.002 A 
ATOM     65  C   UNL A   1      48.915  26.482  25.955  1.00  0.00     0.091 A 
ATOM     66  F   UNL A   1      47.762  26.817  28.018  1.00  0.00    -0.205 F 
ATOM     67  C   UNL A   1      48.945  26.616  24.557  1.00  0.00     0.022 A 
BRANCH  65  68
ATOM     68  S   UNL A   1      50.313  25.667  26.733  1.00  0.00     0.127 S 
ATOM     69  O   UNL A   1      51.206  25.460  25.595  1.00  0.00    -0.237 OA
ATOM     70  O   UNL A   1      50.770  26.674  27.690  1.00  0.00    -0.237 OA
ATOM     71  O   UNL A   1      49.775  24.458  27.343  1.00  0.00    -0.744 OA
ENDBRANCH  65  68
ENDBRANCH  47  61
BRANCH  48  72
ATOM     72  C   UNL A   1      38.800  30.678  31.187  1.00  0.00     0.023 A 
ATOM     73  C   UNL A   1      38.780  30.483  32.581  1.00  0.00     0.012 A 
ATOM     74  C   UNL A   1      37.712  31.322  30.567  1.00  0.00     0.148 A 
ATOM     75  C   UNL A   1      37.685  30.896  33.340  1.00  0.00     0.002 A 
ATOM     76  C   UNL A   1      36.648  31.779  31.336  1.00  0.00     0.091 A 
ATOM     77  F   UNL A   1      37.745  31.485  29.236  1.00  0.00    -0.205 F 
ATOM     78  C   UNL A   1      36.624  31.553  32.721  1.00  0.00     0.022 A 
BRANCH  76  79
ATOM     79  S   UNL A   1      35.299  32.743  30.644  1.00  0.00     0.127 S 
ATOM     80  O   UNL A   1      35.969  33.997  30.309  1.00  0.00    -0.237 OA
ATOM     81  O   UNL A   1      34.908  31.927  29.494  1.00  0.00    -0.237 OA
ATOM     82  O   UNL A   1      34.294  32.827  31.694  1.00  0.00    -0.744 OA
ENDBRANCH  76  79
ENDBRANCH  48  72
BRANCH  60  83
ATOM     83  C   UNL A   1      44.761  33.789  29.260  1.00  0.00     0.023 A 
ATOM     84  C   UNL A   1      45.578  34.044  30.379  1.00  0.00     0.012 A 
ATOM     85  C   UNL A   1      44.541  34.815  28.319  1.00  0.00     0.148 A 
ATOM     86  C   UNL A   1      46.142  35.305  30.574  1.00  0.00     0.002 A 
ATOM     87  C   UNL A   1      45.144  36.055  28.494  1.00  0.00     0.091 A 
ATOM     88  F   UNL A   1      43.742  34.563  27.272  1.00  0.00    -0.205 F 
ATOM     89  C   UNL A   1      45.936  36.306  29.627  1.00  0.00     0.022 A 
BRANCH  87  90
ATOM     90  S   UNL A   1      45.008  37.362  27.269  1.00  0.00     0.127 S 
ATOM     91  O   UNL A   1      43.616  37.231  26.844  1.00  0.00    -0.237 OA
ATOM     92  O   UNL A   1      45.295  38.563  28.056  1.00  0.00    -0.237 OA
ATOM     93  O   UNL A   1      46.009  37.058  26.256  1.00  0.00    -0.744 OA
ENDBRANCH  87  90
ENDBRANCH  60  83
ENDBRANCH  34  35
ENDBRANCH  27  29
ENDBRANCH  26  27
ENDBRANCH   1  26
TORSDOF 18
ENDMDL
