MODEL 1
REMARK VINA RESULT:     -14.2      0.000      0.000
REMARK SMILES O=C(OCCOC(=O)c1ccc(-c2c3nc(c(-c4cccc(S(=O)(=O)[O-])c4F)c4ccc([nH]4)c(-c4cccc(S(=O)(=O)[O-])c4F)c4nc(c(-c5cccc(S(=O)(=O)[O-])c5F)c5ccc2[nH]5)C=C4)C=C3)cc1)C1=Cc2c(Cl)ccc(Cl)c2O[C@@H]1C(F)(F)F
REMARK SMILES IDX 5 1 4 2 3 3 2 4 1 5 72 6 73 7 83 8 74 9 82 10 75 11 81 12
REMARK SMILES IDX 76 13 77 14 79 15 78 16 80 17 84 18 85 19 86 20 87 21 6 22
REMARK SMILES IDX 7 23 8 24 9 25 10 26 71 27 11 28 70 29 12 30 13 31 14 32
REMARK SMILES IDX 64 33 15 34 69 35 63 36 65 37 16 38 68 39 62 40 61 41 17 43
REMARK SMILES IDX 49 44 29 45 48 46 30 47 33 48 47 49 66 50 31 51 32 52 46 54
REMARK SMILES IDX 67 55 34 56 18 57 19 58 27 59 20 60 22 61 28 62 21 63 23 64
REMARK SMILES IDX 24 65 25 66 26 67 50 68 51 69 59 70 52 71 54 72 60 73 53 74
REMARK SMILES IDX 55 75 56 76 57 77 58 78 35 79 36 80 44 81 37 82 39 83 45 84
REMARK SMILES IDX 38 85 40 86 41 87 42 88 43 89
REMARK H PARENT 65 42 33 53
REMARK Flexibility Score: inf
ROOT
ATOM      1  C   UNL A   1      36.918  20.595  24.896  1.00  0.00     0.275 C 
ENDROOT
BRANCH   1   2
ATOM      2  C   UNL A   1      35.104  21.643  25.415  1.00  0.00     0.275 C 
BRANCH   2   3
ATOM      3  O   UNL A   1      34.965  23.169  25.700  1.00  0.00    -0.459 OA
BRANCH   3   4
ATOM      4  C   UNL A   1      34.167  23.803  24.832  1.00  0.00     0.338 C 
ATOM      5  O   UNL A   1      34.331  24.048  23.665  1.00  0.00    -0.246 OA
BRANCH   4   6
ATOM      6  C   UNL A   1      33.296  24.351  25.840  1.00  0.00     0.087 C 
ATOM      7  C   UNL A   1      33.619  25.770  26.110  1.00  0.00     0.029 C 
ATOM      8  C   UNL A   1      31.645  23.719  25.063  1.00  0.00     0.316 C 
ATOM      9  C   UNL A   1      32.561  27.159  25.589  1.00  0.00     0.037 A 
ATOM     10  O   UNL A   1      30.532  25.168  24.468  1.00  0.00    -0.474 OA
ATOM     11  C   UNL A   1      33.024  28.451  25.674  1.00  0.00     0.052 A 
ATOM     12  C   UNL A   1      31.077  26.890  24.713  1.00  0.00     0.148 A 
ATOM     13  Cl  UNL A   1      34.492  28.883  26.442  1.00  0.00    -0.084 Cl
ATOM     14  C   UNL A   1      32.245  29.425  25.024  1.00  0.00     0.023 A 
ATOM     15  C   UNL A   1      30.383  27.910  24.117  1.00  0.00     0.083 A 
ATOM     16  C   UNL A   1      31.009  29.170  24.289  1.00  0.00     0.026 A 
ATOM     17  Cl  UNL A   1      28.974  27.741  23.187  1.00  0.00    -0.080 Cl
BRANCH   8  18
ATOM     18  C   UNL A   1      31.376  22.492  25.999  1.00  0.00     0.430 C 
ATOM     19  F   UNL A   1      30.066  22.322  26.224  1.00  0.00    -0.167 F 
ATOM     20  F   UNL A   1      31.757  21.363  25.331  1.00  0.00    -0.167 F 
ATOM     21  F   UNL A   1      32.082  22.426  27.137  1.00  0.00    -0.167 F 
ENDBRANCH   8  18
ENDBRANCH   4   6
ENDBRANCH   3   4
ENDBRANCH   2   3
ENDBRANCH   1   2
BRANCH   1  22
ATOM     22  O   UNL A   1      38.513  21.083  25.272  1.00  0.00    -0.458 OA
BRANCH  22  23
ATOM     23  C   UNL A   1      39.554  20.908  26.146  1.00  0.00     0.338 C 
ATOM     24  O   UNL A   1      40.417  20.051  26.173  1.00  0.00    -0.246 OA
BRANCH  23  25
ATOM     25  C   UNL A   1      39.670  22.210  26.873  1.00  0.00     0.060 A 
ATOM     26  C   UNL A   1      40.738  22.383  27.770  1.00  0.00     0.016 A 
ATOM     27  C   UNL A   1      38.993  23.323  26.376  1.00  0.00     0.016 A 
ATOM     28  C   UNL A   1      41.281  23.665  27.965  1.00  0.00     0.010 A 
ATOM     29  C   UNL A   1      39.519  24.598  26.597  1.00  0.00     0.010 A 
ATOM     30  C   UNL A   1      40.709  24.775  27.326  1.00  0.00    -0.014 A 
BRANCH  30  31
ATOM     31  C   UNL A   1      41.184  26.159  27.588  1.00  0.00     0.031 A 
ATOM     32  C   UNL A   1      42.588  26.456  27.153  1.00  0.00     0.074 A 
ATOM     33  C   UNL A   1      40.478  27.078  28.283  1.00  0.00     0.049 A 
ATOM     34  N   UNL A   1      43.315  27.520  27.352  1.00  0.00    -0.248 NA
ATOM     35  C   UNL A   1      43.271  25.376  26.420  1.00  0.00     0.031 C 
ATOM     36  C   UNL A   1      39.116  26.917  28.792  1.00  0.00     0.029 A 
ATOM     37  N   UNL A   1      40.840  28.337  28.716  1.00  0.00    -0.354 N 
ATOM     38  C   UNL A   1      44.549  27.225  26.791  1.00  0.00     0.074 A 
ATOM     39  C   UNL A   1      44.484  25.875  26.281  1.00  0.00     0.031 C 
ATOM     40  C   UNL A   1      38.770  28.018  29.488  1.00  0.00     0.029 A 
ATOM     41  C   UNL A   1      39.887  28.963  29.493  1.00  0.00     0.049 A 
ATOM     42  H   UNL A   1      41.703  28.752  28.491  1.00  0.00     0.167 HD
ATOM     43  C   UNL A   1      45.643  28.009  26.687  1.00  0.00     0.034 A 
ATOM     44  C   UNL A   1      39.924  30.152  30.134  1.00  0.00     0.034 A 
ATOM     45  C   UNL A   1      45.725  29.340  27.207  1.00  0.00     0.049 A 
ATOM     46  C   UNL A   1      41.171  31.010  30.020  1.00  0.00     0.074 A 
ATOM     47  C   UNL A   1      46.781  30.226  27.138  1.00  0.00     0.029 A 
ATOM     48  N   UNL A   1      44.712  29.967  27.914  1.00  0.00    -0.354 N 
ATOM     49  N   UNL A   1      42.279  30.779  29.355  1.00  0.00    -0.248 NA
ATOM     50  C   UNL A   1      41.162  32.307  30.719  1.00  0.00     0.031 C 
ATOM     51  C   UNL A   1      46.413  31.388  27.823  1.00  0.00     0.029 A 
ATOM     52  C   UNL A   1      45.116  31.233  28.290  1.00  0.00     0.049 A 
ATOM     53  H   UNL A   1      43.835  29.569  28.119  1.00  0.00     0.167 HD
ATOM     54  C   UNL A   1      43.069  31.916  29.511  1.00  0.00     0.074 A 
ATOM     55  C   UNL A   1      42.311  32.842  30.325  1.00  0.00     0.031 C 
ATOM     56  C   UNL A   1      44.314  32.169  29.034  1.00  0.00     0.034 A 
BRANCH  43  57
ATOM     57  C   UNL A   1      46.815  27.419  25.958  1.00  0.00     0.023 A 
ATOM     58  C   UNL A   1      47.738  26.622  26.669  1.00  0.00     0.012 A 
ATOM     59  C   UNL A   1      47.040  27.702  24.600  1.00  0.00     0.148 A 
ATOM     60  C   UNL A   1      48.900  26.166  26.053  1.00  0.00     0.002 A 
ATOM     61  C   UNL A   1      48.176  27.200  23.979  1.00  0.00     0.091 A 
ATOM     62  F   UNL A   1      46.165  28.487  23.955  1.00  0.00    -0.205 F 
ATOM     63  C   UNL A   1      49.115  26.450  24.708  1.00  0.00     0.022 A 
BRANCH  61  64
ATOM     64  S   UNL A   1      48.518  27.454  22.237  1.00  0.00     0.127 S 
ATOM     65  O   UNL A   1      49.742  28.253  22.290  1.00  0.00    -0.237 OA
ATOM     66  O   UNL A   1      48.704  26.084  21.762  1.00  0.00    -0.237 OA
ATOM     67  O   UNL A   1      47.354  28.137  21.691  1.00  0.00    -0.744 OA
ENDBRANCH  61  64
ENDBRANCH  43  57
BRANCH  44  68
ATOM     68  C   UNL A   1      38.744  30.672  30.900  1.00  0.00     0.023 A 
ATOM     69  C   UNL A   1      38.651  30.400  32.283  1.00  0.00     0.012 A 
ATOM     70  C   UNL A   1      37.687  31.365  30.275  1.00  0.00     0.148 A 
ATOM     71  C   UNL A   1      37.517  30.762  33.014  1.00  0.00     0.002 A 
ATOM     72  C   UNL A   1      36.578  31.763  31.020  1.00  0.00     0.091 A 
ATOM     73  F   UNL A   1      37.775  31.603  28.960  1.00  0.00    -0.205 F 
ATOM     74  C   UNL A   1      36.482  31.446  32.384  1.00  0.00     0.022 A 
BRANCH  72  75
ATOM     75  S   UNL A   1      35.224  32.723  30.326  1.00  0.00     0.127 S 
ATOM     76  O   UNL A   1      34.765  31.856  29.243  1.00  0.00    -0.237 OA
ATOM     77  O   UNL A   1      34.309  32.820  31.464  1.00  0.00    -0.237 OA
ATOM     78  O   UNL A   1      35.810  33.990  29.911  1.00  0.00    -0.744 OA
ENDBRANCH  72  75
ENDBRANCH  44  68
BRANCH  56  79
ATOM     79  C   UNL A   1      44.930  33.516  29.311  1.00  0.00     0.023 A 
ATOM     80  C   UNL A   1      45.735  33.704  30.451  1.00  0.00     0.012 A 
ATOM     81  C   UNL A   1      44.826  34.551  28.359  1.00  0.00     0.148 A 
ATOM     82  C   UNL A   1      46.413  34.907  30.647  1.00  0.00     0.002 A 
ATOM     83  C   UNL A   1      45.545  35.726  28.534  1.00  0.00     0.091 A 
ATOM     84  F   UNL A   1      44.041  34.357  27.289  1.00  0.00    -0.205 F 
ATOM     85  C   UNL A   1      46.331  35.910  29.682  1.00  0.00     0.022 A 
BRANCH  83  86
ATOM     86  S   UNL A   1      45.593  37.020  27.288  1.00  0.00     0.127 S 
ATOM     87  O   UNL A   1      46.428  38.028  27.938  1.00  0.00    -0.237 OA
ATOM     88  O   UNL A   1      46.227  36.339  26.158  1.00  0.00    -0.237 OA
ATOM     89  O   UNL A   1      44.209  37.409  27.058  1.00  0.00    -0.744 OA
ENDBRANCH  83  86
ENDBRANCH  56  79
ENDBRANCH  30  31
ENDBRANCH  23  25
ENDBRANCH  22  23
ENDBRANCH   1  22
TORSDOF 15
ENDMDL
MODEL 2
REMARK VINA RESULT:     -14.1      5.336     10.524
REMARK SMILES O=C(OCCOC(=O)c1ccc(-c2c3nc(c(-c4cccc(S(=O)(=O)[O-])c4F)c4ccc([nH]4)c(-c4cccc(S(=O)(=O)[O-])c4F)c4nc(c(-c5cccc(S(=O)(=O)[O-])c5F)c5ccc2[nH]5)C=C4)C=C3)cc1)C1=Cc2c(Cl)ccc(Cl)c2O[C@@H]1C(F)(F)F
REMARK SMILES IDX 5 1 4 2 3 3 2 4 1 5 72 6 73 7 83 8 74 9 82 10 75 11 81 12
REMARK SMILES IDX 76 13 77 14 79 15 78 16 80 17 84 18 85 19 86 20 87 21 6 22
REMARK SMILES IDX 7 23 8 24 9 25 10 26 71 27 11 28 70 29 12 30 13 31 14 32
REMARK SMILES IDX 64 33 15 34 69 35 63 36 65 37 16 38 68 39 62 40 61 41 17 43
REMARK SMILES IDX 49 44 29 45 48 46 30 47 33 48 47 49 66 50 31 51 32 52 46 54
REMARK SMILES IDX 67 55 34 56 18 57 19 58 27 59 20 60 22 61 28 62 21 63 23 64
REMARK SMILES IDX 24 65 25 66 26 67 50 68 51 69 59 70 52 71 54 72 60 73 53 74
REMARK SMILES IDX 55 75 56 76 57 77 58 78 35 79 36 80 44 81 37 82 39 83 45 84
REMARK SMILES IDX 38 85 40 86 41 87 42 88 43 89
REMARK H PARENT 65 42 33 53
REMARK Flexibility Score: inf
ROOT
ATOM      1  C   UNL A   1      31.543  30.819  25.959  1.00  0.00     0.275 C 
ENDROOT
BRANCH   1   2
ATOM      2  C   UNL A   1      31.566  28.831  25.119  1.00  0.00     0.275 C 
BRANCH   2   3
ATOM      3  O   UNL A   1      32.786  27.862  25.068  1.00  0.00    -0.459 OA
BRANCH   3   4
ATOM      4  C   UNL A   1      32.453  26.577  25.238  1.00  0.00     0.338 C 
ATOM      5  O   UNL A   1      31.849  26.045  26.134  1.00  0.00    -0.246 OA
BRANCH   4   6
ATOM      6  C   UNL A   1      33.344  26.080  24.221  1.00  0.00     0.087 C 
ATOM      7  C   UNL A   1      34.472  25.332  24.818  1.00  0.00     0.029 C 
ATOM      8  C   UNL A   1      31.976  25.310  23.097  1.00  0.00     0.316 C 
ATOM      9  C   UNL A   1      34.645  23.521  24.716  1.00  0.00     0.037 A 
ATOM     10  O   UNL A   1      32.114  23.395  23.008  1.00  0.00    -0.474 OA
ATOM     11  C   UNL A   1      35.590  22.872  25.476  1.00  0.00     0.052 A 
ATOM     12  C   UNL A   1      33.458  22.541  23.897  1.00  0.00     0.148 A 
ATOM     13  Cl  UNL A   1      36.788  23.682  26.394  1.00  0.00    -0.084 Cl
ATOM     14  C   UNL A   1      35.484  21.470  25.520  1.00  0.00     0.023 A 
ATOM     15  C   UNL A   1      33.440  21.174  23.996  1.00  0.00     0.083 A 
ATOM     16  C   UNL A   1      34.472  20.675  24.829  1.00  0.00     0.026 A 
ATOM     17  Cl  UNL A   1      32.288  20.143  23.298  1.00  0.00    -0.080 Cl
BRANCH   8  18
ATOM     18  C   UNL A   1      31.900  26.418  21.993  1.00  0.00     0.430 C 
ATOM     19  F   UNL A   1      31.499  25.915  20.816  1.00  0.00    -0.167 F 
ATOM     20  F   UNL A   1      30.910  27.293  22.343  1.00  0.00    -0.167 F 
ATOM     21  F   UNL A   1      32.971  27.211  21.848  1.00  0.00    -0.167 F 
ENDBRANCH   8  18
ENDBRANCH   4   6
ENDBRANCH   3   4
ENDBRANCH   2   3
ENDBRANCH   1   2
BRANCH   1  22
ATOM     22  O   UNL A   1      32.560  31.406  27.202  1.00  0.00    -0.458 OA
BRANCH  22  23
ATOM     23  C   UNL A   1      33.436  32.402  27.546  1.00  0.00     0.338 C 
ATOM     24  O   UNL A   1      33.219  33.528  27.953  1.00  0.00    -0.246 OA
BRANCH  23  25
ATOM     25  C   UNL A   1      34.758  31.719  27.692  1.00  0.00     0.060 A 
ATOM     26  C   UNL A   1      35.893  32.507  27.953  1.00  0.00     0.016 A 
ATOM     27  C   UNL A   1      34.785  30.351  27.960  1.00  0.00     0.016 A 
ATOM     28  C   UNL A   1      36.951  31.972  28.710  1.00  0.00     0.010 A 
ATOM     29  C   UNL A   1      35.853  29.818  28.686  1.00  0.00     0.010 A 
ATOM     30  C   UNL A   1      36.905  30.636  29.135  1.00  0.00    -0.014 A 
BRANCH  30  31
ATOM     31  C   UNL A   1      38.047  30.002  29.844  1.00  0.00     0.031 A 
ATOM     32  C   UNL A   1      38.288  30.480  31.244  1.00  0.00     0.074 A 
ATOM     33  C   UNL A   1      38.913  29.144  29.260  1.00  0.00     0.049 A 
ATOM     34  N   UNL A   1      39.266  30.209  32.062  1.00  0.00    -0.248 NA
ATOM     35  C   UNL A   1      37.293  31.428  31.774  1.00  0.00     0.031 C 
ATOM     36  C   UNL A   1      38.820  28.618  27.898  1.00  0.00     0.029 A 
ATOM     37  N   UNL A   1      40.080  28.591  29.744  1.00  0.00    -0.354 N 
ATOM     38  C   UNL A   1      39.017  30.973  33.192  1.00  0.00     0.074 A 
ATOM     39  C   UNL A   1      37.822  31.744  32.941  1.00  0.00     0.031 C 
ATOM     40  C   UNL A   1      39.895  27.843  27.649  1.00  0.00     0.029 A 
ATOM     41  C   UNL A   1      40.767  27.826  28.823  1.00  0.00     0.049 A 
ATOM     42  H   UNL A   1      40.396  28.730  30.665  1.00  0.00     0.167 HD
ATOM     43  C   UNL A   1      39.706  31.022  34.352  1.00  0.00     0.034 A 
ATOM     44  C   UNL A   1      41.960  27.198  28.923  1.00  0.00     0.034 A 
ATOM     45  C   UNL A   1      40.902  30.278  34.604  1.00  0.00     0.049 A 
ATOM     46  C   UNL A   1      42.727  27.283  30.230  1.00  0.00     0.074 A 
ATOM     47  C   UNL A   1      41.667  30.243  35.753  1.00  0.00     0.029 A 
ATOM     48  N   UNL A   1      41.519  29.454  33.678  1.00  0.00    -0.354 N 
ATOM     49  N   UNL A   1      42.400  27.890  31.346  1.00  0.00    -0.248 NA
ATOM     50  C   UNL A   1      44.014  26.568  30.302  1.00  0.00     0.031 C 
ATOM     51  C   UNL A   1      42.762  29.407  35.515  1.00  0.00     0.029 A 
ATOM     52  C   UNL A   1      42.659  28.900  34.228  1.00  0.00     0.049 A 
ATOM     53  H   UNL A   1      41.194  29.286  32.763  1.00  0.00     0.167 HD
ATOM     54  C   UNL A   1      43.407  27.588  32.261  1.00  0.00     0.074 A 
ATOM     55  C   UNL A   1      44.353  26.734  31.574  1.00  0.00     0.031 C 
ATOM     56  C   UNL A   1      43.545  27.989  33.550  1.00  0.00     0.034 A 
BRANCH  43  57
ATOM     57  C   UNL A   1      39.139  31.909  35.423  1.00  0.00     0.023 A 
ATOM     58  C   UNL A   1      39.413  33.293  35.389  1.00  0.00     0.012 A 
ATOM     59  C   UNL A   1      38.398  31.372  36.490  1.00  0.00     0.148 A 
ATOM     60  C   UNL A   1      39.009  34.120  36.433  1.00  0.00     0.002 A 
ATOM     61  C   UNL A   1      37.954  32.212  37.502  1.00  0.00     0.091 A 
ATOM     62  F   UNL A   1      38.177  30.050  36.515  1.00  0.00    -0.205 F 
ATOM     63  C   UNL A   1      38.275  33.581  37.485  1.00  0.00     0.022 A 
BRANCH  61  64
ATOM     64  S   UNL A   1      36.950  31.632  38.870  1.00  0.00     0.127 S 
ATOM     65  O   UNL A   1      37.892  31.719  39.985  1.00  0.00    -0.237 OA
ATOM     66  O   UNL A   1      35.876  32.625  38.899  1.00  0.00    -0.237 OA
ATOM     67  O   UNL A   1      36.525  30.285  38.518  1.00  0.00    -0.744 OA
ENDBRANCH  61  64
ENDBRANCH  43  57
BRANCH  44  68
ATOM     68  C   UNL A   1      42.512  26.371  27.800  1.00  0.00     0.023 A 
ATOM     69  C   UNL A   1      43.371  26.979  26.859  1.00  0.00     0.012 A 
ATOM     70  C   UNL A   1      42.148  25.022  27.609  1.00  0.00     0.148 A 
ATOM     71  C   UNL A   1      43.817  26.283  25.733  1.00  0.00     0.002 A 
ATOM     72  C   UNL A   1      42.633  24.319  26.508  1.00  0.00     0.091 A 
ATOM     73  F   UNL A   1      41.318  24.458  28.497  1.00  0.00    -0.205 F 
ATOM     74  C   UNL A   1      43.451  24.952  25.559  1.00  0.00     0.022 A 
BRANCH  72  75
ATOM     75  S   UNL A   1      42.290  22.575  26.231  1.00  0.00     0.127 S 
ATOM     76  O   UNL A   1      42.950  22.339  24.949  1.00  0.00    -0.237 OA
ATOM     77  O   UNL A   1      42.945  21.953  27.382  1.00  0.00    -0.237 OA
ATOM     78  O   UNL A   1      40.839  22.454  26.221  1.00  0.00    -0.744 OA
ENDBRANCH  72  75
ENDBRANCH  44  68
BRANCH  56  79
ATOM     79  C   UNL A   1      44.717  27.471  34.343  1.00  0.00     0.023 A 
ATOM     80  C   UNL A   1      45.926  28.193  34.370  1.00  0.00     0.012 A 
ATOM     81  C   UNL A   1      44.564  26.344  35.177  1.00  0.00     0.148 A 
ATOM     82  C   UNL A   1      46.971  27.790  35.201  1.00  0.00     0.002 A 
ATOM     83  C   UNL A   1      45.589  25.981  36.041  1.00  0.00     0.091 A 
ATOM     84  F   UNL A   1      43.411  25.662  35.124  1.00  0.00    -0.205 F 
ATOM     85  C   UNL A   1      46.796  26.696  36.047  1.00  0.00     0.022 A 
BRANCH  83  86
ATOM     86  S   UNL A   1      45.408  24.661  37.247  1.00  0.00     0.127 S 
ATOM     87  O   UNL A   1      46.472  24.979  38.197  1.00  0.00    -0.237 OA
ATOM     88  O   UNL A   1      44.052  24.886  37.751  1.00  0.00    -0.237 OA
ATOM     89  O   UNL A   1      45.579  23.416  36.511  1.00  0.00    -0.744 OA
ENDBRANCH  83  86
ENDBRANCH  56  79
ENDBRANCH  30  31
ENDBRANCH  23  25
ENDBRANCH  22  23
ENDBRANCH   1  22
TORSDOF 15
ENDMDL
MODEL 3
REMARK VINA RESULT:     -14.0      5.322     10.312
REMARK SMILES O=C(OCCOC(=O)c1ccc(-c2c3nc(c(-c4cccc(S(=O)(=O)[O-])c4F)c4ccc([nH]4)c(-c4cccc(S(=O)(=O)[O-])c4F)c4nc(c(-c5cccc(S(=O)(=O)[O-])c5F)c5ccc2[nH]5)C=C4)C=C3)cc1)C1=Cc2c(Cl)ccc(Cl)c2O[C@@H]1C(F)(F)F
REMARK SMILES IDX 5 1 4 2 3 3 2 4 1 5 72 6 73 7 83 8 74 9 82 10 75 11 81 12
REMARK SMILES IDX 76 13 77 14 79 15 78 16 80 17 84 18 85 19 86 20 87 21 6 22
REMARK SMILES IDX 7 23 8 24 9 25 10 26 71 27 11 28 70 29 12 30 13 31 14 32
REMARK SMILES IDX 64 33 15 34 69 35 63 36 65 37 16 38 68 39 62 40 61 41 17 43
REMARK SMILES IDX 49 44 29 45 48 46 30 47 33 48 47 49 66 50 31 51 32 52 46 54
REMARK SMILES IDX 67 55 34 56 18 57 19 58 27 59 20 60 22 61 28 62 21 63 23 64
REMARK SMILES IDX 24 65 25 66 26 67 50 68 51 69 59 70 52 71 54 72 60 73 53 74
REMARK SMILES IDX 55 75 56 76 57 77 58 78 35 79 36 80 44 81 37 82 39 83 45 84
REMARK SMILES IDX 38 85 40 86 41 87 42 88 43 89
REMARK H PARENT 65 42 33 53
REMARK Flexibility Score: inf
ROOT
ATOM      1  C   UNL A   1      31.728  30.864  26.224  1.00  0.00     0.275 C 
ENDROOT
BRANCH   1   2
ATOM      2  C   UNL A   1      31.661  28.806  25.576  1.00  0.00     0.275 C 
BRANCH   2   3
ATOM      3  O   UNL A   1      32.878  27.847  25.413  1.00  0.00    -0.459 OA
BRANCH   3   4
ATOM      4  C   UNL A   1      32.563  26.555  25.566  1.00  0.00     0.338 C 
ATOM      5  O   UNL A   1      32.035  25.991  26.489  1.00  0.00    -0.246 OA
BRANCH   4   6
ATOM      6  C   UNL A   1      33.370  26.097  24.464  1.00  0.00     0.087 C 
ATOM      7  C   UNL A   1      34.561  25.362  24.944  1.00  0.00     0.029 C 
ATOM      8  C   UNL A   1      31.923  25.319  23.449  1.00  0.00     0.316 C 
ATOM      9  C   UNL A   1      34.760  23.558  24.790  1.00  0.00     0.037 A 
ATOM     10  O   UNL A   1      32.091  23.409  23.309  1.00  0.00    -0.474 OA
ATOM     11  C   UNL A   1      35.781  22.915  25.449  1.00  0.00     0.052 A 
ATOM     12  C   UNL A   1      33.524  22.568  24.058  1.00  0.00     0.148 A 
ATOM     13  Cl  UNL A   1      37.040  23.733  26.274  1.00  0.00    -0.084 Cl
ATOM     14  C   UNL A   1      35.707  21.511  25.474  1.00  0.00     0.023 A 
ATOM     15  C   UNL A   1      33.543  21.200  24.130  1.00  0.00     0.083 A 
ATOM     16  C   UNL A   1      34.654  20.707  24.858  1.00  0.00     0.026 A 
ATOM     17  Cl  UNL A   1      32.354  20.157  23.514  1.00  0.00    -0.080 Cl
BRANCH   8  18
ATOM     18  C   UNL A   1      31.728  26.446  22.379  1.00  0.00     0.430 C 
ATOM     19  F   UNL A   1      31.392  25.939  21.184  1.00  0.00    -0.167 F 
ATOM     20  F   UNL A   1      30.645  27.192  22.749  1.00  0.00    -0.167 F 
ATOM     21  F   UNL A   1      32.703  27.358  22.268  1.00  0.00    -0.167 F 
ENDBRANCH   8  18
ENDBRANCH   4   6
ENDBRANCH   3   4
ENDBRANCH   2   3
ENDBRANCH   1   2
BRANCH   1  22
ATOM     22  O   UNL A   1      32.761  31.516  27.420  1.00  0.00    -0.458 OA
BRANCH  22  23
ATOM     23  C   UNL A   1      33.674  32.503  27.684  1.00  0.00     0.338 C 
ATOM     24  O   UNL A   1      33.502  33.650  28.051  1.00  0.00    -0.246 OA
BRANCH  23  25
ATOM     25  C   UNL A   1      34.985  31.792  27.804  1.00  0.00     0.060 A 
ATOM     26  C   UNL A   1      36.134  32.551  28.084  1.00  0.00     0.016 A 
ATOM     27  C   UNL A   1      34.988  30.417  28.032  1.00  0.00     0.016 A 
ATOM     28  C   UNL A   1      37.185  31.976  28.820  1.00  0.00     0.010 A 
ATOM     29  C   UNL A   1      36.048  29.843  28.737  1.00  0.00     0.010 A 
ATOM     30  C   UNL A   1      37.117  30.629  29.206  1.00  0.00    -0.014 A 
BRANCH  30  31
ATOM     31  C   UNL A   1      38.250  29.954  29.890  1.00  0.00     0.031 A 
ATOM     32  C   UNL A   1      38.528  30.411  31.291  1.00  0.00     0.074 A 
ATOM     33  C   UNL A   1      39.080  29.076  29.285  1.00  0.00     0.049 A 
ATOM     34  N   UNL A   1      39.510  30.102  32.091  1.00  0.00    -0.248 NA
ATOM     35  C   UNL A   1      37.570  31.384  31.846  1.00  0.00     0.031 C 
ATOM     36  C   UNL A   1      38.950  28.565  27.920  1.00  0.00     0.029 A 
ATOM     37  N   UNL A   1      40.238  28.483  29.745  1.00  0.00    -0.354 N 
ATOM     38  C   UNL A   1      39.301  30.863  33.232  1.00  0.00     0.074 A 
ATOM     39  C   UNL A   1      38.126  31.672  33.007  1.00  0.00     0.031 C 
ATOM     40  C   UNL A   1      39.997  27.761  27.646  1.00  0.00     0.029 A 
ATOM     41  C   UNL A   1      40.887  27.707  28.806  1.00  0.00     0.049 A 
ATOM     42  H   UNL A   1      40.572  28.603  30.663  1.00  0.00     0.167 HD
ATOM     43  C   UNL A   1      40.009  30.880  34.381  1.00  0.00     0.034 A 
ATOM     44  C   UNL A   1      42.062  27.042  28.882  1.00  0.00     0.034 A 
ATOM     45  C   UNL A   1      41.186  30.098  34.607  1.00  0.00     0.049 A 
ATOM     46  C   UNL A   1      42.851  27.091  30.177  1.00  0.00     0.074 A 
ATOM     47  C   UNL A   1      41.967  30.028  35.744  1.00  0.00     0.029 A 
ATOM     48  N   UNL A   1      41.763  29.264  33.664  1.00  0.00    -0.354 N 
ATOM     49  N   UNL A   1      42.560  27.697  31.304  1.00  0.00    -0.248 NA
ATOM     50  C   UNL A   1      44.117  26.337  30.222  1.00  0.00     0.031 C 
ATOM     51  C   UNL A   1      43.032  29.162  35.481  1.00  0.00     0.029 A 
ATOM     52  C   UNL A   1      42.894  28.671  34.191  1.00  0.00     0.049 A 
ATOM     53  H   UNL A   1      41.419  29.115  32.753  1.00  0.00     0.167 HD
ATOM     54  C   UNL A   1      43.571  27.356  32.200  1.00  0.00     0.074 A 
ATOM     55  C   UNL A   1      44.480  26.481  31.490  1.00  0.00     0.031 C 
ATOM     56  C   UNL A   1      43.741  27.740  33.490  1.00  0.00     0.034 A 
BRANCH  43  57
ATOM     57  C   UNL A   1      39.486  31.773  35.469  1.00  0.00     0.023 A 
ATOM     58  C   UNL A   1      38.462  31.298  36.317  1.00  0.00     0.012 A 
ATOM     59  C   UNL A   1      39.953  33.091  35.611  1.00  0.00     0.148 A 
ATOM     60  C   UNL A   1      37.869  32.143  37.251  1.00  0.00     0.002 A 
ATOM     61  C   UNL A   1      39.391  33.912  36.579  1.00  0.00     0.091 A 
ATOM     62  F   UNL A   1      40.904  33.527  34.773  1.00  0.00    -0.205 F 
ATOM     63  C   UNL A   1      38.338  33.447  37.386  1.00  0.00     0.022 A 
BRANCH  61  64
ATOM     64  S   UNL A   1      39.962  35.586  36.877  1.00  0.00     0.127 S 
ATOM     65  O   UNL A   1      41.406  35.390  36.990  1.00  0.00    -0.237 OA
ATOM     66  O   UNL A   1      39.532  36.273  35.660  1.00  0.00    -0.237 OA
ATOM     67  O   UNL A   1      39.297  36.029  38.094  1.00  0.00    -0.744 OA
ENDBRANCH  61  64
ENDBRANCH  43  57
BRANCH  44  68
ATOM     68  C   UNL A   1      42.570  26.209  27.743  1.00  0.00     0.023 A 
ATOM     69  C   UNL A   1      43.422  26.805  26.786  1.00  0.00     0.012 A 
ATOM     70  C   UNL A   1      42.174  24.870  27.554  1.00  0.00     0.148 A 
ATOM     71  C   UNL A   1      43.827  26.105  25.647  1.00  0.00     0.002 A 
ATOM     72  C   UNL A   1      42.619  24.162  26.438  1.00  0.00     0.091 A 
ATOM     73  F   UNL A   1      41.352  24.318  28.457  1.00  0.00    -0.205 F 
ATOM     74  C   UNL A   1      43.429  24.783  25.475  1.00  0.00     0.022 A 
BRANCH  72  75
ATOM     75  S   UNL A   1      42.233  22.427  26.160  1.00  0.00     0.127 S 
ATOM     76  O   UNL A   1      42.907  22.169  24.890  1.00  0.00    -0.237 OA
ATOM     77  O   UNL A   1      42.852  21.791  27.324  1.00  0.00    -0.237 OA
ATOM     78  O   UNL A   1      40.780  22.346  26.128  1.00  0.00    -0.744 OA
ENDBRANCH  72  75
ENDBRANCH  44  68
BRANCH  56  79
ATOM     79  C   UNL A   1      44.909  27.180  34.260  1.00  0.00     0.023 A 
ATOM     80  C   UNL A   1      46.110  27.909  34.352  1.00  0.00     0.012 A 
ATOM     81  C   UNL A   1      44.759  25.996  35.011  1.00  0.00     0.148 A 
ATOM     82  C   UNL A   1      47.150  27.459  35.166  1.00  0.00     0.002 A 
ATOM     83  C   UNL A   1      45.777  25.583  35.861  1.00  0.00     0.091 A 
ATOM     84  F   UNL A   1      43.613  25.308  34.897  1.00  0.00    -0.205 F 
ATOM     85  C   UNL A   1      46.977  26.307  35.932  1.00  0.00     0.022 A 
BRANCH  83  86
ATOM     86  S   UNL A   1      45.596  24.181  36.970  1.00  0.00     0.127 S 
ATOM     87  O   UNL A   1      46.970  23.983  37.427  1.00  0.00    -0.237 OA
ATOM     88  O   UNL A   1      44.684  24.707  37.987  1.00  0.00    -0.237 OA
ATOM     89  O   UNL A   1      45.043  23.100  36.166  1.00  0.00    -0.744 OA
ENDBRANCH  83  86
ENDBRANCH  56  79
ENDBRANCH  30  31
ENDBRANCH  23  25
ENDBRANCH  22  23
ENDBRANCH   1  22
TORSDOF 15
ENDMDL
