MODEL 1
REMARK VINA RESULT:     -10.8      0.000      0.000
REMARK SMILES COCc1cc(OCC(=O)OCCOC(=O)c2ccc(-c3c4nc(c(-c5cccc(S(=O)(=O)[O-])c5F)c5ccc([nH]5)c(-c5cccc(S(=O)(=O)[O-])c5F)c5nc(c(-c6cccc(S(=O)(=O)[O-])c6F)c6ccc3[nH]6)C=C5)C=C4)cc2)nc(Nc2cccc(C)c2C)n1
REMARK SMILES IDX 12 1 11 2 9 3 10 4 8 5 7 6 6 7 4 8 5 9 91 10 81 11 80 12
REMARK SMILES IDX 3 13 2 14 1 15 82 16 83 18 84 19 89 20 85 21 87 22 90 23
REMARK SMILES IDX 86 24 88 25 13 26 14 27 15 28 16 29 17 30 18 31 79 32 19 33
REMARK SMILES IDX 78 34 20 35 21 36 22 37 72 38 23 39 77 40 71 41 73 42 24 43
REMARK SMILES IDX 76 44 70 45 69 46 25 48 57 49 37 50 56 51 38 52 41 53 55 54
REMARK SMILES IDX 74 55 39 56 40 57 54 59 75 60 42 61 26 62 27 63 35 64 28 65
REMARK SMILES IDX 30 66 36 67 29 68 31 69 32 70 33 71 34 72 58 73 59 74 67 75
REMARK SMILES IDX 60 76 62 77 68 78 61 79 63 80 64 81 65 82 66 83 43 84 44 85
REMARK SMILES IDX 52 86 45 87 47 88 53 89 46 90 48 91 49 92 50 93 51 94
REMARK H PARENT 82 17 73 47 41 58
REMARK Flexibility Score: inf
ROOT
ATOM      1  C   UNL A   1      31.325  29.671  24.848  1.00  0.00     0.274 C 
ENDROOT
BRANCH   1   2
ATOM      2  O   UNL A   1      32.560  29.293  24.207  1.00  0.00    -0.460 OA
BRANCH   2   3
ATOM      3  C   UNL A   1      32.445  28.790  22.948  1.00  0.00     0.344 C 
ATOM      4  O   UNL A   1      33.388  28.514  22.215  1.00  0.00    -0.248 OA
BRANCH   3   5
ATOM      5  C   UNL A   1      30.993  28.628  22.505  1.00  0.00     0.353 C 
BRANCH   5   6
ATOM      6  O   UNL A   1      30.549  27.335  22.140  1.00  0.00    -0.466 OA
BRANCH   6   7
ATOM      7  C   UNL A   1      30.718  26.309  23.026  1.00  0.00     0.219 A 
ATOM      8  C   UNL A   1      30.425  25.113  25.015  1.00  0.00     0.076 A 
ATOM      9  C   UNL A   1      30.165  26.251  24.284  1.00  0.00     0.095 A 
ATOM     10  N   UNL A   1      31.141  24.104  24.507  1.00  0.00    -0.215 NA
ATOM     11  C   UNL A   1      31.645  24.233  23.275  1.00  0.00     0.230 A 
ATOM     12  N   UNL A   1      31.484  25.324  22.521  1.00  0.00    -0.177 NA
BRANCH   8  13
ATOM     13  C   UNL A   1      29.934  24.938  26.427  1.00  0.00     0.216 C 
BRANCH  13  14
ATOM     14  O   UNL A   1      30.456  23.749  27.020  1.00  0.00    -0.378 OA
ATOM     15  C   UNL A   1      29.458  22.764  27.265  1.00  0.00     0.195 C 
ENDBRANCH  13  14
ENDBRANCH   8  13
BRANCH  11  16
ATOM     16  N   UNL A   1      32.379  23.170  22.754  1.00  0.00    -0.324 N 
ATOM     17  H   UNL A   1      32.523  23.154  21.781  1.00  0.00     0.170 HD
BRANCH  16  18
ATOM     18  C   UNL A   1      32.930  22.122  23.506  1.00  0.00     0.044 A 
ATOM     19  C   UNL A   1      32.220  20.918  23.599  1.00  0.00     0.026 A 
ATOM     20  C   UNL A   1      34.240  22.205  24.047  1.00  0.00    -0.025 A 
ATOM     21  C   UNL A   1      32.803  19.793  24.177  1.00  0.00     0.002 A 
ATOM     22  C   UNL A   1      34.840  21.051  24.601  1.00  0.00    -0.046 A 
ATOM     23  C   UNL A   1      35.007  23.507  24.002  1.00  0.00     0.047 C 
ATOM     24  C   UNL A   1      34.105  19.859  24.668  1.00  0.00     0.004 A 
ATOM     25  C   UNL A   1      36.242  21.046  25.148  1.00  0.00     0.044 C 
ENDBRANCH  16  18
ENDBRANCH  11  16
ENDBRANCH   6   7
ENDBRANCH   5   6
ENDBRANCH   3   5
ENDBRANCH   2   3
ENDBRANCH   1   2
BRANCH   1  26
ATOM     26  C   UNL A   1      31.592  30.611  26.019  1.00  0.00     0.275 C 
BRANCH  26  27
ATOM     27  O   UNL A   1      32.990  30.942  26.061  1.00  0.00    -0.458 OA
BRANCH  27  28
ATOM     28  C   UNL A   1      33.368  31.705  27.113  1.00  0.00     0.338 C 
ATOM     29  O   UNL A   1      32.754  32.646  27.586  1.00  0.00    -0.246 OA
BRANCH  28  30
ATOM     30  C   UNL A   1      34.654  31.232  27.670  1.00  0.00     0.060 A 
ATOM     31  C   UNL A   1      34.841  29.899  28.040  1.00  0.00     0.016 A 
ATOM     32  C   UNL A   1      35.638  32.183  27.960  1.00  0.00     0.016 A 
ATOM     33  C   UNL A   1      35.962  29.544  28.793  1.00  0.00     0.010 A 
ATOM     34  C   UNL A   1      36.800  31.805  28.636  1.00  0.00     0.010 A 
ATOM     35  C   UNL A   1      36.955  30.492  29.104  1.00  0.00    -0.014 A 
BRANCH  35  36
ATOM     36  C   UNL A   1      38.163  30.094  29.878  1.00  0.00     0.031 A 
ATOM     37  C   UNL A   1      38.484  30.694  31.225  1.00  0.00     0.074 A 
ATOM     38  C   UNL A   1      39.003  29.185  29.345  1.00  0.00     0.049 A 
ATOM     39  N   UNL A   1      39.479  30.413  32.032  1.00  0.00    -0.248 NA
ATOM     40  C   UNL A   1      37.577  31.730  31.745  1.00  0.00     0.031 C 
ATOM     41  C   UNL A   1      38.837  28.558  28.033  1.00  0.00     0.029 A 
ATOM     42  N   UNL A   1      40.173  28.651  29.825  1.00  0.00    -0.354 N 
ATOM     43  C   UNL A   1      39.312  31.222  33.151  1.00  0.00     0.074 A 
ATOM     44  C   UNL A   1      38.134  32.029  32.913  1.00  0.00     0.031 C 
ATOM     45  C   UNL A   1      39.866  27.730  27.810  1.00  0.00     0.029 A 
ATOM     46  C   UNL A   1      40.790  27.804  28.937  1.00  0.00     0.049 A 
ATOM     47  H   UNL A   1      40.533  28.854  30.719  1.00  0.00     0.167 HD
ATOM     48  C   UNL A   1      40.050  31.269  34.286  1.00  0.00     0.034 A 
ATOM     49  C   UNL A   1      41.981  27.179  28.996  1.00  0.00     0.034 A 
ATOM     50  C   UNL A   1      41.230  30.479  34.527  1.00  0.00     0.049 A 
ATOM     51  C   UNL A   1      42.831  27.323  30.223  1.00  0.00     0.074 A 
ATOM     52  C   UNL A   1      41.998  30.410  35.677  1.00  0.00     0.029 A 
ATOM     53  N   UNL A   1      41.833  29.651  33.596  1.00  0.00    -0.354 N 
ATOM     54  N   UNL A   1      42.564  27.959  31.337  1.00  0.00    -0.248 NA
ATOM     55  C   UNL A   1      44.135  26.647  30.212  1.00  0.00     0.031 C 
ATOM     56  C   UNL A   1      43.082  29.560  35.431  1.00  0.00     0.029 A 
ATOM     57  C   UNL A   1      42.984  29.095  34.130  1.00  0.00     0.049 A 
ATOM     58  H   UNL A   1      41.493  29.481  32.687  1.00  0.00     0.167 HD
ATOM     59  C   UNL A   1      43.660  27.753  32.164  1.00  0.00     0.074 A 
ATOM     60  C   UNL A   1      44.582  26.906  31.434  1.00  0.00     0.031 C 
ATOM     61  C   UNL A   1      43.889  28.239  33.409  1.00  0.00     0.034 A 
BRANCH  48  62
ATOM     62  C   UNL A   1      39.571  32.159  35.401  1.00  0.00     0.023 A 
ATOM     63  C   UNL A   1      38.731  31.611  36.391  1.00  0.00     0.012 A 
ATOM     64  C   UNL A   1      40.020  33.487  35.529  1.00  0.00     0.148 A 
ATOM     65  C   UNL A   1      38.342  32.372  37.493  1.00  0.00     0.002 A 
ATOM     66  C   UNL A   1      39.646  34.232  36.643  1.00  0.00     0.091 A 
ATOM     67  F   UNL A   1      40.796  33.997  34.564  1.00  0.00    -0.205 F 
ATOM     68  C   UNL A   1      38.807  33.678  37.624  1.00  0.00     0.022 A 
BRANCH  66  69
ATOM     69  S   UNL A   1      40.237  35.906  36.926  1.00  0.00     0.127 S 
ATOM     70  O   UNL A   1      39.671  36.616  35.781  1.00  0.00    -0.237 OA
ATOM     71  O   UNL A   1      39.626  36.241  38.213  1.00  0.00    -0.237 OA
ATOM     72  O   UNL A   1      41.690  35.814  36.954  1.00  0.00    -0.744 OA
ENDBRANCH  66  69
ENDBRANCH  48  62
BRANCH  49  73
ATOM     73  C   UNL A   1      42.413  26.343  27.843  1.00  0.00     0.023 A 
ATOM     74  C   UNL A   1      43.395  26.827  26.960  1.00  0.00     0.012 A 
ATOM     75  C   UNL A   1      41.922  25.033  27.677  1.00  0.00     0.148 A 
ATOM     76  C   UNL A   1      43.881  26.018  25.933  1.00  0.00     0.002 A 
ATOM     77  C   UNL A   1      42.458  24.212  26.694  1.00  0.00     0.091 A 
ATOM     78  F   UNL A   1      40.961  24.600  28.507  1.00  0.00    -0.205 F 
ATOM     79  C   UNL A   1      43.429  24.705  25.812  1.00  0.00     0.022 A 
BRANCH  77  80
ATOM     80  S   UNL A   1      42.038  22.467  26.615  1.00  0.00     0.127 S 
ATOM     81  O   UNL A   1      40.579  22.507  26.581  1.00  0.00    -0.237 OA
ATOM     82  O   UNL A   1      42.671  22.045  25.364  1.00  0.00    -0.237 OA
ATOM     83  O   UNL A   1      42.641  21.884  27.806  1.00  0.00    -0.744 OA
ENDBRANCH  77  80
ENDBRANCH  49  73
BRANCH  61  84
ATOM     84  C   UNL A   1      45.202  27.885  34.053  1.00  0.00     0.023 A 
ATOM     85  C   UNL A   1      46.291  28.771  33.919  1.00  0.00     0.012 A 
ATOM     86  C   UNL A   1      45.357  26.712  34.813  1.00  0.00     0.148 A 
ATOM     87  C   UNL A   1      47.521  28.477  34.506  1.00  0.00     0.002 A 
ATOM     88  C   UNL A   1      46.576  26.444  35.427  1.00  0.00     0.091 A 
ATOM     89  F   UNL A   1      44.321  25.865  34.911  1.00  0.00    -0.205 F 
ATOM     90  C   UNL A   1      47.662  27.320  35.268  1.00  0.00     0.022 A 
BRANCH  88  91
ATOM     91  S   UNL A   1      46.794  25.007  36.483  1.00  0.00     0.127 S 
ATOM     92  O   UNL A   1      45.827  25.264  37.548  1.00  0.00    -0.237 OA
ATOM     93  O   UNL A   1      46.439  23.896  35.596  1.00  0.00    -0.237 OA
ATOM     94  O   UNL A   1      48.197  25.030  36.874  1.00  0.00    -0.744 OA
ENDBRANCH  88  91
ENDBRANCH  61  84
ENDBRANCH  35  36
ENDBRANCH  28  30
ENDBRANCH  27  28
ENDBRANCH  26  27
ENDBRANCH   1  26
TORSDOF 20
ENDMDL
MODEL 2
REMARK VINA RESULT:     -10.7      0.750      7.721
REMARK SMILES COCc1cc(OCC(=O)OCCOC(=O)c2ccc(-c3c4nc(c(-c5cccc(S(=O)(=O)[O-])c5F)c5ccc([nH]5)c(-c5cccc(S(=O)(=O)[O-])c5F)c5nc(c(-c6cccc(S(=O)(=O)[O-])c6F)c6ccc3[nH]6)C=C5)C=C4)cc2)nc(Nc2cccc(C)c2C)n1
REMARK SMILES IDX 12 1 11 2 9 3 10 4 8 5 7 6 6 7 4 8 5 9 91 10 81 11 80 12
REMARK SMILES IDX 3 13 2 14 1 15 82 16 83 18 84 19 89 20 85 21 87 22 90 23
REMARK SMILES IDX 86 24 88 25 13 26 14 27 15 28 16 29 17 30 18 31 79 32 19 33
REMARK SMILES IDX 78 34 20 35 21 36 22 37 72 38 23 39 77 40 71 41 73 42 24 43
REMARK SMILES IDX 76 44 70 45 69 46 25 48 57 49 37 50 56 51 38 52 41 53 55 54
REMARK SMILES IDX 74 55 39 56 40 57 54 59 75 60 42 61 26 62 27 63 35 64 28 65
REMARK SMILES IDX 30 66 36 67 29 68 31 69 32 70 33 71 34 72 58 73 59 74 67 75
REMARK SMILES IDX 60 76 62 77 68 78 61 79 63 80 64 81 65 82 66 83 43 84 44 85
REMARK SMILES IDX 52 86 45 87 47 88 53 89 46 90 48 91 49 92 50 93 51 94
REMARK H PARENT 82 17 73 47 41 58
REMARK Flexibility Score: inf
ROOT
ATOM      1  C   UNL A   1      31.181  29.355  24.781  1.00  0.00     0.274 C 
ENDROOT
BRANCH   1   2
ATOM      2  O   UNL A   1      30.051  29.477  23.894  1.00  0.00    -0.460 OA
BRANCH   2   3
ATOM      3  C   UNL A   1      30.264  29.095  22.605  1.00  0.00     0.344 C 
ATOM      4  O   UNL A   1      29.570  29.429  21.651  1.00  0.00    -0.248 OA
BRANCH   3   5
ATOM      5  C   UNL A   1      31.458  28.156  22.456  1.00  0.00     0.353 C 
BRANCH   5   6
ATOM      6  O   UNL A   1      31.207  26.816  22.076  1.00  0.00    -0.466 OA
BRANCH   6   7
ATOM      7  C   UNL A   1      31.295  25.837  23.025  1.00  0.00     0.219 A 
ATOM      8  C   UNL A   1      30.867  24.770  25.062  1.00  0.00     0.076 A 
ATOM      9  C   UNL A   1      30.686  25.873  24.257  1.00  0.00     0.095 A 
ATOM     10  N   UNL A   1      31.564  23.707  24.645  1.00  0.00    -0.215 NA
ATOM     11  C   UNL A   1      32.126  23.746  23.433  1.00  0.00     0.230 A 
ATOM     12  N   UNL A   1      32.043  24.797  22.612  1.00  0.00    -0.177 NA
BRANCH   8  13
ATOM     13  C   UNL A   1      30.308  24.695  26.458  1.00  0.00     0.216 C 
BRANCH  13  14
ATOM     14  O   UNL A   1      30.520  23.409  27.040  1.00  0.00    -0.378 OA
ATOM     15  C   UNL A   1      29.309  22.743  27.377  1.00  0.00     0.195 C 
ENDBRANCH  13  14
ENDBRANCH   8  13
BRANCH  11  16
ATOM     16  N   UNL A   1      32.840  22.628  23.006  1.00  0.00    -0.324 N 
ATOM     17  H   UNL A   1      32.724  22.347  22.071  1.00  0.00     0.170 HD
BRANCH  16  18
ATOM     18  C   UNL A   1      33.711  21.872  23.805  1.00  0.00     0.044 A 
ATOM     19  C   UNL A   1      33.278  20.625  24.275  1.00  0.00     0.026 A 
ATOM     20  C   UNL A   1      35.055  22.273  24.024  1.00  0.00    -0.025 A 
ATOM     21  C   UNL A   1      34.163  19.761  24.914  1.00  0.00     0.002 A 
ATOM     22  C   UNL A   1      35.958  21.378  24.641  1.00  0.00    -0.046 A 
ATOM     23  C   UNL A   1      35.533  23.633  23.568  1.00  0.00     0.047 C 
ATOM     24  C   UNL A   1      35.494  20.133  25.090  1.00  0.00     0.004 A 
ATOM     25  C   UNL A   1      37.410  21.710  24.862  1.00  0.00     0.044 C 
ENDBRANCH  16  18
ENDBRANCH  11  16
ENDBRANCH   6   7
ENDBRANCH   5   6
ENDBRANCH   3   5
ENDBRANCH   2   3
ENDBRANCH   1   2
BRANCH   1  26
ATOM     26  C   UNL A   1      31.300  30.587  25.672  1.00  0.00     0.275 C 
BRANCH  26  27
ATOM     27  O   UNL A   1      32.670  30.761  26.072  1.00  0.00    -0.458 OA
BRANCH  27  28
ATOM     28  C   UNL A   1      32.891  31.774  26.941  1.00  0.00     0.338 C 
ATOM     29  O   UNL A   1      32.242  32.803  27.039  1.00  0.00    -0.246 OA
BRANCH  28  30
ATOM     30  C   UNL A   1      34.040  31.471  27.821  1.00  0.00     0.060 A 
ATOM     31  C   UNL A   1      34.965  32.455  28.177  1.00  0.00     0.016 A 
ATOM     32  C   UNL A   1      34.267  30.137  28.174  1.00  0.00     0.016 A 
ATOM     33  C   UNL A   1      36.165  32.084  28.788  1.00  0.00     0.010 A 
ATOM     34  C   UNL A   1      35.429  29.783  28.866  1.00  0.00     0.010 A 
ATOM     35  C   UNL A   1      36.414  30.743  29.137  1.00  0.00    -0.014 A 
BRANCH  35  36
ATOM     36  C   UNL A   1      37.682  30.364  29.820  1.00  0.00     0.031 A 
ATOM     37  C   UNL A   1      38.656  29.383  29.215  1.00  0.00     0.074 A 
ATOM     38  C   UNL A   1      37.954  30.903  31.026  1.00  0.00     0.049 A 
ATOM     39  N   UNL A   1      39.818  28.990  29.676  1.00  0.00    -0.248 NA
ATOM     40  C   UNL A   1      38.293  28.768  27.927  1.00  0.00     0.031 C 
ATOM     41  C   UNL A   1      37.081  31.831  31.746  1.00  0.00     0.029 A 
ATOM     42  N   UNL A   1      39.024  30.729  31.868  1.00  0.00    -0.354 N 
ATOM     43  C   UNL A   1      40.328  28.100  28.738  1.00  0.00     0.074 A 
ATOM     44  C   UNL A   1      39.337  27.984  27.688  1.00  0.00     0.031 C 
ATOM     45  C   UNL A   1      37.645  32.141  32.921  1.00  0.00     0.029 A 
ATOM     46  C   UNL A   1      38.893  31.397  33.061  1.00  0.00     0.049 A 
ATOM     47  H   UNL A   1      39.809  30.180  31.638  1.00  0.00     0.167 HD
ATOM     48  C   UNL A   1      41.522  27.461  28.730  1.00  0.00     0.034 A 
ATOM     49  C   UNL A   1      39.664  31.392  34.164  1.00  0.00     0.034 A 
ATOM     50  C   UNL A   1      42.509  27.560  29.775  1.00  0.00     0.049 A 
ATOM     51  C   UNL A   1      40.936  30.598  34.173  1.00  0.00     0.074 A 
ATOM     52  C   UNL A   1      43.776  27.003  29.817  1.00  0.00     0.029 A 
ATOM     53  N   UNL A   1      42.328  28.228  30.974  1.00  0.00    -0.354 N 
ATOM     54  N   UNL A   1      41.476  29.902  33.203  1.00  0.00    -0.248 NA
ATOM     55  C   UNL A   1      41.715  30.604  35.419  1.00  0.00     0.031 C 
ATOM     56  C   UNL A   1      44.352  27.313  31.054  1.00  0.00     0.029 A 
ATOM     57  C   UNL A   1      43.445  28.069  31.778  1.00  0.00     0.049 A 
ATOM     58  H   UNL A   1      41.525  28.743  31.218  1.00  0.00     0.167 HD
ATOM     59  C   UNL A   1      42.663  29.395  33.716  1.00  0.00     0.074 A 
ATOM     60  C   UNL A   1      42.778  29.890  35.073  1.00  0.00     0.031 C 
ATOM     61  C   UNL A   1      43.565  28.577  33.120  1.00  0.00     0.034 A 
BRANCH  48  62
ATOM     62  C   UNL A   1      41.874  26.639  27.519  1.00  0.00     0.023 A 
ATOM     63  C   UNL A   1      42.475  27.282  26.417  1.00  0.00     0.012 A 
ATOM     64  C   UNL A   1      41.710  25.241  27.503  1.00  0.00     0.148 A 
ATOM     65  C   UNL A   1      42.905  26.544  25.314  1.00  0.00     0.002 A 
ATOM     66  C   UNL A   1      42.163  24.511  26.409  1.00  0.00     0.091 A 
ATOM     67  F   UNL A   1      41.114  24.654  28.549  1.00  0.00    -0.205 F 
ATOM     68  C   UNL A   1      42.759  25.160  25.314  1.00  0.00     0.022 A 
BRANCH  66  69
ATOM     69  S   UNL A   1      42.066  22.717  26.339  1.00  0.00     0.127 S 
ATOM     70  O   UNL A   1      42.860  22.334  27.505  1.00  0.00    -0.237 OA
ATOM     71  O   UNL A   1      40.629  22.475  26.474  1.00  0.00    -0.237 OA
ATOM     72  O   UNL A   1      42.623  22.340  25.047  1.00  0.00    -0.744 OA
ENDBRANCH  66  69
ENDBRANCH  48  62
BRANCH  49  73
ATOM     73  C   UNL A   1      39.240  32.197  35.342  1.00  0.00     0.023 A 
ATOM     74  C   UNL A   1      38.469  31.598  36.354  1.00  0.00     0.012 A 
ATOM     75  C   UNL A   1      39.681  33.525  35.506  1.00  0.00     0.148 A 
ATOM     76  C   UNL A   1      38.145  32.309  37.510  1.00  0.00     0.002 A 
ATOM     77  C   UNL A   1      39.410  34.203  36.687  1.00  0.00     0.091 A 
ATOM     78  F   UNL A   1      40.386  34.092  34.516  1.00  0.00    -0.205 F 
ATOM     79  C   UNL A   1      38.633  33.603  37.687  1.00  0.00     0.022 A 
BRANCH  77  80
ATOM     80  S   UNL A   1      40.164  35.797  37.032  1.00  0.00     0.127 S 
ATOM     81  O   UNL A   1      41.587  35.472  37.009  1.00  0.00    -0.237 OA
ATOM     82  O   UNL A   1      39.702  36.617  35.910  1.00  0.00    -0.237 OA
ATOM     83  O   UNL A   1      39.614  36.198  38.320  1.00  0.00    -0.744 OA
ENDBRANCH  77  80
ENDBRANCH  49  73
BRANCH  61  84
ATOM     84  C   UNL A   1      44.748  28.144  33.943  1.00  0.00     0.023 A 
ATOM     85  C   UNL A   1      45.911  28.941  33.943  1.00  0.00     0.012 A 
ATOM     86  C   UNL A   1      44.707  26.983  34.736  1.00  0.00     0.148 A 
ATOM     87  C   UNL A   1      47.025  28.572  34.696  1.00  0.00     0.002 A 
ATOM     88  C   UNL A   1      45.809  26.642  35.515  1.00  0.00     0.091 A 
ATOM     89  F   UNL A   1      43.604  26.220  34.708  1.00  0.00    -0.205 F 
ATOM     90  C   UNL A   1      46.971  27.428  35.489  1.00  0.00     0.022 A 
BRANCH  88  91
ATOM     91  S   UNL A   1      45.769  25.222  36.615  1.00  0.00     0.127 S 
ATOM     92  O   UNL A   1      45.605  24.115  35.676  1.00  0.00    -0.237 OA
ATOM     93  O   UNL A   1      47.082  25.278  37.264  1.00  0.00    -0.237 OA
ATOM     94  O   UNL A   1      44.651  25.468  37.516  1.00  0.00    -0.744 OA
ENDBRANCH  88  91
ENDBRANCH  61  84
ENDBRANCH  35  36
ENDBRANCH  28  30
ENDBRANCH  27  28
ENDBRANCH  26  27
ENDBRANCH   1  26
TORSDOF 20
ENDMDL
MODEL 3
REMARK VINA RESULT:     -10.7      1.775      7.815
REMARK SMILES COCc1cc(OCC(=O)OCCOC(=O)c2ccc(-c3c4nc(c(-c5cccc(S(=O)(=O)[O-])c5F)c5ccc([nH]5)c(-c5cccc(S(=O)(=O)[O-])c5F)c5nc(c(-c6cccc(S(=O)(=O)[O-])c6F)c6ccc3[nH]6)C=C5)C=C4)cc2)nc(Nc2cccc(C)c2C)n1
REMARK SMILES IDX 12 1 11 2 9 3 10 4 8 5 7 6 6 7 4 8 5 9 91 10 81 11 80 12
REMARK SMILES IDX 3 13 2 14 1 15 82 16 83 18 84 19 89 20 85 21 87 22 90 23
REMARK SMILES IDX 86 24 88 25 13 26 14 27 15 28 16 29 17 30 18 31 79 32 19 33
REMARK SMILES IDX 78 34 20 35 21 36 22 37 72 38 23 39 77 40 71 41 73 42 24 43
REMARK SMILES IDX 76 44 70 45 69 46 25 48 57 49 37 50 56 51 38 52 41 53 55 54
REMARK SMILES IDX 74 55 39 56 40 57 54 59 75 60 42 61 26 62 27 63 35 64 28 65
REMARK SMILES IDX 30 66 36 67 29 68 31 69 32 70 33 71 34 72 58 73 59 74 67 75
REMARK SMILES IDX 60 76 62 77 68 78 61 79 63 80 64 81 65 82 66 83 43 84 44 85
REMARK SMILES IDX 52 86 45 87 47 88 53 89 46 90 48 91 49 92 50 93 51 94
REMARK H PARENT 82 17 73 47 41 58
REMARK Flexibility Score: inf
ROOT
ATOM      1  C   UNL A   1      31.684  31.220  26.661  1.00  0.00     0.274 C 
ENDROOT
BRANCH   1   2
ATOM      2  O   UNL A   1      32.990  30.624  26.533  1.00  0.00    -0.460 OA
BRANCH   2   3
ATOM      3  C   UNL A   1      33.108  29.349  26.994  1.00  0.00     0.344 C 
ATOM      4  O   UNL A   1      34.165  28.738  27.106  1.00  0.00    -0.248 OA
BRANCH   3   5
ATOM      5  C   UNL A   1      31.761  28.716  27.335  1.00  0.00     0.353 C 
BRANCH   5   6
ATOM      6  O   UNL A   1      31.551  27.364  26.973  1.00  0.00    -0.466 OA
BRANCH   6   7
ATOM      7  C   UNL A   1      31.201  27.077  25.684  1.00  0.00     0.219 A 
ATOM      8  C   UNL A   1      30.478  27.512  23.502  1.00  0.00     0.076 A 
ATOM      9  C   UNL A   1      30.746  27.992  24.765  1.00  0.00     0.095 A 
ATOM     10  N   UNL A   1      30.692  26.231  23.182  1.00  0.00    -0.215 NA
ATOM     11  C   UNL A   1      31.138  25.399  24.130  1.00  0.00     0.230 A 
ATOM     12  N   UNL A   1      31.372  25.774  25.391  1.00  0.00    -0.177 NA
BRANCH   8  13
ATOM     13  C   UNL A   1      29.919  28.387  22.413  1.00  0.00     0.216 C 
BRANCH  13  14
ATOM     14  O   UNL A   1      29.067  29.403  22.941  1.00  0.00    -0.378 OA
ATOM     15  C   UNL A   1      28.060  29.818  22.025  1.00  0.00     0.195 C 
ENDBRANCH  13  14
ENDBRANCH   8  13
BRANCH  11  16
ATOM     16  N   UNL A   1      31.368  24.071  23.780  1.00  0.00    -0.324 N 
ATOM     17  H   UNL A   1      30.684  23.622  23.234  1.00  0.00     0.170 HD
BRANCH  16  18
ATOM     18  C   UNL A   1      32.496  23.322  24.147  1.00  0.00     0.044 A 
ATOM     19  C   UNL A   1      32.311  22.152  24.894  1.00  0.00     0.026 A 
ATOM     20  C   UNL A   1      33.790  23.642  23.658  1.00  0.00    -0.025 A 
ATOM     21  C   UNL A   1      33.374  21.282  25.126  1.00  0.00     0.002 A 
ATOM     22  C   UNL A   1      34.857  22.739  23.865  1.00  0.00    -0.046 A 
ATOM     23  C   UNL A   1      34.024  24.923  22.889  1.00  0.00     0.047 C 
ATOM     24  C   UNL A   1      34.635  21.571  24.609  1.00  0.00     0.004 A 
ATOM     25  C   UNL A   1      36.245  22.983  23.334  1.00  0.00     0.044 C 
ENDBRANCH  16  18
ENDBRANCH  11  16
ENDBRANCH   6   7
ENDBRANCH   5   6
ENDBRANCH   3   5
ENDBRANCH   2   3
ENDBRANCH   1   2
BRANCH   1  26
ATOM     26  C   UNL A   1      31.801  32.707  26.982  1.00  0.00     0.275 C 
BRANCH  26  27
ATOM     27  O   UNL A   1      33.174  33.118  26.869  1.00  0.00    -0.458 OA
BRANCH  27  28
ATOM     28  C   UNL A   1      33.709  33.647  27.993  1.00  0.00     0.338 C 
ATOM     29  O   UNL A   1      33.305  34.625  28.600  1.00  0.00    -0.246 OA
BRANCH  28  30
ATOM     30  C   UNL A   1      34.876  32.857  28.442  1.00  0.00     0.060 A 
ATOM     31  C   UNL A   1      34.718  31.675  29.170  1.00  0.00     0.016 A 
ATOM     32  C   UNL A   1      36.152  33.397  28.252  1.00  0.00     0.016 A 
ATOM     33  C   UNL A   1      35.827  31.098  29.794  1.00  0.00     0.010 A 
ATOM     34  C   UNL A   1      37.269  32.765  28.804  1.00  0.00     0.010 A 
ATOM     35  C   UNL A   1      37.116  31.637  29.623  1.00  0.00    -0.014 A 
BRANCH  35  36
ATOM     36  C   UNL A   1      38.295  30.993  30.265  1.00  0.00     0.031 A 
ATOM     37  C   UNL A   1      39.064  29.881  29.594  1.00  0.00     0.074 A 
ATOM     38  C   UNL A   1      38.669  31.405  31.492  1.00  0.00     0.049 A 
ATOM     39  N   UNL A   1      40.135  29.254  30.016  1.00  0.00    -0.248 NA
ATOM     40  C   UNL A   1      38.585  29.415  28.283  1.00  0.00     0.031 C 
ATOM     41  C   UNL A   1      37.990  32.440  32.273  1.00  0.00     0.029 A 
ATOM     42  N   UNL A   1      39.693  30.990  32.307  1.00  0.00    -0.354 N 
ATOM     43  C   UNL A   1      40.463  28.336  29.025  1.00  0.00     0.074 A 
ATOM     44  C   UNL A   1      39.463  28.463  27.987  1.00  0.00     0.031 C 
ATOM     45  C   UNL A   1      38.608  32.576  33.453  1.00  0.00     0.029 A 
ATOM     46  C   UNL A   1      39.696  31.606  33.535  1.00  0.00     0.049 A 
ATOM     47  H   UNL A   1      40.359  30.318  32.038  1.00  0.00     0.167 HD
ATOM     48  C   UNL A   1      41.516  27.486  28.966  1.00  0.00     0.034 A 
ATOM     49  C   UNL A   1      40.458  31.398  34.625  1.00  0.00     0.034 A 
ATOM     50  C   UNL A   1      42.510  27.343  29.999  1.00  0.00     0.049 A 
ATOM     51  C   UNL A   1      41.559  30.380  34.573  1.00  0.00     0.074 A 
ATOM     52  C   UNL A   1      43.651  26.558  29.992  1.00  0.00     0.029 A 
ATOM     53  N   UNL A   1      42.465  27.968  31.234  1.00  0.00    -0.354 N 
ATOM     54  N   UNL A   1      41.954  29.649  33.560  1.00  0.00    -0.248 NA
ATOM     55  C   UNL A   1      42.332  30.174  35.804  1.00  0.00     0.031 C 
ATOM     56  C   UNL A   1      44.282  26.688  31.235  1.00  0.00     0.029 A 
ATOM     57  C   UNL A   1      43.537  27.560  32.011  1.00  0.00     0.049 A 
ATOM     58  H   UNL A   1      41.774  28.610  31.517  1.00  0.00     0.167 HD
ATOM     59  C   UNL A   1      43.028  28.903  34.027  1.00  0.00     0.074 A 
ATOM     60  C   UNL A   1      43.241  29.294  35.405  1.00  0.00     0.031 C 
ATOM     61  C   UNL A   1      43.758  27.964  33.376  1.00  0.00     0.034 A 
BRANCH  48  62
ATOM     62  C   UNL A   1      41.701  26.680  27.709  1.00  0.00     0.023 A 
ATOM     63  C   UNL A   1      42.215  27.321  26.563  1.00  0.00     0.012 A 
ATOM     64  C   UNL A   1      41.470  25.292  27.682  1.00  0.00     0.148 A 
ATOM     65  C   UNL A   1      42.493  26.593  25.407  1.00  0.00     0.002 A 
ATOM     66  C   UNL A   1      41.771  24.569  26.532  1.00  0.00     0.091 A 
ATOM     67  F   UNL A   1      40.957  24.707  28.773  1.00  0.00    -0.205 F 
ATOM     68  C   UNL A   1      42.281  25.217  25.394  1.00  0.00     0.022 A 
BRANCH  66  69
ATOM     69  S   UNL A   1      41.581  22.783  26.437  1.00  0.00     0.127 S 
ATOM     70  O   UNL A   1      42.252  22.483  25.174  1.00  0.00    -0.237 OA
ATOM     71  O   UNL A   1      42.296  22.328  27.630  1.00  0.00    -0.237 OA
ATOM     72  O   UNL A   1      40.146  22.536  26.463  1.00  0.00    -0.744 OA
ENDBRANCH  66  69
ENDBRANCH  48  62
BRANCH  49  73
ATOM     73  C   UNL A   1      40.199  32.203  35.849  1.00  0.00     0.023 A 
ATOM     74  C   UNL A   1      40.992  33.333  36.121  1.00  0.00     0.012 A 
ATOM     75  C   UNL A   1      39.108  31.908  36.690  1.00  0.00     0.148 A 
ATOM     76  C   UNL A   1      40.700  34.155  37.210  1.00  0.00     0.002 A 
ATOM     77  C   UNL A   1      38.785  32.766  37.733  1.00  0.00     0.091 A 
ATOM     78  F   UNL A   1      38.384  30.808  36.436  1.00  0.00    -0.205 F 
ATOM     79  C   UNL A   1      39.586  33.884  38.003  1.00  0.00     0.022 A 
BRANCH  77  80
ATOM     80  S   UNL A   1      37.264  32.558  38.665  1.00  0.00     0.127 S 
ATOM     81  O   UNL A   1      37.511  33.392  39.838  1.00  0.00    -0.237 OA
ATOM     82  O   UNL A   1      36.253  33.078  37.743  1.00  0.00    -0.237 OA
ATOM     83  O   UNL A   1      37.165  31.124  38.900  1.00  0.00    -0.744 OA
ENDBRANCH  77  80
ENDBRANCH  49  73
BRANCH  61  84
ATOM     84  C   UNL A   1      44.843  27.274  34.156  1.00  0.00     0.023 A 
ATOM     85  C   UNL A   1      46.154  27.791  34.111  1.00  0.00     0.012 A 
ATOM     86  C   UNL A   1      44.573  26.148  34.955  1.00  0.00     0.148 A 
ATOM     87  C   UNL A   1      47.183  27.179  34.824  1.00  0.00     0.002 A 
ATOM     88  C   UNL A   1      45.598  25.566  35.694  1.00  0.00     0.091 A 
ATOM     89  F   UNL A   1      43.327  25.650  34.969  1.00  0.00    -0.205 F 
ATOM     90  C   UNL A   1      46.905  26.073  35.623  1.00  0.00     0.022 A 
BRANCH  88  91
ATOM     91  S   UNL A   1      45.283  24.185  36.800  1.00  0.00     0.127 S 
ATOM     92  O   UNL A   1      44.758  23.176  35.884  1.00  0.00    -0.237 OA
ATOM     93  O   UNL A   1      46.614  23.888  37.334  1.00  0.00    -0.237 OA
ATOM     94  O   UNL A   1      44.347  24.698  37.792  1.00  0.00    -0.744 OA
ENDBRANCH  88  91
ENDBRANCH  61  84
ENDBRANCH  35  36
ENDBRANCH  28  30
ENDBRANCH  27  28
ENDBRANCH  26  27
ENDBRANCH   1  26
TORSDOF 20
ENDMDL
