MODEL 1
REMARK VINA RESULT:     -10.7      0.000      0.000
REMARK SMILES C[C@H](SCC[NH3+])c1ccc(C(=O)OCCOC(=O)c2ccc(-c3c4nc(c(-c5cccc(S(=O)(=O)[O-])c5F)c5ccc([nH]5)c(-c5cccc(S(=O)(=O)[O-])c5F)c5nc(c(-c6cccc(S(=O)(=O)[O-])c6F)c6ccc3[nH]6)C=C5)C=C4)cc2)o1
REMARK SMILES IDX 14 1 13 2 11 3 12 4 10 5 7 6 8 7 82 8 9 9 2 10 1 11 3 12
REMARK SMILES IDX 4 13 5 14 6 15 15 19 16 20 17 21 18 22 19 23 20 24 81 25
REMARK SMILES IDX 21 26 80 27 22 28 23 29 24 30 74 31 25 32 79 33 73 34 75 35
REMARK SMILES IDX 26 36 78 37 72 38 71 39 27 41 59 42 39 43 58 44 40 45 43 46
REMARK SMILES IDX 57 47 76 48 41 49 42 50 56 52 77 53 44 54 28 55 29 56 37 57
REMARK SMILES IDX 30 58 32 59 38 60 31 61 33 62 34 63 35 64 36 65 60 66 61 67
REMARK SMILES IDX 69 68 62 69 64 70 70 71 63 72 65 73 66 74 67 75 68 76 45 77
REMARK SMILES IDX 46 78 54 79 47 80 49 81 55 82 48 83 50 84 51 85 52 86 53 87
REMARK H PARENT 6 16 6 17 6 18 75 40 43 51
REMARK Flexibility Score: inf
ROOT
ATOM      1  C   UNL A   1      34.520  21.392  24.837  1.00  0.00     0.275 C 
ENDROOT
BRANCH   1   2
ATOM      2  O   UNL A   1      34.223  22.175  23.665  1.00  0.00    -0.456 OA
BRANCH   2   3
ATOM      3  C   UNL A   1      35.046  23.248  23.446  1.00  0.00     0.374 C 
ATOM      4  O   UNL A   1      35.999  23.237  22.684  1.00  0.00    -0.242 OA
BRANCH   3   5
ATOM      5  C   UNL A   1      34.570  24.399  24.183  1.00  0.00     0.211 A 
ATOM      6  C   UNL A   1      33.637  26.405  24.318  1.00  0.00     0.117 A 
ATOM      7  C   UNL A   1      33.763  25.940  25.612  1.00  0.00     0.048 A 
ATOM      8  O   UNL A   1      34.183  25.497  23.459  1.00  0.00    -0.453 OA
ATOM      9  C   UNL A   1      34.350  24.651  25.525  1.00  0.00     0.058 A 
BRANCH   6  10
ATOM     10  C   UNL A   1      33.070  27.637  23.685  1.00  0.00     0.110 C 
ATOM     11  C   UNL A   1      34.131  28.381  22.878  1.00  0.00     0.028 C 
BRANCH  10  12
ATOM     12  S   UNL A   1      32.404  28.804  24.940  1.00  0.00    -0.145 SA
BRANCH  12  13
ATOM     13  C   UNL A   1      30.846  29.305  24.124  1.00  0.00     0.131 C 
BRANCH  13  14
ATOM     14  C   UNL A   1      30.718  28.861  22.657  1.00  0.00     0.269 C 
BRANCH  14  15
ATOM     15  N   UNL A   1      30.758  29.957  21.690  1.00  0.00    -0.357 N 
ATOM     16  H   UNL A   1      30.274  30.769  22.074  1.00  0.00     0.344 HD
ATOM     17  H   UNL A   1      30.301  29.666  20.826  1.00  0.00     0.344 HD
ATOM     18  H   UNL A   1      31.729  30.202  21.494  1.00  0.00     0.344 HD
ENDBRANCH  14  15
ENDBRANCH  13  14
ENDBRANCH  12  13
ENDBRANCH  10  12
ENDBRANCH   6  10
ENDBRANCH   3   5
ENDBRANCH   2   3
ENDBRANCH   1   2
BRANCH   1  19
ATOM     19  C   UNL A   1      35.974  20.905  24.828  1.00  0.00     0.275 C 
BRANCH  19  20
ATOM     20  O   UNL A   1      36.759  21.547  25.848  1.00  0.00    -0.458 OA
BRANCH  20  21
ATOM     21  C   UNL A   1      38.091  21.320  25.785  1.00  0.00     0.338 C 
ATOM     22  O   UNL A   1      38.650  20.372  25.257  1.00  0.00    -0.246 OA
BRANCH  21  23
ATOM     23  C   UNL A   1      38.816  22.468  26.351  1.00  0.00     0.060 A 
ATOM     24  C   UNL A   1      38.271  23.734  26.161  1.00  0.00     0.016 A 
ATOM     25  C   UNL A   1      40.053  22.321  26.980  1.00  0.00     0.016 A 
ATOM     26  C   UNL A   1      38.972  24.865  26.564  1.00  0.00     0.010 A 
ATOM     27  C   UNL A   1      40.751  23.463  27.399  1.00  0.00     0.010 A 
ATOM     28  C   UNL A   1      40.229  24.748  27.167  1.00  0.00    -0.014 A 
BRANCH  28  29
ATOM     29  C   UNL A   1      40.989  25.978  27.509  1.00  0.00     0.031 A 
ATOM     30  C   UNL A   1      40.349  27.070  28.325  1.00  0.00     0.074 A 
ATOM     31  C   UNL A   1      42.273  26.104  27.120  1.00  0.00     0.049 A 
ATOM     32  N   UNL A   1      40.849  28.219  28.702  1.00  0.00    -0.248 NA
ATOM     33  C   UNL A   1      38.970  26.839  28.781  1.00  0.00     0.031 C 
ATOM     34  C   UNL A   1      43.018  25.111  26.346  1.00  0.00     0.029 A 
ATOM     35  N   UNL A   1      43.175  27.121  27.317  1.00  0.00    -0.354 N 
ATOM     36  C   UNL A   1      39.834  28.868  29.394  1.00  0.00     0.074 A 
ATOM     37  C   UNL A   1      38.690  27.982  29.392  1.00  0.00     0.031 C 
ATOM     38  C   UNL A   1      44.264  25.565  26.134  1.00  0.00     0.029 A 
ATOM     39  C   UNL A   1      44.393  26.897  26.717  1.00  0.00     0.049 A 
ATOM     40  H   UNL A   1      42.970  27.931  27.837  1.00  0.00     0.167 HD
ATOM     41  C   UNL A   1      39.855  30.085  29.990  1.00  0.00     0.034 A 
ATOM     42  C   UNL A   1      45.484  27.682  26.627  1.00  0.00     0.034 A 
ATOM     43  C   UNL A   1      41.006  30.948  30.036  1.00  0.00     0.049 A 
ATOM     44  C   UNL A   1      45.478  29.032  27.289  1.00  0.00     0.074 A 
ATOM     45  C   UNL A   1      41.135  32.176  30.663  1.00  0.00     0.029 A 
ATOM     46  N   UNL A   1      42.224  30.679  29.433  1.00  0.00    -0.354 N 
ATOM     47  N   UNL A   1      44.541  29.587  28.019  1.00  0.00    -0.248 NA
ATOM     48  C   UNL A   1      46.685  29.855  27.130  1.00  0.00     0.031 C 
ATOM     49  C   UNL A   1      42.428  32.654  30.430  1.00  0.00     0.029 A 
ATOM     50  C   UNL A   1      43.108  31.720  29.665  1.00  0.00     0.049 A 
ATOM     51  H   UNL A   1      42.431  29.868  28.917  1.00  0.00     0.167 HD
ATOM     52  C   UNL A   1      45.052  30.815  28.424  1.00  0.00     0.074 A 
ATOM     53  C   UNL A   1      46.391  30.911  27.880  1.00  0.00     0.031 C 
ATOM     54  C   UNL A   1      44.456  31.784  29.161  1.00  0.00     0.034 A 
BRANCH  41  55
ATOM     55  C   UNL A   1      38.598  30.546  30.677  1.00  0.00     0.023 A 
ATOM     56  C   UNL A   1      38.437  30.315  32.058  1.00  0.00     0.012 A 
ATOM     57  C   UNL A   1      37.605  31.253  29.973  1.00  0.00     0.148 A 
ATOM     58  C   UNL A   1      37.294  30.758  32.722  1.00  0.00     0.002 A 
ATOM     59  C   UNL A   1      36.484  31.722  30.650  1.00  0.00     0.091 A 
ATOM     60  F   UNL A   1      37.762  31.439  28.655  1.00  0.00    -0.205 F 
ATOM     61  C   UNL A   1      36.324  31.469  32.022  1.00  0.00     0.022 A 
BRANCH  59  62
ATOM     62  S   UNL A   1      35.217  32.703  29.835  1.00  0.00     0.127 S 
ATOM     63  O   UNL A   1      34.734  31.775  28.816  1.00  0.00    -0.237 OA
ATOM     64  O   UNL A   1      34.271  32.961  30.922  1.00  0.00    -0.237 OA
ATOM     65  O   UNL A   1      35.900  33.892  29.341  1.00  0.00    -0.744 OA
ENDBRANCH  59  62
ENDBRANCH  41  55
BRANCH  42  66
ATOM     66  C   UNL A   1      46.691  27.183  25.911  1.00  0.00     0.023 A 
ATOM     67  C   UNL A   1      47.509  26.216  26.523  1.00  0.00     0.012 A 
ATOM     68  C   UNL A   1      47.004  27.623  24.609  1.00  0.00     0.148 A 
ATOM     69  C   UNL A   1      48.624  25.705  25.859  1.00  0.00     0.002 A 
ATOM     70  C   UNL A   1      48.084  27.071  23.932  1.00  0.00     0.091 A 
ATOM     71  F   UNL A   1      46.229  28.567  24.054  1.00  0.00    -0.205 F 
ATOM     72  C   UNL A   1      48.904  26.121  24.560  1.00  0.00     0.022 A 
BRANCH  70  73
ATOM     73  S   UNL A   1      48.431  27.455  22.211  1.00  0.00     0.127 S 
ATOM     74  O   UNL A   1      47.195  28.113  21.797  1.00  0.00    -0.237 OA
ATOM     75  O   UNL A   1      49.592  28.338  22.323  1.00  0.00    -0.237 OA
ATOM     76  O   UNL A   1      48.714  26.175  21.577  1.00  0.00    -0.744 OA
ENDBRANCH  70  73
ENDBRANCH  42  66
BRANCH  54  77
ATOM     77  C   UNL A   1      45.247  33.037  29.435  1.00  0.00     0.023 A 
ATOM     78  C   UNL A   1      46.087  33.090  30.565  1.00  0.00     0.012 A 
ATOM     79  C   UNL A   1      45.214  34.126  28.544  1.00  0.00     0.148 A 
ATOM     80  C   UNL A   1      46.866  34.220  30.815  1.00  0.00     0.002 A 
ATOM     81  C   UNL A   1      46.023  35.232  28.779  1.00  0.00     0.091 A 
ATOM     82  F   UNL A   1      44.391  34.067  27.488  1.00  0.00    -0.205 F 
ATOM     83  C   UNL A   1      46.843  35.285  29.918  1.00  0.00     0.022 A 
BRANCH  81  84
ATOM     84  S   UNL A   1      46.116  36.609  27.628  1.00  0.00     0.127 S 
ATOM     85  O   UNL A   1      47.096  37.476  28.276  1.00  0.00    -0.237 OA
ATOM     86  O   UNL A   1      46.588  35.964  26.402  1.00  0.00    -0.237 OA
ATOM     87  O   UNL A   1      44.762  37.141  27.540  1.00  0.00    -0.744 OA
ENDBRANCH  81  84
ENDBRANCH  54  77
ENDBRANCH  28  29
ENDBRANCH  21  23
ENDBRANCH  20  21
ENDBRANCH  19  20
ENDBRANCH   1  19
TORSDOF 19
ENDMDL
MODEL 2
REMARK VINA RESULT:     -10.3      1.046      7.874
REMARK SMILES C[C@H](SCC[NH3+])c1ccc(C(=O)OCCOC(=O)c2ccc(-c3c4nc(c(-c5cccc(S(=O)(=O)[O-])c5F)c5ccc([nH]5)c(-c5cccc(S(=O)(=O)[O-])c5F)c5nc(c(-c6cccc(S(=O)(=O)[O-])c6F)c6ccc3[nH]6)C=C5)C=C4)cc2)o1
REMARK SMILES IDX 14 1 13 2 11 3 12 4 10 5 7 6 8 7 82 8 9 9 2 10 1 11 3 12
REMARK SMILES IDX 4 13 5 14 6 15 15 19 16 20 17 21 18 22 19 23 20 24 81 25
REMARK SMILES IDX 21 26 80 27 22 28 23 29 24 30 74 31 25 32 79 33 73 34 75 35
REMARK SMILES IDX 26 36 78 37 72 38 71 39 27 41 59 42 39 43 58 44 40 45 43 46
REMARK SMILES IDX 57 47 76 48 41 49 42 50 56 52 77 53 44 54 28 55 29 56 37 57
REMARK SMILES IDX 30 58 32 59 38 60 31 61 33 62 34 63 35 64 36 65 60 66 61 67
REMARK SMILES IDX 69 68 62 69 64 70 70 71 63 72 65 73 66 74 67 75 68 76 45 77
REMARK SMILES IDX 46 78 54 79 47 80 49 81 55 82 48 83 50 84 51 85 52 86 53 87
REMARK H PARENT 6 16 6 17 6 18 75 40 43 51
REMARK Flexibility Score: inf
ROOT
ATOM      1  C   UNL A   1      35.775  20.184  24.995  1.00  0.00     0.275 C 
ENDROOT
BRANCH   1   2
ATOM      2  O   UNL A   1      35.321  21.421  24.412  1.00  0.00    -0.456 OA
BRANCH   2   3
ATOM      3  C   UNL A   1      34.437  22.142  25.170  1.00  0.00     0.374 C 
ATOM      4  O   UNL A   1      34.121  21.855  26.313  1.00  0.00    -0.242 OA
BRANCH   3   5
ATOM      5  C   UNL A   1      34.009  23.321  24.448  1.00  0.00     0.211 A 
ATOM      6  C   UNL A   1      32.912  25.240  24.281  1.00  0.00     0.117 A 
ATOM      7  C   UNL A   1      33.671  25.118  23.134  1.00  0.00     0.048 A 
ATOM      8  O   UNL A   1      33.070  24.122  25.046  1.00  0.00    -0.453 OA
ATOM      9  C   UNL A   1      34.382  23.894  23.246  1.00  0.00     0.058 A 
BRANCH   6  10
ATOM     10  C   UNL A   1      31.988  26.279  24.834  1.00  0.00     0.110 C 
ATOM     11  C   UNL A   1      32.005  26.275  26.361  1.00  0.00     0.028 C 
BRANCH  10  12
ATOM     12  S   UNL A   1      30.251  26.002  24.297  1.00  0.00    -0.145 SA
BRANCH  12  13
ATOM     13  C   UNL A   1      29.915  27.591  23.456  1.00  0.00     0.131 C 
BRANCH  13  14
ATOM     14  C   UNL A   1      30.857  27.910  22.283  1.00  0.00     0.269 C 
BRANCH  14  15
ATOM     15  N   UNL A   1      31.370  29.280  22.276  1.00  0.00    -0.357 N 
ATOM     16  H   UNL A   1      32.137  29.360  22.943  1.00  0.00     0.344 HD
ATOM     17  H   UNL A   1      30.623  29.924  22.537  1.00  0.00     0.344 HD
ATOM     18  H   UNL A   1      31.707  29.512  21.342  1.00  0.00     0.344 HD
ENDBRANCH  14  15
ENDBRANCH  13  14
ENDBRANCH  12  13
ENDBRANCH  10  12
ENDBRANCH   6  10
ENDBRANCH   3   5
ENDBRANCH   2   3
ENDBRANCH   1   2
BRANCH   1  19
ATOM     19  C   UNL A   1      37.304  20.082  24.965  1.00  0.00     0.275 C 
BRANCH  19  20
ATOM     20  O   UNL A   1      37.928  21.242  25.545  1.00  0.00    -0.458 OA
BRANCH  20  21
ATOM     21  C   UNL A   1      39.138  21.028  26.111  1.00  0.00     0.338 C 
ATOM     22  O   UNL A   1      39.783  19.992  26.095  1.00  0.00    -0.246 OA
BRANCH  21  23
ATOM     23  C   UNL A   1      39.653  22.289  26.666  1.00  0.00     0.060 A 
ATOM     24  C   UNL A   1      39.114  23.477  26.181  1.00  0.00     0.016 A 
ATOM     25  C   UNL A   1      40.709  22.316  27.578  1.00  0.00     0.016 A 
ATOM     26  C   UNL A   1      39.645  24.699  26.576  1.00  0.00     0.010 A 
ATOM     27  C   UNL A   1      41.233  23.551  27.986  1.00  0.00     0.010 A 
ATOM     28  C   UNL A   1      40.725  24.753  27.466  1.00  0.00    -0.014 A 
BRANCH  28  29
ATOM     29  C   UNL A   1      41.325  26.071  27.802  1.00  0.00     0.031 A 
ATOM     30  C   UNL A   1      42.724  26.408  27.361  1.00  0.00     0.074 A 
ATOM     31  C   UNL A   1      40.601  26.987  28.474  1.00  0.00     0.049 A 
ATOM     32  N   UNL A   1      43.419  27.496  27.578  1.00  0.00    -0.248 NA
ATOM     33  C   UNL A   1      43.435  25.393  26.567  1.00  0.00     0.031 C 
ATOM     34  C   UNL A   1      39.227  26.796  28.939  1.00  0.00     0.029 A 
ATOM     35  N   UNL A   1      40.920  28.257  28.886  1.00  0.00    -0.354 N 
ATOM     36  C   UNL A   1      44.661  27.279  26.994  1.00  0.00     0.074 A 
ATOM     37  C   UNL A   1      44.625  25.957  26.406  1.00  0.00     0.031 C 
ATOM     38  C   UNL A   1      38.820  27.907  29.572  1.00  0.00     0.029 A 
ATOM     39  C   UNL A   1      39.916  28.872  29.597  1.00  0.00     0.049 A 
ATOM     40  H   UNL A   1      41.784  28.686  28.693  1.00  0.00     0.167 HD
ATOM     41  C   UNL A   1      45.730  28.108  26.939  1.00  0.00     0.034 A 
ATOM     42  C   UNL A   1      39.883  30.068  30.216  1.00  0.00     0.034 A 
ATOM     43  C   UNL A   1      45.754  29.442  27.480  1.00  0.00     0.049 A 
ATOM     44  C   UNL A   1      41.087  30.965  30.149  1.00  0.00     0.074 A 
ATOM     45  C   UNL A   1      46.777  30.374  27.425  1.00  0.00     0.029 A 
ATOM     46  N   UNL A   1      44.712  30.035  28.176  1.00  0.00    -0.354 N 
ATOM     47  N   UNL A   1      42.218  30.781  29.511  1.00  0.00    -0.248 NA
ATOM     48  C   UNL A   1      41.005  32.243  30.870  1.00  0.00     0.031 C 
ATOM     49  C   UNL A   1      46.356  31.527  28.097  1.00  0.00     0.029 A 
ATOM     50  C   UNL A   1      45.068  31.316  28.563  1.00  0.00     0.049 A 
ATOM     51  H   UNL A   1      43.847  29.608  28.366  1.00  0.00     0.167 HD
ATOM     52  C   UNL A   1      42.974  31.926  29.736  1.00  0.00     0.074 A 
ATOM     53  C   UNL A   1      42.162  32.810  30.547  1.00  0.00     0.031 C 
ATOM     54  C   UNL A   1      44.235  32.208  29.327  1.00  0.00     0.034 A 
BRANCH  41  55
ATOM     55  C   UNL A   1      46.964  27.610  26.236  1.00  0.00     0.023 A 
ATOM     56  C   UNL A   1      47.893  26.819  26.941  1.00  0.00     0.012 A 
ATOM     57  C   UNL A   1      47.178  27.875  24.870  1.00  0.00     0.148 A 
ATOM     58  C   UNL A   1      49.029  26.322  26.304  1.00  0.00     0.002 A 
ATOM     59  C   UNL A   1      48.295  27.347  24.233  1.00  0.00     0.091 A 
ATOM     60  F   UNL A   1      46.297  28.652  24.222  1.00  0.00    -0.205 F 
ATOM     61  C   UNL A   1      49.225  26.577  24.949  1.00  0.00     0.022 A 
BRANCH  59  62
ATOM     62  S   UNL A   1      48.588  27.574  22.474  1.00  0.00     0.127 S 
ATOM     63  O   UNL A   1      48.642  26.192  22.002  1.00  0.00    -0.237 OA
ATOM     64  O   UNL A   1      47.400  28.316  22.050  1.00  0.00    -0.237 OA
ATOM     65  O   UNL A   1      49.832  28.327  22.377  1.00  0.00    -0.744 OA
ENDBRANCH  59  62
ENDBRANCH  41  55
BRANCH  42  66
ATOM     66  C   UNL A   1      38.644  30.498  30.921  1.00  0.00     0.023 A 
ATOM     67  C   UNL A   1      38.524  30.281  32.306  1.00  0.00     0.012 A 
ATOM     68  C   UNL A   1      37.606  31.164  30.237  1.00  0.00     0.148 A 
ATOM     69  C   UNL A   1      37.390  30.707  32.997  1.00  0.00     0.002 A 
ATOM     70  C   UNL A   1      36.504  31.634  30.941  1.00  0.00     0.091 A 
ATOM     71  F   UNL A   1      37.726  31.335  28.913  1.00  0.00    -0.205 F 
ATOM     72  C   UNL A   1      36.387  31.396  32.319  1.00  0.00     0.022 A 
BRANCH  70  73
ATOM     73  S   UNL A   1      35.236  32.644  30.165  1.00  0.00     0.127 S 
ATOM     74  O   UNL A   1      34.324  32.886  31.279  1.00  0.00    -0.237 OA
ATOM     75  O   UNL A   1      36.001  33.813  29.729  1.00  0.00    -0.237 OA
ATOM     76  O   UNL A   1      34.709  31.835  29.075  1.00  0.00    -0.744 OA
ENDBRANCH  70  73
ENDBRANCH  42  66
BRANCH  54  77
ATOM     77  C   UNL A   1      44.821  33.533  29.739  1.00  0.00     0.023 A 
ATOM     78  C   UNL A   1      45.580  33.615  30.922  1.00  0.00     0.012 A 
ATOM     79  C   UNL A   1      44.681  34.673  28.925  1.00  0.00     0.148 A 
ATOM     80  C   UNL A   1      46.174  34.819  31.300  1.00  0.00     0.002 A 
ATOM     81  C   UNL A   1      45.309  35.860  29.289  1.00  0.00     0.091 A 
ATOM     82  F   UNL A   1      43.935  34.583  27.815  1.00  0.00    -0.205 F 
ATOM     83  C   UNL A   1      46.049  35.937  30.480  1.00  0.00     0.022 A 
BRANCH  81  84
ATOM     84  S   UNL A   1      45.267  37.321  28.244  1.00  0.00     0.127 S 
ATOM     85  O   UNL A   1      46.159  38.229  28.961  1.00  0.00    -0.237 OA
ATOM     86  O   UNL A   1      45.798  36.820  26.976  1.00  0.00    -0.237 OA
ATOM     87  O   UNL A   1      43.868  37.725  28.188  1.00  0.00    -0.744 OA
ENDBRANCH  81  84
ENDBRANCH  54  77
ENDBRANCH  28  29
ENDBRANCH  21  23
ENDBRANCH  20  21
ENDBRANCH  19  20
ENDBRANCH   1  19
TORSDOF 19
ENDMDL
MODEL 3
REMARK VINA RESULT:     -10.3      5.749     10.459
REMARK SMILES C[C@H](SCC[NH3+])c1ccc(C(=O)OCCOC(=O)c2ccc(-c3c4nc(c(-c5cccc(S(=O)(=O)[O-])c5F)c5ccc([nH]5)c(-c5cccc(S(=O)(=O)[O-])c5F)c5nc(c(-c6cccc(S(=O)(=O)[O-])c6F)c6ccc3[nH]6)C=C5)C=C4)cc2)o1
REMARK SMILES IDX 14 1 13 2 11 3 12 4 10 5 7 6 8 7 82 8 9 9 2 10 1 11 3 12
REMARK SMILES IDX 4 13 5 14 6 15 15 19 16 20 17 21 18 22 19 23 20 24 81 25
REMARK SMILES IDX 21 26 80 27 22 28 23 29 24 30 74 31 25 32 79 33 73 34 75 35
REMARK SMILES IDX 26 36 78 37 72 38 71 39 27 41 59 42 39 43 58 44 40 45 43 46
REMARK SMILES IDX 57 47 76 48 41 49 42 50 56 52 77 53 44 54 28 55 29 56 37 57
REMARK SMILES IDX 30 58 32 59 38 60 31 61 33 62 34 63 35 64 36 65 60 66 61 67
REMARK SMILES IDX 69 68 62 69 64 70 70 71 63 72 65 73 66 74 67 75 68 76 45 77
REMARK SMILES IDX 46 78 54 79 47 80 49 81 55 82 48 83 50 84 51 85 52 86 53 87
REMARK H PARENT 6 16 6 17 6 18 75 40 43 51
REMARK Flexibility Score: inf
ROOT
ATOM      1  C   UNL A   1      31.412  28.750  25.430  1.00  0.00     0.275 C 
ENDROOT
BRANCH   1   2
ATOM      2  O   UNL A   1      31.473  27.651  26.360  1.00  0.00    -0.456 OA
BRANCH   2   3
ATOM      3  C   UNL A   1      32.477  26.746  26.142  1.00  0.00     0.374 C 
ATOM      4  O   UNL A   1      33.661  27.037  26.081  1.00  0.00    -0.242 OA
BRANCH   3   5
ATOM      5  C   UNL A   1      31.935  25.406  26.077  1.00  0.00     0.211 A 
ATOM      6  C   UNL A   1      32.054  23.215  26.387  1.00  0.00     0.117 A 
ATOM      7  C   UNL A   1      30.752  23.492  26.022  1.00  0.00     0.048 A 
ATOM      8  O   UNL A   1      32.784  24.367  26.359  1.00  0.00    -0.453 OA
ATOM      9  C   UNL A   1      30.673  24.897  25.834  1.00  0.00     0.058 A 
BRANCH   6  10
ATOM     10  C   UNL A   1      32.806  21.980  26.776  1.00  0.00     0.110 C 
ATOM     11  C   UNL A   1      33.794  22.269  27.903  1.00  0.00     0.028 C 
BRANCH  10  12
ATOM     12  S   UNL A   1      33.760  21.289  25.364  1.00  0.00    -0.145 SA
BRANCH  12  13
ATOM     13  C   UNL A   1      32.502  20.178  24.636  1.00  0.00     0.131 C 
BRANCH  13  14
ATOM     14  C   UNL A   1      32.610  18.709  25.077  1.00  0.00     0.269 C 
BRANCH  14  15
ATOM     15  N   UNL A   1      32.901  18.526  26.499  1.00  0.00    -0.357 N 
ATOM     16  H   UNL A   1      33.061  17.537  26.689  1.00  0.00     0.344 HD
ATOM     17  H   UNL A   1      32.111  18.856  27.053  1.00  0.00     0.344 HD
ATOM     18  H   UNL A   1      33.735  19.058  26.746  1.00  0.00     0.344 HD
ENDBRANCH  14  15
ENDBRANCH  13  14
ENDBRANCH  12  13
ENDBRANCH  10  12
ENDBRANCH   6  10
ENDBRANCH   3   5
ENDBRANCH   2   3
ENDBRANCH   1   2
BRANCH   1  19
ATOM     19  C   UNL A   1      31.699  30.085  26.126  1.00  0.00     0.275 C 
BRANCH  19  20
ATOM     20  O   UNL A   1      33.109  30.370  26.174  1.00  0.00    -0.458 OA
BRANCH  20  21
ATOM     21  C   UNL A   1      33.476  31.340  27.042  1.00  0.00     0.338 C 
ATOM     22  O   UNL A   1      32.809  32.299  27.397  1.00  0.00    -0.246 OA
BRANCH  21  23
ATOM     23  C   UNL A   1      34.788  31.014  27.622  1.00  0.00     0.060 A 
ATOM     24  C   UNL A   1      35.048  29.680  27.923  1.00  0.00     0.016 A 
ATOM     25  C   UNL A   1      35.715  32.004  27.950  1.00  0.00     0.016 A 
ATOM     26  C   UNL A   1      36.219  29.328  28.585  1.00  0.00     0.010 A 
ATOM     27  C   UNL A   1      36.902  31.644  28.605  1.00  0.00     0.010 A 
ATOM     28  C   UNL A   1      37.150  30.305  28.954  1.00  0.00    -0.014 A 
BRANCH  28  29
ATOM     29  C   UNL A   1      38.351  29.907  29.736  1.00  0.00     0.031 A 
ATOM     30  C   UNL A   1      39.342  28.928  29.166  1.00  0.00     0.074 A 
ATOM     31  C   UNL A   1      38.574  30.453  30.947  1.00  0.00     0.049 A 
ATOM     32  N   UNL A   1      40.433  28.449  29.708  1.00  0.00    -0.248 NA
ATOM     33  C   UNL A   1      39.077  28.425  27.809  1.00  0.00     0.031 C 
ATOM     34  C   UNL A   1      37.706  31.430  31.603  1.00  0.00     0.029 A 
ATOM     35  N   UNL A   1      39.598  30.261  31.843  1.00  0.00    -0.354 N 
ATOM     36  C   UNL A   1      40.957  27.554  28.784  1.00  0.00     0.074 A 
ATOM     37  C   UNL A   1      40.069  27.560  27.641  1.00  0.00     0.031 C 
ATOM     38  C   UNL A   1      38.230  31.753  32.796  1.00  0.00     0.029 A 
ATOM     39  C   UNL A   1      39.448  30.975  33.008  1.00  0.00     0.049 A 
ATOM     40  H   UNL A   1      40.364  29.668  31.668  1.00  0.00     0.167 HD
ATOM     41  C   UNL A   1      42.083  26.805  28.870  1.00  0.00     0.034 A 
ATOM     42  C   UNL A   1      40.192  30.991  34.131  1.00  0.00     0.034 A 
ATOM     43  C   UNL A   1      42.995  26.833  29.983  1.00  0.00     0.049 A 
ATOM     44  C   UNL A   1      41.431  30.142  34.205  1.00  0.00     0.074 A 
ATOM     45  C   UNL A   1      44.188  26.146  30.134  1.00  0.00     0.029 A 
ATOM     46  N   UNL A   1      42.818  27.582  31.136  1.00  0.00    -0.354 N 
ATOM     47  N   UNL A   1      41.961  29.375  33.283  1.00  0.00    -0.248 NA
ATOM     48  C   UNL A   1      42.185  30.175  35.466  1.00  0.00     0.031 C 
ATOM     49  C   UNL A   1      44.727  26.473  31.383  1.00  0.00     0.029 A 
ATOM     50  C   UNL A   1      43.874  27.370  32.006  1.00  0.00     0.049 A 
ATOM     51  H   UNL A   1      42.054  28.177  31.309  1.00  0.00     0.167 HD
ATOM     52  C   UNL A   1      43.120  28.850  33.844  1.00  0.00     0.074 A 
ATOM     53  C   UNL A   1      43.229  29.408  35.176  1.00  0.00     0.031 C 
ATOM     54  C   UNL A   1      44.001  27.968  33.311  1.00  0.00     0.034 A 
BRANCH  41  55
ATOM     55  C   UNL A   1      42.415  25.910  27.707  1.00  0.00     0.023 A 
ATOM     56  C   UNL A   1      43.245  26.392  26.675  1.00  0.00     0.012 A 
ATOM     57  C   UNL A   1      41.955  24.580  27.660  1.00  0.00     0.148 A 
ATOM     58  C   UNL A   1      43.591  25.572  25.602  1.00  0.00     0.002 A 
ATOM     59  C   UNL A   1      42.332  23.758  26.603  1.00  0.00     0.091 A 
ATOM     60  F   UNL A   1      41.144  24.147  28.636  1.00  0.00    -0.205 F 
ATOM     61  C   UNL A   1      43.143  24.255  25.570  1.00  0.00     0.022 A 
BRANCH  59  62
ATOM     62  S   UNL A   1      41.853  22.028  26.521  1.00  0.00     0.127 S 
ATOM     63  O   UNL A   1      42.627  21.560  25.374  1.00  0.00    -0.237 OA
ATOM     64  O   UNL A   1      42.308  21.514  27.814  1.00  0.00    -0.237 OA
ATOM     65  O   UNL A   1      40.405  22.030  26.353  1.00  0.00    -0.744 OA
ENDBRANCH  59  62
ENDBRANCH  41  55
BRANCH  42  66
ATOM     66  C   UNL A   1      39.800  31.876  35.262  1.00  0.00     0.023 A 
ATOM     67  C   UNL A   1      40.234  33.214  35.277  1.00  0.00     0.012 A 
ATOM     68  C   UNL A   1      38.958  31.416  36.294  1.00  0.00     0.148 A 
ATOM     69  C   UNL A   1      39.850  34.075  36.304  1.00  0.00     0.002 A 
ATOM     70  C   UNL A   1      38.535  32.293  37.286  1.00  0.00     0.091 A 
ATOM     71  F   UNL A   1      38.578  30.130  36.279  1.00  0.00    -0.205 F 
ATOM     72  C   UNL A   1      38.990  33.620  37.300  1.00  0.00     0.022 A 
BRANCH  70  73
ATOM     73  S   UNL A   1      37.324  31.820  38.526  1.00  0.00     0.127 S 
ATOM     74  O   UNL A   1      37.023  30.445  38.141  1.00  0.00    -0.237 OA
ATOM     75  O   UNL A   1      38.087  31.960  39.767  1.00  0.00    -0.237 OA
ATOM     76  O   UNL A   1      36.232  32.774  38.387  1.00  0.00    -0.744 OA
ENDBRANCH  70  73
ENDBRANCH  42  66
BRANCH  54  77
ATOM     77  C   UNL A   1      45.172  27.552  34.161  1.00  0.00     0.023 A 
ATOM     78  C   UNL A   1      46.343  28.335  34.154  1.00  0.00     0.012 A 
ATOM     79  C   UNL A   1      45.089  26.436  35.015  1.00  0.00     0.148 A 
ATOM     80  C   UNL A   1      47.424  27.998  34.969  1.00  0.00     0.002 A 
ATOM     81  C   UNL A   1      46.156  26.130  35.853  1.00  0.00     0.091 A 
ATOM     82  F   UNL A   1      43.976  25.689  34.990  1.00  0.00    -0.205 F 
ATOM     83  C   UNL A   1      47.327  26.905  35.826  1.00  0.00     0.022 A 
BRANCH  81  84
ATOM     84  S   UNL A   1      46.078  24.788  37.046  1.00  0.00     0.127 S 
ATOM     85  O   UNL A   1      47.438  24.259  36.992  1.00  0.00    -0.237 OA
ATOM     86  O   UNL A   1      45.745  25.488  38.288  1.00  0.00    -0.237 OA
ATOM     87  O   UNL A   1      45.033  23.894  36.565  1.00  0.00    -0.744 OA
ENDBRANCH  81  84
ENDBRANCH  54  77
ENDBRANCH  28  29
ENDBRANCH  21  23
ENDBRANCH  20  21
ENDBRANCH  19  20
ENDBRANCH   1  19
TORSDOF 19
ENDMDL
