MODEL 1
REMARK VINA RESULT:     -10.7      0.000      0.000
REMARK SMILES CC[C@@H]1SC[C@@H](C(=O)OCCOC(=O)c2ccc(-c3c4nc(c(-c5cccc(S(=O)(=O)[O-])c5F)c5ccc([nH]5)c(-c5cccc(S(=O)(=O)[O-])c5F)c5nc(c(-c6cccc(S(=O)(=O)[O-])c6F)c6ccc3[nH]6)C=C5)C=C4)cc2)N1C(=O)c1ccc(C[NH3+])o1
REMARK SMILES IDX 10 1 9 2 7 3 8 4 6 5 3 6 4 7 78 8 5 9 2 10 1 11 79 12 80 13
REMARK SMILES IDX 81 14 82 15 87 16 83 17 84 18 85 19 86 20 11 24 12 25 13 26
REMARK SMILES IDX 14 27 15 28 16 29 77 30 17 31 76 32 18 33 19 34 20 35 70 36
REMARK SMILES IDX 21 37 75 38 69 39 71 40 22 41 74 42 68 43 67 44 23 46 55 47
REMARK SMILES IDX 35 48 54 49 36 50 39 51 53 52 72 53 37 54 38 55 52 57 73 58
REMARK SMILES IDX 40 59 24 60 25 61 33 62 26 63 28 64 34 65 27 66 29 67 30 68
REMARK SMILES IDX 31 69 32 70 56 71 57 72 65 73 58 74 60 75 66 76 59 77 61 78
REMARK SMILES IDX 62 79 63 80 64 81 41 82 42 83 50 84 43 85 45 86 51 87 44 88
REMARK SMILES IDX 46 89 47 90 48 91 49 92
REMARK H PARENT 86 21 86 22 86 23 71 45 39 56
REMARK Flexibility Score: inf
ROOT
ATOM      1  C   UNL A   1      35.808  22.003  24.106  1.00  0.00     0.274 C 
ENDROOT
BRANCH   1   2
ATOM      2  O   UNL A   1      34.474  21.871  24.631  1.00  0.00    -0.461 OA
BRANCH   2   3
ATOM      3  C   UNL A   1      34.019  22.925  25.365  1.00  0.00     0.329 C 
ATOM      4  O   UNL A   1      34.675  23.507  26.225  1.00  0.00    -0.250 OA
BRANCH   3   5
ATOM      5  C   UNL A   1      32.519  23.210  25.147  1.00  0.00     0.206 C 
ATOM      6  C   UNL A   1      32.143  25.221  23.749  1.00  0.00     0.144 C 
ATOM      7  S   UNL A   1      32.660  23.818  22.639  1.00  0.00    -0.134 SA
ATOM      8  N   UNL A   1      32.112  24.630  25.091  1.00  0.00    -0.309 N 
ATOM      9  C   UNL A   1      32.132  22.562  23.832  1.00  0.00     0.109 C 
BRANCH   6  10
ATOM     10  C   UNL A   1      30.803  25.645  23.115  1.00  0.00     0.033 C 
ATOM     11  C   UNL A   1      30.491  27.127  23.084  1.00  0.00     0.007 C 
ENDBRANCH   6  10
BRANCH   8  12
ATOM     12  C   UNL A   1      31.849  25.240  26.320  1.00  0.00     0.291 C 
ATOM     13  O   UNL A   1      31.231  24.601  27.176  1.00  0.00    -0.265 OA
BRANCH  12  14
ATOM     14  C   UNL A   1      32.171  26.625  26.569  1.00  0.00     0.192 A 
ATOM     15  C   UNL A   1      31.346  27.606  27.094  1.00  0.00     0.057 A 
ATOM     16  O   UNL A   1      33.448  27.110  26.457  1.00  0.00    -0.450 OA
ATOM     17  C   UNL A   1      32.140  28.752  27.294  1.00  0.00     0.052 A 
ATOM     18  C   UNL A   1      33.428  28.388  26.959  1.00  0.00     0.159 A 
BRANCH  18  19
ATOM     19  C   UNL A   1      34.722  29.100  27.111  1.00  0.00     0.335 C 
BRANCH  19  20
ATOM     20  N   UNL A   1      34.556  30.542  26.950  1.00  0.00    -0.351 N 
ATOM     21  H   UNL A   1      33.721  30.728  26.394  1.00  0.00     0.344 HD
ATOM     22  H   UNL A   1      35.373  30.927  26.477  1.00  0.00     0.344 HD
ATOM     23  H   UNL A   1      34.458  30.978  27.867  1.00  0.00     0.344 HD
ENDBRANCH  19  20
ENDBRANCH  18  19
ENDBRANCH  12  14
ENDBRANCH   8  12
ENDBRANCH   3   5
ENDBRANCH   2   3
ENDBRANCH   1   2
BRANCH   1  24
ATOM     24  C   UNL A   1      36.765  21.006  24.753  1.00  0.00     0.275 C 
BRANCH  24  25
ATOM     25  O   UNL A   1      37.347  21.563  25.939  1.00  0.00    -0.458 OA
BRANCH  25  26
ATOM     26  C   UNL A   1      38.682  21.380  26.054  1.00  0.00     0.338 C 
ATOM     27  O   UNL A   1      39.326  20.389  25.739  1.00  0.00    -0.246 OA
BRANCH  26  28
ATOM     28  C   UNL A   1      39.285  22.603  26.590  1.00  0.00     0.060 A 
ATOM     29  C   UNL A   1      38.781  23.840  26.184  1.00  0.00     0.016 A 
ATOM     30  C   UNL A   1      40.407  22.525  27.414  1.00  0.00     0.016 A 
ATOM     31  C   UNL A   1      39.431  25.011  26.557  1.00  0.00     0.010 A 
ATOM     32  C   UNL A   1      41.032  23.705  27.823  1.00  0.00     0.010 A 
ATOM     33  C   UNL A   1      40.566  24.954  27.374  1.00  0.00    -0.014 A 
BRANCH  33  34
ATOM     34  C   UNL A   1      41.298  26.196  27.719  1.00  0.00     0.031 A 
ATOM     35  C   UNL A   1      40.648  27.222  28.604  1.00  0.00     0.074 A 
ATOM     36  C   UNL A   1      42.533  26.406  27.225  1.00  0.00     0.049 A 
ATOM     37  N   UNL A   1      41.059  28.424  28.914  1.00  0.00    -0.248 NA
ATOM     38  C   UNL A   1      39.359  26.852  29.214  1.00  0.00     0.031 C 
ATOM     39  C   UNL A   1      43.271  25.475  26.371  1.00  0.00     0.029 A 
ATOM     40  N   UNL A   1      43.375  27.482  27.354  1.00  0.00    -0.354 N 
ATOM     41  C   UNL A   1      40.061  28.973  29.711  1.00  0.00     0.074 A 
ATOM     42  C   UNL A   1      39.023  27.972  29.840  1.00  0.00     0.031 C 
ATOM     43  C   UNL A   1      44.450  26.025  26.039  1.00  0.00     0.029 A 
ATOM     44  C   UNL A   1      44.530  27.363  26.617  1.00  0.00     0.049 A 
ATOM     45  H   UNL A   1      43.171  28.263  27.917  1.00  0.00     0.167 HD
ATOM     46  C   UNL A   1      40.023  30.194  30.293  1.00  0.00     0.034 A 
ATOM     47  C   UNL A   1      45.526  28.246  26.408  1.00  0.00     0.034 A 
ATOM     48  C   UNL A   1      41.084  31.162  30.207  1.00  0.00     0.049 A 
ATOM     49  C   UNL A   1      45.456  29.596  27.071  1.00  0.00     0.074 A 
ATOM     50  C   UNL A   1      41.152  32.416  30.789  1.00  0.00     0.029 A 
ATOM     51  N   UNL A   1      42.265  30.981  29.505  1.00  0.00    -0.354 N 
ATOM     52  N   UNL A   1      44.541  30.071  27.880  1.00  0.00    -0.248 NA
ATOM     53  C   UNL A   1      46.567  30.522  26.809  1.00  0.00     0.031 C 
ATOM     54  C   UNL A   1      42.376  32.995  30.434  1.00  0.00     0.029 A 
ATOM     55  C   UNL A   1      43.071  32.097  29.639  1.00  0.00     0.049 A 
ATOM     56  H   UNL A   1      42.495  30.176  28.987  1.00  0.00     0.167 HD
ATOM     57  C   UNL A   1      44.976  31.339  28.245  1.00  0.00     0.074 A 
ATOM     58  C   UNL A   1      46.251  31.547  27.590  1.00  0.00     0.031 C 
ATOM     59  C   UNL A   1      44.366  32.259  29.033  1.00  0.00     0.034 A 
BRANCH  46  60
ATOM     60  C   UNL A   1      38.809  30.543  31.111  1.00  0.00     0.023 A 
ATOM     61  C   UNL A   1      38.800  30.259  32.491  1.00  0.00     0.012 A 
ATOM     62  C   UNL A   1      37.714  31.214  30.534  1.00  0.00     0.148 A 
ATOM     63  C   UNL A   1      37.708  30.618  33.281  1.00  0.00     0.002 A 
ATOM     64  C   UNL A   1      36.644  31.600  31.334  1.00  0.00     0.091 A 
ATOM     65  F   UNL A   1      37.733  31.454  29.215  1.00  0.00    -0.205 F 
ATOM     66  C   UNL A   1      36.637  31.297  32.706  1.00  0.00     0.022 A 
BRANCH  64  67
ATOM     67  S   UNL A   1      35.249  32.540  30.701  1.00  0.00     0.127 S 
ATOM     68  O   UNL A   1      35.858  33.848  30.465  1.00  0.00    -0.237 OA
ATOM     69  O   UNL A   1      34.903  31.801  29.486  1.00  0.00    -0.237 OA
ATOM     70  O   UNL A   1      34.234  32.501  31.743  1.00  0.00    -0.744 OA
ENDBRANCH  64  67
ENDBRANCH  46  60
BRANCH  47  71
ATOM     71  C   UNL A   1      46.688  27.869  25.556  1.00  0.00     0.023 A 
ATOM     72  C   UNL A   1      46.625  28.085  24.166  1.00  0.00     0.012 A 
ATOM     73  C   UNL A   1      47.863  27.325  26.112  1.00  0.00     0.148 A 
ATOM     74  C   UNL A   1      47.699  27.743  23.343  1.00  0.00     0.002 A 
ATOM     75  C   UNL A   1      48.950  27.040  25.293  1.00  0.00     0.091 A 
ATOM     76  F   UNL A   1      47.899  27.100  27.433  1.00  0.00    -0.205 F 
ATOM     77  C   UNL A   1      48.865  27.232  23.907  1.00  0.00     0.022 A 
BRANCH  75  78
ATOM     78  S   UNL A   1      50.528  26.508  25.968  1.00  0.00     0.127 S 
ATOM     79  O   UNL A   1      51.345  26.386  24.765  1.00  0.00    -0.237 OA
ATOM     80  O   UNL A   1      50.885  27.627  26.844  1.00  0.00    -0.237 OA
ATOM     81  O   UNL A   1      50.240  25.269  26.679  1.00  0.00    -0.744 OA
ENDBRANCH  75  78
ENDBRANCH  47  71
BRANCH  59  82
ATOM     82  C   UNL A   1      45.079  33.565  29.254  1.00  0.00     0.023 A 
ATOM     83  C   UNL A   1      45.910  33.720  30.381  1.00  0.00     0.012 A 
ATOM     84  C   UNL A   1      44.989  34.608  28.312  1.00  0.00     0.148 A 
ATOM     85  C   UNL A   1      46.620  34.902  30.581  1.00  0.00     0.002 A 
ATOM     86  C   UNL A   1      45.730  35.769  28.497  1.00  0.00     0.091 A 
ATOM     87  F   UNL A   1      44.175  34.450  27.257  1.00  0.00    -0.205 F 
ATOM     88  C   UNL A   1      46.540  35.921  29.634  1.00  0.00     0.022 A 
BRANCH  86  89
ATOM     89  S   UNL A   1      45.752  37.092  27.283  1.00  0.00     0.127 S 
ATOM     90  O   UNL A   1      46.618  38.076  27.928  1.00  0.00    -0.237 OA
ATOM     91  O   UNL A   1      46.340  36.438  26.113  1.00  0.00    -0.237 OA
ATOM     92  O   UNL A   1      44.362  37.495  27.110  1.00  0.00    -0.744 OA
ENDBRANCH  86  89
ENDBRANCH  59  82
ENDBRANCH  33  34
ENDBRANCH  26  28
ENDBRANCH  25  26
ENDBRANCH  24  25
ENDBRANCH   1  24
TORSDOF 19
ENDMDL
MODEL 2
REMARK VINA RESULT:     -10.5      5.218      9.975
REMARK SMILES CC[C@@H]1SC[C@@H](C(=O)OCCOC(=O)c2ccc(-c3c4nc(c(-c5cccc(S(=O)(=O)[O-])c5F)c5ccc([nH]5)c(-c5cccc(S(=O)(=O)[O-])c5F)c5nc(c(-c6cccc(S(=O)(=O)[O-])c6F)c6ccc3[nH]6)C=C5)C=C4)cc2)N1C(=O)c1ccc(C[NH3+])o1
REMARK SMILES IDX 10 1 9 2 7 3 8 4 6 5 3 6 4 7 78 8 5 9 2 10 1 11 79 12 80 13
REMARK SMILES IDX 81 14 82 15 87 16 83 17 84 18 85 19 86 20 11 24 12 25 13 26
REMARK SMILES IDX 14 27 15 28 16 29 77 30 17 31 76 32 18 33 19 34 20 35 70 36
REMARK SMILES IDX 21 37 75 38 69 39 71 40 22 41 74 42 68 43 67 44 23 46 55 47
REMARK SMILES IDX 35 48 54 49 36 50 39 51 53 52 72 53 37 54 38 55 52 57 73 58
REMARK SMILES IDX 40 59 24 60 25 61 33 62 26 63 28 64 34 65 27 66 29 67 30 68
REMARK SMILES IDX 31 69 32 70 56 71 57 72 65 73 58 74 60 75 66 76 59 77 61 78
REMARK SMILES IDX 62 79 63 80 64 81 41 82 42 83 50 84 43 85 45 86 51 87 44 88
REMARK SMILES IDX 46 89 47 90 48 91 49 92
REMARK H PARENT 86 21 86 22 86 23 71 45 39 56
REMARK Flexibility Score: inf
ROOT
ATOM      1  C   UNL A   1      31.535  29.669  25.405  1.00  0.00     0.274 C 
ENDROOT
BRANCH   1   2
ATOM      2  O   UNL A   1      32.441  28.602  25.738  1.00  0.00    -0.461 OA
BRANCH   2   3
ATOM      3  C   UNL A   1      31.860  27.428  26.117  1.00  0.00     0.329 C 
ATOM      4  O   UNL A   1      31.115  27.303  27.084  1.00  0.00    -0.250 OA
BRANCH   3   5
ATOM      5  C   UNL A   1      32.378  26.214  25.319  1.00  0.00     0.206 C 
ATOM      6  C   UNL A   1      30.532  24.882  24.342  1.00  0.00     0.144 C 
ATOM      7  S   UNL A   1      30.758  26.420  23.316  1.00  0.00    -0.134 SA
ATOM      8  N   UNL A   1      31.564  24.982  25.379  1.00  0.00    -0.309 N 
ATOM      9  C   UNL A   1      32.468  26.644  23.868  1.00  0.00     0.109 C 
BRANCH   6  10
ATOM     10  C   UNL A   1      30.679  23.773  23.281  1.00  0.00     0.033 C 
ATOM     11  C   UNL A   1      31.827  22.799  23.452  1.00  0.00     0.007 C 
ENDBRANCH   6  10
BRANCH   8  12
ATOM     12  C   UNL A   1      31.817  24.133  26.459  1.00  0.00     0.291 C 
ATOM     13  O   UNL A   1      30.989  24.075  27.372  1.00  0.00    -0.265 OA
BRANCH  12  14
ATOM     14  C   UNL A   1      33.066  23.422  26.595  1.00  0.00     0.192 A 
ATOM     15  C   UNL A   1      33.274  22.168  27.146  1.00  0.00     0.057 A 
ATOM     16  O   UNL A   1      34.226  23.866  26.016  1.00  0.00    -0.450 OA
ATOM     17  C   UNL A   1      34.622  21.833  26.917  1.00  0.00     0.052 A 
ATOM     18  C   UNL A   1      35.151  22.862  26.167  1.00  0.00     0.159 A 
BRANCH  18  19
ATOM     19  C   UNL A   1      36.462  23.009  25.486  1.00  0.00     0.335 C 
BRANCH  19  20
ATOM     20  N   UNL A   1      37.507  22.263  26.180  1.00  0.00    -0.351 N 
ATOM     21  H   UNL A   1      38.413  22.480  25.762  1.00  0.00     0.344 HD
ATOM     22  H   UNL A   1      37.324  21.264  26.098  1.00  0.00     0.344 HD
ATOM     23  H   UNL A   1      37.517  22.527  27.166  1.00  0.00     0.344 HD
ENDBRANCH  19  20
ENDBRANCH  18  19
ENDBRANCH  12  14
ENDBRANCH   8  12
ENDBRANCH   3   5
ENDBRANCH   2   3
ENDBRANCH   1   2
BRANCH   1  24
ATOM     24  C   UNL A   1      31.804  30.914  26.244  1.00  0.00     0.275 C 
BRANCH  24  25
ATOM     25  O   UNL A   1      32.864  30.672  27.180  1.00  0.00    -0.458 OA
BRANCH  25  26
ATOM     26  C   UNL A   1      33.563  31.773  27.540  1.00  0.00     0.338 C 
ATOM     27  O   UNL A   1      33.177  32.934  27.532  1.00  0.00    -0.246 OA
BRANCH  26  28
ATOM     28  C   UNL A   1      34.891  31.362  28.003  1.00  0.00     0.060 A 
ATOM     29  C   UNL A   1      35.095  30.033  28.378  1.00  0.00     0.016 A 
ATOM     30  C   UNL A   1      35.901  32.310  28.157  1.00  0.00     0.016 A 
ATOM     31  C   UNL A   1      36.297  29.653  28.963  1.00  0.00     0.010 A 
ATOM     32  C   UNL A   1      37.123  31.917  28.705  1.00  0.00     0.010 A 
ATOM     33  C   UNL A   1      37.320  30.592  29.138  1.00  0.00    -0.014 A 
BRANCH  33  34
ATOM     34  C   UNL A   1      38.578  30.206  29.820  1.00  0.00     0.031 A 
ATOM     35  C   UNL A   1      39.497  29.206  29.176  1.00  0.00     0.074 A 
ATOM     36  C   UNL A   1      38.882  30.737  31.019  1.00  0.00     0.049 A 
ATOM     37  N   UNL A   1      40.569  28.637  29.662  1.00  0.00    -0.248 NA
ATOM     38  C   UNL A   1      39.162  28.782  27.805  1.00  0.00     0.031 C 
ATOM     39  C   UNL A   1      38.076  31.728  31.733  1.00  0.00     0.029 A 
ATOM     40  N   UNL A   1      39.942  30.500  31.859  1.00  0.00    -0.354 N 
ATOM     41  C   UNL A   1      41.007  27.753  28.684  1.00  0.00     0.074 A 
ATOM     42  C   UNL A   1      40.087  27.861  27.572  1.00  0.00     0.031 C 
ATOM     43  C   UNL A   1      38.661  32.003  32.909  1.00  0.00     0.029 A 
ATOM     44  C   UNL A   1      39.855  31.176  33.052  1.00  0.00     0.049 A 
ATOM     45  H   UNL A   1      40.689  29.903  31.628  1.00  0.00     0.167 HD
ATOM     46  C   UNL A   1      42.087  26.938  28.706  1.00  0.00     0.034 A 
ATOM     47  C   UNL A   1      40.634  31.113  34.149  1.00  0.00     0.034 A 
ATOM     48  C   UNL A   1      43.030  26.877  29.791  1.00  0.00     0.049 A 
ATOM     49  C   UNL A   1      41.830  30.199  34.143  1.00  0.00     0.074 A 
ATOM     50  C   UNL A   1      44.175  26.106  29.894  1.00  0.00     0.029 A 
ATOM     51  N   UNL A   1      42.944  27.624  30.956  1.00  0.00    -0.354 N 
ATOM     52  N   UNL A   1      42.272  29.424  33.182  1.00  0.00    -0.248 NA
ATOM     53  C   UNL A   1      42.647  30.165  35.365  1.00  0.00     0.031 C 
ATOM     54  C   UNL A   1      44.779  26.384  31.125  1.00  0.00     0.029 A 
ATOM     55  C   UNL A   1      44.015  27.335  31.783  1.00  0.00     0.049 A 
ATOM     56  H   UNL A   1      42.226  28.265  31.163  1.00  0.00     0.167 HD
ATOM     57  C   UNL A   1      43.430  28.833  33.671  1.00  0.00     0.074 A 
ATOM     58  C   UNL A   1      43.637  29.359  35.005  1.00  0.00     0.031 C 
ATOM     59  C   UNL A   1      44.238  27.918  33.080  1.00  0.00     0.034 A 
BRANCH  46  60
ATOM     60  C   UNL A   1      42.336  26.069  27.502  1.00  0.00     0.023 A 
ATOM     61  C   UNL A   1      43.027  26.600  26.396  1.00  0.00     0.012 A 
ATOM     62  C   UNL A   1      41.951  24.714  27.495  1.00  0.00     0.148 A 
ATOM     63  C   UNL A   1      43.314  25.802  25.289  1.00  0.00     0.002 A 
ATOM     64  C   UNL A   1      42.271  23.915  26.403  1.00  0.00     0.091 A 
ATOM     65  F   UNL A   1      41.274  24.235  28.547  1.00  0.00    -0.205 F 
ATOM     66  C   UNL A   1      42.947  24.459  25.297  1.00  0.00     0.022 A 
BRANCH  64  67
ATOM     67  S   UNL A   1      41.902  22.157  26.347  1.00  0.00     0.127 S 
ATOM     68  O   UNL A   1      40.443  22.165  26.245  1.00  0.00    -0.237 OA
ATOM     69  O   UNL A   1      42.595  21.733  25.130  1.00  0.00    -0.237 OA
ATOM     70  O   UNL A   1      42.440  21.595  27.577  1.00  0.00    -0.744 OA
ENDBRANCH  64  67
ENDBRANCH  46  60
BRANCH  47  71
ATOM     71  C   UNL A   1      40.325  31.963  35.332  1.00  0.00     0.023 A 
ATOM     72  C   UNL A   1      41.113  33.102  35.590  1.00  0.00     0.012 A 
ATOM     73  C   UNL A   1      39.244  31.671  36.187  1.00  0.00     0.148 A 
ATOM     74  C   UNL A   1      40.846  33.918  36.690  1.00  0.00     0.002 A 
ATOM     75  C   UNL A   1      38.948  32.520  37.247  1.00  0.00     0.091 A 
ATOM     76  F   UNL A   1      38.519  30.569  35.944  1.00  0.00    -0.205 F 
ATOM     77  C   UNL A   1      39.757  33.635  37.512  1.00  0.00     0.022 A 
BRANCH  75  78
ATOM     78  S   UNL A   1      37.483  32.291  38.262  1.00  0.00     0.127 S 
ATOM     79  O   UNL A   1      37.847  33.001  39.483  1.00  0.00    -0.237 OA
ATOM     80  O   UNL A   1      36.444  32.939  37.459  1.00  0.00    -0.237 OA
ATOM     81  O   UNL A   1      37.324  30.847  38.381  1.00  0.00    -0.744 OA
ENDBRANCH  75  78
ENDBRANCH  47  71
BRANCH  59  82
ATOM     82  C   UNL A   1      45.437  27.446  33.857  1.00  0.00     0.023 A 
ATOM     83  C   UNL A   1      46.635  28.185  33.801  1.00  0.00     0.012 A 
ATOM     84  C   UNL A   1      45.356  26.321  34.699  1.00  0.00     0.148 A 
ATOM     85  C   UNL A   1      47.743  27.796  34.552  1.00  0.00     0.002 A 
ATOM     86  C   UNL A   1      46.452  25.961  35.475  1.00  0.00     0.091 A 
ATOM     87  F   UNL A   1      44.214  25.617  34.722  1.00  0.00    -0.205 F 
ATOM     88  C   UNL A   1      47.648  26.693  35.397  1.00  0.00     0.022 A 
BRANCH  86  89
ATOM     89  S   UNL A   1      46.385  24.608  36.654  1.00  0.00     0.127 S 
ATOM     90  O   UNL A   1      45.258  25.000  37.497  1.00  0.00    -0.237 OA
ATOM     91  O   UNL A   1      46.130  23.452  35.794  1.00  0.00    -0.237 OA
ATOM     92  O   UNL A   1      47.686  24.590  37.311  1.00  0.00    -0.744 OA
ENDBRANCH  86  89
ENDBRANCH  59  82
ENDBRANCH  33  34
ENDBRANCH  26  28
ENDBRANCH  25  26
ENDBRANCH  24  25
ENDBRANCH   1  24
TORSDOF 19
ENDMDL
MODEL 3
REMARK VINA RESULT:     -10.3      1.458      2.001
REMARK SMILES CC[C@@H]1SC[C@@H](C(=O)OCCOC(=O)c2ccc(-c3c4nc(c(-c5cccc(S(=O)(=O)[O-])c5F)c5ccc([nH]5)c(-c5cccc(S(=O)(=O)[O-])c5F)c5nc(c(-c6cccc(S(=O)(=O)[O-])c6F)c6ccc3[nH]6)C=C5)C=C4)cc2)N1C(=O)c1ccc(C[NH3+])o1
REMARK SMILES IDX 10 1 9 2 7 3 8 4 6 5 3 6 4 7 78 8 5 9 2 10 1 11 79 12 80 13
REMARK SMILES IDX 81 14 82 15 87 16 83 17 84 18 85 19 86 20 11 24 12 25 13 26
REMARK SMILES IDX 14 27 15 28 16 29 77 30 17 31 76 32 18 33 19 34 20 35 70 36
REMARK SMILES IDX 21 37 75 38 69 39 71 40 22 41 74 42 68 43 67 44 23 46 55 47
REMARK SMILES IDX 35 48 54 49 36 50 39 51 53 52 72 53 37 54 38 55 52 57 73 58
REMARK SMILES IDX 40 59 24 60 25 61 33 62 26 63 28 64 34 65 27 66 29 67 30 68
REMARK SMILES IDX 31 69 32 70 56 71 57 72 65 73 58 74 60 75 66 76 59 77 61 78
REMARK SMILES IDX 62 79 63 80 64 81 41 82 42 83 50 84 43 85 45 86 51 87 44 88
REMARK SMILES IDX 46 89 47 90 48 91 49 92
REMARK H PARENT 86 21 86 22 86 23 71 45 39 56
REMARK Flexibility Score: inf
ROOT
ATOM      1  C   UNL A   1      35.422  20.695  25.027  1.00  0.00     0.274 C 
ENDROOT
BRANCH   1   2
ATOM      2  O   UNL A   1      35.333  21.912  25.790  1.00  0.00    -0.461 OA
BRANCH   2   3
ATOM      3  C   UNL A   1      34.705  22.953  25.173  1.00  0.00     0.329 C 
ATOM      4  O   UNL A   1      34.928  23.314  24.021  1.00  0.00    -0.250 OA
BRANCH   3   5
ATOM      5  C   UNL A   1      33.808  23.767  26.128  1.00  0.00     0.206 C 
ATOM      6  C   UNL A   1      31.467  23.897  25.328  1.00  0.00     0.144 C 
ATOM      7  S   UNL A   1      31.750  22.207  26.058  1.00  0.00    -0.134 SA
ATOM      8  N   UNL A   1      32.748  24.589  25.507  1.00  0.00    -0.309 N 
ATOM      9  C   UNL A   1      33.144  22.777  27.064  1.00  0.00     0.109 C 
BRANCH   6  10
ATOM     10  C   UNL A   1      30.257  24.394  26.145  1.00  0.00     0.033 C 
ATOM     11  C   UNL A   1      29.563  23.385  27.037  1.00  0.00     0.007 C 
ENDBRANCH   6  10
BRANCH   8  12
ATOM     12  C   UNL A   1      33.129  25.866  25.089  1.00  0.00     0.291 C 
ATOM     13  O   UNL A   1      33.956  26.486  25.763  1.00  0.00    -0.265 OA
BRANCH  12  14
ATOM     14  C   UNL A   1      32.498  26.523  23.969  1.00  0.00     0.192 A 
ATOM     15  C   UNL A   1      32.259  26.007  22.707  1.00  0.00     0.057 A 
ATOM     16  O   UNL A   1      31.889  27.745  24.088  1.00  0.00    -0.450 OA
ATOM     17  C   UNL A   1      31.488  26.957  22.009  1.00  0.00     0.052 A 
ATOM     18  C   UNL A   1      31.226  27.971  22.907  1.00  0.00     0.159 A 
BRANCH  18  19
ATOM     19  C   UNL A   1      30.340  29.158  22.818  1.00  0.00     0.335 C 
BRANCH  19  20
ATOM     20  N   UNL A   1      30.643  29.959  21.635  1.00  0.00    -0.351 N 
ATOM     21  H   UNL A   1      31.644  30.158  21.606  1.00  0.00     0.344 HD
ATOM     22  H   UNL A   1      30.123  30.835  21.675  1.00  0.00     0.344 HD
ATOM     23  H   UNL A   1      30.376  29.443  20.796  1.00  0.00     0.344 HD
ENDBRANCH  19  20
ENDBRANCH  18  19
ENDBRANCH  12  14
ENDBRANCH   8  12
ENDBRANCH   3   5
ENDBRANCH   2   3
ENDBRANCH   1   2
BRANCH   1  24
ATOM     24  C   UNL A   1      36.855  20.177  24.964  1.00  0.00     0.275 C 
BRANCH  24  25
ATOM     25  O   UNL A   1      37.788  21.248  25.167  1.00  0.00    -0.458 OA
BRANCH  25  26
ATOM     26  C   UNL A   1      38.900  20.906  25.857  1.00  0.00     0.338 C 
ATOM     27  O   UNL A   1      39.391  19.791  25.970  1.00  0.00    -0.246 OA
BRANCH  26  28
ATOM     28  C   UNL A   1      39.487  22.114  26.441  1.00  0.00     0.060 A 
ATOM     29  C   UNL A   1      38.949  23.358  26.104  1.00  0.00     0.016 A 
ATOM     30  C   UNL A   1      40.625  22.022  27.240  1.00  0.00     0.016 A 
ATOM     31  C   UNL A   1      39.582  24.524  26.520  1.00  0.00     0.010 A 
ATOM     32  C   UNL A   1      41.233  23.194  27.694  1.00  0.00     0.010 A 
ATOM     33  C   UNL A   1      40.733  24.453  27.313  1.00  0.00    -0.014 A 
BRANCH  33  34
ATOM     34  C   UNL A   1      41.445  25.692  27.705  1.00  0.00     0.031 A 
ATOM     35  C   UNL A   1      40.722  26.750  28.490  1.00  0.00     0.074 A 
ATOM     36  C   UNL A   1      42.728  25.872  27.341  1.00  0.00     0.049 A 
ATOM     37  N   UNL A   1      41.118  27.954  28.814  1.00  0.00    -0.248 NA
ATOM     38  C   UNL A   1      39.370  26.415  28.969  1.00  0.00     0.031 C 
ATOM     39  C   UNL A   1      43.537  24.910  26.592  1.00  0.00     0.029 A 
ATOM     40  N   UNL A   1      43.571  26.939  27.532  1.00  0.00    -0.354 N 
ATOM     41  C   UNL A   1      40.051  28.537  29.486  1.00  0.00     0.074 A 
ATOM     42  C   UNL A   1      38.988  27.555  29.528  1.00  0.00     0.031 C 
ATOM     43  C   UNL A   1      44.754  25.434  26.374  1.00  0.00     0.029 A 
ATOM     44  C   UNL A   1      44.795  26.785  26.926  1.00  0.00     0.049 A 
ATOM     45  H   UNL A   1      43.321  27.737  28.052  1.00  0.00     0.167 HD
ATOM     46  C   UNL A   1      39.972  29.773  30.031  1.00  0.00     0.034 A 
ATOM     47  C   UNL A   1      45.822  27.647  26.803  1.00  0.00     0.034 A 
ATOM     48  C   UNL A   1      41.052  30.723  30.036  1.00  0.00     0.049 A 
ATOM     49  C   UNL A   1      45.706  29.014  27.422  1.00  0.00     0.074 A 
ATOM     50  C   UNL A   1      41.080  31.990  30.592  1.00  0.00     0.029 A 
ATOM     51  N   UNL A   1      42.298  30.507  29.469  1.00  0.00    -0.354 N 
ATOM     52  N   UNL A   1      44.717  29.524  28.117  1.00  0.00    -0.248 NA
ATOM     53  C   UNL A   1      46.854  29.918  27.258  1.00  0.00     0.031 C 
ATOM     54  C   UNL A   1      42.344  32.542  30.356  1.00  0.00     0.029 A 
ATOM     55  C   UNL A   1      43.104  31.615  29.661  1.00  0.00     0.049 A 
ATOM     56  H   UNL A   1      42.568  29.686  28.997  1.00  0.00     0.167 HD
ATOM     57  C   UNL A   1      45.133  30.794  28.496  1.00  0.00     0.074 A 
ATOM     58  C   UNL A   1      46.474  30.967  27.976  1.00  0.00     0.031 C 
ATOM     59  C   UNL A   1      44.459  31.743  29.192  1.00  0.00     0.034 A 
BRANCH  46  60
ATOM     60  C   UNL A   1      38.684  30.161  30.707  1.00  0.00     0.023 A 
ATOM     61  C   UNL A   1      38.482  29.820  32.060  1.00  0.00     0.012 A 
ATOM     62  C   UNL A   1      37.710  30.920  30.031  1.00  0.00     0.148 A 
ATOM     63  C   UNL A   1      37.320  30.211  32.723  1.00  0.00     0.002 A 
ATOM     64  C   UNL A   1      36.569  31.336  30.708  1.00  0.00     0.091 A 
ATOM     65  F   UNL A   1      37.911  31.213  28.738  1.00  0.00    -0.205 F 
ATOM     66  C   UNL A   1      36.370  30.977  32.053  1.00  0.00     0.022 A 
BRANCH  64  67
ATOM     67  S   UNL A   1      35.320  32.384  29.952  1.00  0.00     0.127 S 
ATOM     68  O   UNL A   1      36.113  33.547  29.554  1.00  0.00    -0.237 OA
ATOM     69  O   UNL A   1      34.853  31.556  28.841  1.00  0.00    -0.237 OA
ATOM     70  O   UNL A   1      34.325  32.630  30.985  1.00  0.00    -0.744 OA
ENDBRANCH  64  67
ENDBRANCH  46  60
BRANCH  47  71
ATOM     71  C   UNL A   1      47.062  27.232  26.089  1.00  0.00     0.023 A 
ATOM     72  C   UNL A   1      47.211  27.545  24.724  1.00  0.00     0.012 A 
ATOM     73  C   UNL A   1      48.104  26.556  26.754  1.00  0.00     0.148 A 
ATOM     74  C   UNL A   1      48.361  27.170  24.029  1.00  0.00     0.002 A 
ATOM     75  C   UNL A   1      49.271  26.236  26.070  1.00  0.00     0.091 A 
ATOM     76  F   UNL A   1      47.937  26.241  28.047  1.00  0.00    -0.205 F 
ATOM     77  C   UNL A   1      49.397  26.527  24.704  1.00  0.00     0.022 A 
BRANCH  75  78
ATOM     78  S   UNL A   1      50.695  25.531  26.909  1.00  0.00     0.127 S 
ATOM     79  O   UNL A   1      51.071  26.606  27.821  1.00  0.00    -0.237 OA
ATOM     80  O   UNL A   1      50.123  24.348  27.554  1.00  0.00    -0.237 OA
ATOM     81  O   UNL A   1      51.648  25.225  25.849  1.00  0.00    -0.744 OA
ENDBRANCH  75  78
ENDBRANCH  47  71
BRANCH  59  82
ATOM     82  C   UNL A   1      45.166  33.044  29.457  1.00  0.00     0.023 A 
ATOM     83  C   UNL A   1      45.931  33.191  30.631  1.00  0.00     0.012 A 
ATOM     84  C   UNL A   1      45.138  34.088  28.513  1.00  0.00     0.148 A 
ATOM     85  C   UNL A   1      46.636  34.369  30.874  1.00  0.00     0.002 A 
ATOM     86  C   UNL A   1      45.875  35.244  28.743  1.00  0.00     0.091 A 
ATOM     87  F   UNL A   1      44.386  33.937  27.412  1.00  0.00    -0.205 F 
ATOM     88  C   UNL A   1      46.618  35.389  29.926  1.00  0.00     0.022 A 
BRANCH  86  89
ATOM     89  S   UNL A   1      45.977  36.569  27.534  1.00  0.00     0.127 S 
ATOM     90  O   UNL A   1      44.615  37.097  27.554  1.00  0.00    -0.237 OA
ATOM     91  O   UNL A   1      46.983  37.455  28.121  1.00  0.00    -0.237 OA
ATOM     92  O   UNL A   1      46.389  35.937  26.287  1.00  0.00    -0.744 OA
ENDBRANCH  86  89
ENDBRANCH  59  82
ENDBRANCH  33  34
ENDBRANCH  26  28
ENDBRANCH  25  26
ENDBRANCH  24  25
ENDBRANCH   1  24
TORSDOF 19
ENDMDL
