MODEL 1
REMARK VINA RESULT:     -12.0      0.000      0.000
REMARK SMILES Cc1cccc(Nc2ccccc2C(=O)OCCOC(=O)c2ccc(-c3c4nc(c(-c5cccc(S(=O)(=O)[O-])c5F)c5ccc([nH]5)c(-c5cccc(S(=O)(=O)[O-])c5F)c5nc(c(-c6cccc(S(=O)(=O)[O-])c6F)c6ccc3[nH]6)C=C5)C=C4)cc2)c1C
REMARK SMILES IDX 18 1 17 2 16 3 14 4 15 5 13 6 8 7 9 8 10 9 12 10 11 11 7 12
REMARK SMILES IDX 6 14 1 15 2 16 3 17 85 18 4 19 86 20 5 21 19 22 20 23 21 24
REMARK SMILES IDX 22 25 23 26 84 27 24 28 83 29 25 30 26 31 27 32 77 33 28 34
REMARK SMILES IDX 82 35 76 36 78 37 29 38 81 39 75 40 74 41 30 43 62 44 42 45
REMARK SMILES IDX 61 46 43 47 46 48 60 49 79 50 44 51 45 52 59 54 80 55 47 56
REMARK SMILES IDX 31 57 32 58 40 59 33 60 35 61 41 62 34 63 36 64 37 65 38 66
REMARK SMILES IDX 39 67 63 68 64 69 72 70 65 71 67 72 73 73 66 74 68 75 69 76
REMARK SMILES IDX 70 77 71 78 48 79 49 80 57 81 50 82 52 83 58 84 51 85 53 86
REMARK SMILES IDX 54 87 55 88 56 89
REMARK H PARENT 7 13 78 42 46 53
REMARK Flexibility Score: inf
ROOT
ATOM      1  C   UNL A   1      36.536  21.261  24.521  1.00  0.00     0.275 C 
ENDROOT
BRANCH   1   2
ATOM      2  C   UNL A   1      36.355  22.475  23.612  1.00  0.00     0.275 C 
BRANCH   2   3
ATOM      3  O   UNL A   1      35.693  23.572  24.274  1.00  0.00    -0.458 OA
BRANCH   3   4
ATOM      4  C   UNL A   1      34.619  24.059  23.604  1.00  0.00     0.340 C 
ATOM      5  O   UNL A   1      34.407  23.947  22.405  1.00  0.00    -0.246 OA
BRANCH   4   6
ATOM      6  C   UNL A   1      33.659  24.742  24.500  1.00  0.00     0.083 A 
ATOM      7  C   UNL A   1      32.392  24.217  24.803  1.00  0.00     0.053 A 
ATOM      8  C   UNL A   1      31.601  24.911  25.743  1.00  0.00     0.027 A 
ATOM      9  C   UNL A   1      32.061  26.064  26.387  1.00  0.00     0.002 A 
ATOM     10  C   UNL A   1      34.104  25.913  25.141  1.00  0.00     0.018 A 
ATOM     11  C   UNL A   1      33.315  26.567  26.084  1.00  0.00     0.001 A 
BRANCH   7  12
ATOM     12  N   UNL A   1      31.879  22.991  24.334  1.00  0.00    -0.355 N 
ATOM     13  H   UNL A   1      31.028  23.067  23.846  1.00  0.00     0.167 HD
BRANCH  12  14
ATOM     14  C   UNL A   1      32.372  21.674  24.441  1.00  0.00     0.042 A 
ATOM     15  C   UNL A   1      32.391  18.275  22.667  1.00  0.00     0.044 C 
ATOM     16  C   UNL A   1      32.618  19.363  23.684  1.00  0.00    -0.046 A 
ATOM     17  C   UNL A   1      33.089  19.007  24.957  1.00  0.00     0.004 A 
ATOM     18  C   UNL A   1      32.315  20.719  23.399  1.00  0.00    -0.025 A 
ATOM     19  C   UNL A   1      33.231  19.964  25.953  1.00  0.00     0.002 A 
ATOM     20  C   UNL A   1      31.947  21.113  21.986  1.00  0.00     0.047 C 
ATOM     21  C   UNL A   1      32.855  21.280  25.702  1.00  0.00     0.026 A 
ENDBRANCH  12  14
ENDBRANCH   7  12
ENDBRANCH   4   6
ENDBRANCH   3   4
ENDBRANCH   2   3
ENDBRANCH   1   2
BRANCH   1  22
ATOM     22  O   UNL A   1      37.091  21.645  25.789  1.00  0.00    -0.458 OA
BRANCH  22  23
ATOM     23  C   UNL A   1      38.433  21.513  25.879  1.00  0.00     0.338 C 
ATOM     24  O   UNL A   1      39.127  20.634  25.396  1.00  0.00    -0.246 OA
BRANCH  23  25
ATOM     25  C   UNL A   1      39.008  22.639  26.627  1.00  0.00     0.060 A 
ATOM     26  C   UNL A   1      38.515  23.917  26.394  1.00  0.00     0.016 A 
ATOM     27  C   UNL A   1      40.164  22.463  27.380  1.00  0.00     0.016 A 
ATOM     28  C   UNL A   1      39.257  25.031  26.761  1.00  0.00     0.010 A 
ATOM     29  C   UNL A   1      40.831  23.586  27.880  1.00  0.00     0.010 A 
ATOM     30  C   UNL A   1      40.418  24.884  27.526  1.00  0.00    -0.014 A 
BRANCH  30  31
ATOM     31  C   UNL A   1      41.207  26.080  27.928  1.00  0.00     0.031 A 
ATOM     32  C   UNL A   1      40.568  27.160  28.761  1.00  0.00     0.074 A 
ATOM     33  C   UNL A   1      42.489  26.210  27.531  1.00  0.00     0.049 A 
ATOM     34  N   UNL A   1      41.001  28.364  29.026  1.00  0.00    -0.248 NA
ATOM     35  C   UNL A   1      39.254  26.854  29.353  1.00  0.00     0.031 C 
ATOM     36  C   UNL A   1      43.235  25.229  26.739  1.00  0.00     0.029 A 
ATOM     37  N   UNL A   1      43.388  27.232  27.718  1.00  0.00    -0.354 N 
ATOM     38  C   UNL A   1      39.976  28.992  29.724  1.00  0.00     0.074 A 
ATOM     39  C   UNL A   1      38.907  28.027  29.863  1.00  0.00     0.031 C 
ATOM     40  C   UNL A   1      44.474  25.687  26.516  1.00  0.00     0.029 A 
ATOM     41  C   UNL A   1      44.578  27.036  27.056  1.00  0.00     0.049 A 
ATOM     42  H   UNL A   1      43.199  28.025  28.269  1.00  0.00     0.167 HD
ATOM     43  C   UNL A   1      39.932  30.260  30.201  1.00  0.00     0.034 A 
ATOM     44  C   UNL A   1      45.616  27.867  26.843  1.00  0.00     0.034 A 
ATOM     45  C   UNL A   1      41.036  31.180  30.129  1.00  0.00     0.049 A 
ATOM     46  C   UNL A   1      45.557  29.255  27.408  1.00  0.00     0.074 A 
ATOM     47  C   UNL A   1      41.125  32.459  30.646  1.00  0.00     0.029 A 
ATOM     48  N   UNL A   1      42.247  30.915  29.504  1.00  0.00    -0.354 N 
ATOM     49  N   UNL A   1      44.602  29.818  28.108  1.00  0.00    -0.248 NA
ATOM     50  C   UNL A   1      46.719  30.118  27.166  1.00  0.00     0.031 C 
ATOM     51  C   UNL A   1      42.381  32.978  30.313  1.00  0.00     0.029 A 
ATOM     52  C   UNL A   1      43.085  32.011  29.613  1.00  0.00     0.049 A 
ATOM     53  H   UNL A   1      42.476  30.072  29.050  1.00  0.00     0.167 HD
ATOM     54  C   UNL A   1      45.053  31.097  28.406  1.00  0.00     0.074 A 
ATOM     55  C   UNL A   1      46.380  31.213  27.835  1.00  0.00     0.031 C 
ATOM     56  C   UNL A   1      44.419  32.091  29.074  1.00  0.00     0.034 A 
BRANCH  43  57
ATOM     57  C   UNL A   1      38.650  30.729  30.841  1.00  0.00     0.023 A 
ATOM     58  C   UNL A   1      38.470  30.623  32.235  1.00  0.00     0.012 A 
ATOM     59  C   UNL A   1      37.637  31.319  30.058  1.00  0.00     0.148 A 
ATOM     60  C   UNL A   1      37.288  31.062  32.833  1.00  0.00     0.002 A 
ATOM     61  C   UNL A   1      36.482  31.796  30.666  1.00  0.00     0.091 A 
ATOM     62  F   UNL A   1      37.815  31.391  28.731  1.00  0.00    -0.205 F 
ATOM     63  C   UNL A   1      36.300  31.656  32.052  1.00  0.00     0.022 A 
BRANCH  61  64
ATOM     64  S   UNL A   1      35.192  32.651  29.755  1.00  0.00     0.127 S 
ATOM     65  O   UNL A   1      34.239  32.968  30.818  1.00  0.00    -0.237 OA
ATOM     66  O   UNL A   1      35.908  33.807  29.215  1.00  0.00    -0.237 OA
ATOM     67  O   UNL A   1      34.720  31.710  28.750  1.00  0.00    -0.744 OA
ENDBRANCH  61  64
ENDBRANCH  43  57
BRANCH  44  68
ATOM     68  C   UNL A   1      46.781  27.394  26.042  1.00  0.00     0.023 A 
ATOM     69  C   UNL A   1      46.856  27.706  24.672  1.00  0.00     0.012 A 
ATOM     70  C   UNL A   1      47.851  26.707  26.652  1.00  0.00     0.148 A 
ATOM     71  C   UNL A   1      47.970  27.330  23.920  1.00  0.00     0.002 A 
ATOM     72  C   UNL A   1      48.984  26.394  25.912  1.00  0.00     0.091 A 
ATOM     73  F   UNL A   1      47.752  26.404  27.953  1.00  0.00    -0.205 F 
ATOM     74  C   UNL A   1      49.039  26.691  24.542  1.00  0.00     0.022 A 
BRANCH  72  75
ATOM     75  S   UNL A   1      50.467  25.716  26.667  1.00  0.00     0.127 S 
ATOM     76  O   UNL A   1      51.336  25.534  25.508  1.00  0.00    -0.237 OA
ATOM     77  O   UNL A   1      50.866  26.793  27.574  1.00  0.00    -0.237 OA
ATOM     78  O   UNL A   1      50.042  24.495  27.340  1.00  0.00    -0.744 OA
ENDBRANCH  72  75
ENDBRANCH  44  68
BRANCH  56  79
ATOM     79  C   UNL A   1      45.165  33.386  29.251  1.00  0.00     0.023 A 
ATOM     80  C   UNL A   1      46.006  33.562  30.368  1.00  0.00     0.012 A 
ATOM     81  C   UNL A   1      45.081  34.402  28.280  1.00  0.00     0.148 A 
ATOM     82  C   UNL A   1      46.727  34.745  30.530  1.00  0.00     0.002 A 
ATOM     83  C   UNL A   1      45.839  35.556  28.423  1.00  0.00     0.091 A 
ATOM     84  F   UNL A   1      44.257  34.221  27.236  1.00  0.00    -0.205 F 
ATOM     85  C   UNL A   1      46.653  35.735  29.553  1.00  0.00     0.022 A 
BRANCH  83  86
ATOM     86  S   UNL A   1      45.879  36.840  27.167  1.00  0.00     0.127 S 
ATOM     87  O   UNL A   1      44.463  37.185  27.050  1.00  0.00    -0.237 OA
ATOM     88  O   UNL A   1      46.706  37.868  27.799  1.00  0.00    -0.237 OA
ATOM     89  O   UNL A   1      46.474  36.227  25.987  1.00  0.00    -0.744 OA
ENDBRANCH  83  86
ENDBRANCH  56  79
ENDBRANCH  30  31
ENDBRANCH  23  25
ENDBRANCH  22  23
ENDBRANCH   1  22
TORSDOF 16
ENDMDL
MODEL 2
REMARK VINA RESULT:     -12.0      1.178      2.755
REMARK SMILES Cc1cccc(Nc2ccccc2C(=O)OCCOC(=O)c2ccc(-c3c4nc(c(-c5cccc(S(=O)(=O)[O-])c5F)c5ccc([nH]5)c(-c5cccc(S(=O)(=O)[O-])c5F)c5nc(c(-c6cccc(S(=O)(=O)[O-])c6F)c6ccc3[nH]6)C=C5)C=C4)cc2)c1C
REMARK SMILES IDX 18 1 17 2 16 3 14 4 15 5 13 6 8 7 9 8 10 9 12 10 11 11 7 12
REMARK SMILES IDX 6 14 1 15 2 16 3 17 85 18 4 19 86 20 5 21 19 22 20 23 21 24
REMARK SMILES IDX 22 25 23 26 84 27 24 28 83 29 25 30 26 31 27 32 77 33 28 34
REMARK SMILES IDX 82 35 76 36 78 37 29 38 81 39 75 40 74 41 30 43 62 44 42 45
REMARK SMILES IDX 61 46 43 47 46 48 60 49 79 50 44 51 45 52 59 54 80 55 47 56
REMARK SMILES IDX 31 57 32 58 40 59 33 60 35 61 41 62 34 63 36 64 37 65 38 66
REMARK SMILES IDX 39 67 63 68 64 69 72 70 65 71 67 72 73 73 66 74 68 75 69 76
REMARK SMILES IDX 70 77 71 78 48 79 49 80 57 81 50 82 52 83 58 84 51 85 53 86
REMARK SMILES IDX 54 87 55 88 56 89
REMARK H PARENT 7 13 78 42 46 53
REMARK Flexibility Score: inf
ROOT
ATOM      1  C   UNL A   1      36.519  20.690  25.081  1.00  0.00     0.275 C 
ENDROOT
BRANCH   1   2
ATOM      2  C   UNL A   1      35.442  21.522  25.773  1.00  0.00     0.275 C 
BRANCH   2   3
ATOM      3  O   UNL A   1      34.971  22.613  24.955  1.00  0.00    -0.458 OA
BRANCH   3   4
ATOM      4  C   UNL A   1      33.747  22.408  24.406  1.00  0.00     0.340 C 
ATOM      5  O   UNL A   1      33.523  21.925  23.305  1.00  0.00    -0.246 OA
BRANCH   4   6
ATOM      6  C   UNL A   1      32.649  22.809  25.315  1.00  0.00     0.083 A 
ATOM      7  C   UNL A   1      32.629  24.039  25.991  1.00  0.00     0.053 A 
ATOM      8  C   UNL A   1      31.485  24.349  26.757  1.00  0.00     0.027 A 
ATOM      9  C   UNL A   1      30.385  23.488  26.823  1.00  0.00     0.002 A 
ATOM     10  C   UNL A   1      31.544  21.942  25.402  1.00  0.00     0.018 A 
ATOM     11  C   UNL A   1      30.415  22.281  26.144  1.00  0.00     0.001 A 
BRANCH   7  12
ATOM     12  N   UNL A   1      33.606  25.049  25.886  1.00  0.00    -0.355 N 
ATOM     13  H   UNL A   1      34.507  24.773  26.172  1.00  0.00     0.167 HD
BRANCH  12  14
ATOM     14  C   UNL A   1      33.521  26.383  25.440  1.00  0.00     0.042 A 
ATOM     15  C   UNL A   1      34.063  28.609  22.365  1.00  0.00     0.044 C 
ATOM     16  C   UNL A   1      33.762  28.150  23.768  1.00  0.00    -0.046 A 
ATOM     17  C   UNL A   1      33.675  29.112  24.786  1.00  0.00     0.004 A 
ATOM     18  C   UNL A   1      33.621  26.775  24.084  1.00  0.00    -0.025 A 
ATOM     19  C   UNL A   1      33.484  28.729  26.107  1.00  0.00     0.002 A 
ATOM     20  C   UNL A   1      33.574  25.760  22.964  1.00  0.00     0.047 C 
ATOM     21  C   UNL A   1      33.430  27.376  26.431  1.00  0.00     0.026 A 
ENDBRANCH  12  14
ENDBRANCH   7  12
ENDBRANCH   4   6
ENDBRANCH   3   4
ENDBRANCH   2   3
ENDBRANCH   1   2
BRANCH   1  22
ATOM     22  O   UNL A   1      37.725  21.451  24.905  1.00  0.00    -0.458 OA
BRANCH  22  23
ATOM     23  C   UNL A   1      38.748  21.077  25.706  1.00  0.00     0.338 C 
ATOM     24  O   UNL A   1      39.251  19.971  25.800  1.00  0.00    -0.246 OA
BRANCH  23  25
ATOM     25  C   UNL A   1      39.255  22.231  26.459  1.00  0.00     0.060 A 
ATOM     26  C   UNL A   1      38.765  23.496  26.155  1.00  0.00     0.016 A 
ATOM     27  C   UNL A   1      40.356  22.092  27.298  1.00  0.00     0.016 A 
ATOM     28  C   UNL A   1      39.466  24.630  26.542  1.00  0.00     0.010 A 
ATOM     29  C   UNL A   1      40.972  23.238  27.812  1.00  0.00     0.010 A 
ATOM     30  C   UNL A   1      40.571  24.520  27.392  1.00  0.00    -0.014 A 
BRANCH  30  31
ATOM     31  C   UNL A   1      41.315  25.737  27.815  1.00  0.00     0.031 A 
ATOM     32  C   UNL A   1      40.621  26.801  28.624  1.00  0.00     0.074 A 
ATOM     33  C   UNL A   1      42.605  25.900  27.458  1.00  0.00     0.049 A 
ATOM     34  N   UNL A   1      41.014  28.017  28.899  1.00  0.00    -0.248 NA
ATOM     35  C   UNL A   1      39.298  26.463  29.176  1.00  0.00     0.031 C 
ATOM     36  C   UNL A   1      43.401  24.937  26.693  1.00  0.00     0.029 A 
ATOM     37  N   UNL A   1      43.470  26.946  27.669  1.00  0.00    -0.354 N 
ATOM     38  C   UNL A   1      39.951  28.619  29.563  1.00  0.00     0.074 A 
ATOM     39  C   UNL A   1      38.904  27.627  29.671  1.00  0.00     0.031 C 
ATOM     40  C   UNL A   1      44.634  25.428  26.507  1.00  0.00     0.029 A 
ATOM     41  C   UNL A   1      44.685  26.781  27.046  1.00  0.00     0.049 A 
ATOM     42  H   UNL A   1      43.243  27.735  28.213  1.00  0.00     0.167 HD
ATOM     43  C   UNL A   1      39.859  29.887  30.034  1.00  0.00     0.034 A 
ATOM     44  C   UNL A   1      45.706  27.637  26.863  1.00  0.00     0.034 A 
ATOM     45  C   UNL A   1      40.940  30.835  29.994  1.00  0.00     0.049 A 
ATOM     46  C   UNL A   1      45.593  29.026  27.421  1.00  0.00     0.074 A 
ATOM     47  C   UNL A   1      40.979  32.118  30.509  1.00  0.00     0.029 A 
ATOM     48  N   UNL A   1      42.177  30.602  29.408  1.00  0.00    -0.354 N 
ATOM     49  N   UNL A   1      44.602  29.565  28.089  1.00  0.00    -0.248 NA
ATOM     50  C   UNL A   1      46.739  29.918  27.214  1.00  0.00     0.031 C 
ATOM     51  C   UNL A   1      42.230  32.670  30.214  1.00  0.00     0.029 A 
ATOM     52  C   UNL A   1      42.982  31.720  29.540  1.00  0.00     0.049 A 
ATOM     53  H   UNL A   1      42.442  29.764  28.964  1.00  0.00     0.167 HD
ATOM     54  C   UNL A   1      45.010  30.855  28.398  1.00  0.00     0.074 A 
ATOM     55  C   UNL A   1      46.351  31.005  27.868  1.00  0.00     0.031 C 
ATOM     56  C   UNL A   1      44.330  31.834  29.043  1.00  0.00     0.034 A 
BRANCH  43  57
ATOM     57  C   UNL A   1      38.545  30.323  30.632  1.00  0.00     0.023 A 
ATOM     58  C   UNL A   1      38.271  30.091  31.995  1.00  0.00     0.012 A 
ATOM     59  C   UNL A   1      37.597  31.009  29.846  1.00  0.00     0.148 A 
ATOM     60  C   UNL A   1      37.060  30.498  32.555  1.00  0.00     0.002 A 
ATOM     61  C   UNL A   1      36.413  31.453  30.421  1.00  0.00     0.091 A 
ATOM     62  F   UNL A   1      37.864  31.202  28.546  1.00  0.00    -0.205 F 
ATOM     63  C   UNL A   1      36.136  31.187  31.772  1.00  0.00     0.022 A 
BRANCH  61  64
ATOM     64  S   UNL A   1      35.201  32.421  29.515  1.00  0.00     0.127 S 
ATOM     65  O   UNL A   1      34.722  31.449  28.532  1.00  0.00    -0.237 OA
ATOM     66  O   UNL A   1      34.232  32.760  30.557  1.00  0.00    -0.237 OA
ATOM     67  O   UNL A   1      35.925  33.560  28.969  1.00  0.00    -0.744 OA
ENDBRANCH  61  64
ENDBRANCH  43  57
BRANCH  44  68
ATOM     68  C   UNL A   1      46.908  27.194  26.100  1.00  0.00     0.023 A 
ATOM     69  C   UNL A   1      47.018  27.506  24.733  1.00  0.00     0.012 A 
ATOM     70  C   UNL A   1      47.976  26.536  26.746  1.00  0.00     0.148 A 
ATOM     71  C   UNL A   1      48.165  27.158  24.017  1.00  0.00     0.002 A 
ATOM     72  C   UNL A   1      49.140  26.252  26.043  1.00  0.00     0.091 A 
ATOM     73  F   UNL A   1      47.844  26.233  28.044  1.00  0.00    -0.205 F 
ATOM     74  C   UNL A   1      49.231  26.547  24.674  1.00  0.00     0.022 A 
BRANCH  72  75
ATOM     75  S   UNL A   1      50.615  25.614  26.846  1.00  0.00     0.127 S 
ATOM     76  O   UNL A   1      50.112  24.392  27.467  1.00  0.00    -0.237 OA
ATOM     77  O   UNL A   1      51.512  25.403  25.709  1.00  0.00    -0.237 OA
ATOM     78  O   UNL A   1      51.047  26.659  27.763  1.00  0.00    -0.744 OA
ENDBRANCH  72  75
ENDBRANCH  44  68
BRANCH  56  79
ATOM     79  C   UNL A   1      45.035  33.149  29.239  1.00  0.00     0.023 A 
ATOM     80  C   UNL A   1      45.819  33.357  30.391  1.00  0.00     0.012 A 
ATOM     81  C   UNL A   1      44.971  34.151  28.253  1.00  0.00     0.148 A 
ATOM     82  C   UNL A   1      46.502  34.558  30.573  1.00  0.00     0.002 A 
ATOM     83  C   UNL A   1      45.694  35.325  28.417  1.00  0.00     0.091 A 
ATOM     84  F   UNL A   1      44.202  33.940  27.174  1.00  0.00    -0.205 F 
ATOM     85  C   UNL A   1      46.450  35.536  29.582  1.00  0.00     0.022 A 
BRANCH  83  86
ATOM     86  S   UNL A   1      45.761  36.596  27.150  1.00  0.00     0.127 S 
ATOM     87  O   UNL A   1      46.201  35.831  25.984  1.00  0.00    -0.237 OA
ATOM     88  O   UNL A   1      44.372  37.051  27.091  1.00  0.00    -0.237 OA
ATOM     89  O   UNL A   1      46.703  37.596  27.634  1.00  0.00    -0.744 OA
ENDBRANCH  83  86
ENDBRANCH  56  79
ENDBRANCH  30  31
ENDBRANCH  23  25
ENDBRANCH  22  23
ENDBRANCH   1  22
TORSDOF 16
ENDMDL
MODEL 3
REMARK VINA RESULT:     -11.9      5.143     10.114
REMARK SMILES Cc1cccc(Nc2ccccc2C(=O)OCCOC(=O)c2ccc(-c3c4nc(c(-c5cccc(S(=O)(=O)[O-])c5F)c5ccc([nH]5)c(-c5cccc(S(=O)(=O)[O-])c5F)c5nc(c(-c6cccc(S(=O)(=O)[O-])c6F)c6ccc3[nH]6)C=C5)C=C4)cc2)c1C
REMARK SMILES IDX 18 1 17 2 16 3 14 4 15 5 13 6 8 7 9 8 10 9 12 10 11 11 7 12
REMARK SMILES IDX 6 14 1 15 2 16 3 17 85 18 4 19 86 20 5 21 19 22 20 23 21 24
REMARK SMILES IDX 22 25 23 26 84 27 24 28 83 29 25 30 26 31 27 32 77 33 28 34
REMARK SMILES IDX 82 35 76 36 78 37 29 38 81 39 75 40 74 41 30 43 62 44 42 45
REMARK SMILES IDX 61 46 43 47 46 48 60 49 79 50 44 51 45 52 59 54 80 55 47 56
REMARK SMILES IDX 31 57 32 58 40 59 33 60 35 61 41 62 34 63 36 64 37 65 38 66
REMARK SMILES IDX 39 67 63 68 64 69 72 70 65 71 67 72 73 73 66 74 68 75 69 76
REMARK SMILES IDX 70 77 71 78 48 79 49 80 57 81 50 82 52 83 58 84 51 85 53 86
REMARK SMILES IDX 54 87 55 88 56 89
REMARK H PARENT 7 13 78 42 46 53
REMARK Flexibility Score: inf
ROOT
ATOM      1  C   UNL A   1      31.781  29.607  26.883  1.00  0.00     0.275 C 
ENDROOT
BRANCH   1   2
ATOM      2  C   UNL A   1      31.563  28.317  26.096  1.00  0.00     0.275 C 
BRANCH   2   3
ATOM      3  O   UNL A   1      32.180  27.172  26.722  1.00  0.00    -0.458 OA
BRANCH   3   4
ATOM      4  C   UNL A   1      31.708  25.978  26.285  1.00  0.00     0.340 C 
ATOM      5  O   UNL A   1      30.655  25.454  26.619  1.00  0.00    -0.246 OA
BRANCH   4   6
ATOM      6  C   UNL A   1      32.607  25.347  25.292  1.00  0.00     0.083 A 
ATOM      7  C   UNL A   1      32.268  25.208  23.936  1.00  0.00     0.053 A 
ATOM      8  C   UNL A   1      33.242  24.675  23.067  1.00  0.00     0.027 A 
ATOM      9  C   UNL A   1      34.520  24.326  23.515  1.00  0.00     0.002 A 
ATOM     10  C   UNL A   1      33.889  24.976  25.736  1.00  0.00     0.018 A 
ATOM     11  C   UNL A   1      34.844  24.475  24.854  1.00  0.00     0.001 A 
BRANCH   7  12
ATOM     12  N   UNL A   1      31.073  25.658  23.340  1.00  0.00    -0.355 N 
ATOM     13  H   UNL A   1      30.491  24.939  23.004  1.00  0.00     0.167 HD
BRANCH  12  14
ATOM     14  C   UNL A   1      30.564  26.958  23.141  1.00  0.00     0.042 A 
ATOM     15  C   UNL A   1      27.297  28.960  22.984  1.00  0.00     0.044 C 
ATOM     16  C   UNL A   1      28.757  28.589  22.927  1.00  0.00    -0.046 A 
ATOM     17  C   UNL A   1      29.659  29.500  22.357  1.00  0.00     0.004 A 
ATOM     18  C   UNL A   1      29.220  27.329  23.382  1.00  0.00    -0.025 A 
ATOM     19  C   UNL A   1      30.999  29.168  22.205  1.00  0.00     0.002 A 
ATOM     20  C   UNL A   1      28.269  26.415  24.122  1.00  0.00     0.047 C 
ATOM     21  C   UNL A   1      31.440  27.900  22.574  1.00  0.00     0.026 A 
ENDBRANCH  12  14
ENDBRANCH   7  12
ENDBRANCH   4   6
ENDBRANCH   3   4
ENDBRANCH   2   3
ENDBRANCH   1   2
BRANCH   1  22
ATOM     22  O   UNL A   1      32.837  30.391  26.307  1.00  0.00    -0.458 OA
BRANCH  22  23
ATOM     23  C   UNL A   1      33.300  31.382  27.100  1.00  0.00     0.338 C 
ATOM     24  O   UNL A   1      32.691  32.361  27.497  1.00  0.00    -0.246 OA
BRANCH  23  25
ATOM     25  C   UNL A   1      34.687  31.111  27.501  1.00  0.00     0.060 A 
ATOM     26  C   UNL A   1      35.060  29.800  27.771  1.00  0.00     0.016 A 
ATOM     27  C   UNL A   1      35.543  32.160  27.817  1.00  0.00     0.016 A 
ATOM     28  C   UNL A   1      36.205  29.536  28.509  1.00  0.00     0.010 A 
ATOM     29  C   UNL A   1      36.770  31.879  28.427  1.00  0.00     0.010 A 
ATOM     30  C   UNL A   1      37.088  30.570  28.834  1.00  0.00    -0.014 A 
BRANCH  30  31
ATOM     31  C   UNL A   1      38.322  30.285  29.616  1.00  0.00     0.031 A 
ATOM     32  C   UNL A   1      39.383  29.381  29.046  1.00  0.00     0.074 A 
ATOM     33  C   UNL A   1      38.483  30.817  30.844  1.00  0.00     0.049 A 
ATOM     34  N   UNL A   1      40.410  28.834  29.643  1.00  0.00    -0.248 NA
ATOM     35  C   UNL A   1      39.260  29.022  27.622  1.00  0.00     0.031 C 
ATOM     36  C   UNL A   1      37.541  31.724  31.505  1.00  0.00     0.029 A 
ATOM     37  N   UNL A   1      39.485  30.655  31.769  1.00  0.00    -0.354 N 
ATOM     38  C   UNL A   1      40.992  27.992  28.702  1.00  0.00     0.074 A 
ATOM     39  C   UNL A   1      40.219  28.117  27.486  1.00  0.00     0.031 C 
ATOM     40  C   UNL A   1      38.010  32.045  32.718  1.00  0.00     0.029 A 
ATOM     41  C   UNL A   1      39.230  31.287  32.964  1.00  0.00     0.049 A 
ATOM     42  H   UNL A   1      40.304  30.137  31.594  1.00  0.00     0.167 HD
ATOM     43  C   UNL A   1      42.072  27.186  28.845  1.00  0.00     0.034 A 
ATOM     44  C   UNL A   1      39.860  31.218  34.151  1.00  0.00     0.034 A 
ATOM     45  C   UNL A   1      42.882  27.136  30.033  1.00  0.00     0.049 A 
ATOM     46  C   UNL A   1      41.072  30.342  34.275  1.00  0.00     0.074 A 
ATOM     47  C   UNL A   1      44.038  26.412  30.256  1.00  0.00     0.029 A 
ATOM     48  N   UNL A   1      42.621  27.843  31.199  1.00  0.00    -0.354 N 
ATOM     49  N   UNL A   1      41.640  29.590  33.363  1.00  0.00    -0.248 NA
ATOM     50  C   UNL A   1      41.737  30.313  35.582  1.00  0.00     0.031 C 
ATOM     51  C   UNL A   1      44.465  26.663  31.565  1.00  0.00     0.029 A 
ATOM     52  C   UNL A   1      43.589  27.565  32.148  1.00  0.00     0.049 A 
ATOM     53  H   UNL A   1      41.859  28.453  31.330  1.00  0.00     0.167 HD
ATOM     54  C   UNL A   1      42.740  29.010  33.980  1.00  0.00     0.074 A 
ATOM     55  C   UNL A   1      42.774  29.522  35.336  1.00  0.00     0.031 C 
ATOM     56  C   UNL A   1      43.629  28.119  33.478  1.00  0.00     0.034 A 
BRANCH  43  57
ATOM     57  C   UNL A   1      42.441  26.290  27.689  1.00  0.00     0.023 A 
ATOM     58  C   UNL A   1      43.326  26.744  26.690  1.00  0.00     0.012 A 
ATOM     59  C   UNL A   1      41.941  24.974  27.620  1.00  0.00     0.148 A 
ATOM     60  C   UNL A   1      43.676  25.917  25.622  1.00  0.00     0.002 A 
ATOM     61  C   UNL A   1      42.331  24.140  26.578  1.00  0.00     0.091 A 
ATOM     62  F   UNL A   1      41.084  24.565  28.565  1.00  0.00    -0.205 F 
ATOM     63  C   UNL A   1      43.187  24.614  25.571  1.00  0.00     0.022 A 
BRANCH  61  64
ATOM     64  S   UNL A   1      41.820  22.421  26.474  1.00  0.00     0.127 S 
ATOM     65  O   UNL A   1      42.485  21.989  25.245  1.00  0.00    -0.237 OA
ATOM     66  O   UNL A   1      42.382  21.856  27.701  1.00  0.00    -0.237 OA
ATOM     67  O   UNL A   1      40.365  22.438  26.428  1.00  0.00    -0.744 OA
ENDBRANCH  61  64
ENDBRANCH  43  57
BRANCH  44  68
ATOM     68  C   UNL A   1      39.332  31.995  35.309  1.00  0.00     0.023 A 
ATOM     69  C   UNL A   1      38.450  31.379  36.215  1.00  0.00     0.012 A 
ATOM     70  C   UNL A   1      39.764  33.314  35.556  1.00  0.00     0.148 A 
ATOM     71  C   UNL A   1      37.997  32.067  37.342  1.00  0.00     0.002 A 
ATOM     72  C   UNL A   1      39.361  33.969  36.712  1.00  0.00     0.091 A 
ATOM     73  F   UNL A   1      40.590  33.889  34.671  1.00  0.00    -0.205 F 
ATOM     74  C   UNL A   1      38.464  33.354  37.599  1.00  0.00     0.022 A 
BRANCH  72  75
ATOM     75  S   UNL A   1      40.037  35.561  37.200  1.00  0.00     0.127 S 
ATOM     76  O   UNL A   1      41.472  35.291  37.191  1.00  0.00    -0.237 OA
ATOM     77  O   UNL A   1      39.566  36.433  36.122  1.00  0.00    -0.237 OA
ATOM     78  O   UNL A   1      39.455  35.853  38.503  1.00  0.00    -0.744 OA
ENDBRANCH  72  75
ENDBRANCH  44  68
BRANCH  56  79
ATOM     79  C   UNL A   1      44.735  27.662  34.390  1.00  0.00     0.023 A 
ATOM     80  C   UNL A   1      45.946  28.381  34.436  1.00  0.00     0.012 A 
ATOM     81  C   UNL A   1      44.551  26.558  35.244  1.00  0.00     0.148 A 
ATOM     82  C   UNL A   1      46.969  27.987  35.297  1.00  0.00     0.002 A 
ATOM     83  C   UNL A   1      45.555  26.202  36.134  1.00  0.00     0.091 A 
ATOM     84  F   UNL A   1      43.399  25.876  35.168  1.00  0.00    -0.205 F 
ATOM     85  C   UNL A   1      46.770  26.907  36.153  1.00  0.00     0.022 A 
BRANCH  83  86
ATOM     86  S   UNL A   1      45.347  24.885  37.339  1.00  0.00     0.127 S 
ATOM     87  O   UNL A   1      44.233  25.390  38.140  1.00  0.00    -0.237 OA
ATOM     88  O   UNL A   1      45.018  23.738  36.491  1.00  0.00    -0.237 OA
ATOM     89  O   UNL A   1      46.621  24.775  38.035  1.00  0.00    -0.744 OA
ENDBRANCH  83  86
ENDBRANCH  56  79
ENDBRANCH  30  31
ENDBRANCH  23  25
ENDBRANCH  22  23
ENDBRANCH   1  22
TORSDOF 16
ENDMDL
