MODEL 1
REMARK VINA RESULT:     -11.6      0.000      0.000
REMARK SMILES CCc1ccc(C(=O)N2Cc3nc[nH]c3C[C@@H]2C(=O)OCCOC(=O)c2ccc(-c3c4nc(c(-c5cccc(S(=O)(=O)[O-])c5F)c5ccc([nH]5)c(-c5cccc(S(=O)(=O)[O-])c5F)c5nc(c(-c6cccc(S(=O)(=O)[O-])c6F)c6ccc3[nH]6)C=C5)C=C4)cc2)o1
REMARK SMILES IDX 21 1 20 2 18 3 19 4 17 5 9 6 10 7 11 8 16 9 12 10 15 11
REMARK SMILES IDX 13 12 14 13 7 15 8 16 6 17 3 18 4 19 89 20 5 21 2 22 1 23
REMARK SMILES IDX 22 24 23 25 24 26 25 27 26 28 27 29 88 30 28 31 87 32 29 33
REMARK SMILES IDX 30 34 31 35 81 36 32 37 86 38 80 39 82 40 33 41 85 42 79 43
REMARK SMILES IDX 78 44 34 46 66 47 46 48 65 49 47 50 50 51 64 52 83 53 48 54
REMARK SMILES IDX 49 55 63 57 84 58 51 59 35 60 36 61 44 62 37 63 39 64 45 65
REMARK SMILES IDX 38 66 40 67 41 68 42 69 43 70 67 71 68 72 76 73 69 74 71 75
REMARK SMILES IDX 77 76 70 77 72 78 73 79 74 80 75 81 52 82 53 83 61 84 54 85
REMARK SMILES IDX 56 86 62 87 55 88 57 89 58 90 59 91 60 92
REMARK H PARENT 14 14 82 45 50 56
REMARK Flexibility Score: inf
ROOT
ATOM      1  C   UNL A   1      36.265  20.904  25.162  1.00  0.00     0.274 C 
ENDROOT
BRANCH   1   2
ATOM      2  O   UNL A   1      35.952  22.167  24.539  1.00  0.00    -0.461 OA
BRANCH   2   3
ATOM      3  C   UNL A   1      35.538  23.152  25.390  1.00  0.00     0.329 C 
ATOM      4  O   UNL A   1      36.116  23.408  26.439  1.00  0.00    -0.250 OA
BRANCH   3   5
ATOM      5  C   UNL A   1      34.355  23.982  24.834  1.00  0.00     0.201 C 
ATOM      6  N   UNL A   1      32.986  23.716  25.397  1.00  0.00    -0.316 N 
ATOM      7  C   UNL A   1      31.844  24.519  24.917  1.00  0.00     0.179 C 
ATOM      8  C   UNL A   1      32.058  24.992  23.521  1.00  0.00     0.081 A 
ATOM      9  C   UNL A   1      34.380  24.028  23.277  1.00  0.00     0.093 C 
ATOM     10  N   UNL A   1      31.172  25.744  22.793  1.00  0.00    -0.240 NA
ATOM     11  C   UNL A   1      33.209  24.792  22.803  1.00  0.00     0.042 A 
ATOM     12  C   UNL A   1      31.795  26.014  21.665  1.00  0.00     0.197 A 
ATOM     13  N   UNL A   1      33.054  25.471  21.633  1.00  0.00    -0.348 N 
ATOM     14  H   UNL A   1      33.714  25.555  20.908  1.00  0.00     0.167 HD
BRANCH   6  15
ATOM     15  C   UNL A   1      32.685  22.524  26.048  1.00  0.00     0.290 C 
ATOM     16  O   UNL A   1      32.558  22.489  27.270  1.00  0.00    -0.265 OA
BRANCH  15  17
ATOM     17  C   UNL A   1      32.660  21.346  25.194  1.00  0.00     0.191 A 
ATOM     18  C   UNL A   1      32.862  19.195  24.749  1.00  0.00     0.104 A 
ATOM     19  C   UNL A   1      32.372  19.778  23.602  1.00  0.00     0.046 A 
ATOM     20  O   UNL A   1      33.066  20.142  25.710  1.00  0.00    -0.456 OA
ATOM     21  C   UNL A   1      32.279  21.164  23.873  1.00  0.00     0.056 A 
BRANCH  18  22
ATOM     22  C   UNL A   1      33.202  17.794  25.097  1.00  0.00     0.072 C 
ATOM     23  C   UNL A   1      33.131  16.859  23.900  1.00  0.00     0.012 C 
ENDBRANCH  18  22
ENDBRANCH  15  17
ENDBRANCH   6  15
ENDBRANCH   3   5
ENDBRANCH   2   3
ENDBRANCH   1   2
BRANCH   1  24
ATOM     24  C   UNL A   1      37.628  20.380  24.719  1.00  0.00     0.275 C 
BRANCH  24  25
ATOM     25  O   UNL A   1      38.676  20.903  25.532  1.00  0.00    -0.458 OA
BRANCH  25  26
ATOM     26  C   UNL A   1      39.728  20.072  25.712  1.00  0.00     0.338 C 
ATOM     27  O   UNL A   1      39.750  18.870  25.515  1.00  0.00    -0.246 OA
BRANCH  26  28
ATOM     28  C   UNL A   1      40.827  20.782  26.363  1.00  0.00     0.060 A 
ATOM     29  C   UNL A   1      40.817  20.771  27.764  1.00  0.00     0.016 A 
ATOM     30  C   UNL A   1      41.543  21.725  25.621  1.00  0.00     0.016 A 
ATOM     31  C   UNL A   1      41.312  21.871  28.421  1.00  0.00     0.010 A 
ATOM     32  C   UNL A   1      42.005  22.836  26.276  1.00  0.00     0.010 A 
ATOM     33  C   UNL A   1      41.800  22.928  27.653  1.00  0.00    -0.014 A 
BRANCH  33  34
ATOM     34  C   UNL A   1      42.137  24.156  28.329  1.00  0.00     0.031 A 
ATOM     35  C   UNL A   1      41.150  25.231  28.115  1.00  0.00     0.074 A 
ATOM     36  C   UNL A   1      43.173  24.217  29.186  1.00  0.00     0.049 A 
ATOM     37  N   UNL A   1      41.334  26.378  27.554  1.00  0.00    -0.248 NA
ATOM     38  C   UNL A   1      39.743  24.921  28.425  1.00  0.00     0.031 C 
ATOM     39  C   UNL A   1      43.987  23.100  29.680  1.00  0.00     0.029 A 
ATOM     40  N   UNL A   1      43.599  25.269  29.934  1.00  0.00    -0.354 N 
ATOM     41  C   UNL A   1      40.110  27.026  27.671  1.00  0.00     0.074 A 
ATOM     42  C   UNL A   1      39.133  26.023  27.998  1.00  0.00     0.031 C 
ATOM     43  C   UNL A   1      44.608  23.483  30.817  1.00  0.00     0.029 A 
ATOM     44  C   UNL A   1      44.320  24.887  31.058  1.00  0.00     0.049 A 
ATOM     45  H   UNL A   1      43.414  26.209  29.702  1.00  0.00     0.167 HD
ATOM     46  C   UNL A   1      40.031  28.375  27.793  1.00  0.00     0.034 A 
ATOM     47  C   UNL A   1      44.551  25.646  32.157  1.00  0.00     0.034 A 
ATOM     48  C   UNL A   1      41.231  29.033  27.352  1.00  0.00     0.049 A 
ATOM     49  C   UNL A   1      44.298  27.059  31.787  1.00  0.00     0.074 A 
ATOM     50  C   UNL A   1      41.957  29.042  26.178  1.00  0.00     0.029 A 
ATOM     51  N   UNL A   1      42.064  29.539  28.318  1.00  0.00    -0.354 N 
ATOM     52  N   UNL A   1      45.039  27.738  30.956  1.00  0.00    -0.248 NA
ATOM     53  C   UNL A   1      42.972  27.605  32.029  1.00  0.00     0.031 C 
ATOM     54  C   UNL A   1      43.319  29.115  26.586  1.00  0.00     0.029 A 
ATOM     55  C   UNL A   1      43.345  29.188  27.981  1.00  0.00     0.049 A 
ATOM     56  H   UNL A   1      41.792  30.058  29.109  1.00  0.00     0.167 HD
ATOM     57  C   UNL A   1      44.138  28.520  30.244  1.00  0.00     0.074 A 
ATOM     58  C   UNL A   1      42.907  28.490  31.031  1.00  0.00     0.031 C 
ATOM     59  C   UNL A   1      44.377  28.868  28.945  1.00  0.00     0.034 A 
BRANCH  46  60
ATOM     60  C   UNL A   1      39.006  29.059  28.657  1.00  0.00     0.023 A 
ATOM     61  C   UNL A   1      38.244  30.092  28.078  1.00  0.00     0.012 A 
ATOM     62  C   UNL A   1      38.924  28.907  30.062  1.00  0.00     0.148 A 
ATOM     63  C   UNL A   1      37.453  30.939  28.861  1.00  0.00     0.002 A 
ATOM     64  C   UNL A   1      38.057  29.680  30.820  1.00  0.00     0.091 A 
ATOM     65  F   UNL A   1      39.788  28.116  30.707  1.00  0.00    -0.205 F 
ATOM     66  C   UNL A   1      37.340  30.720  30.230  1.00  0.00     0.022 A 
BRANCH  64  67
ATOM     67  S   UNL A   1      37.826  29.355  32.571  1.00  0.00     0.127 S 
ATOM     68  O   UNL A   1      36.592  30.081  32.847  1.00  0.00    -0.237 OA
ATOM     69  O   UNL A   1      37.709  27.897  32.598  1.00  0.00    -0.237 OA
ATOM     70  O   UNL A   1      39.037  29.862  33.209  1.00  0.00    -0.744 OA
ENDBRANCH  64  67
ENDBRANCH  46  60
BRANCH  47  71
ATOM     71  C   UNL A   1      44.715  25.223  33.568  1.00  0.00     0.023 A 
ATOM     72  C   UNL A   1      43.573  24.975  34.352  1.00  0.00     0.012 A 
ATOM     73  C   UNL A   1      45.972  24.820  34.075  1.00  0.00     0.148 A 
ATOM     74  C   UNL A   1      43.675  24.325  35.589  1.00  0.00     0.002 A 
ATOM     75  C   UNL A   1      46.070  24.193  35.312  1.00  0.00     0.091 A 
ATOM     76  F   UNL A   1      47.059  24.965  33.306  1.00  0.00    -0.205 F 
ATOM     77  C   UNL A   1      44.921  23.931  36.067  1.00  0.00     0.022 A 
BRANCH  75  78
ATOM     78  S   UNL A   1      47.650  23.660  35.987  1.00  0.00     0.127 S 
ATOM     79  O   UNL A   1      47.267  23.169  37.311  1.00  0.00    -0.237 OA
ATOM     80  O   UNL A   1      48.049  22.622  35.041  1.00  0.00    -0.237 OA
ATOM     81  O   UNL A   1      48.489  24.851  36.015  1.00  0.00    -0.744 OA
ENDBRANCH  75  78
ENDBRANCH  47  71
BRANCH  59  82
ATOM     82  C   UNL A   1      45.756  28.619  28.381  1.00  0.00     0.023 A 
ATOM     83  C   UNL A   1      46.817  29.528  28.573  1.00  0.00     0.012 A 
ATOM     84  C   UNL A   1      46.036  27.364  27.812  1.00  0.00     0.148 A 
ATOM     85  C   UNL A   1      48.119  29.208  28.180  1.00  0.00     0.002 A 
ATOM     86  C   UNL A   1      47.341  27.029  27.469  1.00  0.00     0.091 A 
ATOM     87  F   UNL A   1      45.021  26.503  27.640  1.00  0.00    -0.205 F 
ATOM     88  C   UNL A   1      48.384  27.952  27.641  1.00  0.00     0.022 A 
BRANCH  86  89
ATOM     89  S   UNL A   1      47.766  25.380  26.902  1.00  0.00     0.127 S 
ATOM     90  O   UNL A   1      49.226  25.416  26.921  1.00  0.00    -0.237 OA
ATOM     91  O   UNL A   1      47.162  24.527  27.928  1.00  0.00    -0.237 OA
ATOM     92  O   UNL A   1      47.156  25.243  25.585  1.00  0.00    -0.744 OA
ENDBRANCH  86  89
ENDBRANCH  59  82
ENDBRANCH  33  34
ENDBRANCH  26  28
ENDBRANCH  25  26
ENDBRANCH  24  25
ENDBRANCH   1  24
TORSDOF 17
ENDMDL
MODEL 2
REMARK VINA RESULT:     -11.5      2.134      2.392
REMARK SMILES CCc1ccc(C(=O)N2Cc3nc[nH]c3C[C@@H]2C(=O)OCCOC(=O)c2ccc(-c3c4nc(c(-c5cccc(S(=O)(=O)[O-])c5F)c5ccc([nH]5)c(-c5cccc(S(=O)(=O)[O-])c5F)c5nc(c(-c6cccc(S(=O)(=O)[O-])c6F)c6ccc3[nH]6)C=C5)C=C4)cc2)o1
REMARK SMILES IDX 21 1 20 2 18 3 19 4 17 5 9 6 10 7 11 8 16 9 12 10 15 11
REMARK SMILES IDX 13 12 14 13 7 15 8 16 6 17 3 18 4 19 89 20 5 21 2 22 1 23
REMARK SMILES IDX 22 24 23 25 24 26 25 27 26 28 27 29 88 30 28 31 87 32 29 33
REMARK SMILES IDX 30 34 31 35 81 36 32 37 86 38 80 39 82 40 33 41 85 42 79 43
REMARK SMILES IDX 78 44 34 46 66 47 46 48 65 49 47 50 50 51 64 52 83 53 48 54
REMARK SMILES IDX 49 55 63 57 84 58 51 59 35 60 36 61 44 62 37 63 39 64 45 65
REMARK SMILES IDX 38 66 40 67 41 68 42 69 43 70 67 71 68 72 76 73 69 74 71 75
REMARK SMILES IDX 77 76 70 77 72 78 73 79 74 80 75 81 52 82 53 83 61 84 54 85
REMARK SMILES IDX 56 86 62 87 55 88 57 89 58 90 59 91 60 92
REMARK H PARENT 14 14 82 45 50 56
REMARK Flexibility Score: inf
ROOT
ATOM      1  C   UNL A   1      36.742  20.547  25.078  1.00  0.00     0.274 C 
ENDROOT
BRANCH   1   2
ATOM      2  O   UNL A   1      36.364  21.773  24.418  1.00  0.00    -0.461 OA
BRANCH   2   3
ATOM      3  C   UNL A   1      36.107  22.829  25.247  1.00  0.00     0.329 C 
ATOM      4  O   UNL A   1      36.866  23.163  26.149  1.00  0.00    -0.250 OA
BRANCH   3   5
ATOM      5  C   UNL A   1      34.839  23.623  24.850  1.00  0.00     0.201 C 
ATOM      6  N   UNL A   1      33.555  23.293  25.559  1.00  0.00    -0.316 N 
ATOM      7  C   UNL A   1      32.336  24.059  25.232  1.00  0.00     0.179 C 
ATOM      8  C   UNL A   1      32.371  24.567  23.832  1.00  0.00     0.081 A 
ATOM      9  C   UNL A   1      34.683  23.699  23.301  1.00  0.00     0.093 C 
ATOM     10  N   UNL A   1      31.379  25.298  23.229  1.00  0.00    -0.240 NA
ATOM     11  C   UNL A   1      33.438  24.427  22.983  1.00  0.00     0.042 A 
ATOM     12  C   UNL A   1      31.858  25.614  22.043  1.00  0.00     0.197 A 
ATOM     13  N   UNL A   1      33.124  25.121  21.855  1.00  0.00    -0.348 N 
ATOM     14  H   UNL A   1      33.693  25.245  21.062  1.00  0.00     0.167 HD
BRANCH   6  15
ATOM     15  C   UNL A   1      33.374  22.077  26.211  1.00  0.00     0.290 C 
ATOM     16  O   UNL A   1      33.568  21.978  27.421  1.00  0.00    -0.265 OA
BRANCH  15  17
ATOM     17  C   UNL A   1      33.067  20.951  25.342  1.00  0.00     0.191 A 
ATOM     18  C   UNL A   1      32.683  18.829  24.880  1.00  0.00     0.104 A 
ATOM     19  C   UNL A   1      32.441  19.524  23.715  1.00  0.00     0.046 A 
ATOM     20  O   UNL A   1      33.090  19.683  25.863  1.00  0.00    -0.456 OA
ATOM     21  C   UNL A   1      32.726  20.880  24.000  1.00  0.00     0.056 A 
BRANCH  18  22
ATOM     22  C   UNL A   1      32.597  17.389  25.227  1.00  0.00     0.072 C 
ATOM     23  C   UNL A   1      33.900  16.646  24.978  1.00  0.00     0.012 C 
ENDBRANCH  18  22
ENDBRANCH  15  17
ENDBRANCH   6  15
ENDBRANCH   3   5
ENDBRANCH   2   3
ENDBRANCH   1   2
BRANCH   1  24
ATOM     24  C   UNL A   1      38.185  20.163  24.769  1.00  0.00     0.275 C 
BRANCH  24  25
ATOM     25  O   UNL A   1      39.085  20.688  25.744  1.00  0.00    -0.458 OA
BRANCH  25  26
ATOM     26  C   UNL A   1      40.230  19.985  25.900  1.00  0.00     0.338 C 
ATOM     27  O   UNL A   1      40.394  18.798  25.681  1.00  0.00    -0.246 OA
BRANCH  26  28
ATOM     28  C   UNL A   1      41.243  20.810  26.557  1.00  0.00     0.060 A 
ATOM     29  C   UNL A   1      41.174  20.864  27.955  1.00  0.00     0.016 A 
ATOM     30  C   UNL A   1      41.914  21.771  25.796  1.00  0.00     0.016 A 
ATOM     31  C   UNL A   1      41.554  22.030  28.574  1.00  0.00     0.010 A 
ATOM     32  C   UNL A   1      42.261  22.945  26.411  1.00  0.00     0.010 A 
ATOM     33  C   UNL A   1      41.991  23.085  27.772  1.00  0.00    -0.014 A 
BRANCH  33  34
ATOM     34  C   UNL A   1      42.204  24.367  28.399  1.00  0.00     0.031 A 
ATOM     35  C   UNL A   1      41.148  25.349  28.092  1.00  0.00     0.074 A 
ATOM     36  C   UNL A   1      43.194  24.549  29.292  1.00  0.00     0.049 A 
ATOM     37  N   UNL A   1      41.267  26.479  27.481  1.00  0.00    -0.248 NA
ATOM     38  C   UNL A   1      39.757  24.945  28.361  1.00  0.00     0.031 C 
ATOM     39  C   UNL A   1      44.069  23.525  29.873  1.00  0.00     0.029 A 
ATOM     40  N   UNL A   1      43.505  25.666  30.002  1.00  0.00    -0.354 N 
ATOM     41  C   UNL A   1      39.993  27.034  27.516  1.00  0.00     0.074 A 
ATOM     42  C   UNL A   1      39.082  25.974  27.855  1.00  0.00     0.031 C 
ATOM     43  C   UNL A   1      44.609  24.009  31.014  1.00  0.00     0.029 A 
ATOM     44  C   UNL A   1      44.204  25.396  31.172  1.00  0.00     0.049 A 
ATOM     45  H   UNL A   1      43.259  26.576  29.715  1.00  0.00     0.167 HD
ATOM     46  C   UNL A   1      39.806  28.377  27.567  1.00  0.00     0.034 A 
ATOM     47  C   UNL A   1      44.328  26.222  32.239  1.00  0.00     0.034 A 
ATOM     48  C   UNL A   1      40.969  29.105  27.141  1.00  0.00     0.049 A 
ATOM     49  C   UNL A   1      43.984  27.591  31.787  1.00  0.00     0.074 A 
ATOM     50  C   UNL A   1      41.742  29.116  25.997  1.00  0.00     0.029 A 
ATOM     51  N   UNL A   1      41.719  29.720  28.113  1.00  0.00    -0.354 N 
ATOM     52  N   UNL A   1      44.706  28.286  30.954  1.00  0.00    -0.248 NA
ATOM     53  C   UNL A   1      42.611  28.042  31.949  1.00  0.00     0.031 C 
ATOM     54  C   UNL A   1      43.077  29.315  26.455  1.00  0.00     0.029 A 
ATOM     55  C   UNL A   1      43.036  29.456  27.844  1.00  0.00     0.049 A 
ATOM     56  H   UNL A   1      41.373  30.254  28.864  1.00  0.00     0.167 HD
ATOM     57  C   UNL A   1      43.779  28.961  30.167  1.00  0.00     0.074 A 
ATOM     58  C   UNL A   1      42.521  28.871  30.906  1.00  0.00     0.031 C 
ATOM     59  C   UNL A   1      44.047  29.264  28.863  1.00  0.00     0.034 A 
BRANCH  46  60
ATOM     60  C   UNL A   1      38.694  29.018  28.354  1.00  0.00     0.023 A 
ATOM     61  C   UNL A   1      37.791  29.845  27.659  1.00  0.00     0.012 A 
ATOM     62  C   UNL A   1      38.638  29.047  29.768  1.00  0.00     0.148 A 
ATOM     63  C   UNL A   1      36.887  30.669  28.340  1.00  0.00     0.002 A 
ATOM     64  C   UNL A   1      37.670  29.783  30.435  1.00  0.00     0.091 A 
ATOM     65  F   UNL A   1      39.608  28.480  30.494  1.00  0.00    -0.205 F 
ATOM     66  C   UNL A   1      36.811  30.622  29.727  1.00  0.00     0.022 A 
BRANCH  64  67
ATOM     67  S   UNL A   1      37.493  29.668  32.218  1.00  0.00     0.127 S 
ATOM     68  O   UNL A   1      36.247  30.394  32.439  1.00  0.00    -0.237 OA
ATOM     69  O   UNL A   1      37.414  28.221  32.423  1.00  0.00    -0.237 OA
ATOM     70  O   UNL A   1      38.705  30.276  32.757  1.00  0.00    -0.744 OA
ENDBRANCH  64  67
ENDBRANCH  46  60
BRANCH  47  71
ATOM     71  C   UNL A   1      44.463  25.881  33.674  1.00  0.00     0.023 A 
ATOM     72  C   UNL A   1      45.744  25.652  34.213  1.00  0.00     0.012 A 
ATOM     73  C   UNL A   1      43.379  26.024  34.571  1.00  0.00     0.148 A 
ATOM     74  C   UNL A   1      45.942  25.591  35.598  1.00  0.00     0.002 A 
ATOM     75  C   UNL A   1      43.579  25.944  35.944  1.00  0.00     0.091 A 
ATOM     76  F   UNL A   1      42.171  26.332  34.083  1.00  0.00    -0.205 F 
ATOM     77  C   UNL A   1      44.863  25.741  36.463  1.00  0.00     0.022 A 
BRANCH  75  78
ATOM     78  S   UNL A   1      42.227  26.127  37.116  1.00  0.00     0.127 S 
ATOM     79  O   UNL A   1      41.472  24.891  36.908  1.00  0.00    -0.237 OA
ATOM     80  O   UNL A   1      42.937  26.205  38.389  1.00  0.00    -0.237 OA
ATOM     81  O   UNL A   1      41.514  27.333  36.711  1.00  0.00    -0.744 OA
ENDBRANCH  75  78
ENDBRANCH  47  71
BRANCH  59  82
ATOM     82  C   UNL A   1      45.464  29.098  28.367  1.00  0.00     0.023 A 
ATOM     83  C   UNL A   1      45.950  27.859  27.898  1.00  0.00     0.012 A 
ATOM     84  C   UNL A   1      46.258  30.244  28.195  1.00  0.00     0.148 A 
ATOM     85  C   UNL A   1      47.209  27.760  27.300  1.00  0.00     0.002 A 
ATOM     86  C   UNL A   1      47.489  30.151  27.553  1.00  0.00     0.091 A 
ATOM     87  F   UNL A   1      45.784  31.419  28.637  1.00  0.00    -0.205 F 
ATOM     88  C   UNL A   1      47.972  28.909  27.114  1.00  0.00     0.022 A 
BRANCH  86  89
ATOM     89  S   UNL A   1      48.453  31.613  27.160  1.00  0.00     0.127 S 
ATOM     90  O   UNL A   1      49.613  31.041  26.481  1.00  0.00    -0.237 OA
ATOM     91  O   UNL A   1      47.546  32.367  26.292  1.00  0.00    -0.237 OA
ATOM     92  O   UNL A   1      48.726  32.263  28.436  1.00  0.00    -0.744 OA
ENDBRANCH  86  89
ENDBRANCH  59  82
ENDBRANCH  33  34
ENDBRANCH  26  28
ENDBRANCH  25  26
ENDBRANCH  24  25
ENDBRANCH   1  24
TORSDOF 17
ENDMDL
MODEL 3
REMARK VINA RESULT:     -11.3      1.235      2.895
REMARK SMILES CCc1ccc(C(=O)N2Cc3nc[nH]c3C[C@@H]2C(=O)OCCOC(=O)c2ccc(-c3c4nc(c(-c5cccc(S(=O)(=O)[O-])c5F)c5ccc([nH]5)c(-c5cccc(S(=O)(=O)[O-])c5F)c5nc(c(-c6cccc(S(=O)(=O)[O-])c6F)c6ccc3[nH]6)C=C5)C=C4)cc2)o1
REMARK SMILES IDX 21 1 20 2 18 3 19 4 17 5 9 6 10 7 11 8 16 9 12 10 15 11
REMARK SMILES IDX 13 12 14 13 7 15 8 16 6 17 3 18 4 19 89 20 5 21 2 22 1 23
REMARK SMILES IDX 22 24 23 25 24 26 25 27 26 28 27 29 88 30 28 31 87 32 29 33
REMARK SMILES IDX 30 34 31 35 81 36 32 37 86 38 80 39 82 40 33 41 85 42 79 43
REMARK SMILES IDX 78 44 34 46 66 47 46 48 65 49 47 50 50 51 64 52 83 53 48 54
REMARK SMILES IDX 49 55 63 57 84 58 51 59 35 60 36 61 44 62 37 63 39 64 45 65
REMARK SMILES IDX 38 66 40 67 41 68 42 69 43 70 67 71 68 72 76 73 69 74 71 75
REMARK SMILES IDX 77 76 70 77 72 78 73 79 74 80 75 81 52 82 53 83 61 84 54 85
REMARK SMILES IDX 56 86 62 87 55 88 57 89 58 90 59 91 60 92
REMARK H PARENT 14 14 82 45 50 56
REMARK Flexibility Score: inf
ROOT
ATOM      1  C   UNL A   1      37.810  23.211  25.460  1.00  0.00     0.274 C 
ENDROOT
BRANCH   1   2
ATOM      2  O   UNL A   1      36.379  23.112  25.303  1.00  0.00    -0.461 OA
BRANCH   2   3
ATOM      3  C   UNL A   1      35.947  22.855  24.032  1.00  0.00     0.329 C 
ATOM      4  O   UNL A   1      36.442  23.382  23.044  1.00  0.00    -0.250 OA
BRANCH   3   5
ATOM      5  C   UNL A   1      34.867  21.747  23.968  1.00  0.00     0.201 C 
ATOM      6  N   UNL A   1      33.425  22.175  23.947  1.00  0.00    -0.316 N 
ATOM      7  C   UNL A   1      32.372  21.144  23.846  1.00  0.00     0.179 C 
ATOM      8  C   UNL A   1      32.816  19.851  24.434  1.00  0.00     0.081 A 
ATOM      9  C   UNL A   1      35.157  20.615  24.998  1.00  0.00     0.093 C 
ATOM     10  N   UNL A   1      32.058  18.710  24.506  1.00  0.00    -0.240 NA
ATOM     11  C   UNL A   1      34.075  19.613  24.923  1.00  0.00     0.042 A 
ATOM     12  C   UNL A   1      32.862  17.794  25.005  1.00  0.00     0.197 A 
ATOM     13  N   UNL A   1      34.114  18.294  25.257  1.00  0.00    -0.348 N 
ATOM     14  H   UNL A   1      34.887  17.797  25.608  1.00  0.00     0.167 HD
BRANCH   6  15
ATOM     15  C   UNL A   1      33.031  23.431  24.396  1.00  0.00     0.290 C 
ATOM     16  O   UNL A   1      32.918  23.663  25.598  1.00  0.00    -0.265 OA
BRANCH  15  17
ATOM     17  C   UNL A   1      32.657  24.370  23.349  1.00  0.00     0.191 A 
ATOM     18  C   UNL A   1      31.647  26.151  22.528  1.00  0.00     0.104 A 
ATOM     19  C   UNL A   1      32.434  25.655  21.512  1.00  0.00     0.046 A 
ATOM     20  O   UNL A   1      31.755  25.362  23.637  1.00  0.00    -0.456 OA
ATOM     21  C   UNL A   1      33.051  24.490  22.025  1.00  0.00     0.056 A 
BRANCH  18  22
ATOM     22  C   UNL A   1      30.742  27.323  22.617  1.00  0.00     0.072 C 
ATOM     23  C   UNL A   1      29.599  27.108  23.596  1.00  0.00     0.012 C 
ENDBRANCH  18  22
ENDBRANCH  15  17
ENDBRANCH   6  15
ENDBRANCH   3   5
ENDBRANCH   2   3
ENDBRANCH   1   2
BRANCH   1  24
ATOM     24  C   UNL A   1      38.392  21.968  26.127  1.00  0.00     0.275 C 
BRANCH  24  25
ATOM     25  O   UNL A   1      38.882  21.040  25.162  1.00  0.00    -0.458 OA
BRANCH  25  26
ATOM     26  C   UNL A   1      39.784  20.149  25.634  1.00  0.00     0.338 C 
ATOM     27  O   UNL A   1      39.669  18.936  25.658  1.00  0.00    -0.246 OA
BRANCH  26  28
ATOM     28  C   UNL A   1      40.882  20.847  26.300  1.00  0.00     0.060 A 
ATOM     29  C   UNL A   1      40.880  20.795  27.700  1.00  0.00     0.016 A 
ATOM     30  C   UNL A   1      41.588  21.816  25.582  1.00  0.00     0.016 A 
ATOM     31  C   UNL A   1      41.371  21.879  28.386  1.00  0.00     0.010 A 
ATOM     32  C   UNL A   1      42.047  22.911  26.266  1.00  0.00     0.010 A 
ATOM     33  C   UNL A   1      41.848  22.961  27.646  1.00  0.00    -0.014 A 
BRANCH  33  34
ATOM     34  C   UNL A   1      42.182  24.171  28.356  1.00  0.00     0.031 A 
ATOM     35  C   UNL A   1      41.202  25.255  28.154  1.00  0.00     0.074 A 
ATOM     36  C   UNL A   1      43.206  24.206  29.229  1.00  0.00     0.049 A 
ATOM     37  N   UNL A   1      41.399  26.415  27.624  1.00  0.00    -0.248 NA
ATOM     38  C   UNL A   1      39.790  24.945  28.437  1.00  0.00     0.031 C 
ATOM     39  C   UNL A   1      44.008  23.075  29.707  1.00  0.00     0.029 A 
ATOM     40  N   UNL A   1      43.625  25.239  30.007  1.00  0.00    -0.354 N 
ATOM     41  C   UNL A   1      40.176  27.066  27.738  1.00  0.00     0.074 A 
ATOM     42  C   UNL A   1      39.190  26.060  28.028  1.00  0.00     0.031 C 
ATOM     43  C   UNL A   1      44.615  23.427  30.862  1.00  0.00     0.029 A 
ATOM     44  C   UNL A   1      44.330  24.827  31.132  1.00  0.00     0.049 A 
ATOM     45  H   UNL A   1      43.448  26.185  29.795  1.00  0.00     0.167 HD
ATOM     46  C   UNL A   1      40.102  28.412  27.892  1.00  0.00     0.034 A 
ATOM     47  C   UNL A   1      44.549  25.559  32.252  1.00  0.00     0.034 A 
ATOM     48  C   UNL A   1      41.310  29.074  27.483  1.00  0.00     0.049 A 
ATOM     49  C   UNL A   1      44.306  26.981  31.911  1.00  0.00     0.074 A 
ATOM     50  C   UNL A   1      42.052  29.108  26.320  1.00  0.00     0.029 A 
ATOM     51  N   UNL A   1      42.132  29.553  28.473  1.00  0.00    -0.354 N 
ATOM     52  N   UNL A   1      45.062  27.676  31.108  1.00  0.00    -0.248 NA
ATOM     53  C   UNL A   1      42.980  27.527  32.148  1.00  0.00     0.031 C 
ATOM     54  C   UNL A   1      43.410  29.164  26.748  1.00  0.00     0.029 A 
ATOM     55  C   UNL A   1      43.416  29.204  28.145  1.00  0.00     0.049 A 
ATOM     56  H   UNL A   1      41.851  30.055  29.272  1.00  0.00     0.167 HD
ATOM     57  C   UNL A   1      44.174  28.479  30.402  1.00  0.00     0.074 A 
ATOM     58  C   UNL A   1      42.933  28.436  31.171  1.00  0.00     0.031 C 
ATOM     59  C   UNL A   1      44.434  28.857  29.115  1.00  0.00     0.034 A 
BRANCH  46  60
ATOM     60  C   UNL A   1      39.067  29.079  28.758  1.00  0.00     0.023 A 
ATOM     61  C   UNL A   1      38.204  30.011  28.149  1.00  0.00     0.012 A 
ATOM     62  C   UNL A   1      39.061  29.023  30.172  1.00  0.00     0.148 A 
ATOM     63  C   UNL A   1      37.387  30.852  28.911  1.00  0.00     0.002 A 
ATOM     64  C   UNL A   1      38.172  29.783  30.918  1.00  0.00     0.091 A 
ATOM     65  F   UNL A   1      40.010  28.345  30.825  1.00  0.00    -0.205 F 
ATOM     66  C   UNL A   1      37.353  30.724  30.296  1.00  0.00     0.022 A 
BRANCH  64  67
ATOM     67  S   UNL A   1      38.046  29.569  32.697  1.00  0.00     0.127 S 
ATOM     68  O   UNL A   1      37.534  28.207  32.795  1.00  0.00    -0.237 OA
ATOM     69  O   UNL A   1      39.435  29.744  33.124  1.00  0.00    -0.237 OA
ATOM     70  O   UNL A   1      37.152  30.634  33.141  1.00  0.00    -0.744 OA
ENDBRANCH  64  67
ENDBRANCH  46  60
BRANCH  47  71
ATOM     71  C   UNL A   1      44.691  25.102  33.654  1.00  0.00     0.023 A 
ATOM     72  C   UNL A   1      43.537  24.836  34.415  1.00  0.00     0.012 A 
ATOM     73  C   UNL A   1      45.940  24.684  34.169  1.00  0.00     0.148 A 
ATOM     74  C   UNL A   1      43.620  24.157  35.637  1.00  0.00     0.002 A 
ATOM     75  C   UNL A   1      46.019  24.027  35.392  1.00  0.00     0.091 A 
ATOM     76  F   UNL A   1      47.038  24.845  33.420  1.00  0.00    -0.205 F 
ATOM     77  C   UNL A   1      44.858  23.749  36.124  1.00  0.00     0.022 A 
BRANCH  75  78
ATOM     78  S   UNL A   1      47.587  23.474  36.077  1.00  0.00     0.127 S 
ATOM     79  O   UNL A   1      47.193  23.007  37.407  1.00  0.00    -0.237 OA
ATOM     80  O   UNL A   1      47.970  22.418  35.145  1.00  0.00    -0.237 OA
ATOM     81  O   UNL A   1      48.448  24.651  36.093  1.00  0.00    -0.744 OA
ENDBRANCH  75  78
ENDBRANCH  47  71
BRANCH  59  82
ATOM     82  C   UNL A   1      45.819  28.614  28.564  1.00  0.00     0.023 A 
ATOM     83  C   UNL A   1      46.872  29.533  28.760  1.00  0.00     0.012 A 
ATOM     84  C   UNL A   1      46.112  27.359  28.004  1.00  0.00     0.148 A 
ATOM     85  C   UNL A   1      48.179  29.219  28.380  1.00  0.00     0.002 A 
ATOM     86  C   UNL A   1      47.423  27.031  27.674  1.00  0.00     0.091 A 
ATOM     87  F   UNL A   1      45.105  26.489  27.829  1.00  0.00    -0.205 F 
ATOM     88  C   UNL A   1      48.457  27.963  27.851  1.00  0.00     0.022 A 
BRANCH  86  89
ATOM     89  S   UNL A   1      47.865  25.382  27.120  1.00  0.00     0.127 S 
ATOM     90  O   UNL A   1      47.023  24.539  27.965  1.00  0.00    -0.237 OA
ATOM     91  O   UNL A   1      47.481  25.409  25.707  1.00  0.00    -0.237 OA
ATOM     92  O   UNL A   1      49.301  25.261  27.340  1.00  0.00    -0.744 OA
ENDBRANCH  86  89
ENDBRANCH  59  82
ENDBRANCH  33  34
ENDBRANCH  26  28
ENDBRANCH  25  26
ENDBRANCH  24  25
ENDBRANCH   1  24
TORSDOF 17
ENDMDL
