MODEL 1
REMARK VINA RESULT:     -13.5      0.000      0.000
REMARK SMILES CCC(=O)Nc1ccc(NC(=O)[C@@H]2CC=CC[C@@H]2C(=O)OCCOC(=O)c2ccc(-c3c4nc(c(-c5cccc(S(=O)(=O)[O-])c5F)c5ccc([nH]5)c(-c5cccc(S(=O)(=O)[O-])c5F)c5nc(c(-c6cccc(S(=O)(=O)[O-])c6F)c6ccc3[nH]6)C=C5)C=C4)cc2)cc1
REMARK SMILES IDX 22 1 21 2 19 3 20 4 18 5 13 6 14 7 15 8 17 9 16 10 11 11
REMARK SMILES IDX 10 12 12 14 9 15 6 16 7 17 91 18 8 19 90 20 5 21 3 22 4 23
REMARK SMILES IDX 2 25 1 26 23 27 24 28 25 29 26 30 27 31 28 32 89 33 29 34
REMARK SMILES IDX 88 35 30 36 31 37 32 38 82 39 33 40 87 41 81 42 83 43 34 44
REMARK SMILES IDX 86 45 80 46 79 47 35 49 67 50 47 51 66 52 48 53 51 54 65 55
REMARK SMILES IDX 84 56 49 57 50 58 64 60 85 61 52 62 36 63 37 64 45 65 38 66
REMARK SMILES IDX 40 67 46 68 39 69 41 70 42 71 43 72 44 73 68 74 69 75 77 76
REMARK SMILES IDX 70 77 72 78 78 79 71 80 73 81 74 82 75 83 76 84 53 85 54 86
REMARK SMILES IDX 62 87 55 88 57 89 63 90 56 91 58 92 59 93 60 94 61 95
REMARK H PARENT 10 13 5 24 83 48 51 59
REMARK Flexibility Score: inf
ROOT
ATOM      1  C   UNL A   1      31.818  27.845  27.000  1.00  0.00     0.274 C 
ENDROOT
BRANCH   1   2
ATOM      2  O   UNL A   1      31.914  26.489  26.452  1.00  0.00    -0.462 OA
BRANCH   2   3
ATOM      3  C   UNL A   1      30.755  26.016  25.904  1.00  0.00     0.310 C 
ATOM      4  O   UNL A   1      29.767  25.760  26.594  1.00  0.00    -0.252 OA
BRANCH   3   5
ATOM      5  C   UNL A   1      30.760  25.781  24.361  1.00  0.00     0.116 C 
ATOM      6  C   UNL A   1      31.654  26.491  23.269  1.00  0.00     0.097 C 
ATOM      7  C   UNL A   1      31.147  27.794  22.585  1.00  0.00     0.041 C 
ATOM      8  C   UNL A   1      29.750  28.200  22.923  1.00  0.00    -0.030 C 
ATOM      9  C   UNL A   1      29.269  25.967  23.913  1.00  0.00     0.043 C 
ATOM     10  C   UNL A   1      28.900  27.380  23.548  1.00  0.00    -0.030 C 
BRANCH   6  11
ATOM     11  C   UNL A   1      33.191  26.503  23.294  1.00  0.00     0.228 C 
ATOM     12  N   UNL A   1      33.984  25.518  23.796  1.00  0.00    -0.326 N 
ATOM     13  H   UNL A   1      34.909  25.801  23.978  1.00  0.00     0.169 HD
ATOM     14  O   UNL A   1      33.772  27.539  22.936  1.00  0.00    -0.274 OA
BRANCH  12  15
ATOM     15  C   UNL A   1      33.728  24.183  24.100  1.00  0.00     0.041 A 
ATOM     16  C   UNL A   1      32.744  20.768  24.959  1.00  0.00     0.041 A 
ATOM     17  C   UNL A   1      33.353  21.874  26.242  1.00  0.00     0.028 A 
ATOM     18  C   UNL A   1      32.500  21.377  23.272  1.00  0.00     0.028 A 
ATOM     19  C   UNL A   1      33.782  23.595  25.805  1.00  0.00     0.028 A 
ATOM     20  C   UNL A   1      33.065  23.072  22.801  1.00  0.00     0.028 A 
BRANCH  16  21
ATOM     21  N   UNL A   1      32.256  19.542  25.399  1.00  0.00    -0.326 N 
ATOM     22  C   UNL A   1      32.841  18.316  25.260  1.00  0.00     0.224 C 
ATOM     23  O   UNL A   1      32.382  17.385  25.928  1.00  0.00    -0.275 OA
ATOM     24  H   UNL A   1      31.389  19.560  25.864  1.00  0.00     0.169 HD
BRANCH  22  25
ATOM     25  C   UNL A   1      34.044  18.113  24.364  1.00  0.00     0.097 C 
ATOM     26  C   UNL A   1      33.748  17.240  23.165  1.00  0.00     0.014 C 
ENDBRANCH  22  25
ENDBRANCH  16  21
ENDBRANCH  12  15
ENDBRANCH   6  11
ENDBRANCH   3   5
ENDBRANCH   2   3
ENDBRANCH   1   2
BRANCH   1  27
ATOM     27  C   UNL A   1      31.811  28.991  25.978  1.00  0.00     0.275 C 
BRANCH  27  28
ATOM     28  O   UNL A   1      31.332  30.220  26.587  1.00  0.00    -0.458 OA
BRANCH  28  29
ATOM     29  C   UNL A   1      32.332  31.260  26.928  1.00  0.00     0.338 C 
ATOM     30  O   UNL A   1      31.612  32.293  26.821  1.00  0.00    -0.246 OA
BRANCH  29  31
ATOM     31  C   UNL A   1      34.400  30.998  27.498  1.00  0.00     0.060 A 
ATOM     32  C   UNL A   1      35.116  29.740  27.932  1.00  0.00     0.016 A 
ATOM     33  C   UNL A   1      35.490  32.020  27.784  1.00  0.00     0.016 A 
ATOM     34  C   UNL A   1      36.194  29.602  28.798  1.00  0.00     0.010 A 
ATOM     35  C   UNL A   1      36.743  31.850  28.418  1.00  0.00     0.010 A 
ATOM     36  C   UNL A   1      37.062  30.639  28.983  1.00  0.00    -0.014 A 
BRANCH  36  37
ATOM     37  C   UNL A   1      38.335  30.388  29.662  1.00  0.00     0.031 A 
ATOM     38  C   UNL A   1      39.335  29.489  29.018  1.00  0.00     0.074 A 
ATOM     39  C   UNL A   1      38.512  30.959  30.869  1.00  0.00     0.049 A 
ATOM     40  N   UNL A   1      40.349  28.887  29.564  1.00  0.00    -0.248 NA
ATOM     41  C   UNL A   1      39.143  29.176  27.588  1.00  0.00     0.031 C 
ATOM     42  C   UNL A   1      37.557  31.861  31.538  1.00  0.00     0.029 A 
ATOM     43  N   UNL A   1      39.535  30.862  31.767  1.00  0.00    -0.354 N 
ATOM     44  C   UNL A   1      40.861  28.049  28.583  1.00  0.00     0.074 A 
ATOM     45  C   UNL A   1      40.057  28.234  27.396  1.00  0.00     0.031 C 
ATOM     46  C   UNL A   1      38.055  32.267  32.706  1.00  0.00     0.029 A 
ATOM     47  C   UNL A   1      39.263  31.510  32.951  1.00  0.00     0.049 A 
ATOM     48  H   UNL A   1      40.377  30.382  31.588  1.00  0.00     0.167 HD
ATOM     49  C   UNL A   1      41.901  27.195  28.703  1.00  0.00     0.034 A 
ATOM     50  C   UNL A   1      39.848  31.402  34.152  1.00  0.00     0.034 A 
ATOM     51  C   UNL A   1      42.671  27.099  29.914  1.00  0.00     0.049 A 
ATOM     52  C   UNL A   1      40.996  30.454  34.246  1.00  0.00     0.074 A 
ATOM     53  C   UNL A   1      43.777  26.316  30.178  1.00  0.00     0.029 A 
ATOM     54  N   UNL A   1      42.406  27.824  31.072  1.00  0.00    -0.354 N 
ATOM     55  N   UNL A   1      41.480  29.664  33.317  1.00  0.00    -0.248 NA
ATOM     56  C   UNL A   1      41.687  30.392  35.532  1.00  0.00     0.031 C 
ATOM     57  C   UNL A   1      44.159  26.545  31.504  1.00  0.00     0.029 A 
ATOM     58  C   UNL A   1      43.326  27.510  32.053  1.00  0.00     0.049 A 
ATOM     59  H   UNL A   1      41.669  28.468  31.177  1.00  0.00     0.167 HD
ATOM     60  C   UNL A   1      42.561  29.025  33.895  1.00  0.00     0.074 A 
ATOM     61  C   UNL A   1      42.667  29.547  35.249  1.00  0.00     0.031 C 
ATOM     62  C   UNL A   1      43.391  28.091  33.370  1.00  0.00     0.034 A 
BRANCH  49  63
ATOM     63  C   UNL A   1      42.247  26.316  27.529  1.00  0.00     0.023 A 
ATOM     64  C   UNL A   1      43.031  26.815  26.469  1.00  0.00     0.012 A 
ATOM     65  C   UNL A   1      41.827  24.970  27.495  1.00  0.00     0.148 A 
ATOM     66  C   UNL A   1      43.363  26.002  25.383  1.00  0.00     0.002 A 
ATOM     67  C   UNL A   1      42.204  24.153  26.436  1.00  0.00     0.091 A 
ATOM     68  F   UNL A   1      41.061  24.516  28.497  1.00  0.00    -0.205 F 
ATOM     69  C   UNL A   1      42.961  24.670  25.373  1.00  0.00     0.022 A 
BRANCH  67  70
ATOM     70  S   UNL A   1      41.799  22.403  26.363  1.00  0.00     0.127 S 
ATOM     71  O   UNL A   1      40.339  22.440  26.296  1.00  0.00    -0.237 OA
ATOM     72  O   UNL A   1      42.457  21.992  25.123  1.00  0.00    -0.237 OA
ATOM     73  O   UNL A   1      42.347  21.808  27.575  1.00  0.00    -0.744 OA
ENDBRANCH  67  70
ENDBRANCH  49  63
BRANCH  50  74
ATOM     74  C   UNL A   1      39.316  32.166  35.312  1.00  0.00     0.023 A 
ATOM     75  C   UNL A   1      38.408  31.547  36.188  1.00  0.00     0.012 A 
ATOM     76  C   UNL A   1      39.777  33.468  35.606  1.00  0.00     0.148 A 
ATOM     77  C   UNL A   1      37.944  32.221  37.319  1.00  0.00     0.002 A 
ATOM     78  C   UNL A   1      39.363  34.106  36.768  1.00  0.00     0.091 A 
ATOM     79  F   UNL A   1      40.650  34.039  34.764  1.00  0.00    -0.205 F 
ATOM     80  C   UNL A   1      38.430  33.493  37.616  1.00  0.00     0.022 A 
BRANCH  78  81
ATOM     81  S   UNL A   1      40.061  35.671  37.306  1.00  0.00     0.127 S 
ATOM     82  O   UNL A   1      39.499  35.802  38.647  1.00  0.00    -0.237 OA
ATOM     83  O   UNL A   1      41.498  35.392  37.263  1.00  0.00    -0.237 OA
ATOM     84  O   UNL A   1      39.616  36.655  36.329  1.00  0.00    -0.744 OA
ENDBRANCH  78  81
ENDBRANCH  50  74
BRANCH  62  85
ATOM     85  C   UNL A   1      44.514  27.643  34.256  1.00  0.00     0.023 A 
ATOM     86  C   UNL A   1      45.730  28.351  34.273  1.00  0.00     0.012 A 
ATOM     87  C   UNL A   1      44.332  26.531  35.096  1.00  0.00     0.148 A 
ATOM     88  C   UNL A   1      46.773  27.926  35.090  1.00  0.00     0.002 A 
ATOM     89  C   UNL A   1      45.351  26.154  35.954  1.00  0.00     0.091 A 
ATOM     90  F   UNL A   1      43.170  25.865  35.035  1.00  0.00    -0.205 F 
ATOM     91  C   UNL A   1      46.578  26.837  35.940  1.00  0.00     0.022 A 
BRANCH  89  92
ATOM     92  S   UNL A   1      45.148  24.840  37.156  1.00  0.00     0.127 S 
ATOM     93  O   UNL A   1      46.461  24.821  37.798  1.00  0.00    -0.237 OA
ATOM     94  O   UNL A   1      44.064  25.356  37.992  1.00  0.00    -0.237 OA
ATOM     95  O   UNL A   1      44.811  23.643  36.396  1.00  0.00    -0.744 OA
ENDBRANCH  89  92
ENDBRANCH  62  85
ENDBRANCH  36  37
ENDBRANCH  29  31
ENDBRANCH  28  29
ENDBRANCH  27  28
ENDBRANCH   1  27
TORSDOF 18
ENDMDL
MODEL 2
REMARK VINA RESULT:     -13.0      4.991     10.310
REMARK SMILES CCC(=O)Nc1ccc(NC(=O)[C@@H]2CC=CC[C@@H]2C(=O)OCCOC(=O)c2ccc(-c3c4nc(c(-c5cccc(S(=O)(=O)[O-])c5F)c5ccc([nH]5)c(-c5cccc(S(=O)(=O)[O-])c5F)c5nc(c(-c6cccc(S(=O)(=O)[O-])c6F)c6ccc3[nH]6)C=C5)C=C4)cc2)cc1
REMARK SMILES IDX 22 1 21 2 19 3 20 4 18 5 13 6 14 7 15 8 17 9 16 10 11 11
REMARK SMILES IDX 10 12 12 14 9 15 6 16 7 17 91 18 8 19 90 20 5 21 3 22 4 23
REMARK SMILES IDX 2 25 1 26 23 27 24 28 25 29 26 30 27 31 28 32 89 33 29 34
REMARK SMILES IDX 88 35 30 36 31 37 32 38 82 39 33 40 87 41 81 42 83 43 34 44
REMARK SMILES IDX 86 45 80 46 79 47 35 49 67 50 47 51 66 52 48 53 51 54 65 55
REMARK SMILES IDX 84 56 49 57 50 58 64 60 85 61 52 62 36 63 37 64 45 65 38 66
REMARK SMILES IDX 40 67 46 68 39 69 41 70 42 71 43 72 44 73 68 74 69 75 77 76
REMARK SMILES IDX 70 77 72 78 78 79 71 80 73 81 74 82 75 83 76 84 53 85 54 86
REMARK SMILES IDX 62 87 55 88 57 89 63 90 56 91 58 92 59 93 60 94 61 95
REMARK H PARENT 10 13 5 24 83 48 51 59
REMARK Flexibility Score: inf
ROOT
ATOM      1  C   UNL A   1      36.604  23.611  24.061  1.00  0.00     0.274 C 
ENDROOT
BRANCH   1   2
ATOM      2  O   UNL A   1      35.327  24.326  24.007  1.00  0.00    -0.462 OA
BRANCH   2   3
ATOM      3  C   UNL A   1      34.405  23.908  24.926  1.00  0.00     0.310 C 
ATOM      4  O   UNL A   1      34.716  23.663  26.092  1.00  0.00    -0.252 OA
BRANCH   3   5
ATOM      5  C   UNL A   1      32.943  23.721  24.410  1.00  0.00     0.116 C 
ATOM      6  C   UNL A   1      31.658  23.328  25.241  1.00  0.00     0.097 C 
ATOM      7  C   UNL A   1      31.280  21.828  25.413  1.00  0.00     0.041 C 
ATOM      8  C   UNL A   1      32.107  20.859  24.634  1.00  0.00    -0.030 C 
ATOM      9  C   UNL A   1      33.054  22.689  23.236  1.00  0.00     0.043 C 
ATOM     10  C   UNL A   1      32.933  21.249  23.658  1.00  0.00    -0.030 C 
BRANCH   6  11
ATOM     11  C   UNL A   1      31.150  24.117  26.458  1.00  0.00     0.228 C 
ATOM     12  N   UNL A   1      31.030  25.470  26.534  1.00  0.00    -0.326 N 
ATOM     13  H   UNL A   1      30.953  25.816  27.452  1.00  0.00     0.169 HD
ATOM     14  O   UNL A   1      30.935  23.493  27.509  1.00  0.00    -0.274 OA
BRANCH  12  15
ATOM     15  C   UNL A   1      30.996  26.456  25.550  1.00  0.00     0.041 A 
ATOM     16  C   UNL A   1      30.616  29.136  23.093  1.00  0.00     0.041 A 
ATOM     17  C   UNL A   1      29.973  27.494  22.733  1.00  0.00     0.028 A 
ATOM     18  C   UNL A   1      31.337  29.497  24.714  1.00  0.00     0.028 A 
ATOM     19  C   UNL A   1      30.118  26.183  23.997  1.00  0.00     0.028 A 
ATOM     20  C   UNL A   1      31.611  28.139  25.937  1.00  0.00     0.028 A 
BRANCH  16  21
ATOM     21  N   UNL A   1      30.298  30.126  22.169  1.00  0.00    -0.326 N 
ATOM     22  C   UNL A   1      29.118  30.803  22.048  1.00  0.00     0.224 C 
ATOM     23  O   UNL A   1      29.108  31.811  21.336  1.00  0.00    -0.275 OA
ATOM     24  H   UNL A   1      31.005  30.367  21.528  1.00  0.00     0.169 HD
BRANCH  22  25
ATOM     25  C   UNL A   1      27.880  30.369  22.804  1.00  0.00     0.097 C 
ATOM     26  C   UNL A   1      27.417  31.392  23.817  1.00  0.00     0.014 C 
ENDBRANCH  22  25
ENDBRANCH  16  21
ENDBRANCH  12  15
ENDBRANCH   6  11
ENDBRANCH   3   5
ENDBRANCH   2   3
ENDBRANCH   1   2
BRANCH   1  27
ATOM     27  C   UNL A   1      36.607  22.183  23.494  1.00  0.00     0.275 C 
BRANCH  27  28
ATOM     28  O   UNL A   1      36.673  21.204  24.565  1.00  0.00    -0.458 OA
BRANCH  28  29
ATOM     29  C   UNL A   1      37.931  21.114  25.345  1.00  0.00     0.338 C 
ATOM     30  O   UNL A   1      38.256  19.920  25.089  1.00  0.00    -0.246 OA
BRANCH  29  31
ATOM     31  C   UNL A   1      38.900  22.652  26.512  1.00  0.00     0.060 A 
ATOM     32  C   UNL A   1      38.626  24.139  26.544  1.00  0.00     0.016 A 
ATOM     33  C   UNL A   1      40.162  22.610  27.361  1.00  0.00     0.016 A 
ATOM     34  C   UNL A   1      39.506  25.184  26.799  1.00  0.00     0.010 A 
ATOM     35  C   UNL A   1      40.932  23.674  27.886  1.00  0.00     0.010 A 
ATOM     36  C   UNL A   1      40.629  24.969  27.544  1.00  0.00    -0.014 A 
BRANCH  36  37
ATOM     37  C   UNL A   1      41.382  26.121  28.042  1.00  0.00     0.031 A 
ATOM     38  C   UNL A   1      40.681  27.144  28.871  1.00  0.00     0.074 A 
ATOM     39  C   UNL A   1      42.677  26.214  27.679  1.00  0.00     0.049 A 
ATOM     40  N   UNL A   1      41.050  28.362  29.134  1.00  0.00    -0.248 NA
ATOM     41  C   UNL A   1      39.367  26.775  29.433  1.00  0.00     0.031 C 
ATOM     42  C   UNL A   1      43.412  25.225  26.871  1.00  0.00     0.029 A 
ATOM     43  N   UNL A   1      43.608  27.184  27.914  1.00  0.00    -0.354 N 
ATOM     44  C   UNL A   1      39.981  28.941  29.803  1.00  0.00     0.074 A 
ATOM     45  C   UNL A   1      38.953  27.934  29.927  1.00  0.00     0.031 C 
ATOM     46  C   UNL A   1      44.679  25.611  26.719  1.00  0.00     0.029 A 
ATOM     47  C   UNL A   1      44.790  26.953  27.248  1.00  0.00     0.049 A 
ATOM     48  H   UNL A   1      43.452  27.963  28.496  1.00  0.00     0.167 HD
ATOM     49  C   UNL A   1      39.892  30.216  30.245  1.00  0.00     0.034 A 
ATOM     50  C   UNL A   1      45.808  27.782  26.976  1.00  0.00     0.034 A 
ATOM     51  C   UNL A   1      40.980  31.146  30.111  1.00  0.00     0.049 A 
ATOM     52  C   UNL A   1      45.677  29.179  27.483  1.00  0.00     0.074 A 
ATOM     53  C   UNL A   1      41.060  32.454  30.544  1.00  0.00     0.029 A 
ATOM     54  N   UNL A   1      42.192  30.853  29.491  1.00  0.00    -0.354 N 
ATOM     55  N   UNL A   1      44.666  29.725  28.118  1.00  0.00    -0.248 NA
ATOM     56  C   UNL A   1      46.817  30.065  27.259  1.00  0.00     0.031 C 
ATOM     57  C   UNL A   1      42.305  32.960  30.157  1.00  0.00     0.029 A 
ATOM     58  C   UNL A   1      43.025  31.952  29.530  1.00  0.00     0.049 A 
ATOM     59  H   UNL A   1      42.420  29.986  29.083  1.00  0.00     0.167 HD
ATOM     60  C   UNL A   1      45.059  31.020  28.402  1.00  0.00     0.074 A 
ATOM     61  C   UNL A   1      46.411  31.159  27.886  1.00  0.00     0.031 C 
ATOM     62  C   UNL A   1      44.373  32.011  29.023  1.00  0.00     0.034 A 
BRANCH  49  63
ATOM     63  C   UNL A   1      38.603  30.663  30.885  1.00  0.00     0.023 A 
ATOM     64  C   UNL A   1      38.398  30.498  32.269  1.00  0.00     0.012 A 
ATOM     65  C   UNL A   1      37.603  31.294  30.115  1.00  0.00     0.148 A 
ATOM     66  C   UNL A   1      37.209  30.921  32.870  1.00  0.00     0.002 A 
ATOM     67  C   UNL A   1      36.445  31.757  30.728  1.00  0.00     0.091 A 
ATOM     68  F   UNL A   1      37.801  31.421  28.795  1.00  0.00    -0.205 F 
ATOM     69  C   UNL A   1      36.241  31.560  32.102  1.00  0.00     0.022 A 
BRANCH  67  70
ATOM     70  S   UNL A   1      35.168  32.659  29.843  1.00  0.00     0.127 S 
ATOM     71  O   UNL A   1      35.941  33.731  29.218  1.00  0.00    -0.237 OA
ATOM     72  O   UNL A   1      34.670  31.645  28.914  1.00  0.00    -0.237 OA
ATOM     73  O   UNL A   1      34.208  33.096  30.848  1.00  0.00    -0.744 OA
ENDBRANCH  67  70
ENDBRANCH  49  63
BRANCH  50  74
ATOM     74  C   UNL A   1      46.961  27.308  26.166  1.00  0.00     0.023 A 
ATOM     75  C   UNL A   1      47.019  27.622  24.797  1.00  0.00     0.012 A 
ATOM     76  C   UNL A   1      48.046  26.630  26.763  1.00  0.00     0.148 A 
ATOM     77  C   UNL A   1      48.121  27.243  24.029  1.00  0.00     0.002 A 
ATOM     78  C   UNL A   1      49.168  26.314  26.007  1.00  0.00     0.091 A 
ATOM     79  F   UNL A   1      47.978  26.346  28.071  1.00  0.00    -0.205 F 
ATOM     80  C   UNL A   1      49.200  26.602  24.635  1.00  0.00     0.022 A 
BRANCH  78  81
ATOM     81  S   UNL A   1      50.662  25.637  26.742  1.00  0.00     0.127 S 
ATOM     82  O   UNL A   1      51.501  25.425  25.566  1.00  0.00    -0.237 OA
ATOM     83  O   UNL A   1      51.091  26.730  27.617  1.00  0.00    -0.237 OA
ATOM     84  O   UNL A   1      50.240  24.436  27.450  1.00  0.00    -0.744 OA
ENDBRANCH  78  81
ENDBRANCH  50  74
BRANCH  62  85
ATOM     85  C   UNL A   1      45.121  33.294  29.226  1.00  0.00     0.023 A 
ATOM     86  C   UNL A   1      45.881  33.496  30.393  1.00  0.00     0.012 A 
ATOM     87  C   UNL A   1      45.086  34.281  28.226  1.00  0.00     0.148 A 
ATOM     88  C   UNL A   1      46.565  34.693  30.581  1.00  0.00     0.002 A 
ATOM     89  C   UNL A   1      45.823  35.441  28.391  1.00  0.00     0.091 A 
ATOM     90  F   UNL A   1      44.332  34.065  27.138  1.00  0.00    -0.205 F 
ATOM     91  C   UNL A   1      46.547  35.658  29.575  1.00  0.00     0.022 A 
BRANCH  89  92
ATOM     92  S   UNL A   1      45.948  36.683  27.105  1.00  0.00     0.127 S 
ATOM     93  O   UNL A   1      44.603  37.256  27.114  1.00  0.00    -0.237 OA
ATOM     94  O   UNL A   1      46.993  37.562  27.630  1.00  0.00    -0.237 OA
ATOM     95  O   UNL A   1      46.311  35.971  25.886  1.00  0.00    -0.744 OA
ENDBRANCH  89  92
ENDBRANCH  62  85
ENDBRANCH  36  37
ENDBRANCH  29  31
ENDBRANCH  28  29
ENDBRANCH  27  28
ENDBRANCH   1  27
TORSDOF 18
ENDMDL
MODEL 3
REMARK VINA RESULT:     -12.9      4.739     10.120
REMARK SMILES CCC(=O)Nc1ccc(NC(=O)[C@@H]2CC=CC[C@@H]2C(=O)OCCOC(=O)c2ccc(-c3c4nc(c(-c5cccc(S(=O)(=O)[O-])c5F)c5ccc([nH]5)c(-c5cccc(S(=O)(=O)[O-])c5F)c5nc(c(-c6cccc(S(=O)(=O)[O-])c6F)c6ccc3[nH]6)C=C5)C=C4)cc2)cc1
REMARK SMILES IDX 22 1 21 2 19 3 20 4 18 5 13 6 14 7 15 8 17 9 16 10 11 11
REMARK SMILES IDX 10 12 12 14 9 15 6 16 7 17 91 18 8 19 90 20 5 21 3 22 4 23
REMARK SMILES IDX 2 25 1 26 23 27 24 28 25 29 26 30 27 31 28 32 89 33 29 34
REMARK SMILES IDX 88 35 30 36 31 37 32 38 82 39 33 40 87 41 81 42 83 43 34 44
REMARK SMILES IDX 86 45 80 46 79 47 35 49 67 50 47 51 66 52 48 53 51 54 65 55
REMARK SMILES IDX 84 56 49 57 50 58 64 60 85 61 52 62 36 63 37 64 45 65 38 66
REMARK SMILES IDX 40 67 46 68 39 69 41 70 42 71 43 72 44 73 68 74 69 75 77 76
REMARK SMILES IDX 70 77 72 78 78 79 71 80 73 81 74 82 75 83 76 84 53 85 54 86
REMARK SMILES IDX 62 87 55 88 57 89 63 90 56 91 58 92 59 93 60 94 61 95
REMARK H PARENT 10 13 5 24 83 48 51 59
REMARK Flexibility Score: inf
ROOT
ATOM      1  C   UNL A   1      36.106  23.015  23.258  1.00  0.00     0.274 C 
ENDROOT
BRANCH   1   2
ATOM      2  O   UNL A   1      34.777  23.454  22.829  1.00  0.00    -0.462 OA
BRANCH   2   3
ATOM      3  C   UNL A   1      34.024  24.027  23.817  1.00  0.00     0.310 C 
ATOM      4  O   UNL A   1      34.514  24.801  24.640  1.00  0.00    -0.252 OA
BRANCH   3   5
ATOM      5  C   UNL A   1      32.518  23.617  23.870  1.00  0.00     0.116 C 
ATOM      6  C   UNL A   1      31.650  23.258  25.140  1.00  0.00     0.097 C 
ATOM      7  C   UNL A   1      31.574  21.782  25.631  1.00  0.00     0.041 C 
ATOM      8  C   UNL A   1      32.234  20.773  24.750  1.00  0.00    -0.030 C 
ATOM      9  C   UNL A   1      32.388  22.409  22.879  1.00  0.00     0.043 C 
ATOM     10  C   UNL A   1      32.627  21.061  23.505  1.00  0.00    -0.030 C 
BRANCH   6  11
ATOM     11  C   UNL A   1      31.458  24.197  26.341  1.00  0.00     0.228 C 
ATOM     12  N   UNL A   1      31.340  25.551  26.280  1.00  0.00    -0.326 N 
ATOM     13  H   UNL A   1      31.496  26.008  27.137  1.00  0.00     0.169 HD
ATOM     14  O   UNL A   1      31.530  23.710  27.480  1.00  0.00    -0.274 OA
BRANCH  12  15
ATOM     15  C   UNL A   1      31.038  26.410  25.224  1.00  0.00     0.041 A 
ATOM     16  C   UNL A   1      30.132  28.875  22.681  1.00  0.00     0.041 A 
ATOM     17  C   UNL A   1      28.935  27.630  23.189  1.00  0.00     0.028 A 
ATOM     18  C   UNL A   1      31.736  28.988  23.513  1.00  0.00     0.028 A 
ATOM     19  C   UNL A   1      29.385  26.445  24.504  1.00  0.00     0.028 A 
ATOM     20  C   UNL A   1      32.243  27.704  24.742  1.00  0.00     0.028 A 
BRANCH  16  21
ATOM     21  N   UNL A   1      29.655  29.858  21.821  1.00  0.00    -0.326 N 
ATOM     22  C   UNL A   1      29.121  31.069  22.156  1.00  0.00     0.224 C 
ATOM     23  O   UNL A   1      28.985  31.902  21.256  1.00  0.00    -0.275 OA
ATOM     24  H   UNL A   1      29.707  29.657  20.858  1.00  0.00     0.169 HD
BRANCH  22  25
ATOM     25  C   UNL A   1      28.763  31.403  23.589  1.00  0.00     0.097 C 
ATOM     26  C   UNL A   1      27.274  31.365  23.850  1.00  0.00     0.014 C 
ENDBRANCH  22  25
ENDBRANCH  16  21
ENDBRANCH  12  15
ENDBRANCH   6  11
ENDBRANCH   3   5
ENDBRANCH   2   3
ENDBRANCH   1   2
BRANCH   1  27
ATOM     27  C   UNL A   1      36.147  21.993  24.404  1.00  0.00     0.275 C 
BRANCH  27  28
ATOM     28  O   UNL A   1      37.209  21.025  24.193  1.00  0.00    -0.458 OA
BRANCH  28  29
ATOM     29  C   UNL A   1      38.274  20.930  25.220  1.00  0.00     0.338 C 
ATOM     30  O   UNL A   1      38.521  19.692  25.159  1.00  0.00    -0.246 OA
BRANCH  29  31
ATOM     31  C   UNL A   1      39.144  22.516  26.402  1.00  0.00     0.060 A 
ATOM     32  C   UNL A   1      38.903  24.006  26.322  1.00  0.00     0.016 A 
ATOM     33  C   UNL A   1      40.306  22.501  27.385  1.00  0.00     0.016 A 
ATOM     34  C   UNL A   1      39.772  25.050  26.615  1.00  0.00     0.010 A 
ATOM     35  C   UNL A   1      41.038  23.580  27.933  1.00  0.00     0.010 A 
ATOM     36  C   UNL A   1      40.802  24.859  27.490  1.00  0.00    -0.014 A 
BRANCH  36  37
ATOM     37  C   UNL A   1      41.523  26.025  28.004  1.00  0.00     0.031 A 
ATOM     38  C   UNL A   1      40.788  27.028  28.827  1.00  0.00     0.074 A 
ATOM     39  C   UNL A   1      42.820  26.148  27.660  1.00  0.00     0.049 A 
ATOM     40  N   UNL A   1      41.126  28.252  29.101  1.00  0.00    -0.248 NA
ATOM     41  C   UNL A   1      39.475  26.627  29.369  1.00  0.00     0.031 C 
ATOM     42  C   UNL A   1      43.589  25.179  26.858  1.00  0.00     0.029 A 
ATOM     43  N   UNL A   1      43.726  27.137  27.913  1.00  0.00    -0.354 N 
ATOM     44  C   UNL A   1      40.035  28.805  29.758  1.00  0.00     0.074 A 
ATOM     45  C   UNL A   1      39.027  27.774  29.862  1.00  0.00     0.031 C 
ATOM     46  C   UNL A   1      44.849  25.594  26.726  1.00  0.00     0.029 A 
ATOM     47  C   UNL A   1      44.923  26.936  27.263  1.00  0.00     0.049 A 
ATOM     48  H   UNL A   1      43.545  27.910  28.496  1.00  0.00     0.167 HD
ATOM     49  C   UNL A   1      39.911  30.074  30.204  1.00  0.00     0.034 A 
ATOM     50  C   UNL A   1      45.926  27.788  27.010  1.00  0.00     0.034 A 
ATOM     51  C   UNL A   1      40.980  31.029  30.090  1.00  0.00     0.049 A 
ATOM     52  C   UNL A   1      45.757  29.180  27.522  1.00  0.00     0.074 A 
ATOM     53  C   UNL A   1      41.025  32.336  30.531  1.00  0.00     0.029 A 
ATOM     54  N   UNL A   1      42.207  30.766  29.486  1.00  0.00    -0.354 N 
ATOM     55  N   UNL A   1      44.725  29.700  28.144  1.00  0.00    -0.248 NA
ATOM     56  C   UNL A   1      46.880  30.092  27.318  1.00  0.00     0.031 C 
ATOM     57  C   UNL A   1      42.264  32.871  30.164  1.00  0.00     0.029 A 
ATOM     58  C   UNL A   1      43.016  31.883  29.543  1.00  0.00     0.049 A 
ATOM     59  H   UNL A   1      42.460  29.906  29.078  1.00  0.00     0.167 HD
ATOM     60  C   UNL A   1      45.085  31.002  28.440  1.00  0.00     0.074 A 
ATOM     61  C   UNL A   1      46.441  31.173  27.944  1.00  0.00     0.031 C 
ATOM     62  C   UNL A   1      44.369  31.974  29.056  1.00  0.00     0.034 A 
BRANCH  49  63
ATOM     63  C   UNL A   1      38.604  30.490  30.828  1.00  0.00     0.023 A 
ATOM     64  C   UNL A   1      38.359  30.260  32.196  1.00  0.00     0.012 A 
ATOM     65  C   UNL A   1      37.625  31.155  30.060  1.00  0.00     0.148 A 
ATOM     66  C   UNL A   1      37.154  30.653  32.782  1.00  0.00     0.002 A 
ATOM     67  C   UNL A   1      36.449  31.588  30.661  1.00  0.00     0.091 A 
ATOM     68  F   UNL A   1      37.860  31.345  28.754  1.00  0.00    -0.205 F 
ATOM     69  C   UNL A   1      36.206  31.327  32.018  1.00  0.00     0.022 A 
BRANCH  67  70
ATOM     70  S   UNL A   1      35.195  32.530  29.783  1.00  0.00     0.127 S 
ATOM     71  O   UNL A   1      34.751  31.565  28.777  1.00  0.00    -0.237 OA
ATOM     72  O   UNL A   1      34.222  32.799  30.841  1.00  0.00    -0.237 OA
ATOM     73  O   UNL A   1      35.868  33.708  29.253  1.00  0.00    -0.744 OA
ENDBRANCH  67  70
ENDBRANCH  49  63
BRANCH  50  74
ATOM     74  C   UNL A   1      47.101  27.344  26.214  1.00  0.00     0.023 A 
ATOM     75  C   UNL A   1      48.012  26.434  26.778  1.00  0.00     0.012 A 
ATOM     76  C   UNL A   1      47.269  27.744  24.871  1.00  0.00     0.148 A 
ATOM     77  C   UNL A   1      49.088  25.953  26.029  1.00  0.00     0.002 A 
ATOM     78  C   UNL A   1      48.303  27.210  24.112  1.00  0.00     0.091 A 
ATOM     79  F   UNL A   1      46.386  28.605  24.347  1.00  0.00    -0.205 F 
ATOM     80  C   UNL A   1      49.226  26.330  24.695  1.00  0.00     0.022 A 
BRANCH  78  81
ATOM     81  S   UNL A   1      48.457  27.515  22.347  1.00  0.00     0.127 S 
ATOM     82  O   UNL A   1      49.646  28.360  22.295  1.00  0.00    -0.237 OA
ATOM     83  O   UNL A   1      48.637  26.161  21.821  1.00  0.00    -0.237 OA
ATOM     84  O   UNL A   1      47.206  28.147  21.950  1.00  0.00    -0.744 OA
ENDBRANCH  78  81
ENDBRANCH  50  74
BRANCH  62  85
ATOM     85  C   UNL A   1      45.085  33.272  29.275  1.00  0.00     0.023 A 
ATOM     86  C   UNL A   1      45.013  34.295  28.311  1.00  0.00     0.012 A 
ATOM     87  C   UNL A   1      45.799  33.475  30.469  1.00  0.00     0.148 A 
ATOM     88  C   UNL A   1      45.687  35.494  28.516  1.00  0.00     0.002 A 
ATOM     89  C   UNL A   1      46.412  34.696  30.694  1.00  0.00     0.091 A 
ATOM     90  F   UNL A   1      45.867  32.471  31.355  1.00  0.00    -0.205 F 
ATOM     91  C   UNL A   1      46.374  35.700  29.712  1.00  0.00     0.022 A 
BRANCH  89  92
ATOM     92  S   UNL A   1      47.220  35.086  32.246  1.00  0.00     0.127 S 
ATOM     93  O   UNL A   1      47.413  36.530  32.125  1.00  0.00    -0.237 OA
ATOM     94  O   UNL A   1      46.210  34.683  33.225  1.00  0.00    -0.237 OA
ATOM     95  O   UNL A   1      48.443  34.295  32.276  1.00  0.00    -0.744 OA
ENDBRANCH  89  92
ENDBRANCH  62  85
ENDBRANCH  36  37
ENDBRANCH  29  31
ENDBRANCH  28  29
ENDBRANCH  27  28
ENDBRANCH   1  27
TORSDOF 18
ENDMDL
