MODEL 1
REMARK VINA RESULT:     -11.7      0.000      0.000
REMARK SMILES N#Cc1ccccc1S(=O)(=O)N1CCC(C(=O)OCCOC(=O)c2ccc(-c3c4nc(c(-c5cccc(S(=O)(=O)[O-])c5F)c5ccc([nH]5)c(-c5cccc(S(=O)(=O)[O-])c5F)c5nc(c(-c6cccc(S(=O)(=O)[O-])c6F)c6ccc3[nH]6)C=C5)C=C4)cc2)CC1
REMARK SMILES IDX 19 1 18 2 16 3 17 4 15 5 12 6 13 7 88 8 14 9 87 10 9 11
REMARK SMILES IDX 10 12 11 13 8 14 3 15 4 16 5 17 7 18 6 19 2 20 1 21 20 22
REMARK SMILES IDX 21 23 22 24 23 25 24 26 25 27 86 28 26 29 85 30 27 31 28 32
REMARK SMILES IDX 29 33 79 34 30 35 84 36 78 37 80 38 31 39 83 40 77 41 76 42
REMARK SMILES IDX 32 44 64 45 44 46 63 47 45 48 48 49 62 50 81 51 46 52 47 53
REMARK SMILES IDX 61 55 82 56 49 57 33 58 34 59 42 60 35 61 37 62 43 63 36 64
REMARK SMILES IDX 38 65 39 66 40 67 41 68 65 69 66 70 74 71 67 72 69 73 75 74
REMARK SMILES IDX 68 75 70 76 71 77 72 78 73 79 50 80 51 81 59 82 52 83 54 84
REMARK SMILES IDX 60 85 53 86 55 87 56 88 57 89 58 90
REMARK H PARENT 80 43 48 54
REMARK Flexibility Score: inf
ROOT
ATOM      1  C   UNL A   1      36.137  19.641  25.002  1.00  0.00     0.274 C 
ENDROOT
BRANCH   1   2
ATOM      2  O   UNL A   1      35.251  20.768  25.142  1.00  0.00    -0.462 OA
BRANCH   2   3
ATOM      3  C   UNL A   1      33.939  20.518  24.908  1.00  0.00     0.309 C 
ATOM      4  O   UNL A   1      33.383  19.445  25.114  1.00  0.00    -0.252 OA
BRANCH   3   5
ATOM      5  C   UNL A   1      33.194  21.711  24.354  1.00  0.00     0.102 C 
ATOM      6  N   UNL A   1      32.109  24.305  23.776  1.00  0.00    -0.198 NA
ATOM      7  C   UNL A   1      31.244  23.312  24.460  1.00  0.00     0.103 C 
ATOM      8  C   UNL A   1      33.441  23.926  23.257  1.00  0.00     0.103 C 
ATOM      9  C   UNL A   1      32.007  22.201  25.170  1.00  0.00     0.032 C 
ATOM     10  C   UNL A   1      34.132  22.882  24.120  1.00  0.00     0.032 C 
BRANCH   6  11
ATOM     11  S   UNL A   1      31.373  25.688  23.146  1.00  0.00     0.244 S 
ATOM     12  O   UNL A   1      29.946  25.427  23.153  1.00  0.00    -0.207 OA
ATOM     13  O   UNL A   1      32.046  26.023  21.908  1.00  0.00    -0.207 OA
BRANCH  11  14
ATOM     14  C   UNL A   1      31.580  27.121  24.193  1.00  0.00     0.100 A 
ATOM     15  C   UNL A   1      31.115  28.419  23.986  1.00  0.00     0.072 A 
ATOM     16  C   UNL A   1      31.393  29.414  24.948  1.00  0.00     0.021 A 
ATOM     17  C   UNL A   1      32.112  29.128  26.106  1.00  0.00     0.001 A 
ATOM     18  C   UNL A   1      32.308  26.844  25.375  1.00  0.00     0.023 A 
ATOM     19  C   UNL A   1      32.568  27.837  26.321  1.00  0.00     0.001 A 
BRANCH  15  20
ATOM     20  C   UNL A   1      30.351  28.873  22.872  1.00  0.00     0.101 C 
ATOM     21  N   UNL A   1      29.661  29.191  22.001  1.00  0.00    -0.192 NA
ENDBRANCH  15  20
ENDBRANCH  11  14
ENDBRANCH   6  11
ENDBRANCH   3   5
ENDBRANCH   2   3
ENDBRANCH   1   2
BRANCH   1  22
ATOM     22  C   UNL A   1      37.559  20.105  24.679  1.00  0.00     0.275 C 
BRANCH  22  23
ATOM     23  O   UNL A   1      38.009  21.123  25.593  1.00  0.00    -0.458 OA
BRANCH  23  24
ATOM     24  C   UNL A   1      39.234  20.914  26.130  1.00  0.00     0.338 C 
ATOM     25  O   UNL A   1      39.870  19.873  26.133  1.00  0.00    -0.246 OA
BRANCH  24  26
ATOM     26  C   UNL A   1      39.768  22.171  26.669  1.00  0.00     0.060 A 
ATOM     27  C   UNL A   1      39.300  23.370  26.135  1.00  0.00     0.016 A 
ATOM     28  C   UNL A   1      40.809  22.171  27.595  1.00  0.00     0.016 A 
ATOM     29  C   UNL A   1      39.895  24.579  26.490  1.00  0.00     0.010 A 
ATOM     30  C   UNL A   1      41.384  23.389  27.980  1.00  0.00     0.010 A 
ATOM     31  C   UNL A   1      40.947  24.601  27.414  1.00  0.00    -0.014 A 
BRANCH  31  32
ATOM     32  C   UNL A   1      41.602  25.888  27.764  1.00  0.00     0.031 A 
ATOM     33  C   UNL A   1      40.845  26.940  28.526  1.00  0.00     0.074 A 
ATOM     34  C   UNL A   1      42.873  26.119  27.381  1.00  0.00     0.049 A 
ATOM     35  N   UNL A   1      41.206  28.160  28.831  1.00  0.00    -0.248 NA
ATOM     36  C   UNL A   1      39.501  26.575  29.004  1.00  0.00     0.031 C 
ATOM     37  C   UNL A   1      43.717  25.174  26.648  1.00  0.00     0.029 A 
ATOM     38  N   UNL A   1      43.666  27.229  27.531  1.00  0.00    -0.354 N 
ATOM     39  C   UNL A   1      40.118  28.727  29.485  1.00  0.00     0.074 A 
ATOM     40  C   UNL A   1      39.084  27.716  29.535  1.00  0.00     0.031 C 
ATOM     41  C   UNL A   1      44.904  25.749  26.398  1.00  0.00     0.029 A 
ATOM     42  C   UNL A   1      44.886  27.118  26.905  1.00  0.00     0.049 A 
ATOM     43  H   UNL A   1      43.389  28.027  28.037  1.00  0.00     0.167 HD
ATOM     44  C   UNL A   1      39.997  29.973  30.005  1.00  0.00     0.034 A 
ATOM     45  C   UNL A   1      45.866  28.025  26.728  1.00  0.00     0.034 A 
ATOM     46  C   UNL A   1      41.043  30.962  29.987  1.00  0.00     0.049 A 
ATOM     47  C   UNL A   1      45.699  29.406  27.300  1.00  0.00     0.074 A 
ATOM     48  C   UNL A   1      41.035  32.233  30.536  1.00  0.00     0.029 A 
ATOM     49  N   UNL A   1      42.280  30.797  29.382  1.00  0.00    -0.354 N 
ATOM     50  N   UNL A   1      44.705  29.894  28.000  1.00  0.00    -0.248 NA
ATOM     51  C   UNL A   1      46.801  30.354  27.082  1.00  0.00     0.031 C 
ATOM     52  C   UNL A   1      42.258  32.845  30.240  1.00  0.00     0.029 A 
ATOM     53  C   UNL A   1      43.039  31.945  29.533  1.00  0.00     0.049 A 
ATOM     54  H   UNL A   1      42.575  29.983  28.914  1.00  0.00     0.167 HD
ATOM     55  C   UNL A   1      45.072  31.194  28.330  1.00  0.00     0.074 A 
ATOM     56  C   UNL A   1      46.391  31.408  27.774  1.00  0.00     0.031 C 
ATOM     57  C   UNL A   1      44.372  32.130  29.018  1.00  0.00     0.034 A 
BRANCH  44  58
ATOM     58  C   UNL A   1      38.687  30.337  30.657  1.00  0.00     0.023 A 
ATOM     59  C   UNL A   1      38.459  30.004  32.007  1.00  0.00     0.012 A 
ATOM     60  C   UNL A   1      37.706  31.059  29.949  1.00  0.00     0.148 A 
ATOM     61  C   UNL A   1      37.261  30.351  32.632  1.00  0.00     0.002 A 
ATOM     62  C   UNL A   1      36.533  31.441  30.591  1.00  0.00     0.091 A 
ATOM     63  F   UNL A   1      37.932  31.350  28.660  1.00  0.00    -0.205 F 
ATOM     64  C   UNL A   1      36.305  31.078  31.928  1.00  0.00     0.022 A 
BRANCH  62  65
ATOM     65  S   UNL A   1      35.275  32.446  29.794  1.00  0.00     0.127 S 
ATOM     66  O   UNL A   1      34.780  31.535  28.763  1.00  0.00    -0.237 OA
ATOM     67  O   UNL A   1      34.337  32.691  30.891  1.00  0.00    -0.237 OA
ATOM     68  O   UNL A   1      35.960  33.633  29.305  1.00  0.00    -0.744 OA
ENDBRANCH  62  65
ENDBRANCH  44  58
BRANCH  45  69
ATOM     69  C   UNL A   1      47.104  27.646  25.989  1.00  0.00     0.023 A 
ATOM     70  C   UNL A   1      48.162  27.028  26.682  1.00  0.00     0.012 A 
ATOM     71  C   UNL A   1      47.224  27.864  24.602  1.00  0.00     0.148 A 
ATOM     72  C   UNL A   1      49.330  26.658  26.012  1.00  0.00     0.002 A 
ATOM     73  C   UNL A   1      48.366  27.442  23.931  1.00  0.00     0.091 A 
ATOM     74  F   UNL A   1      46.213  28.470  23.964  1.00  0.00    -0.205 F 
ATOM     75  C   UNL A   1      49.427  26.854  24.637  1.00  0.00     0.022 A 
BRANCH  73  76
ATOM     76  S   UNL A   1      48.523  27.533  22.144  1.00  0.00     0.127 S 
ATOM     77  O   UNL A   1      49.743  28.323  21.993  1.00  0.00    -0.237 OA
ATOM     78  O   UNL A   1      48.654  26.122  21.781  1.00  0.00    -0.237 OA
ATOM     79  O   UNL A   1      47.299  28.164  21.672  1.00  0.00    -0.744 OA
ENDBRANCH  73  76
ENDBRANCH  45  69
BRANCH  57  80
ATOM     80  C   UNL A   1      45.032  33.466  29.244  1.00  0.00     0.023 A 
ATOM     81  C   UNL A   1      45.828  33.672  30.386  1.00  0.00     0.012 A 
ATOM     82  C   UNL A   1      44.916  34.494  28.287  1.00  0.00     0.148 A 
ATOM     83  C   UNL A   1      46.473  34.892  30.591  1.00  0.00     0.002 A 
ATOM     84  C   UNL A   1      45.601  35.689  28.472  1.00  0.00     0.091 A 
ATOM     85  F   UNL A   1      44.138  34.287  27.215  1.00  0.00    -0.205 F 
ATOM     86  C   UNL A   1      46.369  35.894  29.630  1.00  0.00     0.022 A 
BRANCH  84  87
ATOM     87  S   UNL A   1      45.603  37.000  27.244  1.00  0.00     0.127 S 
ATOM     88  O   UNL A   1      46.435  38.014  27.891  1.00  0.00    -0.237 OA
ATOM     89  O   UNL A   1      46.223  36.345  26.092  1.00  0.00    -0.237 OA
ATOM     90  O   UNL A   1      44.207  37.369  27.050  1.00  0.00    -0.744 OA
ENDBRANCH  84  87
ENDBRANCH  57  80
ENDBRANCH  31  32
ENDBRANCH  24  26
ENDBRANCH  23  24
ENDBRANCH  22  23
ENDBRANCH   1  22
TORSDOF 17
ENDMDL
MODEL 2
REMARK VINA RESULT:     -11.7      1.538      1.843
REMARK SMILES N#Cc1ccccc1S(=O)(=O)N1CCC(C(=O)OCCOC(=O)c2ccc(-c3c4nc(c(-c5cccc(S(=O)(=O)[O-])c5F)c5ccc([nH]5)c(-c5cccc(S(=O)(=O)[O-])c5F)c5nc(c(-c6cccc(S(=O)(=O)[O-])c6F)c6ccc3[nH]6)C=C5)C=C4)cc2)CC1
REMARK SMILES IDX 19 1 18 2 16 3 17 4 15 5 12 6 13 7 88 8 14 9 87 10 9 11
REMARK SMILES IDX 10 12 11 13 8 14 3 15 4 16 5 17 7 18 6 19 2 20 1 21 20 22
REMARK SMILES IDX 21 23 22 24 23 25 24 26 25 27 86 28 26 29 85 30 27 31 28 32
REMARK SMILES IDX 29 33 79 34 30 35 84 36 78 37 80 38 31 39 83 40 77 41 76 42
REMARK SMILES IDX 32 44 64 45 44 46 63 47 45 48 48 49 62 50 81 51 46 52 47 53
REMARK SMILES IDX 61 55 82 56 49 57 33 58 34 59 42 60 35 61 37 62 43 63 36 64
REMARK SMILES IDX 38 65 39 66 40 67 41 68 65 69 66 70 74 71 67 72 69 73 75 74
REMARK SMILES IDX 68 75 70 76 71 77 72 78 73 79 50 80 51 81 59 82 52 83 54 84
REMARK SMILES IDX 60 85 53 86 55 87 56 88 57 89 58 90
REMARK H PARENT 80 43 48 54
REMARK Flexibility Score: inf
ROOT
ATOM      1  C   UNL A   1      35.294  21.088  24.742  1.00  0.00     0.274 C 
ENDROOT
BRANCH   1   2
ATOM      2  O   UNL A   1      34.179  20.241  25.077  1.00  0.00    -0.462 OA
BRANCH   2   3
ATOM      3  C   UNL A   1      32.955  20.722  24.747  1.00  0.00     0.309 C 
ATOM      4  O   UNL A   1      31.893  20.159  24.990  1.00  0.00    -0.252 OA
BRANCH   3   5
ATOM      5  C   UNL A   1      33.009  22.054  24.034  1.00  0.00     0.102 C 
ATOM      6  N   UNL A   1      32.454  24.575  22.781  1.00  0.00    -0.198 NA
ATOM      7  C   UNL A   1      32.773  23.411  21.918  1.00  0.00     0.103 C 
ATOM      8  C   UNL A   1      32.574  24.489  24.253  1.00  0.00     0.103 C 
ATOM      9  C   UNL A   1      32.550  22.059  22.584  1.00  0.00     0.032 C 
ATOM     10  C   UNL A   1      32.224  23.110  24.790  1.00  0.00     0.032 C 
BRANCH   6  11
ATOM     11  S   UNL A   1      32.461  26.107  22.070  1.00  0.00     0.244 S 
ATOM     12  O   UNL A   1      31.302  26.154  21.198  1.00  0.00    -0.207 OA
ATOM     13  O   UNL A   1      33.785  26.341  21.534  1.00  0.00    -0.207 OA
BRANCH  11  14
ATOM     14  C   UNL A   1      32.195  27.420  23.251  1.00  0.00     0.100 A 
ATOM     15  C   UNL A   1      31.027  27.741  23.941  1.00  0.00     0.072 A 
ATOM     16  C   UNL A   1      31.031  28.832  24.839  1.00  0.00     0.021 A 
ATOM     17  C   UNL A   1      32.179  29.588  25.060  1.00  0.00     0.001 A 
ATOM     18  C   UNL A   1      33.354  28.197  23.489  1.00  0.00     0.023 A 
ATOM     19  C   UNL A   1      33.346  29.266  24.385  1.00  0.00     0.001 A 
BRANCH  15  20
ATOM     20  C   UNL A   1      29.778  27.060  23.847  1.00  0.00     0.101 C 
ATOM     21  N   UNL A   1      28.733  26.567  23.831  1.00  0.00    -0.192 NA
ENDBRANCH  15  20
ENDBRANCH  11  14
ENDBRANCH   6  11
ENDBRANCH   3   5
ENDBRANCH   2   3
ENDBRANCH   1   2
BRANCH   1  22
ATOM     22  C   UNL A   1      36.617  20.422  25.126  1.00  0.00     0.275 C 
BRANCH  22  23
ATOM     23  O   UNL A   1      37.712  21.357  25.101  1.00  0.00    -0.458 OA
BRANCH  23  24
ATOM     24  C   UNL A   1      38.784  21.008  25.851  1.00  0.00     0.338 C 
ATOM     25  O   UNL A   1      39.257  19.892  25.987  1.00  0.00    -0.246 OA
BRANCH  24  26
ATOM     26  C   UNL A   1      39.387  22.204  26.453  1.00  0.00     0.060 A 
ATOM     27  C   UNL A   1      38.916  23.454  26.055  1.00  0.00     0.016 A 
ATOM     28  C   UNL A   1      40.490  22.104  27.299  1.00  0.00     0.016 A 
ATOM     29  C   UNL A   1      39.567  24.615  26.465  1.00  0.00     0.010 A 
ATOM     30  C   UNL A   1      41.122  23.273  27.742  1.00  0.00     0.010 A 
ATOM     31  C   UNL A   1      40.680  24.537  27.311  1.00  0.00    -0.014 A 
BRANCH  31  32
ATOM     32  C   UNL A   1      41.392  25.776  27.719  1.00  0.00     0.031 A 
ATOM     33  C   UNL A   1      40.682  26.826  28.528  1.00  0.00     0.074 A 
ATOM     34  C   UNL A   1      42.673  25.966  27.345  1.00  0.00     0.049 A 
ATOM     35  N   UNL A   1      41.097  28.013  28.888  1.00  0.00    -0.248 NA
ATOM     36  C   UNL A   1      39.322  26.501  28.989  1.00  0.00     0.031 C 
ATOM     37  C   UNL A   1      43.475  25.019  26.569  1.00  0.00     0.029 A 
ATOM     38  N   UNL A   1      43.515  27.032  27.545  1.00  0.00    -0.354 N 
ATOM     39  C   UNL A   1      40.035  28.598  29.567  1.00  0.00     0.074 A 
ATOM     40  C   UNL A   1      38.957  27.633  29.573  1.00  0.00     0.031 C 
ATOM     41  C   UNL A   1      44.686  25.551  26.345  1.00  0.00     0.029 A 
ATOM     42  C   UNL A   1      44.729  26.894  26.914  1.00  0.00     0.049 A 
ATOM     43  H   UNL A   1      43.273  27.818  28.087  1.00  0.00     0.167 HD
ATOM     44  C   UNL A   1      39.970  29.824  30.143  1.00  0.00     0.034 A 
ATOM     45  C   UNL A   1      45.749  27.764  26.777  1.00  0.00     0.034 A 
ATOM     46  C   UNL A   1      41.059  30.764  30.169  1.00  0.00     0.049 A 
ATOM     47  C   UNL A   1      45.644  29.124  27.412  1.00  0.00     0.074 A 
ATOM     48  C   UNL A   1      41.108  32.008  30.776  1.00  0.00     0.029 A 
ATOM     49  N   UNL A   1      42.288  30.572  29.557  1.00  0.00    -0.354 N 
ATOM     50  N   UNL A   1      44.672  29.624  28.134  1.00  0.00    -0.248 NA
ATOM     51  C   UNL A   1      46.788  30.029  27.235  1.00  0.00     0.031 C 
ATOM     52  C   UNL A   1      42.358  32.578  30.507  1.00  0.00     0.029 A 
ATOM     53  C   UNL A   1      43.099  31.676  29.759  1.00  0.00     0.049 A 
ATOM     54  H   UNL A   1      42.548  29.767  29.052  1.00  0.00     0.167 HD
ATOM     55  C   UNL A   1      45.097  30.889  28.522  1.00  0.00     0.074 A 
ATOM     56  C   UNL A   1      46.425  31.069  27.975  1.00  0.00     0.031 C 
ATOM     57  C   UNL A   1      44.439  31.824  29.252  1.00  0.00     0.034 A 
BRANCH  44  58
ATOM     58  C   UNL A   1      38.677  30.216  30.812  1.00  0.00     0.023 A 
ATOM     59  C   UNL A   1      38.448  29.867  32.158  1.00  0.00     0.012 A 
ATOM     60  C   UNL A   1      37.713  30.981  30.125  1.00  0.00     0.148 A 
ATOM     61  C   UNL A   1      37.267  30.240  32.799  1.00  0.00     0.002 A 
ATOM     62  C   UNL A   1      36.558  31.388  30.783  1.00  0.00     0.091 A 
ATOM     63  F   UNL A   1      37.938  31.288  28.839  1.00  0.00    -0.205 F 
ATOM     64  C   UNL A   1      36.328  31.009  32.116  1.00  0.00     0.022 A 
BRANCH  62  65
ATOM     65  S   UNL A   1      35.326  32.445  30.014  1.00  0.00     0.127 S 
ATOM     66  O   UNL A   1      36.125  33.614  29.649  1.00  0.00    -0.237 OA
ATOM     67  O   UNL A   1      34.887  31.630  28.879  1.00  0.00    -0.237 OA
ATOM     68  O   UNL A   1      34.306  32.674  31.025  1.00  0.00    -0.744 OA
ENDBRANCH  62  65
ENDBRANCH  44  58
BRANCH  45  69
ATOM     69  C   UNL A   1      46.970  27.363  26.021  1.00  0.00     0.023 A 
ATOM     70  C   UNL A   1      47.052  27.633  24.643  1.00  0.00     0.012 A 
ATOM     71  C   UNL A   1      48.060  26.745  26.667  1.00  0.00     0.148 A 
ATOM     72  C   UNL A   1      48.186  27.273  23.913  1.00  0.00     0.002 A 
ATOM     73  C   UNL A   1      49.209  26.440  25.946  1.00  0.00     0.091 A 
ATOM     74  F   UNL A   1      47.956  26.479  27.976  1.00  0.00    -0.205 F 
ATOM     75  C   UNL A   1      49.267  26.688  24.566  1.00  0.00     0.022 A 
BRANCH  73  76
ATOM     76  S   UNL A   1      50.697  25.807  26.727  1.00  0.00     0.127 S 
ATOM     77  O   UNL A   1      50.240  24.516  27.236  1.00  0.00    -0.237 OA
ATOM     78  O   UNL A   1      51.622  25.731  25.597  1.00  0.00    -0.237 OA
ATOM     79  O   UNL A   1      51.062  26.791  27.737  1.00  0.00    -0.744 OA
ENDBRANCH  73  76
ENDBRANCH  45  69
BRANCH  57  80
ATOM     80  C   UNL A   1      45.158  33.117  29.538  1.00  0.00     0.023 A 
ATOM     81  C   UNL A   1      46.035  33.206  30.636  1.00  0.00     0.012 A 
ATOM     82  C   UNL A   1      45.015  34.223  28.676  1.00  0.00     0.148 A 
ATOM     83  C   UNL A   1      46.733  34.386  30.893  1.00  0.00     0.002 A 
ATOM     84  C   UNL A   1      45.752  35.378  28.909  1.00  0.00     0.091 A 
ATOM     85  F   UNL A   1      44.161  34.127  27.647  1.00  0.00    -0.205 F 
ATOM     86  C   UNL A   1      46.601  35.466  30.024  1.00  0.00     0.022 A 
BRANCH  84  87
ATOM     87  S   UNL A   1      45.718  36.784  27.792  1.00  0.00     0.127 S 
ATOM     88  O   UNL A   1      46.862  37.565  28.260  1.00  0.00    -0.237 OA
ATOM     89  O   UNL A   1      45.905  36.150  26.486  1.00  0.00    -0.237 OA
ATOM     90  O   UNL A   1      44.416  37.412  27.976  1.00  0.00    -0.744 OA
ENDBRANCH  84  87
ENDBRANCH  57  80
ENDBRANCH  31  32
ENDBRANCH  24  26
ENDBRANCH  23  24
ENDBRANCH  22  23
ENDBRANCH   1  22
TORSDOF 17
ENDMDL
MODEL 3
REMARK VINA RESULT:     -11.6      5.148     10.157
REMARK SMILES N#Cc1ccccc1S(=O)(=O)N1CCC(C(=O)OCCOC(=O)c2ccc(-c3c4nc(c(-c5cccc(S(=O)(=O)[O-])c5F)c5ccc([nH]5)c(-c5cccc(S(=O)(=O)[O-])c5F)c5nc(c(-c6cccc(S(=O)(=O)[O-])c6F)c6ccc3[nH]6)C=C5)C=C4)cc2)CC1
REMARK SMILES IDX 19 1 18 2 16 3 17 4 15 5 12 6 13 7 88 8 14 9 87 10 9 11
REMARK SMILES IDX 10 12 11 13 8 14 3 15 4 16 5 17 7 18 6 19 2 20 1 21 20 22
REMARK SMILES IDX 21 23 22 24 23 25 24 26 25 27 86 28 26 29 85 30 27 31 28 32
REMARK SMILES IDX 29 33 79 34 30 35 84 36 78 37 80 38 31 39 83 40 77 41 76 42
REMARK SMILES IDX 32 44 64 45 44 46 63 47 45 48 48 49 62 50 81 51 46 52 47 53
REMARK SMILES IDX 61 55 82 56 49 57 33 58 34 59 42 60 35 61 37 62 43 63 36 64
REMARK SMILES IDX 38 65 39 66 40 67 41 68 65 69 66 70 74 71 67 72 69 73 75 74
REMARK SMILES IDX 68 75 70 76 71 77 72 78 73 79 50 80 51 81 59 82 52 83 54 84
REMARK SMILES IDX 60 85 53 86 55 87 56 88 57 89 58 90
REMARK H PARENT 80 43 48 54
REMARK Flexibility Score: inf
ROOT
ATOM      1  C   UNL A   1      30.981  30.014  24.257  1.00  0.00     0.274 C 
ENDROOT
BRANCH   1   2
ATOM      2  O   UNL A   1      29.920  29.118  23.877  1.00  0.00    -0.462 OA
BRANCH   2   3
ATOM      3  C   UNL A   1      29.974  28.647  22.607  1.00  0.00     0.309 C 
ATOM      4  O   UNL A   1      29.466  29.194  21.635  1.00  0.00    -0.252 OA
BRANCH   3   5
ATOM      5  C   UNL A   1      30.740  27.349  22.484  1.00  0.00     0.102 C 
ATOM      6  N   UNL A   1      32.369  25.020  22.876  1.00  0.00    -0.198 NA
ATOM      7  C   UNL A   1      32.898  26.118  22.032  1.00  0.00     0.103 C 
ATOM      8  C   UNL A   1      30.977  25.043  23.375  1.00  0.00     0.103 C 
ATOM      9  C   UNL A   1      32.243  27.471  22.283  1.00  0.00     0.032 C 
ATOM     10  C   UNL A   1      30.487  26.450  23.680  1.00  0.00     0.032 C 
BRANCH   6  11
ATOM     11  S   UNL A   1      33.173  23.535  22.830  1.00  0.00     0.244 S 
ATOM     12  O   UNL A   1      33.671  23.386  21.475  1.00  0.00    -0.207 OA
ATOM     13  O   UNL A   1      32.290  22.536  23.395  1.00  0.00    -0.207 OA
BRANCH  11  14
ATOM     14  C   UNL A   1      34.633  23.505  23.858  1.00  0.00     0.100 A 
ATOM     15  C   UNL A   1      34.902  24.257  25.001  1.00  0.00     0.072 A 
ATOM     16  C   UNL A   1      36.132  24.079  25.672  1.00  0.00     0.021 A 
ATOM     17  C   UNL A   1      37.079  23.161  25.224  1.00  0.00     0.001 A 
ATOM     18  C   UNL A   1      35.604  22.575  23.417  1.00  0.00     0.023 A 
ATOM     19  C   UNL A   1      36.812  22.404  24.095  1.00  0.00     0.001 A 
BRANCH  15  20
ATOM     20  C   UNL A   1      34.037  25.218  25.601  1.00  0.00     0.101 C 
ATOM     21  N   UNL A   1      33.410  26.038  26.121  1.00  0.00    -0.192 NA
ENDBRANCH  15  20
ENDBRANCH  11  14
ENDBRANCH   6  11
ENDBRANCH   3   5
ENDBRANCH   2   3
ENDBRANCH   1   2
BRANCH   1  22
ATOM     22  C   UNL A   1      31.627  29.566  25.570  1.00  0.00     0.275 C 
BRANCH  22  23
ATOM     23  O   UNL A   1      32.933  30.145  25.748  1.00  0.00    -0.458 OA
BRANCH  23  24
ATOM     24  C   UNL A   1      33.011  31.109  26.695  1.00  0.00     0.338 C 
ATOM     25  O   UNL A   1      32.241  32.040  26.865  1.00  0.00    -0.246 OA
BRANCH  24  26
ATOM     26  C   UNL A   1      34.147  30.846  27.588  1.00  0.00     0.060 A 
ATOM     27  C   UNL A   1      35.018  31.895  27.877  1.00  0.00     0.016 A 
ATOM     28  C   UNL A   1      34.427  29.555  28.033  1.00  0.00     0.016 A 
ATOM     29  C   UNL A   1      36.198  31.657  28.577  1.00  0.00     0.010 A 
ATOM     30  C   UNL A   1      35.596  29.323  28.768  1.00  0.00     0.010 A 
ATOM     31  C   UNL A   1      36.502  30.367  29.027  1.00  0.00    -0.014 A 
BRANCH  31  32
ATOM     32  C   UNL A   1      37.779  30.111  29.744  1.00  0.00     0.031 A 
ATOM     33  C   UNL A   1      38.815  29.201  29.142  1.00  0.00     0.074 A 
ATOM     34  C   UNL A   1      38.000  30.681  30.944  1.00  0.00     0.049 A 
ATOM     35  N   UNL A   1      39.938  28.773  29.658  1.00  0.00    -0.248 NA
ATOM     36  C   UNL A   1      38.551  28.702  27.783  1.00  0.00     0.031 C 
ATOM     37  C   UNL A   1      37.079  31.590  31.628  1.00  0.00     0.029 A 
ATOM     38  N   UNL A   1      39.055  30.558  31.814  1.00  0.00    -0.354 N 
ATOM     39  C   UNL A   1      40.487  27.913  28.715  1.00  0.00     0.074 A 
ATOM     40  C   UNL A   1      39.575  27.882  27.592  1.00  0.00     0.031 C 
ATOM     41  C   UNL A   1      37.600  31.932  32.816  1.00  0.00     0.029 A 
ATOM     42  C   UNL A   1      38.864  31.225  33.001  1.00  0.00     0.049 A 
ATOM     43  H   UNL A   1      39.868  30.043  31.607  1.00  0.00     0.167 HD
ATOM     44  C   UNL A   1      41.651  27.220  28.775  1.00  0.00     0.034 A 
ATOM     45  C   UNL A   1      39.605  31.240  34.127  1.00  0.00     0.034 A 
ATOM     46  C   UNL A   1      42.574  27.285  29.878  1.00  0.00     0.049 A 
ATOM     47  C   UNL A   1      40.884  30.449  34.173  1.00  0.00     0.074 A 
ATOM     48  C   UNL A   1      43.805  26.664  30.007  1.00  0.00     0.029 A 
ATOM     49  N   UNL A   1      42.367  28.005  31.044  1.00  0.00    -0.354 N 
ATOM     50  N   UNL A   1      41.437  29.719  33.236  1.00  0.00    -0.248 NA
ATOM     51  C   UNL A   1      41.655  30.505  35.423  1.00  0.00     0.031 C 
ATOM     52  C   UNL A   1      44.329  26.988  31.264  1.00  0.00     0.029 A 
ATOM     53  C   UNL A   1      43.440  27.836  31.904  1.00  0.00     0.049 A 
ATOM     54  H   UNL A   1      41.574  28.557  31.234  1.00  0.00     0.167 HD
ATOM     55  C   UNL A   1      42.632  29.253  33.771  1.00  0.00     0.074 A 
ATOM     56  C   UNL A   1      42.735  29.804  35.106  1.00  0.00     0.031 C 
ATOM     57  C   UNL A   1      43.554  28.430  33.213  1.00  0.00     0.034 A 
BRANCH  44  58
ATOM     58  C   UNL A   1      42.005  26.340  27.603  1.00  0.00     0.023 A 
ATOM     59  C   UNL A   1      42.706  26.880  26.507  1.00  0.00     0.012 A 
ATOM     60  C   UNL A   1      41.695  24.965  27.616  1.00  0.00     0.148 A 
ATOM     61  C   UNL A   1      43.060  26.075  25.424  1.00  0.00     0.002 A 
ATOM     62  C   UNL A   1      42.090  24.160  26.553  1.00  0.00     0.091 A 
ATOM     63  F   UNL A   1      41.011  24.473  28.658  1.00  0.00    -0.205 F 
ATOM     64  C   UNL A   1      42.762  24.715  25.452  1.00  0.00     0.022 A 
BRANCH  62  65
ATOM     65  S   UNL A   1      41.821  22.384  26.532  1.00  0.00     0.127 S 
ATOM     66  O   UNL A   1      42.368  21.987  27.829  1.00  0.00    -0.237 OA
ATOM     67  O   UNL A   1      40.363  22.294  26.434  1.00  0.00    -0.237 OA
ATOM     68  O   UNL A   1      42.539  21.883  25.369  1.00  0.00    -0.744 OA
ENDBRANCH  62  65
ENDBRANCH  44  58
BRANCH  45  69
ATOM     69  C   UNL A   1      39.162  32.050  35.296  1.00  0.00     0.023 A 
ATOM     70  C   UNL A   1      38.266  31.492  36.227  1.00  0.00     0.012 A 
ATOM     71  C   UNL A   1      39.647  33.357  35.507  1.00  0.00     0.148 A 
ATOM     72  C   UNL A   1      37.840  32.228  37.334  1.00  0.00     0.002 A 
ATOM     73  C   UNL A   1      39.263  34.063  36.641  1.00  0.00     0.091 A 
ATOM     74  F   UNL A   1      40.484  33.878  34.601  1.00  0.00    -0.205 F 
ATOM     75  C   UNL A   1      38.346  33.507  37.547  1.00  0.00     0.022 A 
BRANCH  73  76
ATOM     76  S   UNL A   1      39.964  35.661  37.065  1.00  0.00     0.127 S 
ATOM     77  O   UNL A   1      41.377  35.331  37.234  1.00  0.00    -0.237 OA
ATOM     78  O   UNL A   1      39.655  36.451  35.872  1.00  0.00    -0.237 OA
ATOM     79  O   UNL A   1      39.267  36.092  38.268  1.00  0.00    -0.744 OA
ENDBRANCH  73  76
ENDBRANCH  45  69
BRANCH  57  80
ATOM     80  C   UNL A   1      44.778  28.100  34.027  1.00  0.00     0.023 A 
ATOM     81  C   UNL A   1      45.903  28.945  33.978  1.00  0.00     0.012 A 
ATOM     82  C   UNL A   1      44.786  26.988  34.893  1.00  0.00     0.148 A 
ATOM     83  C   UNL A   1      47.031  28.671  34.753  1.00  0.00     0.002 A 
ATOM     84  C   UNL A   1      45.892  26.749  35.699  1.00  0.00     0.091 A 
ATOM     85  F   UNL A   1      43.713  26.183  34.911  1.00  0.00    -0.205 F 
ATOM     86  C   UNL A   1      47.020  27.582  35.621  1.00  0.00     0.022 A 
BRANCH  84  87
ATOM     87  S   UNL A   1      45.932  25.426  36.914  1.00  0.00     0.127 S 
ATOM     88  O   UNL A   1      47.252  25.611  37.513  1.00  0.00    -0.237 OA
ATOM     89  O   UNL A   1      44.811  25.773  37.788  1.00  0.00    -0.237 OA
ATOM     90  O   UNL A   1      45.752  24.189  36.165  1.00  0.00    -0.744 OA
ENDBRANCH  84  87
ENDBRANCH  57  80
ENDBRANCH  31  32
ENDBRANCH  24  26
ENDBRANCH  23  24
ENDBRANCH  22  23
ENDBRANCH   1  22
TORSDOF 17
ENDMDL
