MODEL 1
REMARK VINA RESULT:     -12.6      0.000      0.000
REMARK SMILES CC1(C)S[C@H](c2ccc(-c3ccccc3)o2)[NH2+][C@H]1C(=O)OCCOC(=O)c1ccc(-c2c3nc(c(-c4cccc(S(=O)(=O)[O-])c4F)c4ccc([nH]4)c(-c4cccc(S(=O)(=O)[O-])c4F)c4nc(c(-c5cccc(S(=O)(=O)[O-])c5F)c5ccc2[nH]5)C=C4)C=C3)cc1
REMARK SMILES IDX 23 1 22 2 21 3 19 4 20 5 18 6 1 7 2 8 3 9 4 10 5 11 17 12
REMARK SMILES IDX 6 15 7 16 16 17 8 18 9 19 10 20 11 21 15 22 12 23 14 24
REMARK SMILES IDX 13 25 24 26 25 27 26 28 27 29 28 30 89 31 29 32 88 33 30 34
REMARK SMILES IDX 31 35 32 36 82 37 33 38 87 39 81 40 83 41 34 42 86 43 80 44
REMARK SMILES IDX 79 45 35 47 67 48 47 49 66 50 48 51 51 52 65 53 84 54 49 55
REMARK SMILES IDX 50 56 64 58 85 59 52 60 36 61 37 62 45 63 38 64 40 65 46 66
REMARK SMILES IDX 39 67 41 68 42 69 43 70 44 71 68 72 69 73 77 74 70 75 72 76
REMARK SMILES IDX 78 77 71 78 73 79 74 80 75 81 76 82 53 83 54 84 62 85 55 86
REMARK SMILES IDX 57 87 63 88 56 89 58 90 59 91 60 92 61 93
REMARK H PARENT 17 13 17 14 83 46 51 57
REMARK Flexibility Score: inf
ROOT
ATOM      1  C   UNL A   1      36.667  20.997  24.641  1.00  0.00     0.275 C 
ENDROOT
BRANCH   1   2
ATOM      2  C   UNL A   1      35.238  21.497  24.416  1.00  0.00     0.274 C 
BRANCH   2   3
ATOM      3  O   UNL A   1      35.181  22.930  24.248  1.00  0.00    -0.458 OA
BRANCH   3   4
ATOM      4  C   UNL A   1      34.203  23.399  23.431  1.00  0.00     0.366 C 
ATOM      5  O   UNL A   1      34.193  23.213  22.219  1.00  0.00    -0.245 OA
BRANCH   4   6
ATOM      6  C   UNL A   1      33.141  24.263  24.145  1.00  0.00     0.310 C 
ATOM      7  C   UNL A   1      31.852  22.241  25.247  1.00  0.00     0.030 C 
ATOM      8  C   UNL A   1      31.800  23.627  24.599  1.00  0.00     0.079 C 
ATOM      9  C   UNL A   1      30.747  23.656  23.488  1.00  0.00     0.030 C 
ATOM     10  S   UNL A   1      31.229  24.774  25.927  1.00  0.00    -0.078 SA
ATOM     11  C   UNL A   1      32.744  25.775  25.919  1.00  0.00     0.311 C 
ATOM     12  N   UNL A   1      33.780  24.945  25.305  1.00  0.00    -0.316 N 
ATOM     13  H   UNL A   1      34.123  24.256  25.974  1.00  0.00     0.348 HD
ATOM     14  H   UNL A   1      34.577  25.509  25.009  1.00  0.00     0.348 HD
BRANCH  11  15
ATOM     15  C   UNL A   1      32.483  27.118  25.297  1.00  0.00     0.172 A 
ATOM     16  C   UNL A   1      33.353  28.156  25.005  1.00  0.00     0.054 A 
ATOM     17  O   UNL A   1      31.215  27.462  24.891  1.00  0.00    -0.454 OA
ATOM     18  C   UNL A   1      32.595  29.166  24.378  1.00  0.00     0.051 A 
ATOM     19  C   UNL A   1      31.298  28.703  24.320  1.00  0.00     0.134 A 
BRANCH  19  20
ATOM     20  C   UNL A   1      30.090  29.279  23.752  1.00  0.00     0.017 A 
ATOM     21  C   UNL A   1      29.105  28.475  23.170  1.00  0.00     0.012 A 
ATOM     22  C   UNL A   1      29.849  30.655  23.886  1.00  0.00     0.012 A 
ATOM     23  C   UNL A   1      27.895  29.034  22.745  1.00  0.00     0.001 A 
ATOM     24  C   UNL A   1      28.646  31.216  23.450  1.00  0.00     0.001 A 
ATOM     25  C   UNL A   1      27.667  30.402  22.885  1.00  0.00     0.000 A 
ENDBRANCH  19  20
ENDBRANCH  11  15
ENDBRANCH   4   6
ENDBRANCH   3   4
ENDBRANCH   2   3
ENDBRANCH   1   2
BRANCH   1  26
ATOM     26  O   UNL A   1      37.254  21.603  25.805  1.00  0.00    -0.458 OA
BRANCH  26  27
ATOM     27  C   UNL A   1      38.562  21.324  26.006  1.00  0.00     0.338 C 
ATOM     28  O   UNL A   1      39.144  20.288  25.737  1.00  0.00    -0.246 OA
BRANCH  27  29
ATOM     29  C   UNL A   1      39.243  22.521  26.516  1.00  0.00     0.060 A 
ATOM     30  C   UNL A   1      38.792  23.776  26.104  1.00  0.00     0.016 A 
ATOM     31  C   UNL A   1      40.374  22.405  27.320  1.00  0.00     0.016 A 
ATOM     32  C   UNL A   1      39.476  24.926  26.480  1.00  0.00     0.010 A 
ATOM     33  C   UNL A   1      41.048  23.563  27.721  1.00  0.00     0.010 A 
ATOM     34  C   UNL A   1      40.609  24.829  27.293  1.00  0.00    -0.014 A 
BRANCH  34  35
ATOM     35  C   UNL A   1      41.347  26.055  27.680  1.00  0.00     0.031 A 
ATOM     36  C   UNL A   1      40.656  27.124  28.476  1.00  0.00     0.074 A 
ATOM     37  C   UNL A   1      42.627  26.208  27.298  1.00  0.00     0.049 A 
ATOM     38  N   UNL A   1      41.087  28.311  28.807  1.00  0.00    -0.248 NA
ATOM     39  C   UNL A   1      39.299  26.818  28.956  1.00  0.00     0.031 C 
ATOM     40  C   UNL A   1      43.405  25.229  26.535  1.00  0.00     0.029 A 
ATOM     41  N   UNL A   1      43.493  27.259  27.475  1.00  0.00    -0.354 N 
ATOM     42  C   UNL A   1      40.041  28.917  29.492  1.00  0.00     0.074 A 
ATOM     43  C   UNL A   1      38.954  27.961  29.535  1.00  0.00     0.031 C 
ATOM     44  C   UNL A   1      44.623  25.736  26.288  1.00  0.00     0.029 A 
ATOM     45  C   UNL A   1      44.699  27.086  26.837  1.00  0.00     0.049 A 
ATOM     46  H   UNL A   1      43.271  28.058  28.005  1.00  0.00     0.167 HD
ATOM     47  C   UNL A   1      39.995  30.152  30.042  1.00  0.00     0.034 A 
ATOM     48  C   UNL A   1      45.734  27.934  26.684  1.00  0.00     0.034 A 
ATOM     49  C   UNL A   1      41.094  31.080  30.035  1.00  0.00     0.049 A 
ATOM     50  C   UNL A   1      45.653  29.304  27.298  1.00  0.00     0.074 A 
ATOM     51  C   UNL A   1      41.161  32.340  30.603  1.00  0.00     0.029 A 
ATOM     52  N   UNL A   1      42.320  30.849  29.429  1.00  0.00    -0.354 N 
ATOM     53  N   UNL A   1      44.692  29.830  28.018  1.00  0.00    -0.248 NA
ATOM     54  C   UNL A   1      46.807  30.192  27.099  1.00  0.00     0.031 C 
ATOM     55  C   UNL A   1      42.425  32.874  30.333  1.00  0.00     0.029 A 
ATOM     56  C   UNL A   1      43.150  31.944  29.605  1.00  0.00     0.049 A 
ATOM     57  H   UNL A   1      42.565  30.027  28.946  1.00  0.00     0.167 HD
ATOM     58  C   UNL A   1      45.132  31.098  28.377  1.00  0.00     0.074 A 
ATOM     59  C   UNL A   1      46.459  31.253  27.816  1.00  0.00     0.031 C 
ATOM     60  C   UNL A   1      44.489  32.057  29.088  1.00  0.00     0.034 A 
BRANCH  47  61
ATOM     61  C   UNL A   1      38.722  30.564  30.729  1.00  0.00     0.023 A 
ATOM     62  C   UNL A   1      38.563  30.314  32.106  1.00  0.00     0.012 A 
ATOM     63  C   UNL A   1      37.709  31.247  30.027  1.00  0.00     0.148 A 
ATOM     64  C   UNL A   1      37.404  30.715  32.770  1.00  0.00     0.002 A 
ATOM     65  C   UNL A   1      36.573  31.675  30.704  1.00  0.00     0.091 A 
ATOM     66  F   UNL A   1      37.868  31.451  28.712  1.00  0.00    -0.205 F 
ATOM     67  C   UNL A   1      36.415  31.404  32.073  1.00  0.00     0.022 A 
BRANCH  65  68
ATOM     68  S   UNL A   1      35.276  32.627  29.901  1.00  0.00     0.127 S 
ATOM     69  O   UNL A   1      34.333  32.824  30.999  1.00  0.00    -0.237 OA
ATOM     70  O   UNL A   1      35.989  33.836  29.486  1.00  0.00    -0.237 OA
ATOM     71  O   UNL A   1      34.800  31.799  28.802  1.00  0.00    -0.744 OA
ENDBRANCH  65  68
ENDBRANCH  47  61
BRANCH  48  72
ATOM     72  C   UNL A   1      46.945  27.494  25.938  1.00  0.00     0.023 A 
ATOM     73  C   UNL A   1      47.903  26.694  26.589  1.00  0.00     0.012 A 
ATOM     74  C   UNL A   1      47.133  27.827  24.582  1.00  0.00     0.148 A 
ATOM     75  C   UNL A   1      49.037  26.248  25.908  1.00  0.00     0.002 A 
ATOM     76  C   UNL A   1      48.238  27.336  23.895  1.00  0.00     0.091 A 
ATOM     77  F   UNL A   1      46.224  28.611  23.986  1.00  0.00    -0.205 F 
ATOM     78  C   UNL A   1      49.197  26.557  24.560  1.00  0.00     0.022 A 
BRANCH  76  79
ATOM     79  S   UNL A   1      48.449  27.583  22.128  1.00  0.00     0.127 S 
ATOM     80  O   UNL A   1      49.628  28.442  22.085  1.00  0.00    -0.237 OA
ATOM     81  O   UNL A   1      48.664  26.217  21.649  1.00  0.00    -0.237 OA
ATOM     82  O   UNL A   1      47.204  28.185  21.671  1.00  0.00    -0.744 OA
ENDBRANCH  76  79
ENDBRANCH  48  72
BRANCH  60  83
ATOM     83  C   UNL A   1      45.216  33.355  29.322  1.00  0.00     0.023 A 
ATOM     84  C   UNL A   1      46.050  33.487  30.450  1.00  0.00     0.012 A 
ATOM     85  C   UNL A   1      45.138  34.406  28.389  1.00  0.00     0.148 A 
ATOM     86  C   UNL A   1      46.777  34.658  30.657  1.00  0.00     0.002 A 
ATOM     87  C   UNL A   1      45.897  35.554  28.581  1.00  0.00     0.091 A 
ATOM     88  F   UNL A   1      44.321  34.267  27.334  1.00  0.00    -0.205 F 
ATOM     89  C   UNL A   1      46.712  35.685  29.718  1.00  0.00     0.022 A 
BRANCH  87  90
ATOM     90  S   UNL A   1      45.938  36.886  27.376  1.00  0.00     0.127 S 
ATOM     91  O   UNL A   1      46.820  37.852  28.029  1.00  0.00    -0.237 OA
ATOM     92  O   UNL A   1      46.515  36.230  26.202  1.00  0.00    -0.237 OA
ATOM     93  O   UNL A   1      44.555  37.310  27.207  1.00  0.00    -0.744 OA
ENDBRANCH  87  90
ENDBRANCH  60  83
ENDBRANCH  34  35
ENDBRANCH  27  29
ENDBRANCH  26  27
ENDBRANCH   1  26
TORSDOF 16
ENDMDL
MODEL 2
REMARK VINA RESULT:     -12.5      5.229     10.364
REMARK SMILES CC1(C)S[C@H](c2ccc(-c3ccccc3)o2)[NH2+][C@H]1C(=O)OCCOC(=O)c1ccc(-c2c3nc(c(-c4cccc(S(=O)(=O)[O-])c4F)c4ccc([nH]4)c(-c4cccc(S(=O)(=O)[O-])c4F)c4nc(c(-c5cccc(S(=O)(=O)[O-])c5F)c5ccc2[nH]5)C=C4)C=C3)cc1
REMARK SMILES IDX 23 1 22 2 21 3 19 4 20 5 18 6 1 7 2 8 3 9 4 10 5 11 17 12
REMARK SMILES IDX 6 15 7 16 16 17 8 18 9 19 10 20 11 21 15 22 12 23 14 24
REMARK SMILES IDX 13 25 24 26 25 27 26 28 27 29 28 30 89 31 29 32 88 33 30 34
REMARK SMILES IDX 31 35 32 36 82 37 33 38 87 39 81 40 83 41 34 42 86 43 80 44
REMARK SMILES IDX 79 45 35 47 67 48 47 49 66 50 48 51 51 52 65 53 84 54 49 55
REMARK SMILES IDX 50 56 64 58 85 59 52 60 36 61 37 62 45 63 38 64 40 65 46 66
REMARK SMILES IDX 39 67 41 68 42 69 43 70 44 71 68 72 69 73 77 74 70 75 72 76
REMARK SMILES IDX 78 77 71 78 73 79 74 80 75 81 76 82 53 83 54 84 62 85 55 86
REMARK SMILES IDX 57 87 63 88 56 89 58 90 59 91 60 92 61 93
REMARK H PARENT 17 13 17 14 83 46 51 57
REMARK Flexibility Score: inf
ROOT
ATOM      1  C   UNL A   1      31.642  30.065  25.588  1.00  0.00     0.275 C 
ENDROOT
BRANCH   1   2
ATOM      2  C   UNL A   1      31.404  28.670  25.006  1.00  0.00     0.274 C 
BRANCH   2   3
ATOM      3  O   UNL A   1      32.068  27.639  25.769  1.00  0.00    -0.458 OA
BRANCH   3   4
ATOM      4  C   UNL A   1      31.471  26.420  25.774  1.00  0.00     0.366 C 
ATOM      5  O   UNL A   1      30.482  26.158  26.451  1.00  0.00    -0.245 OA
BRANCH   4   6
ATOM      6  C   UNL A   1      32.194  25.356  24.920  1.00  0.00     0.310 C 
ATOM      7  C   UNL A   1      31.517  26.385  22.587  1.00  0.00     0.030 C 
ATOM      8  C   UNL A   1      31.786  25.142  23.438  1.00  0.00     0.079 C 
ATOM      9  C   UNL A   1      30.635  24.142  23.299  1.00  0.00     0.030 C 
ATOM     10  S   UNL A   1      33.287  24.357  22.706  1.00  0.00    -0.078 SA
ATOM     11  C   UNL A   1      34.297  24.545  24.204  1.00  0.00     0.311 C 
ATOM     12  N   UNL A   1      33.662  25.597  24.996  1.00  0.00    -0.316 N 
ATOM     13  H   UNL A   1      33.889  26.514  24.612  1.00  0.00     0.348 HD
ATOM     14  H   UNL A   1      33.990  25.580  25.962  1.00  0.00     0.348 HD
BRANCH  11  15
ATOM     15  C   UNL A   1      34.500  23.213  24.870  1.00  0.00     0.172 A 
ATOM     16  C   UNL A   1      34.947  22.907  26.146  1.00  0.00     0.054 A 
ATOM     17  O   UNL A   1      34.200  22.048  24.204  1.00  0.00    -0.454 OA
ATOM     18  C   UNL A   1      34.899  21.504  26.274  1.00  0.00     0.051 A 
ATOM     19  C   UNL A   1      34.432  21.016  25.072  1.00  0.00     0.134 A 
BRANCH  19  20
ATOM     20  C   UNL A   1      34.134  19.665  24.626  1.00  0.00     0.017 A 
ATOM     21  C   UNL A   1      35.114  18.667  24.626  1.00  0.00     0.012 A 
ATOM     22  C   UNL A   1      32.816  19.320  24.293  1.00  0.00     0.012 A 
ATOM     23  C   UNL A   1      34.778  17.346  24.316  1.00  0.00     0.001 A 
ATOM     24  C   UNL A   1      32.482  18.002  23.971  1.00  0.00     0.001 A 
ATOM     25  C   UNL A   1      33.464  17.014  23.989  1.00  0.00     0.000 A 
ENDBRANCH  19  20
ENDBRANCH  11  15
ENDBRANCH   4   6
ENDBRANCH   3   4
ENDBRANCH   2   3
ENDBRANCH   1   2
BRANCH   1  26
ATOM     26  O   UNL A   1      33.020  30.249  25.952  1.00  0.00    -0.458 OA
BRANCH  26  27
ATOM     27  C   UNL A   1      33.248  31.188  26.899  1.00  0.00     0.338 C 
ATOM     28  O   UNL A   1      32.495  32.079  27.249  1.00  0.00    -0.246 OA
BRANCH  27  29
ATOM     29  C   UNL A   1      34.535  30.918  27.553  1.00  0.00     0.060 A 
ATOM     30  C   UNL A   1      34.829  29.609  27.939  1.00  0.00     0.016 A 
ATOM     31  C   UNL A   1      35.404  31.960  27.867  1.00  0.00     0.016 A 
ATOM     32  C   UNL A   1      35.988  29.332  28.654  1.00  0.00     0.010 A 
ATOM     33  C   UNL A   1      36.582  31.679  28.564  1.00  0.00     0.010 A 
ATOM     34  C   UNL A   1      36.876  30.364  28.972  1.00  0.00    -0.014 A 
BRANCH  34  35
ATOM     35  C   UNL A   1      38.103  30.070  29.749  1.00  0.00     0.031 A 
ATOM     36  C   UNL A   1      39.133  29.132  29.192  1.00  0.00     0.074 A 
ATOM     37  C   UNL A   1      38.274  30.633  30.958  1.00  0.00     0.049 A 
ATOM     38  N   UNL A   1      40.208  28.656  29.763  1.00  0.00    -0.248 NA
ATOM     39  C   UNL A   1      38.924  28.661  27.814  1.00  0.00     0.031 C 
ATOM     40  C   UNL A   1      37.347  31.571  31.593  1.00  0.00     0.029 A 
ATOM     41  N   UNL A   1      39.277  30.476  31.883  1.00  0.00    -0.354 N 
ATOM     42  C   UNL A   1      40.779  27.793  28.837  1.00  0.00     0.074 A 
ATOM     43  C   UNL A   1      39.935  27.815  27.661  1.00  0.00     0.031 C 
ATOM     44  C   UNL A   1      37.811  31.887  32.813  1.00  0.00     0.029 A 
ATOM     45  C   UNL A   1      39.042  31.144  33.061  1.00  0.00     0.049 A 
ATOM     46  H   UNL A   1      40.084  29.937  31.719  1.00  0.00     0.167 HD
ATOM     47  C   UNL A   1      41.909  27.057  28.953  1.00  0.00     0.034 A 
ATOM     48  C   UNL A   1      39.725  31.132  34.223  1.00  0.00     0.034 A 
ATOM     49  C   UNL A   1      42.768  27.074  30.107  1.00  0.00     0.049 A 
ATOM     50  C   UNL A   1      40.973  30.299  34.327  1.00  0.00     0.074 A 
ATOM     51  C   UNL A   1      43.958  26.397  30.304  1.00  0.00     0.029 A 
ATOM     52  N   UNL A   1      42.528  27.807  31.260  1.00  0.00    -0.354 N 
ATOM     53  N   UNL A   1      41.548  29.556  33.413  1.00  0.00    -0.248 NA
ATOM     54  C   UNL A   1      41.678  30.316  35.616  1.00  0.00     0.031 C 
ATOM     55  C   UNL A   1      44.434  26.713  31.581  1.00  0.00     0.029 A 
ATOM     56  C   UNL A   1      43.545  27.595  32.176  1.00  0.00     0.049 A 
ATOM     57  H   UNL A   1      41.750  28.392  31.406  1.00  0.00     0.167 HD
ATOM     58  C   UNL A   1      42.693  29.038  34.004  1.00  0.00     0.074 A 
ATOM     59  C   UNL A   1      42.744  29.571  35.351  1.00  0.00     0.031 C 
ATOM     60  C   UNL A   1      43.609  28.181  33.490  1.00  0.00     0.034 A 
BRANCH  47  61
ATOM     61  C   UNL A   1      42.302  26.192  27.788  1.00  0.00     0.023 A 
ATOM     62  C   UNL A   1      43.143  26.716  26.787  1.00  0.00     0.012 A 
ATOM     63  C   UNL A   1      41.886  24.848  27.710  1.00  0.00     0.148 A 
ATOM     64  C   UNL A   1      43.547  25.922  25.713  1.00  0.00     0.002 A 
ATOM     65  C   UNL A   1      42.322  24.054  26.656  1.00  0.00     0.091 A 
ATOM     66  F   UNL A   1      41.064  24.377  28.658  1.00  0.00    -0.205 F 
ATOM     67  C   UNL A   1      43.146  24.590  25.653  1.00  0.00     0.022 A 
BRANCH  65  68
ATOM     68  S   UNL A   1      41.908  22.309  26.532  1.00  0.00     0.127 S 
ATOM     69  O   UNL A   1      42.379  21.802  27.819  1.00  0.00    -0.237 OA
ATOM     70  O   UNL A   1      40.451  22.344  26.387  1.00  0.00    -0.237 OA
ATOM     71  O   UNL A   1      42.619  21.815  25.362  1.00  0.00    -0.744 OA
ENDBRANCH  65  68
ENDBRANCH  47  61
BRANCH  48  72
ATOM     72  C   UNL A   1      39.253  31.959  35.367  1.00  0.00     0.023 A 
ATOM     73  C   UNL A   1      38.366  31.397  36.305  1.00  0.00     0.012 A 
ATOM     74  C   UNL A   1      39.707  33.279  35.555  1.00  0.00     0.148 A 
ATOM     75  C   UNL A   1      37.925  32.141  37.399  1.00  0.00     0.002 A 
ATOM     76  C   UNL A   1      39.305  33.997  36.675  1.00  0.00     0.091 A 
ATOM     77  F   UNL A   1      40.530  33.806  34.637  1.00  0.00    -0.205 F 
ATOM     78  C   UNL A   1      38.403  33.434  37.592  1.00  0.00     0.022 A 
BRANCH  76  79
ATOM     79  S   UNL A   1      39.975  35.618  37.060  1.00  0.00     0.127 S 
ATOM     80  O   UNL A   1      39.280  35.944  38.301  1.00  0.00    -0.237 OA
ATOM     81  O   UNL A   1      41.404  35.334  37.210  1.00  0.00    -0.237 OA
ATOM     82  O   UNL A   1      39.653  36.452  35.910  1.00  0.00    -0.744 OA
ENDBRANCH  76  79
ENDBRANCH  48  72
BRANCH  60  83
ATOM     83  C   UNL A   1      44.760  27.779  34.373  1.00  0.00     0.023 A 
ATOM     84  C   UNL A   1      45.929  28.565  34.387  1.00  0.00     0.012 A 
ATOM     85  C   UNL A   1      44.654  26.678  35.244  1.00  0.00     0.148 A 
ATOM     86  C   UNL A   1      46.985  28.245  35.239  1.00  0.00     0.002 A 
ATOM     87  C   UNL A   1      45.694  26.390  36.120  1.00  0.00     0.091 A 
ATOM     88  F   UNL A   1      43.540  25.930  35.200  1.00  0.00    -0.205 F 
ATOM     89  C   UNL A   1      46.863  27.168  36.114  1.00  0.00     0.022 A 
BRANCH  87  90
ATOM     90  S   UNL A   1      45.582  25.075  37.338  1.00  0.00     0.127 S 
ATOM     91  O   UNL A   1      46.857  25.208  38.040  1.00  0.00    -0.237 OA
ATOM     92  O   UNL A   1      44.411  25.471  38.122  1.00  0.00    -0.237 OA
ATOM     93  O   UNL A   1      45.406  23.845  36.578  1.00  0.00    -0.744 OA
ENDBRANCH  87  90
ENDBRANCH  60  83
ENDBRANCH  34  35
ENDBRANCH  27  29
ENDBRANCH  26  27
ENDBRANCH   1  26
TORSDOF 16
ENDMDL
MODEL 3
REMARK VINA RESULT:     -12.1      5.179      8.047
REMARK SMILES CC1(C)S[C@H](c2ccc(-c3ccccc3)o2)[NH2+][C@H]1C(=O)OCCOC(=O)c1ccc(-c2c3nc(c(-c4cccc(S(=O)(=O)[O-])c4F)c4ccc([nH]4)c(-c4cccc(S(=O)(=O)[O-])c4F)c4nc(c(-c5cccc(S(=O)(=O)[O-])c5F)c5ccc2[nH]5)C=C4)C=C3)cc1
REMARK SMILES IDX 23 1 22 2 21 3 19 4 20 5 18 6 1 7 2 8 3 9 4 10 5 11 17 12
REMARK SMILES IDX 6 15 7 16 16 17 8 18 9 19 10 20 11 21 15 22 12 23 14 24
REMARK SMILES IDX 13 25 24 26 25 27 26 28 27 29 28 30 89 31 29 32 88 33 30 34
REMARK SMILES IDX 31 35 32 36 82 37 33 38 87 39 81 40 83 41 34 42 86 43 80 44
REMARK SMILES IDX 79 45 35 47 67 48 47 49 66 50 48 51 51 52 65 53 84 54 49 55
REMARK SMILES IDX 50 56 64 58 85 59 52 60 36 61 37 62 45 63 38 64 40 65 46 66
REMARK SMILES IDX 39 67 41 68 42 69 43 70 44 71 68 72 69 73 77 74 70 75 72 76
REMARK SMILES IDX 78 77 71 78 73 79 74 80 75 81 76 82 53 83 54 84 62 85 55 86
REMARK SMILES IDX 57 87 63 88 56 89 58 90 59 91 60 92 61 93
REMARK H PARENT 17 13 17 14 83 46 51 57
REMARK Flexibility Score: inf
ROOT
ATOM      1  C   UNL A   1      31.599  30.247  26.080  1.00  0.00     0.275 C 
ENDROOT
BRANCH   1   2
ATOM      2  C   UNL A   1      31.358  28.954  25.298  1.00  0.00     0.274 C 
BRANCH   2   3
ATOM      3  O   UNL A   1      32.085  27.836  25.853  1.00  0.00    -0.458 OA
BRANCH   3   4
ATOM      4  C   UNL A   1      31.457  26.633  25.809  1.00  0.00     0.366 C 
ATOM      5  O   UNL A   1      30.457  26.371  26.468  1.00  0.00    -0.245 OA
BRANCH   4   6
ATOM      6  C   UNL A   1      32.160  25.584  24.921  1.00  0.00     0.310 C 
ATOM      7  C   UNL A   1      31.313  26.571  22.625  1.00  0.00     0.030 C 
ATOM      8  C   UNL A   1      31.671  25.343  23.467  1.00  0.00     0.079 C 
ATOM      9  C   UNL A   1      30.545  24.308  23.405  1.00  0.00     0.030 C 
ATOM     10  S   UNL A   1      33.149  24.598  22.652  1.00  0.00    -0.078 SA
ATOM     11  C   UNL A   1      34.240  24.830  24.085  1.00  0.00     0.311 C 
ATOM     12  N   UNL A   1      33.622  25.870  24.907  1.00  0.00    -0.316 N 
ATOM     13  H   UNL A   1      33.797  26.789  24.502  1.00  0.00     0.348 HD
ATOM     14  H   UNL A   1      34.007  25.871  25.851  1.00  0.00     0.348 HD
BRANCH  11  15
ATOM     15  C   UNL A   1      34.523  23.510  24.749  1.00  0.00     0.172 A 
ATOM     16  C   UNL A   1      35.144  23.228  25.955  1.00  0.00     0.054 A 
ATOM     17  O   UNL A   1      34.120  22.335  24.160  1.00  0.00    -0.454 OA
ATOM     18  C   UNL A   1      35.102  21.828  26.123  1.00  0.00     0.051 A 
ATOM     19  C   UNL A   1      34.463  21.320  25.011  1.00  0.00     0.134 A 
BRANCH  19  20
ATOM     20  C   UNL A   1      34.093  19.962  24.645  1.00  0.00     0.017 A 
ATOM     21  C   UNL A   1      32.822  19.665  24.144  1.00  0.00     0.012 A 
ATOM     22  C   UNL A   1      35.060  18.946  24.688  1.00  0.00     0.012 A 
ATOM     23  C   UNL A   1      32.528  18.380  23.679  1.00  0.00     0.001 A 
ATOM     24  C   UNL A   1      34.762  17.658  24.235  1.00  0.00     0.001 A 
ATOM     25  C   UNL A   1      33.497  17.378  23.724  1.00  0.00     0.000 A 
ENDBRANCH  19  20
ENDBRANCH  11  15
ENDBRANCH   4   6
ENDBRANCH   3   4
ENDBRANCH   2   3
ENDBRANCH   1   2
BRANCH   1  26
ATOM     26  O   UNL A   1      32.990  30.611  26.068  1.00  0.00    -0.458 OA
BRANCH  26  27
ATOM     27  C   UNL A   1      33.356  31.528  26.992  1.00  0.00     0.338 C 
ATOM     28  O   UNL A   1      32.739  32.522  27.329  1.00  0.00    -0.246 OA
BRANCH  27  29
ATOM     29  C   UNL A   1      34.600  31.093  27.644  1.00  0.00     0.060 A 
ATOM     30  C   UNL A   1      34.745  29.746  27.980  1.00  0.00     0.016 A 
ATOM     31  C   UNL A   1      35.574  32.022  28.003  1.00  0.00     0.016 A 
ATOM     32  C   UNL A   1      35.860  29.317  28.691  1.00  0.00     0.010 A 
ATOM     33  C   UNL A   1      36.708  31.586  28.695  1.00  0.00     0.010 A 
ATOM     34  C   UNL A   1      36.852  30.233  29.053  1.00  0.00    -0.014 A 
BRANCH  34  35
ATOM     35  C   UNL A   1      38.031  29.777  29.825  1.00  0.00     0.031 A 
ATOM     36  C   UNL A   1      38.271  30.309  31.208  1.00  0.00     0.074 A 
ATOM     37  C   UNL A   1      38.890  28.902  29.271  1.00  0.00     0.049 A 
ATOM     38  N   UNL A   1      39.300  30.127  31.993  1.00  0.00    -0.248 NA
ATOM     39  C   UNL A   1      37.219  31.163  31.781  1.00  0.00     0.031 C 
ATOM     40  C   UNL A   1      38.749  28.307  27.941  1.00  0.00     0.029 A 
ATOM     41  N   UNL A   1      40.067  28.382  29.749  1.00  0.00    -0.354 N 
ATOM     42  C   UNL A   1      39.046  30.881  33.131  1.00  0.00     0.074 A 
ATOM     43  C   UNL A   1      37.760  31.518  32.939  1.00  0.00     0.031 C 
ATOM     44  C   UNL A   1      39.812  27.523  27.698  1.00  0.00     0.029 A 
ATOM     45  C   UNL A   1      40.725  27.593  28.835  1.00  0.00     0.049 A 
ATOM     46  H   UNL A   1      40.407  28.557  30.655  1.00  0.00     0.167 HD
ATOM     47  C   UNL A   1      39.810  31.021  34.239  1.00  0.00     0.034 A 
ATOM     48  C   UNL A   1      41.942  27.019  28.894  1.00  0.00     0.034 A 
ATOM     49  C   UNL A   1      41.066  30.350  34.443  1.00  0.00     0.049 A 
ATOM     50  C   UNL A   1      42.775  27.197  30.134  1.00  0.00     0.074 A 
ATOM     51  C   UNL A   1      41.894  30.393  35.550  1.00  0.00     0.029 A 
ATOM     52  N   UNL A   1      41.674  29.513  33.520  1.00  0.00    -0.354 N 
ATOM     53  N   UNL A   1      42.482  27.841  31.238  1.00  0.00    -0.248 NA
ATOM     54  C   UNL A   1      44.096  26.554  30.147  1.00  0.00     0.031 C 
ATOM     55  C   UNL A   1      43.010  29.588  35.292  1.00  0.00     0.029 A 
ATOM     56  C   UNL A   1      42.871  29.037  34.028  1.00  0.00     0.049 A 
ATOM     57  H   UNL A   1      41.309  29.290  32.634  1.00  0.00     0.167 HD
ATOM     58  C   UNL A   1      43.569  27.662  32.086  1.00  0.00     0.074 A 
ATOM     59  C   UNL A   1      44.518  26.828  31.376  1.00  0.00     0.031 C 
ATOM     60  C   UNL A   1      43.775  28.160  33.330  1.00  0.00     0.034 A 
BRANCH  47  61
ATOM     61  C   UNL A   1      39.294  31.913  35.336  1.00  0.00     0.023 A 
ATOM     62  C   UNL A   1      38.346  31.413  36.249  1.00  0.00     0.012 A 
ATOM     63  C   UNL A   1      39.788  33.223  35.496  1.00  0.00     0.148 A 
ATOM     64  C   UNL A   1      37.877  32.211  37.292  1.00  0.00     0.002 A 
ATOM     65  C   UNL A   1      39.342  33.999  36.559  1.00  0.00     0.091 A 
ATOM     66  F   UNL A   1      40.669  33.688  34.600  1.00  0.00    -0.205 F 
ATOM     67  C   UNL A   1      38.382  33.498  37.454  1.00  0.00     0.022 A 
BRANCH  65  68
ATOM     68  S   UNL A   1      39.986  35.646  36.883  1.00  0.00     0.127 S 
ATOM     69  O   UNL A   1      41.411  35.375  37.064  1.00  0.00    -0.237 OA
ATOM     70  O   UNL A   1      39.653  36.359  35.649  1.00  0.00    -0.237 OA
ATOM     71  O   UNL A   1      39.280  36.122  38.064  1.00  0.00    -0.744 OA
ENDBRANCH  65  68
ENDBRANCH  47  61
BRANCH  48  72
ATOM     72  C   UNL A   1      42.429  26.199  27.751  1.00  0.00     0.023 A 
ATOM     73  C   UNL A   1      43.360  26.754  26.851  1.00  0.00     0.012 A 
ATOM     74  C   UNL A   1      42.012  24.865  27.574  1.00  0.00     0.148 A 
ATOM     75  C   UNL A   1      43.851  26.001  25.784  1.00  0.00     0.002 A 
ATOM     76  C   UNL A   1      42.545  24.104  26.540  1.00  0.00     0.091 A 
ATOM     77  F   UNL A   1      41.106  24.363  28.425  1.00  0.00    -0.205 F 
ATOM     78  C   UNL A   1      43.454  24.675  25.636  1.00  0.00     0.022 A 
BRANCH  76  79
ATOM     79  S   UNL A   1      42.182  22.354  26.359  1.00  0.00     0.127 S 
ATOM     80  O   UNL A   1      42.977  22.003  25.186  1.00  0.00    -0.237 OA
ATOM     81  O   UNL A   1      42.674  21.805  27.624  1.00  0.00    -0.237 OA
ATOM     82  O   UNL A   1      40.737  22.274  26.198  1.00  0.00    -0.744 OA
ENDBRANCH  76  79
ENDBRANCH  48  72
BRANCH  60  83
ATOM     83  C   UNL A   1      45.065  27.802  34.018  1.00  0.00     0.023 A 
ATOM     84  C   UNL A   1      46.178  28.656  33.892  1.00  0.00     0.012 A 
ATOM     85  C   UNL A   1      45.150  26.671  34.852  1.00  0.00     0.148 A 
ATOM     86  C   UNL A   1      47.364  28.375  34.566  1.00  0.00     0.002 A 
ATOM     87  C   UNL A   1      46.323  26.420  35.554  1.00  0.00     0.091 A 
ATOM     88  F   UNL A   1      44.085  25.858  34.941  1.00  0.00    -0.205 F 
ATOM     89  C   UNL A   1      47.433  27.267  35.406  1.00  0.00     0.022 A 
BRANCH  87  90
ATOM     90  S   UNL A   1      46.466  25.063  36.723  1.00  0.00     0.127 S 
ATOM     91  O   UNL A   1      45.418  25.390  37.688  1.00  0.00    -0.237 OA
ATOM     92  O   UNL A   1      46.183  23.896  35.887  1.00  0.00    -0.237 OA
ATOM     93  O   UNL A   1      47.830  25.120  37.231  1.00  0.00    -0.744 OA
ENDBRANCH  87  90
ENDBRANCH  60  83
ENDBRANCH  34  35
ENDBRANCH  27  29
ENDBRANCH  26  27
ENDBRANCH   1  26
TORSDOF 16
ENDMDL
