MODEL 1
REMARK VINA RESULT:     -12.6      0.000      0.000
REMARK SMILES C[C@@H]1CN(S(=O)(=O)c2cccc(C(=O)N3CCC[C@@H]3C(=O)OCCOC(=O)c3ccc(-c4c5nc(c(-c6cccc(S(=O)(=O)[O-])c6F)c6ccc([nH]6)c(-c6cccc(S(=O)(=O)[O-])c6F)c6nc(c(-c7cccc(S(=O)(=O)[O-])c7F)c7ccc4[nH]7)C=C6)C=C5)cc3)c2)C[C@H](C)O1
REMARK SMILES IDX 23 1 22 2 20 3 21 4 19 5 15 6 16 7 17 8 18 9 13 10 14 11
REMARK SMILES IDX 12 12 8 13 9 14 91 15 10 16 11 17 5 18 6 19 7 20 4 21 1 22
REMARK SMILES IDX 2 23 3 24 95 25 93 26 92 27 94 28 24 29 25 30 26 31 27 32
REMARK SMILES IDX 28 33 29 34 90 35 30 36 89 37 31 38 32 39 33 40 83 41 34 42
REMARK SMILES IDX 88 43 82 44 84 45 35 46 87 47 81 48 80 49 36 51 68 52 48 53
REMARK SMILES IDX 67 54 49 55 52 56 66 57 85 58 50 59 51 60 65 62 86 63 53 64
REMARK SMILES IDX 37 65 38 66 46 67 39 68 41 69 47 70 40 71 42 72 43 73 44 74
REMARK SMILES IDX 45 75 69 76 70 77 78 78 71 79 73 80 79 81 72 82 74 83 75 84
REMARK SMILES IDX 76 85 77 86 54 87 55 88 63 89 56 90 58 91 64 92 57 93 59 94
REMARK SMILES IDX 60 95 61 96 62 97
REMARK H PARENT 84 50 52 61
REMARK Flexibility Score: inf
ROOT
ATOM      1  C   UNL A   1      31.410  29.810  25.398  1.00  0.00     0.274 C 
ENDROOT
BRANCH   1   2
ATOM      2  O   UNL A   1      31.582  28.458  25.875  1.00  0.00    -0.461 OA
BRANCH   2   3
ATOM      3  C   UNL A   1      32.452  27.693  25.163  1.00  0.00     0.328 C 
ATOM      4  O   UNL A   1      33.424  27.132  25.658  1.00  0.00    -0.250 OA
BRANCH   3   5
ATOM      5  C   UNL A   1      32.168  27.663  23.652  1.00  0.00     0.195 C 
ATOM      6  N   UNL A   1      31.588  26.401  23.218  1.00  0.00    -0.325 N 
ATOM      7  C   UNL A   1      31.836  26.248  21.803  1.00  0.00     0.121 C 
ATOM      8  C   UNL A   1      33.265  26.731  21.681  1.00  0.00     0.024 C 
ATOM      9  C   UNL A   1      33.349  27.883  22.692  1.00  0.00     0.039 C 
BRANCH   6  10
ATOM     10  C   UNL A   1      30.405  25.956  23.778  1.00  0.00     0.254 C 
ATOM     11  O   UNL A   1      29.338  26.542  23.697  1.00  0.00    -0.269 OA
BRANCH  10  12
ATOM     12  C   UNL A   1      30.602  24.749  24.631  1.00  0.00     0.041 A 
ATOM     13  C   UNL A   1      31.638  22.577  24.929  1.00  0.00     0.083 A 
ATOM     14  C   UNL A   1      31.216  22.549  26.258  1.00  0.00     0.022 A 
ATOM     15  C   UNL A   1      31.295  23.650  24.116  1.00  0.00     0.035 A 
ATOM     16  C   UNL A   1      30.481  23.628  26.769  1.00  0.00     0.002 A 
ATOM     17  C   UNL A   1      30.181  24.733  25.961  1.00  0.00     0.014 A 
BRANCH  13  18
ATOM     18  S   UNL A   1      32.432  21.191  24.164  1.00  0.00     0.243 S 
ATOM     19  O   UNL A   1      32.121  21.251  22.750  1.00  0.00    -0.207 OA
ATOM     20  O   UNL A   1      32.104  20.010  24.936  1.00  0.00    -0.207 OA
BRANCH  18  21
ATOM     21  N   UNL A   1      34.141  21.440  24.318  1.00  0.00    -0.193 NA
ATOM     22  C   UNL A   1      37.247  20.403  24.871  1.00  0.00     0.040 C 
ATOM     23  C   UNL A   1      36.272  21.233  25.698  1.00  0.00     0.130 C 
ATOM     24  C   UNL A   1      34.788  20.826  25.531  1.00  0.00     0.134 C 
ATOM     25  O   UNL A   1      36.518  22.634  25.533  1.00  0.00    -0.373 OA
ATOM     26  C   UNL A   1      35.900  23.235  24.391  1.00  0.00     0.130 C 
ATOM     27  C   UNL A   1      34.404  22.927  24.333  1.00  0.00     0.134 C 
ATOM     28  C   UNL A   1      36.623  22.928  23.086  1.00  0.00     0.040 C 
ENDBRANCH  18  21
ENDBRANCH  13  18
ENDBRANCH  10  12
ENDBRANCH   6  10
ENDBRANCH   3   5
ENDBRANCH   2   3
ENDBRANCH   1   2
BRANCH   1  29
ATOM     29  C   UNL A   1      31.839  30.812  26.472  1.00  0.00     0.275 C 
BRANCH  29  30
ATOM     30  O   UNL A   1      33.271  30.854  26.598  1.00  0.00    -0.458 OA
BRANCH  30  31
ATOM     31  C   UNL A   1      33.759  31.854  27.368  1.00  0.00     0.338 C 
ATOM     32  O   UNL A   1      33.225  32.919  27.626  1.00  0.00    -0.246 OA
BRANCH  31  33
ATOM     33  C   UNL A   1      34.991  31.395  28.024  1.00  0.00     0.060 A 
ATOM     34  C   UNL A   1      36.062  32.289  28.097  1.00  0.00     0.016 A 
ATOM     35  C   UNL A   1      35.108  30.103  28.530  1.00  0.00     0.016 A 
ATOM     36  C   UNL A   1      37.258  31.905  28.686  1.00  0.00     0.010 A 
ATOM     37  C   UNL A   1      36.310  29.717  29.129  1.00  0.00     0.010 A 
ATOM     38  C   UNL A   1      37.387  30.617  29.214  1.00  0.00    -0.014 A 
BRANCH  38  39
ATOM     39  C   UNL A   1      38.648  30.218  29.878  1.00  0.00     0.031 A 
ATOM     40  C   UNL A   1      39.541  29.200  29.238  1.00  0.00     0.074 A 
ATOM     41  C   UNL A   1      38.958  30.756  31.072  1.00  0.00     0.049 A 
ATOM     42  N   UNL A   1      40.608  28.623  29.722  1.00  0.00    -0.248 NA
ATOM     43  C   UNL A   1      39.189  28.772  27.875  1.00  0.00     0.031 C 
ATOM     44  C   UNL A   1      38.168  31.775  31.768  1.00  0.00     0.029 A 
ATOM     45  N   UNL A   1      40.001  30.500  31.923  1.00  0.00    -0.354 N 
ATOM     46  C   UNL A   1      41.032  27.732  28.747  1.00  0.00     0.074 A 
ATOM     47  C   UNL A   1      40.111  27.851  27.636  1.00  0.00     0.031 C 
ATOM     48  C   UNL A   1      38.737  32.035  32.954  1.00  0.00     0.029 A 
ATOM     49  C   UNL A   1      39.900  31.168  33.122  1.00  0.00     0.049 A 
ATOM     50  H   UNL A   1      40.747  29.899  31.700  1.00  0.00     0.167 HD
ATOM     51  C   UNL A   1      42.098  26.898  28.776  1.00  0.00     0.034 A 
ATOM     52  C   UNL A   1      40.634  31.058  34.246  1.00  0.00     0.034 A 
ATOM     53  C   UNL A   1      43.024  26.818  29.873  1.00  0.00     0.049 A 
ATOM     54  C   UNL A   1      41.783  30.090  34.267  1.00  0.00     0.074 A 
ATOM     55  C   UNL A   1      44.169  26.049  29.978  1.00  0.00     0.029 A 
ATOM     56  N   UNL A   1      42.904  27.523  31.062  1.00  0.00    -0.354 N 
ATOM     57  N   UNL A   1      42.232  29.322  33.303  1.00  0.00    -0.248 NA
ATOM     58  C   UNL A   1      42.535  29.980  35.525  1.00  0.00     0.031 C 
ATOM     59  C   UNL A   1      44.730  26.274  31.240  1.00  0.00     0.029 A 
ATOM     60  C   UNL A   1      43.941  27.191  31.916  1.00  0.00     0.049 A 
ATOM     61  H   UNL A   1      42.187  28.165  31.267  1.00  0.00     0.167 HD
ATOM     62  C   UNL A   1      43.323  28.645  33.832  1.00  0.00     0.074 A 
ATOM     63  C   UNL A   1      43.488  29.119  35.192  1.00  0.00     0.031 C 
ATOM     64  C   UNL A   1      44.106  27.700  33.254  1.00  0.00     0.034 A 
BRANCH  51  65
ATOM     65  C   UNL A   1      42.333  26.021  27.577  1.00  0.00     0.023 A 
ATOM     66  C   UNL A   1      43.038  26.532  26.469  1.00  0.00     0.012 A 
ATOM     67  C   UNL A   1      41.906  24.680  27.569  1.00  0.00     0.148 A 
ATOM     68  C   UNL A   1      43.295  25.726  25.360  1.00  0.00     0.002 A 
ATOM     69  C   UNL A   1      42.195  23.872  26.474  1.00  0.00     0.091 A 
ATOM     70  F   UNL A   1      41.212  24.223  28.622  1.00  0.00    -0.205 F 
ATOM     71  C   UNL A   1      42.883  24.395  25.368  1.00  0.00     0.022 A 
BRANCH  69  72
ATOM     72  S   UNL A   1      41.758  22.131  26.416  1.00  0.00     0.127 S 
ATOM     73  O   UNL A   1      40.299  22.196  26.342  1.00  0.00    -0.237 OA
ATOM     74  O   UNL A   1      42.411  21.688  25.184  1.00  0.00    -0.237 OA
ATOM     75  O   UNL A   1      42.298  21.542  27.633  1.00  0.00    -0.744 OA
ENDBRANCH  69  72
ENDBRANCH  51  65
BRANCH  52  76
ATOM     76  C   UNL A   1      40.294  31.888  35.435  1.00  0.00     0.023 A 
ATOM     77  C   UNL A   1      41.029  33.060  35.692  1.00  0.00     0.012 A 
ATOM     78  C   UNL A   1      39.220  31.549  36.282  1.00  0.00     0.148 A 
ATOM     79  C   UNL A   1      40.709  33.873  36.781  1.00  0.00     0.002 A 
ATOM     80  C   UNL A   1      38.873  32.391  37.332  1.00  0.00     0.091 A 
ATOM     81  F   UNL A   1      38.549  30.415  36.037  1.00  0.00    -0.205 F 
ATOM     82  C   UNL A   1      39.624  33.547  37.592  1.00  0.00     0.022 A 
BRANCH  80  83
ATOM     83  S   UNL A   1      37.411  32.111  38.338  1.00  0.00     0.127 S 
ATOM     84  O   UNL A   1      37.182  30.682  38.141  1.00  0.00    -0.237 OA
ATOM     85  O   UNL A   1      37.879  32.481  39.674  1.00  0.00    -0.237 OA
ATOM     86  O   UNL A   1      36.391  32.999  37.797  1.00  0.00    -0.744 OA
ENDBRANCH  80  83
ENDBRANCH  52  76
BRANCH  64  87
ATOM     87  C   UNL A   1      45.205  27.107  34.093  1.00  0.00     0.023 A 
ATOM     88  C   UNL A   1      46.434  27.787  34.198  1.00  0.00     0.012 A 
ATOM     89  C   UNL A   1      44.999  25.927  34.834  1.00  0.00     0.148 A 
ATOM     90  C   UNL A   1      47.452  27.291  35.010  1.00  0.00     0.002 A 
ATOM     91  C   UNL A   1      46.003  25.461  35.674  1.00  0.00     0.091 A 
ATOM     92  F   UNL A   1      43.828  25.287  34.704  1.00  0.00    -0.205 F 
ATOM     93  C   UNL A   1      47.232  26.135  35.756  1.00  0.00     0.022 A 
BRANCH  91  94
ATOM     94  S   UNL A   1      45.780  24.031  36.740  1.00  0.00     0.127 S 
ATOM     95  O   UNL A   1      47.164  23.662  37.035  1.00  0.00    -0.237 OA
ATOM     96  O   UNL A   1      45.044  24.597  37.870  1.00  0.00    -0.237 OA
ATOM     97  O   UNL A   1      45.029  23.060  35.956  1.00  0.00    -0.744 OA
ENDBRANCH  91  94
ENDBRANCH  64  87
ENDBRANCH  38  39
ENDBRANCH  31  33
ENDBRANCH  30  31
ENDBRANCH  29  30
ENDBRANCH   1  29
TORSDOF 18
ENDMDL
MODEL 2
REMARK VINA RESULT:     -12.6      4.965     10.050
REMARK SMILES C[C@@H]1CN(S(=O)(=O)c2cccc(C(=O)N3CCC[C@@H]3C(=O)OCCOC(=O)c3ccc(-c4c5nc(c(-c6cccc(S(=O)(=O)[O-])c6F)c6ccc([nH]6)c(-c6cccc(S(=O)(=O)[O-])c6F)c6nc(c(-c7cccc(S(=O)(=O)[O-])c7F)c7ccc4[nH]7)C=C6)C=C5)cc3)c2)C[C@H](C)O1
REMARK SMILES IDX 23 1 22 2 20 3 21 4 19 5 15 6 16 7 17 8 18 9 13 10 14 11
REMARK SMILES IDX 12 12 8 13 9 14 91 15 10 16 11 17 5 18 6 19 7 20 4 21 1 22
REMARK SMILES IDX 2 23 3 24 95 25 93 26 92 27 94 28 24 29 25 30 26 31 27 32
REMARK SMILES IDX 28 33 29 34 90 35 30 36 89 37 31 38 32 39 33 40 83 41 34 42
REMARK SMILES IDX 88 43 82 44 84 45 35 46 87 47 81 48 80 49 36 51 68 52 48 53
REMARK SMILES IDX 67 54 49 55 52 56 66 57 85 58 50 59 51 60 65 62 86 63 53 64
REMARK SMILES IDX 37 65 38 66 46 67 39 68 41 69 47 70 40 71 42 72 43 73 44 74
REMARK SMILES IDX 45 75 69 76 70 77 78 78 71 79 73 80 79 81 72 82 74 83 75 84
REMARK SMILES IDX 76 85 77 86 54 87 55 88 63 89 56 90 58 91 64 92 57 93 59 94
REMARK SMILES IDX 60 95 61 96 62 97
REMARK H PARENT 84 50 52 61
REMARK Flexibility Score: inf
ROOT
ATOM      1  C   UNL A   1      35.577  21.093  24.685  1.00  0.00     0.274 C 
ENDROOT
BRANCH   1   2
ATOM      2  O   UNL A   1      35.493  22.498  24.365  1.00  0.00    -0.461 OA
BRANCH   2   3
ATOM      3  C   UNL A   1      34.632  23.221  25.130  1.00  0.00     0.328 C 
ATOM      4  O   UNL A   1      34.814  24.396  25.432  1.00  0.00    -0.250 OA
BRANCH   3   5
ATOM      5  C   UNL A   1      33.440  22.410  25.668  1.00  0.00     0.195 C 
ATOM      6  N   UNL A   1      32.203  22.698  24.957  1.00  0.00    -0.325 N 
ATOM      7  C   UNL A   1      31.093  22.337  25.809  1.00  0.00     0.121 C 
ATOM      8  C   UNL A   1      31.557  22.843  27.158  1.00  0.00     0.024 C 
ATOM      9  C   UNL A   1      33.068  22.574  27.150  1.00  0.00     0.039 C 
BRANCH   6  10
ATOM     10  C   UNL A   1      32.132  22.508  23.590  1.00  0.00     0.254 C 
ATOM     11  O   UNL A   1      32.231  21.425  23.036  1.00  0.00    -0.269 OA
BRANCH  10  12
ATOM     12  C   UNL A   1      32.073  23.797  22.842  1.00  0.00     0.041 A 
ATOM     13  C   UNL A   1      31.278  26.085  22.730  1.00  0.00     0.083 A 
ATOM     14  C   UNL A   1      32.096  26.323  21.625  1.00  0.00     0.022 A 
ATOM     15  C   UNL A   1      31.239  24.819  23.303  1.00  0.00     0.035 A 
ATOM     16  C   UNL A   1      32.901  25.288  21.129  1.00  0.00     0.002 A 
ATOM     17  C   UNL A   1      32.898  24.027  21.742  1.00  0.00     0.014 A 
BRANCH  13  18
ATOM     18  S   UNL A   1      30.119  27.286  23.319  1.00  0.00     0.243 S 
ATOM     19  O   UNL A   1      29.009  26.557  23.899  1.00  0.00    -0.207 OA
ATOM     20  O   UNL A   1      29.890  28.242  22.255  1.00  0.00    -0.207 OA
BRANCH  18  21
ATOM     21  N   UNL A   1      30.893  28.143  24.612  1.00  0.00    -0.193 NA
ATOM     22  C   UNL A   1      31.778  30.912  26.220  1.00  0.00     0.040 C 
ATOM     23  C   UNL A   1      32.562  29.904  25.387  1.00  0.00     0.130 C 
ATOM     24  C   UNL A   1      31.768  29.299  24.205  1.00  0.00     0.134 C 
ATOM     25  O   UNL A   1      33.204  28.933  26.221  1.00  0.00    -0.373 OA
ATOM     26  C   UNL A   1      32.389  27.823  26.608  1.00  0.00     0.130 C 
ATOM     27  C   UNL A   1      31.729  27.162  25.398  1.00  0.00     0.134 C 
ATOM     28  C   UNL A   1      31.401  28.161  27.717  1.00  0.00     0.040 C 
ENDBRANCH  18  21
ENDBRANCH  13  18
ENDBRANCH  10  12
ENDBRANCH   6  10
ENDBRANCH   3   5
ENDBRANCH   2   3
ENDBRANCH   1   2
BRANCH   1  29
ATOM     29  C   UNL A   1      37.023  20.706  25.005  1.00  0.00     0.275 C 
BRANCH  29  30
ATOM     30  O   UNL A   1      37.638  21.677  25.869  1.00  0.00    -0.458 OA
BRANCH  30  31
ATOM     31  C   UNL A   1      38.950  21.472  26.134  1.00  0.00     0.338 C 
ATOM     32  O   UNL A   1      39.600  20.463  25.922  1.00  0.00    -0.246 OA
BRANCH  31  33
ATOM     33  C   UNL A   1      39.555  22.740  26.564  1.00  0.00     0.060 A 
ATOM     34  C   UNL A   1      40.516  22.693  27.577  1.00  0.00     0.016 A 
ATOM     35  C   UNL A   1      39.166  23.956  26.009  1.00  0.00     0.016 A 
ATOM     36  C   UNL A   1      41.106  23.861  28.039  1.00  0.00     0.010 A 
ATOM     37  C   UNL A   1      39.765  25.132  26.469  1.00  0.00     0.010 A 
ATOM     38  C   UNL A   1      40.740  25.089  27.481  1.00  0.00    -0.014 A 
BRANCH  38  39
ATOM     39  C   UNL A   1      41.396  26.331  27.944  1.00  0.00     0.031 A 
ATOM     40  C   UNL A   1      40.597  27.382  28.650  1.00  0.00     0.074 A 
ATOM     41  C   UNL A   1      42.706  26.513  27.691  1.00  0.00     0.049 A 
ATOM     42  N   UNL A   1      40.956  28.586  29.008  1.00  0.00    -0.248 NA
ATOM     43  C   UNL A   1      39.210  27.036  29.002  1.00  0.00     0.031 C 
ATOM     44  C   UNL A   1      43.580  25.540  27.032  1.00  0.00     0.029 A 
ATOM     45  N   UNL A   1      43.521  27.589  27.931  1.00  0.00    -0.354 N 
ATOM     46  C   UNL A   1      39.832  29.160  29.585  1.00  0.00     0.074 A 
ATOM     47  C   UNL A   1      38.778  28.168  29.539  1.00  0.00     0.031 C 
ATOM     48  C   UNL A   1      44.802  26.074  26.891  1.00  0.00     0.029 A 
ATOM     49  C   UNL A   1      44.783  27.441  27.403  1.00  0.00     0.049 A 
ATOM     50  H   UNL A   1      43.232  28.387  28.429  1.00  0.00     0.167 HD
ATOM     51  C   UNL A   1      39.697  30.400  30.111  1.00  0.00     0.034 A 
ATOM     52  C   UNL A   1      45.794  28.326  27.301  1.00  0.00     0.034 A 
ATOM     53  C   UNL A   1      40.764  31.362  30.181  1.00  0.00     0.049 A 
ATOM     54  C   UNL A   1      45.602  29.710  27.852  1.00  0.00     0.074 A 
ATOM     55  C   UNL A   1      40.749  32.624  30.747  1.00  0.00     0.029 A 
ATOM     56  N   UNL A   1      42.035  31.173  29.657  1.00  0.00    -0.354 N 
ATOM     57  N   UNL A   1      44.566  30.211  28.482  1.00  0.00    -0.248 NA
ATOM     58  C   UNL A   1      46.720  30.650  27.690  1.00  0.00     0.031 C 
ATOM     59  C   UNL A   1      42.006  33.206  30.545  1.00  0.00     0.029 A 
ATOM     60  C   UNL A   1      42.806  32.302  29.865  1.00  0.00     0.049 A 
ATOM     61  H   UNL A   1      42.342  30.354  29.204  1.00  0.00     0.167 HD
ATOM     62  C   UNL A   1      44.908  31.518  28.800  1.00  0.00     0.074 A 
ATOM     63  C   UNL A   1      46.261  31.723  28.323  1.00  0.00     0.031 C 
ATOM     64  C   UNL A   1      44.163  32.473  29.412  1.00  0.00     0.034 A 
BRANCH  51  65
ATOM     65  C   UNL A   1      38.355  30.780  30.673  1.00  0.00     0.023 A 
ATOM     66  C   UNL A   1      38.037  30.443  32.003  1.00  0.00     0.012 A 
ATOM     67  C   UNL A   1      37.433  31.515  29.904  1.00  0.00     0.148 A 
ATOM     68  C   UNL A   1      36.810  30.814  32.554  1.00  0.00     0.002 A 
ATOM     69  C   UNL A   1      36.226  31.911  30.470  1.00  0.00     0.091 A 
ATOM     70  F   UNL A   1      37.744  31.801  28.631  1.00  0.00    -0.205 F 
ATOM     71  C   UNL A   1      35.911  31.556  31.792  1.00  0.00     0.022 A 
BRANCH  69  72
ATOM     72  S   UNL A   1      35.029  32.919  29.587  1.00  0.00     0.127 S 
ATOM     73  O   UNL A   1      34.573  31.994  28.551  1.00  0.00    -0.237 OA
ATOM     74  O   UNL A   1      34.040  33.206  30.627  1.00  0.00    -0.237 OA
ATOM     75  O   UNL A   1      35.761  34.084  29.110  1.00  0.00    -0.744 OA
ENDBRANCH  69  72
ENDBRANCH  51  65
BRANCH  52  76
ATOM     76  C   UNL A   1      47.070  27.918  26.650  1.00  0.00     0.023 A 
ATOM     77  C   UNL A   1      48.113  27.397  27.439  1.00  0.00     0.012 A 
ATOM     78  C   UNL A   1      47.238  27.998  25.253  1.00  0.00     0.148 A 
ATOM     79  C   UNL A   1      49.306  26.977  26.849  1.00  0.00     0.002 A 
ATOM     80  C   UNL A   1      48.407  27.528  24.668  1.00  0.00     0.091 A 
ATOM     81  F   UNL A   1      46.244  28.521  24.522  1.00  0.00    -0.205 F 
ATOM     82  C   UNL A   1      49.448  27.029  25.464  1.00  0.00     0.022 A 
BRANCH  80  83
ATOM     83  S   UNL A   1      48.612  27.437  22.884  1.00  0.00     0.127 S 
ATOM     84  O   UNL A   1      48.528  25.999  22.646  1.00  0.00    -0.237 OA
ATOM     85  O   UNL A   1      47.467  28.209  22.402  1.00  0.00    -0.237 OA
ATOM     86  O   UNL A   1      49.904  28.053  22.610  1.00  0.00    -0.744 OA
ENDBRANCH  80  83
ENDBRANCH  52  76
BRANCH  64  87
ATOM     87  C   UNL A   1      44.791  33.829  29.590  1.00  0.00     0.023 A 
ATOM     88  C   UNL A   1      45.570  34.080  30.737  1.00  0.00     0.012 A 
ATOM     89  C   UNL A   1      44.677  34.820  28.597  1.00  0.00     0.148 A 
ATOM     90  C   UNL A   1      46.208  35.308  30.904  1.00  0.00     0.002 A 
ATOM     91  C   UNL A   1      45.351  36.026  28.751  1.00  0.00     0.091 A 
ATOM     92  F   UNL A   1      43.916  34.565  27.523  1.00  0.00    -0.205 F 
ATOM     93  C   UNL A   1      46.108  36.275  29.906  1.00  0.00     0.022 A 
BRANCH  91  94
ATOM     94  S   UNL A   1      45.352  37.297  27.481  1.00  0.00     0.127 S 
ATOM     95  O   UNL A   1      46.192  38.327  28.092  1.00  0.00    -0.237 OA
ATOM     96  O   UNL A   1      45.964  36.603  26.347  1.00  0.00    -0.237 OA
ATOM     97  O   UNL A   1      43.957  37.666  27.282  1.00  0.00    -0.744 OA
ENDBRANCH  91  94
ENDBRANCH  64  87
ENDBRANCH  38  39
ENDBRANCH  31  33
ENDBRANCH  30  31
ENDBRANCH  29  30
ENDBRANCH   1  29
TORSDOF 18
ENDMDL
MODEL 3
REMARK VINA RESULT:     -12.1      1.649      2.088
REMARK SMILES C[C@@H]1CN(S(=O)(=O)c2cccc(C(=O)N3CCC[C@@H]3C(=O)OCCOC(=O)c3ccc(-c4c5nc(c(-c6cccc(S(=O)(=O)[O-])c6F)c6ccc([nH]6)c(-c6cccc(S(=O)(=O)[O-])c6F)c6nc(c(-c7cccc(S(=O)(=O)[O-])c7F)c7ccc4[nH]7)C=C6)C=C5)cc3)c2)C[C@H](C)O1
REMARK SMILES IDX 23 1 22 2 20 3 21 4 19 5 15 6 16 7 17 8 18 9 13 10 14 11
REMARK SMILES IDX 12 12 8 13 9 14 91 15 10 16 11 17 5 18 6 19 7 20 4 21 1 22
REMARK SMILES IDX 2 23 3 24 95 25 93 26 92 27 94 28 24 29 25 30 26 31 27 32
REMARK SMILES IDX 28 33 29 34 90 35 30 36 89 37 31 38 32 39 33 40 83 41 34 42
REMARK SMILES IDX 88 43 82 44 84 45 35 46 87 47 81 48 80 49 36 51 68 52 48 53
REMARK SMILES IDX 67 54 49 55 52 56 66 57 85 58 50 59 51 60 65 62 86 63 53 64
REMARK SMILES IDX 37 65 38 66 46 67 39 68 41 69 47 70 40 71 42 72 43 73 44 74
REMARK SMILES IDX 45 75 69 76 70 77 78 78 71 79 73 80 79 81 72 82 74 83 75 84
REMARK SMILES IDX 76 85 77 86 54 87 55 88 63 89 56 90 58 91 64 92 57 93 59 94
REMARK SMILES IDX 60 95 61 96 62 97
REMARK H PARENT 84 50 52 61
REMARK Flexibility Score: inf
ROOT
ATOM      1  C   UNL A   1      31.829  28.896  27.088  1.00  0.00     0.274 C 
ENDROOT
BRANCH   1   2
ATOM      2  O   UNL A   1      32.851  28.201  26.341  1.00  0.00    -0.461 OA
BRANCH   2   3
ATOM      3  C   UNL A   1      32.484  27.780  25.101  1.00  0.00     0.328 C 
ATOM      4  O   UNL A   1      33.274  27.341  24.272  1.00  0.00    -0.250 OA
BRANCH   3   5
ATOM      5  C   UNL A   1      30.993  27.989  24.785  1.00  0.00     0.195 C 
ATOM      6  N   UNL A   1      30.311  26.743  24.467  1.00  0.00    -0.325 N 
ATOM      7  C   UNL A   1      29.127  27.055  23.700  1.00  0.00     0.121 C 
ATOM      8  C   UNL A   1      29.635  28.129  22.762  1.00  0.00     0.024 C 
ATOM      9  C   UNL A   1      30.627  28.924  23.621  1.00  0.00     0.039 C 
BRANCH   6  10
ATOM     10  C   UNL A   1      30.305  25.706  25.380  1.00  0.00     0.254 C 
ATOM     11  O   UNL A   1      29.898  25.796  26.527  1.00  0.00    -0.269 OA
BRANCH  10  12
ATOM     12  C   UNL A   1      30.999  24.491  24.862  1.00  0.00     0.041 A 
ATOM     13  C   UNL A   1      32.343  22.527  25.322  1.00  0.00     0.083 A 
ATOM     14  C   UNL A   1      32.137  22.072  24.020  1.00  0.00     0.022 A 
ATOM     15  C   UNL A   1      31.812  23.747  25.720  1.00  0.00     0.035 A 
ATOM     16  C   UNL A   1      31.360  22.836  23.138  1.00  0.00     0.002 A 
ATOM     17  C   UNL A   1      30.782  24.041  23.560  1.00  0.00     0.014 A 
BRANCH  13  18
ATOM     18  S   UNL A   1      33.437  21.703  26.445  1.00  0.00     0.243 S 
ATOM     19  O   UNL A   1      33.308  20.281  26.199  1.00  0.00    -0.207 OA
ATOM     20  O   UNL A   1      33.200  22.242  27.769  1.00  0.00    -0.207 OA
BRANCH  18  21
ATOM     21  N   UNL A   1      35.051  22.151  25.997  1.00  0.00    -0.193 NA
ATOM     22  C   UNL A   1      37.828  23.942  26.327  1.00  0.00     0.040 C 
ATOM     23  C   UNL A   1      36.713  23.945  25.287  1.00  0.00     0.130 C 
ATOM     24  C   UNL A   1      35.310  23.627  25.857  1.00  0.00     0.134 C 
ATOM     25  O   UNL A   1      37.072  23.164  24.142  1.00  0.00    -0.373 OA
ATOM     26  C   UNL A   1      36.822  21.760  24.255  1.00  0.00     0.130 C 
ATOM     27  C   UNL A   1      35.383  21.478  24.686  1.00  0.00     0.134 C 
ATOM     28  C   UNL A   1      37.854  21.032  25.108  1.00  0.00     0.040 C 
ENDBRANCH  18  21
ENDBRANCH  13  18
ENDBRANCH  10  12
ENDBRANCH   6  10
ENDBRANCH   3   5
ENDBRANCH   2   3
ENDBRANCH   1   2
BRANCH   1  29
ATOM     29  C   UNL A   1      31.921  30.403  26.840  1.00  0.00     0.275 C 
BRANCH  29  30
ATOM     30  O   UNL A   1      33.281  30.805  26.596  1.00  0.00    -0.458 OA
BRANCH  30  31
ATOM     31  C   UNL A   1      33.738  31.813  27.375  1.00  0.00     0.338 C 
ATOM     32  O   UNL A   1      33.173  32.860  27.640  1.00  0.00    -0.246 OA
BRANCH  31  33
ATOM     33  C   UNL A   1      34.981  31.384  28.031  1.00  0.00     0.060 A 
ATOM     34  C   UNL A   1      36.032  32.303  28.100  1.00  0.00     0.016 A 
ATOM     35  C   UNL A   1      35.129  30.097  28.539  1.00  0.00     0.016 A 
ATOM     36  C   UNL A   1      37.237  31.948  28.689  1.00  0.00     0.010 A 
ATOM     37  C   UNL A   1      36.340  29.740  29.139  1.00  0.00     0.010 A 
ATOM     38  C   UNL A   1      37.396  30.665  29.219  1.00  0.00    -0.014 A 
BRANCH  38  39
ATOM     39  C   UNL A   1      38.666  30.296  29.883  1.00  0.00     0.031 A 
ATOM     40  C   UNL A   1      39.576  29.288  29.252  1.00  0.00     0.074 A 
ATOM     41  C   UNL A   1      38.971  30.853  31.070  1.00  0.00     0.049 A 
ATOM     42  N   UNL A   1      40.655  28.737  29.738  1.00  0.00    -0.248 NA
ATOM     43  C   UNL A   1      39.227  28.839  27.894  1.00  0.00     0.031 C 
ATOM     44  C   UNL A   1      38.164  31.864  31.758  1.00  0.00     0.029 A 
ATOM     45  N   UNL A   1      40.021  30.626  31.920  1.00  0.00    -0.354 N 
ATOM     46  C   UNL A   1      41.092  27.843  28.770  1.00  0.00     0.074 A 
ATOM     47  C   UNL A   1      40.165  27.932  27.662  1.00  0.00     0.031 C 
ATOM     48  C   UNL A   1      38.733  32.148  32.939  1.00  0.00     0.029 A 
ATOM     49  C   UNL A   1      39.911  31.305  33.112  1.00  0.00     0.049 A 
ATOM     50  H   UNL A   1      40.778  30.036  31.701  1.00  0.00     0.167 HD
ATOM     51  C   UNL A   1      42.173  27.030  28.804  1.00  0.00     0.034 A 
ATOM     52  C   UNL A   1      40.652  31.220  34.234  1.00  0.00     0.034 A 
ATOM     53  C   UNL A   1      43.105  26.978  29.899  1.00  0.00     0.049 A 
ATOM     54  C   UNL A   1      41.819  30.275  34.262  1.00  0.00     0.074 A 
ATOM     55  C   UNL A   1      44.265  26.232  30.008  1.00  0.00     0.029 A 
ATOM     56  N   UNL A   1      42.976  27.694  31.081  1.00  0.00    -0.354 N 
ATOM     57  N   UNL A   1      42.279  29.505  33.305  1.00  0.00    -0.248 NA
ATOM     58  C   UNL A   1      42.577  30.192  35.518  1.00  0.00     0.031 C 
ATOM     59  C   UNL A   1      44.826  26.481  31.266  1.00  0.00     0.029 A 
ATOM     60  C   UNL A   1      44.022  27.391  31.934  1.00  0.00     0.049 A 
ATOM     61  H   UNL A   1      42.248  28.325  31.281  1.00  0.00     0.167 HD
ATOM     62  C   UNL A   1      43.384  28.854  33.836  1.00  0.00     0.074 A 
ATOM     63  C   UNL A   1      43.545  29.345  35.191  1.00  0.00     0.031 C 
ATOM     64  C   UNL A   1      44.182  27.917  33.266  1.00  0.00     0.034 A 
BRANCH  51  65
ATOM     65  C   UNL A   1      42.421  26.144  27.614  1.00  0.00     0.023 A 
ATOM     66  C   UNL A   1      43.072  26.668  26.480  1.00  0.00     0.012 A 
ATOM     67  C   UNL A   1      42.059  24.784  27.639  1.00  0.00     0.148 A 
ATOM     68  C   UNL A   1      43.340  25.857  25.378  1.00  0.00     0.002 A 
ATOM     69  C   UNL A   1      42.359  23.972  26.550  1.00  0.00     0.091 A 
ATOM     70  F   UNL A   1      41.415  24.312  28.717  1.00  0.00    -0.205 F 
ATOM     71  C   UNL A   1      42.993  24.508  25.418  1.00  0.00     0.022 A 
BRANCH  69  72
ATOM     72  S   UNL A   1      42.006  22.210  26.532  1.00  0.00     0.127 S 
ATOM     73  O   UNL A   1      42.850  21.729  27.625  1.00  0.00    -0.237 OA
ATOM     74  O   UNL A   1      40.570  22.180  26.813  1.00  0.00    -0.237 OA
ATOM     75  O   UNL A   1      42.372  21.742  25.203  1.00  0.00    -0.744 OA
ENDBRANCH  69  72
ENDBRANCH  51  65
BRANCH  52  76
ATOM     76  C   UNL A   1      40.300  32.057  35.416  1.00  0.00     0.023 A 
ATOM     77  C   UNL A   1      41.013  33.246  35.656  1.00  0.00     0.012 A 
ATOM     78  C   UNL A   1      39.237  31.707  36.272  1.00  0.00     0.148 A 
ATOM     79  C   UNL A   1      40.682  34.065  36.738  1.00  0.00     0.002 A 
ATOM     80  C   UNL A   1      38.878  32.554  37.314  1.00  0.00     0.091 A 
ATOM     81  F   UNL A   1      38.588  30.557  36.042  1.00  0.00    -0.205 F 
ATOM     82  C   UNL A   1      39.607  33.727  37.557  1.00  0.00     0.022 A 
BRANCH  80  83
ATOM     83  S   UNL A   1      37.426  32.256  38.329  1.00  0.00     0.127 S 
ATOM     84  O   UNL A   1      37.351  30.797  38.324  1.00  0.00    -0.237 OA
ATOM     85  O   UNL A   1      37.817  32.847  39.609  1.00  0.00    -0.237 OA
ATOM     86  O   UNL A   1      36.335  32.952  37.660  1.00  0.00    -0.744 OA
ENDBRANCH  80  83
ENDBRANCH  52  76
BRANCH  64  87
ATOM     87  C   UNL A   1      45.295  27.354  34.107  1.00  0.00     0.023 A 
ATOM     88  C   UNL A   1      45.062  26.189  34.865  1.00  0.00     0.012 A 
ATOM     89  C   UNL A   1      46.582  27.924  34.088  1.00  0.00     0.148 A 
ATOM     90  C   UNL A   1      46.088  25.613  35.611  1.00  0.00     0.002 A 
ATOM     91  C   UNL A   1      47.611  27.319  34.801  1.00  0.00     0.091 A 
ATOM     92  F   UNL A   1      46.776  29.042  33.373  1.00  0.00    -0.205 F 
ATOM     93  C   UNL A   1      47.364  26.171  35.570  1.00  0.00     0.022 A 
BRANCH  91  94
ATOM     94  S   UNL A   1      49.306  27.915  34.738  1.00  0.00     0.127 S 
ATOM     95  O   UNL A   1      49.950  27.085  35.755  1.00  0.00    -0.237 OA
ATOM     96  O   UNL A   1      49.693  27.604  33.361  1.00  0.00    -0.237 OA
ATOM     97  O   UNL A   1      49.242  29.337  35.041  1.00  0.00    -0.744 OA
ENDBRANCH  91  94
ENDBRANCH  64  87
ENDBRANCH  38  39
ENDBRANCH  31  33
ENDBRANCH  30  31
ENDBRANCH  29  30
ENDBRANCH   1  29
TORSDOF 18
ENDMDL
