MODEL 1
REMARK VINA RESULT:     -10.5      0.000      0.000
REMARK SMILES C=CCN(CC(=O)OCCOC(=O)c1ccc(-c2c3nc(c(-c4cccc(S(=O)(=O)[O-])c4F)c4ccc([nH]4)c(-c4cccc(S(=O)(=O)[O-])c4F)c4nc(c(-c5cccc(S(=O)(=O)[O-])c5F)c5ccc2[nH]5)C=C4)C=C3)cc1)c1nccn(C)c1=O
REMARK SMILES IDX 9 1 8 2 6 3 7 4 5 5 4 6 3 7 2 8 1 9 77 10 78 11 83 12 79 13
REMARK SMILES IDX 81 14 84 15 80 16 82 17 10 18 11 19 12 20 13 21 14 22 15 23
REMARK SMILES IDX 76 24 16 25 75 26 17 27 18 28 19 29 69 30 20 31 74 32 68 33
REMARK SMILES IDX 70 34 21 35 73 36 67 37 66 38 22 40 54 41 34 42 53 43 35 44
REMARK SMILES IDX 38 45 52 46 71 47 36 48 37 49 51 51 72 52 39 53 23 54 24 55
REMARK SMILES IDX 32 56 25 57 27 58 33 59 26 60 28 61 29 62 30 63 31 64 55 65
REMARK SMILES IDX 56 66 64 67 57 68 59 69 65 70 58 71 60 72 61 73 62 74 63 75
REMARK SMILES IDX 40 76 41 77 49 78 42 79 44 80 50 81 43 82 45 83 46 84 47 85
REMARK SMILES IDX 48 86
REMARK H PARENT 70 39 38 50
REMARK Flexibility Score: inf
ROOT
ATOM      1  C   UNL A   1      35.916  20.553  24.993  1.00  0.00     0.274 C 
ENDROOT
BRANCH   1   2
ATOM      2  O   UNL A   1      35.256  21.804  24.711  1.00  0.00    -0.461 OA
BRANCH   2   3
ATOM      3  C   UNL A   1      34.276  22.181  25.571  1.00  0.00     0.325 C 
ATOM      4  O   UNL A   1      34.472  22.842  26.589  1.00  0.00    -0.250 OA
BRANCH   3   5
ATOM      5  C   UNL A   1      32.874  21.723  25.185  1.00  0.00     0.241 C 
BRANCH   5   6
ATOM      6  N   UNL A   1      32.504  21.914  23.777  1.00  0.00    -0.337 N 
BRANCH   6   7
ATOM      7  C   UNL A   1      32.152  20.727  23.020  1.00  0.00     0.146 C 
BRANCH   7   8
ATOM      8  C   UNL A   1      32.517  19.505  23.820  1.00  0.00    -0.014 C 
ATOM      9  C   UNL A   1      32.530  18.251  23.347  1.00  0.00     0.006 C 
ENDBRANCH   7   8
ENDBRANCH   6   7
BRANCH   6  10
ATOM     10  C   UNL A   1      31.992  23.151  23.393  1.00  0.00     0.196 A 
ATOM     11  N   UNL A   1      30.795  23.508  23.794  1.00  0.00    -0.233 NA
ATOM     12  C   UNL A   1      32.882  24.104  22.535  1.00  0.00     0.293 A 
ATOM     13  C   UNL A   1      30.381  24.777  23.495  1.00  0.00     0.131 A 
ATOM     14  N   UNL A   1      32.407  25.415  22.470  1.00  0.00    -0.314 N 
ATOM     15  O   UNL A   1      33.902  23.680  22.003  1.00  0.00    -0.265 OA
ATOM     16  C   UNL A   1      31.142  25.714  22.920  1.00  0.00     0.109 A 
ATOM     17  C   UNL A   1      33.290  26.486  22.059  1.00  0.00     0.153 C 
ENDBRANCH   6  10
ENDBRANCH   5   6
ENDBRANCH   3   5
ENDBRANCH   2   3
ENDBRANCH   1   2
BRANCH   1  18
ATOM     18  C   UNL A   1      37.438  20.705  25.002  1.00  0.00     0.275 C 
BRANCH  18  19
ATOM     19  O   UNL A   1      37.871  21.645  26.002  1.00  0.00    -0.458 OA
BRANCH  19  20
ATOM     20  C   UNL A   1      39.187  21.556  26.294  1.00  0.00     0.338 C 
ATOM     21  O   UNL A   1      39.898  20.578  26.166  1.00  0.00    -0.246 OA
BRANCH  20  22
ATOM     22  C   UNL A   1      39.734  22.815  26.789  1.00  0.00     0.060 A 
ATOM     23  C   UNL A   1      39.367  24.006  26.161  1.00  0.00     0.016 A 
ATOM     24  C   UNL A   1      40.752  22.779  27.742  1.00  0.00     0.016 A 
ATOM     25  C   UNL A   1      40.022  25.186  26.495  1.00  0.00     0.010 A 
ATOM     26  C   UNL A   1      41.386  23.967  28.098  1.00  0.00     0.010 A 
ATOM     27  C   UNL A   1      41.021  25.174  27.479  1.00  0.00    -0.014 A 
BRANCH  27  28
ATOM     28  C   UNL A   1      41.578  26.445  27.983  1.00  0.00     0.031 A 
ATOM     29  C   UNL A   1      40.710  27.471  28.643  1.00  0.00     0.074 A 
ATOM     30  C   UNL A   1      42.880  26.681  27.743  1.00  0.00     0.049 A 
ATOM     31  N   UNL A   1      41.028  28.676  29.037  1.00  0.00    -0.248 NA
ATOM     32  C   UNL A   1      39.307  27.104  28.890  1.00  0.00     0.031 C 
ATOM     33  C   UNL A   1      43.787  25.745  27.075  1.00  0.00     0.029 A 
ATOM     34  N   UNL A   1      43.654  27.783  27.988  1.00  0.00    -0.354 N 
ATOM     35  C   UNL A   1      39.864  29.225  29.558  1.00  0.00     0.074 A 
ATOM     36  C   UNL A   1      38.829  28.219  29.430  1.00  0.00     0.031 C 
ATOM     37  C   UNL A   1      44.986  26.326  26.929  1.00  0.00     0.029 A 
ATOM     38  C   UNL A   1      44.918  27.683  27.458  1.00  0.00     0.049 A 
ATOM     39  H   UNL A   1      43.337  28.568  28.491  1.00  0.00     0.167 HD
ATOM     40  C   UNL A   1      39.691  30.452  30.104  1.00  0.00     0.034 A 
ATOM     41  C   UNL A   1      45.902  28.596  27.371  1.00  0.00     0.034 A 
ATOM     42  C   UNL A   1      40.745  31.423  30.246  1.00  0.00     0.049 A 
ATOM     43  C   UNL A   1      45.675  29.953  27.966  1.00  0.00     0.074 A 
ATOM     44  C   UNL A   1      40.703  32.656  30.874  1.00  0.00     0.029 A 
ATOM     45  N   UNL A   1      42.027  31.277  29.739  1.00  0.00    -0.354 N 
ATOM     46  N   UNL A   1      44.613  30.407  28.587  1.00  0.00    -0.248 NA
ATOM     47  C   UNL A   1      46.778  30.915  27.867  1.00  0.00     0.031 C 
ATOM     48  C   UNL A   1      41.957  33.260  30.733  1.00  0.00     0.029 A 
ATOM     49  C   UNL A   1      42.780  32.405  30.015  1.00  0.00     0.049 A 
ATOM     50  H   UNL A   1      42.355  30.485  29.253  1.00  0.00     0.167 HD
ATOM     51  C   UNL A   1      44.918  31.707  28.958  1.00  0.00     0.074 A 
ATOM     52  C   UNL A   1      46.278  31.958  28.519  1.00  0.00     0.031 C 
ATOM     53  C   UNL A   1      44.137  32.621  29.585  1.00  0.00     0.034 A 
BRANCH  40  54
ATOM     54  C   UNL A   1      38.329  30.801  30.638  1.00  0.00     0.023 A 
ATOM     55  C   UNL A   1      37.986  30.412  31.948  1.00  0.00     0.012 A 
ATOM     56  C   UNL A   1      37.425  31.576  29.886  1.00  0.00     0.148 A 
ATOM     57  C   UNL A   1      36.759  30.781  32.499  1.00  0.00     0.002 A 
ATOM     58  C   UNL A   1      36.213  31.960  30.451  1.00  0.00     0.091 A 
ATOM     59  F   UNL A   1      37.758  31.911  28.632  1.00  0.00    -0.205 F 
ATOM     60  C   UNL A   1      35.878  31.563  31.756  1.00  0.00     0.022 A 
BRANCH  58  61
ATOM     61  S   UNL A   1      35.036  33.008  29.585  1.00  0.00     0.127 S 
ATOM     62  O   UNL A   1      35.895  34.098  29.127  1.00  0.00    -0.237 OA
ATOM     63  O   UNL A   1      34.554  32.124  28.523  1.00  0.00    -0.237 OA
ATOM     64  O   UNL A   1      34.029  33.370  30.572  1.00  0.00    -0.744 OA
ENDBRANCH  58  61
ENDBRANCH  40  54
BRANCH  41  65
ATOM     65  C   UNL A   1      47.183  28.216  26.719  1.00  0.00     0.023 A 
ATOM     66  C   UNL A   1      48.249  27.752  27.509  1.00  0.00     0.012 A 
ATOM     67  C   UNL A   1      47.308  28.199  25.315  1.00  0.00     0.148 A 
ATOM     68  C   UNL A   1      49.419  27.279  26.913  1.00  0.00     0.002 A 
ATOM     69  C   UNL A   1      48.454  27.674  24.727  1.00  0.00     0.091 A 
ATOM     70  F   UNL A   1      46.290  28.664  24.576  1.00  0.00    -0.205 F 
ATOM     71  C   UNL A   1      49.515  27.223  25.524  1.00  0.00     0.022 A 
BRANCH  69  72
ATOM     72  S   UNL A   1      48.553  27.430  22.950  1.00  0.00     0.127 S 
ATOM     73  O   UNL A   1      49.899  27.912  22.652  1.00  0.00    -0.237 OA
ATOM     74  O   UNL A   1      48.376  25.983  22.815  1.00  0.00    -0.237 OA
ATOM     75  O   UNL A   1      47.450  28.212  22.407  1.00  0.00    -0.744 OA
ENDBRANCH  69  72
ENDBRANCH  41  65
BRANCH  53  76
ATOM     76  C   UNL A   1      44.729  33.985  29.801  1.00  0.00     0.023 A 
ATOM     77  C   UNL A   1      45.450  34.234  30.986  1.00  0.00     0.012 A 
ATOM     78  C   UNL A   1      44.621  34.993  28.826  1.00  0.00     0.148 A 
ATOM     79  C   UNL A   1      46.041  35.476  31.205  1.00  0.00     0.002 A 
ATOM     80  C   UNL A   1      45.242  36.219  29.037  1.00  0.00     0.091 A 
ATOM     81  F   UNL A   1      43.908  34.743  27.719  1.00  0.00    -0.205 F 
ATOM     82  C   UNL A   1      45.946  36.464  30.228  1.00  0.00     0.022 A 
BRANCH  80  83
ATOM     83  S   UNL A   1      45.227  37.517  27.796  1.00  0.00     0.127 S 
ATOM     84  O   UNL A   1      45.995  38.572  28.457  1.00  0.00    -0.237 OA
ATOM     85  O   UNL A   1      45.908  36.884  26.666  1.00  0.00    -0.237 OA
ATOM     86  O   UNL A   1      43.821  37.815  27.557  1.00  0.00    -0.744 OA
ENDBRANCH  80  83
ENDBRANCH  53  76
ENDBRANCH  27  28
ENDBRANCH  20  22
ENDBRANCH  19  20
ENDBRANCH  18  19
ENDBRANCH   1  18
TORSDOF 18
ENDMDL
MODEL 2
REMARK VINA RESULT:     -10.2      4.229     10.053
REMARK SMILES C=CCN(CC(=O)OCCOC(=O)c1ccc(-c2c3nc(c(-c4cccc(S(=O)(=O)[O-])c4F)c4ccc([nH]4)c(-c4cccc(S(=O)(=O)[O-])c4F)c4nc(c(-c5cccc(S(=O)(=O)[O-])c5F)c5ccc2[nH]5)C=C4)C=C3)cc1)c1nccn(C)c1=O
REMARK SMILES IDX 9 1 8 2 6 3 7 4 5 5 4 6 3 7 2 8 1 9 77 10 78 11 83 12 79 13
REMARK SMILES IDX 81 14 84 15 80 16 82 17 10 18 11 19 12 20 13 21 14 22 15 23
REMARK SMILES IDX 76 24 16 25 75 26 17 27 18 28 19 29 69 30 20 31 74 32 68 33
REMARK SMILES IDX 70 34 21 35 73 36 67 37 66 38 22 40 54 41 34 42 53 43 35 44
REMARK SMILES IDX 38 45 52 46 71 47 36 48 37 49 51 51 72 52 39 53 23 54 24 55
REMARK SMILES IDX 32 56 25 57 27 58 33 59 26 60 28 61 29 62 30 63 31 64 55 65
REMARK SMILES IDX 56 66 64 67 57 68 59 69 65 70 58 71 60 72 61 73 62 74 63 75
REMARK SMILES IDX 40 76 41 77 49 78 42 79 44 80 50 81 43 82 45 83 46 84 47 85
REMARK SMILES IDX 48 86
REMARK H PARENT 70 39 38 50
REMARK Flexibility Score: inf
ROOT
ATOM      1  C   UNL A   1      42.121  22.151  25.827  1.00  0.00     0.274 C 
ENDROOT
BRANCH   1   2
ATOM      2  O   UNL A   1      43.262  21.380  25.397  1.00  0.00    -0.461 OA
BRANCH   2   3
ATOM      3  C   UNL A   1      44.263  22.066  24.790  1.00  0.00     0.325 C 
ATOM      4  O   UNL A   1      44.187  22.534  23.656  1.00  0.00    -0.250 OA
BRANCH   3   5
ATOM      5  C   UNL A   1      45.527  22.229  25.627  1.00  0.00     0.241 C 
BRANCH   5   6
ATOM      6  N   UNL A   1      45.502  23.312  26.619  1.00  0.00    -0.337 N 
BRANCH   6   7
ATOM      7  C   UNL A   1      44.930  23.005  27.916  1.00  0.00     0.146 C 
BRANCH   7   8
ATOM      8  C   UNL A   1      43.955  24.088  28.295  1.00  0.00    -0.014 C 
ATOM      9  C   UNL A   1      42.902  23.925  29.107  1.00  0.00     0.006 C 
ENDBRANCH   7   8
ENDBRANCH   6   7
BRANCH   6  10
ATOM     10  C   UNL A   1      46.448  24.329  26.507  1.00  0.00     0.196 A 
ATOM     11  N   UNL A   1      47.593  24.219  27.136  1.00  0.00    -0.233 NA
ATOM     12  C   UNL A   1      46.136  25.554  25.591  1.00  0.00     0.293 A 
ATOM     13  C   UNL A   1      48.537  25.180  26.903  1.00  0.00     0.131 A 
ATOM     14  N   UNL A   1      47.250  26.346  25.307  1.00  0.00    -0.314 N 
ATOM     15  O   UNL A   1      44.996  25.739  25.178  1.00  0.00    -0.265 OA
ATOM     16  C   UNL A   1      48.421  26.164  26.005  1.00  0.00     0.109 A 
ATOM     17  C   UNL A   1      47.219  27.265  24.189  1.00  0.00     0.153 C 
ENDBRANCH   6  10
ENDBRANCH   5   6
ENDBRANCH   3   5
ENDBRANCH   2   3
ENDBRANCH   1   2
BRANCH   1  18
ATOM     18  C   UNL A   1      40.901  21.263  26.080  1.00  0.00     0.275 C 
BRANCH  18  19
ATOM     19  O   UNL A   1      40.019  21.840  27.060  1.00  0.00    -0.458 OA
BRANCH  19  20
ATOM     20  C   UNL A   1      39.247  22.836  26.572  1.00  0.00     0.338 C 
ATOM     21  O   UNL A   1      38.257  22.715  25.876  1.00  0.00    -0.246 OA
BRANCH  20  22
ATOM     22  C   UNL A   1      39.708  24.156  26.988  1.00  0.00     0.060 A 
ATOM     23  C   UNL A   1      39.493  24.564  28.305  1.00  0.00     0.016 A 
ATOM     24  C   UNL A   1      40.173  25.044  26.019  1.00  0.00     0.016 A 
ATOM     25  C   UNL A   1      39.754  25.881  28.665  1.00  0.00     0.010 A 
ATOM     26  C   UNL A   1      40.464  26.355  26.387  1.00  0.00     0.010 A 
ATOM     27  C   UNL A   1      40.258  26.777  27.712  1.00  0.00    -0.014 A 
BRANCH  27  28
ATOM     28  C   UNL A   1      40.727  28.113  28.129  1.00  0.00     0.031 A 
ATOM     29  C   UNL A   1      42.186  28.443  28.199  1.00  0.00     0.074 A 
ATOM     30  C   UNL A   1      39.792  28.992  28.530  1.00  0.00     0.049 A 
ATOM     31  N   UNL A   1      42.755  29.530  28.648  1.00  0.00    -0.248 NA
ATOM     32  C   UNL A   1      43.127  27.426  27.706  1.00  0.00     0.031 C 
ATOM     33  C   UNL A   1      38.349  28.736  28.524  1.00  0.00     0.029 A 
ATOM     34  N   UNL A   1      39.907  30.250  29.057  1.00  0.00    -0.354 N 
ATOM     35  C   UNL A   1      44.121  29.326  28.518  1.00  0.00     0.074 A 
ATOM     36  C   UNL A   1      44.298  28.007  27.945  1.00  0.00     0.031 C 
ATOM     37  C   UNL A   1      37.715  29.788  29.060  1.00  0.00     0.029 A 
ATOM     38  C   UNL A   1      38.707  30.771  29.478  1.00  0.00     0.049 A 
ATOM     39  H   UNL A   1      40.763  30.732  29.130  1.00  0.00     0.167 HD
ATOM     40  C   UNL A   1      45.127  30.174  28.837  1.00  0.00     0.034 A 
ATOM     41  C   UNL A   1      38.436  31.898  30.160  1.00  0.00     0.034 A 
ATOM     42  C   UNL A   1      44.923  31.493  29.379  1.00  0.00     0.049 A 
ATOM     43  C   UNL A   1      39.572  32.809  30.518  1.00  0.00     0.074 A 
ATOM     44  C   UNL A   1      45.865  32.472  29.644  1.00  0.00     0.029 A 
ATOM     45  N   UNL A   1      43.693  32.011  29.754  1.00  0.00    -0.354 N 
ATOM     46  N   UNL A   1      40.848  32.667  30.255  1.00  0.00    -0.248 NA
ATOM     47  C   UNL A   1      39.235  34.037  31.246  1.00  0.00     0.031 C 
ATOM     48  C   UNL A   1      45.204  33.576  30.193  1.00  0.00     0.029 A 
ATOM     49  C   UNL A   1      43.851  33.285  30.272  1.00  0.00     0.049 A 
ATOM     50  H   UNL A   1      42.832  31.542  29.664  1.00  0.00     0.167 HD
ATOM     51  C   UNL A   1      41.471  33.788  30.782  1.00  0.00     0.074 A 
ATOM     52  C   UNL A   1      40.425  34.617  31.352  1.00  0.00     0.031 C 
ATOM     53  C   UNL A   1      42.791  34.096  30.813  1.00  0.00     0.034 A 
BRANCH  40  54
ATOM     54  C   UNL A   1      46.538  29.732  28.562  1.00  0.00     0.023 A 
ATOM     55  C   UNL A   1      47.153  30.114  27.354  1.00  0.00     0.012 A 
ATOM     56  C   UNL A   1      47.280  29.015  29.521  1.00  0.00     0.148 A 
ATOM     57  C   UNL A   1      48.484  29.781  27.099  1.00  0.00     0.002 A 
ATOM     58  C   UNL A   1      48.613  28.707  29.270  1.00  0.00     0.091 A 
ATOM     59  F   UNL A   1      46.667  28.636  30.652  1.00  0.00    -0.205 F 
ATOM     60  C   UNL A   1      49.215  29.087  28.060  1.00  0.00     0.022 A 
BRANCH  58  61
ATOM     61  S   UNL A   1      49.647  27.858  30.470  1.00  0.00     0.127 S 
ATOM     62  O   UNL A   1      49.571  28.762  31.616  1.00  0.00    -0.237 OA
ATOM     63  O   UNL A   1      48.942  26.587  30.648  1.00  0.00    -0.237 OA
ATOM     64  O   UNL A   1      50.958  27.738  29.848  1.00  0.00    -0.744 OA
ENDBRANCH  58  61
ENDBRANCH  40  54
BRANCH  41  65
ATOM     65  C   UNL A   1      37.024  32.212  30.504  1.00  0.00     0.023 A 
ATOM     66  C   UNL A   1      36.570  31.999  31.817  1.00  0.00     0.012 A 
ATOM     67  C   UNL A   1      36.167  32.828  29.570  1.00  0.00     0.148 A 
ATOM     68  C   UNL A   1      35.286  32.394  32.195  1.00  0.00     0.002 A 
ATOM     69  C   UNL A   1      34.910  33.270  29.968  1.00  0.00     0.091 A 
ATOM     70  F   UNL A   1      36.607  33.005  28.315  1.00  0.00    -0.205 F 
ATOM     71  C   UNL A   1      34.463  33.044  31.278  1.00  0.00     0.022 A 
BRANCH  69  72
ATOM     72  S   UNL A   1      33.884  34.255  28.870  1.00  0.00     0.127 S 
ATOM     73  O   UNL A   1      34.819  35.283  28.422  1.00  0.00    -0.237 OA
ATOM     74  O   UNL A   1      33.496  33.288  27.843  1.00  0.00    -0.237 OA
ATOM     75  O   UNL A   1      32.777  34.706  29.704  1.00  0.00    -0.744 OA
ENDBRANCH  69  72
ENDBRANCH  41  65
BRANCH  53  76
ATOM     76  C   UNL A   1      43.174  35.368  31.515  1.00  0.00     0.023 A 
ATOM     77  C   UNL A   1      43.277  35.364  32.920  1.00  0.00     0.012 A 
ATOM     78  C   UNL A   1      43.482  36.537  30.797  1.00  0.00     0.148 A 
ATOM     79  C   UNL A   1      43.664  36.515  33.603  1.00  0.00     0.002 A 
ATOM     80  C   UNL A   1      43.899  37.673  31.482  1.00  0.00     0.091 A 
ATOM     81  F   UNL A   1      43.351  36.525  29.462  1.00  0.00    -0.205 F 
ATOM     82  C   UNL A   1      43.985  37.665  32.885  1.00  0.00     0.022 A 
BRANCH  80  83
ATOM     83  S   UNL A   1      44.399  39.170  30.626  1.00  0.00     0.127 S 
ATOM     84  O   UNL A   1      45.035  39.931  31.700  1.00  0.00    -0.237 OA
ATOM     85  O   UNL A   1      45.321  38.661  29.609  1.00  0.00    -0.237 OA
ATOM     86  O   UNL A   1      43.172  39.742  30.087  1.00  0.00    -0.744 OA
ENDBRANCH  80  83
ENDBRANCH  53  76
ENDBRANCH  27  28
ENDBRANCH  20  22
ENDBRANCH  19  20
ENDBRANCH  18  19
ENDBRANCH   1  18
TORSDOF 18
ENDMDL
MODEL 3
REMARK VINA RESULT:     -10.1      5.336     10.105
REMARK SMILES C=CCN(CC(=O)OCCOC(=O)c1ccc(-c2c3nc(c(-c4cccc(S(=O)(=O)[O-])c4F)c4ccc([nH]4)c(-c4cccc(S(=O)(=O)[O-])c4F)c4nc(c(-c5cccc(S(=O)(=O)[O-])c5F)c5ccc2[nH]5)C=C4)C=C3)cc1)c1nccn(C)c1=O
REMARK SMILES IDX 9 1 8 2 6 3 7 4 5 5 4 6 3 7 2 8 1 9 77 10 78 11 83 12 79 13
REMARK SMILES IDX 81 14 84 15 80 16 82 17 10 18 11 19 12 20 13 21 14 22 15 23
REMARK SMILES IDX 76 24 16 25 75 26 17 27 18 28 19 29 69 30 20 31 74 32 68 33
REMARK SMILES IDX 70 34 21 35 73 36 67 37 66 38 22 40 54 41 34 42 53 43 35 44
REMARK SMILES IDX 38 45 52 46 71 47 36 48 37 49 51 51 72 52 39 53 23 54 24 55
REMARK SMILES IDX 32 56 25 57 27 58 33 59 26 60 28 61 29 62 30 63 31 64 55 65
REMARK SMILES IDX 56 66 64 67 57 68 59 69 65 70 58 71 60 72 61 73 62 74 63 75
REMARK SMILES IDX 40 76 41 77 49 78 42 79 44 80 50 81 43 82 45 83 46 84 47 85
REMARK SMILES IDX 48 86
REMARK H PARENT 70 39 38 50
REMARK Flexibility Score: inf
ROOT
ATOM      1  C   UNL A   1      31.848  29.029  27.253  1.00  0.00     0.274 C 
ENDROOT
BRANCH   1   2
ATOM      2  O   UNL A   1      31.805  28.128  26.127  1.00  0.00    -0.461 OA
BRANCH   2   3
ATOM      3  C   UNL A   1      32.820  27.233  26.027  1.00  0.00     0.325 C 
ATOM      4  O   UNL A   1      33.997  27.500  26.259  1.00  0.00    -0.250 OA
BRANCH   3   5
ATOM      5  C   UNL A   1      32.398  25.832  25.601  1.00  0.00     0.241 C 
BRANCH   5   6
ATOM      6  N   UNL A   1      32.010  25.682  24.192  1.00  0.00    -0.337 N 
BRANCH   6   7
ATOM      7  C   UNL A   1      32.457  24.484  23.508  1.00  0.00     0.146 C 
BRANCH   7   8
ATOM      8  C   UNL A   1      33.959  24.506  23.403  1.00  0.00    -0.014 C 
ATOM      9  C   UNL A   1      34.741  23.421  23.317  1.00  0.00     0.006 C 
ENDBRANCH   7   8
ENDBRANCH   6   7
BRANCH   6  10
ATOM     10  C   UNL A   1      30.861  26.337  23.753  1.00  0.00     0.196 A 
ATOM     11  N   UNL A   1      29.687  25.939  24.181  1.00  0.00    -0.233 NA
ATOM     12  C   UNL A   1      31.007  27.563  22.798  1.00  0.00     0.293 A 
ATOM     13  C   UNL A   1      28.598  26.683  23.821  1.00  0.00     0.131 A 
ATOM     14  N   UNL A   1      29.844  28.322  22.670  1.00  0.00    -0.314 N 
ATOM     15  O   UNL A   1      32.081  27.791  22.251  1.00  0.00    -0.265 OA
ATOM     16  C   UNL A   1      28.649  27.841  23.155  1.00  0.00     0.109 A 
ATOM     17  C   UNL A   1      29.913  29.673  22.154  1.00  0.00     0.153 C 
ENDBRANCH   6  10
ENDBRANCH   5   6
ENDBRANCH   3   5
ENDBRANCH   2   3
ENDBRANCH   1   2
BRANCH   1  18
ATOM     18  C   UNL A   1      32.022  30.483  26.808  1.00  0.00     0.275 C 
BRANCH  18  19
ATOM     19  O   UNL A   1      33.404  30.802  26.567  1.00  0.00    -0.458 OA
BRANCH  19  20
ATOM     20  C   UNL A   1      33.909  31.707  27.434  1.00  0.00     0.338 C 
ATOM     21  O   UNL A   1      33.402  32.761  27.765  1.00  0.00    -0.246 OA
BRANCH  20  22
ATOM     22  C   UNL A   1      35.188  31.286  27.998  1.00  0.00     0.060 A 
ATOM     23  C   UNL A   1      35.271  30.049  28.637  1.00  0.00     0.016 A 
ATOM     24  C   UNL A   1      36.234  32.206  28.055  1.00  0.00     0.016 A 
ATOM     25  C   UNL A   1      36.423  29.718  29.341  1.00  0.00     0.010 A 
ATOM     26  C   UNL A   1      37.401  31.861  28.734  1.00  0.00     0.010 A 
ATOM     27  C   UNL A   1      37.500  30.616  29.376  1.00  0.00    -0.014 A 
BRANCH  27  28
ATOM     28  C   UNL A   1      38.796  30.194  29.945  1.00  0.00     0.031 A 
ATOM     29  C   UNL A   1      39.636  29.147  29.283  1.00  0.00     0.074 A 
ATOM     30  C   UNL A   1      39.145  30.724  31.130  1.00  0.00     0.049 A 
ATOM     31  N   UNL A   1      40.739  28.594  29.715  1.00  0.00    -0.248 NA
ATOM     32  C   UNL A   1      39.184  28.654  27.973  1.00  0.00     0.031 C 
ATOM     33  C   UNL A   1      38.363  31.727  31.858  1.00  0.00     0.029 A 
ATOM     34  N   UNL A   1      40.212  30.470  31.950  1.00  0.00    -0.354 N 
ATOM     35  C   UNL A   1      41.105  27.669  28.746  1.00  0.00     0.074 A 
ATOM     36  C   UNL A   1      40.105  27.736  27.700  1.00  0.00     0.031 C 
ATOM     37  C   UNL A   1      38.956  31.976  33.034  1.00  0.00     0.029 A 
ATOM     38  C   UNL A   1      40.134  31.125  33.155  1.00  0.00     0.049 A 
ATOM     39  H   UNL A   1      40.958  29.877  31.702  1.00  0.00     0.167 HD
ATOM     40  C   UNL A   1      42.187  26.856  28.735  1.00  0.00     0.034 A 
ATOM     41  C   UNL A   1      40.903  31.024  34.254  1.00  0.00     0.034 A 
ATOM     42  C   UNL A   1      43.183  26.831  29.774  1.00  0.00     0.049 A 
ATOM     43  C   UNL A   1      42.082  30.100  34.221  1.00  0.00     0.074 A 
ATOM     44  C   UNL A   1      44.370  26.119  29.815  1.00  0.00     0.029 A 
ATOM     45  N   UNL A   1      43.100  27.538  30.965  1.00  0.00    -0.354 N 
ATOM     46  N   UNL A   1      42.498  29.340  33.237  1.00  0.00    -0.248 NA
ATOM     47  C   UNL A   1      42.907  30.030  35.432  1.00  0.00     0.031 C 
ATOM     48  C   UNL A   1      44.997  26.385  31.038  1.00  0.00     0.029 A 
ATOM     49  C   UNL A   1      44.200  27.262  31.760  1.00  0.00     0.049 A 
ATOM     50  H   UNL A   1      42.367  28.148  31.209  1.00  0.00     0.167 HD
ATOM     51  C   UNL A   1      43.636  28.701  33.706  1.00  0.00     0.074 A 
ATOM     52  C   UNL A   1      43.862  29.189  35.053  1.00  0.00     0.031 C 
ATOM     53  C   UNL A   1      44.412  27.777  33.088  1.00  0.00     0.034 A 
BRANCH  40  54
ATOM     54  C   UNL A   1      42.386  25.962  27.541  1.00  0.00     0.023 A 
ATOM     55  C   UNL A   1      43.057  26.468  26.411  1.00  0.00     0.012 A 
ATOM     56  C   UNL A   1      41.989  24.611  27.565  1.00  0.00     0.148 A 
ATOM     57  C   UNL A   1      43.321  25.646  25.316  1.00  0.00     0.002 A 
ATOM     58  C   UNL A   1      42.276  23.791  26.479  1.00  0.00     0.091 A 
ATOM     59  F   UNL A   1      41.327  24.157  28.638  1.00  0.00    -0.205 F 
ATOM     60  C   UNL A   1      42.940  24.307  25.354  1.00  0.00     0.022 A 
BRANCH  58  61
ATOM     61  S   UNL A   1      41.867  22.041  26.459  1.00  0.00     0.127 S 
ATOM     62  O   UNL A   1      40.412  22.081  26.323  1.00  0.00    -0.237 OA
ATOM     63  O   UNL A   1      42.577  21.566  25.270  1.00  0.00    -0.237 OA
ATOM     64  O   UNL A   1      42.368  21.503  27.716  1.00  0.00    -0.744 OA
ENDBRANCH  58  61
ENDBRANCH  40  54
BRANCH  41  65
ATOM     65  C   UNL A   1      40.573  31.852  35.444  1.00  0.00     0.023 A 
ATOM     66  C   UNL A   1      41.333  33.002  35.717  1.00  0.00     0.012 A 
ATOM     67  C   UNL A   1      39.440  31.571  36.235  1.00  0.00     0.148 A 
ATOM     68  C   UNL A   1      40.973  33.860  36.758  1.00  0.00     0.002 A 
ATOM     69  C   UNL A   1      39.054  32.460  37.233  1.00  0.00     0.091 A 
ATOM     70  F   UNL A   1      38.737  30.459  35.975  1.00  0.00    -0.205 F 
ATOM     71  C   UNL A   1      39.825  33.599  37.504  1.00  0.00     0.022 A 
BRANCH  69  72
ATOM     72  S   UNL A   1      37.498  32.251  38.106  1.00  0.00     0.127 S 
ATOM     73  O   UNL A   1      37.352  30.799  38.125  1.00  0.00    -0.237 OA
ATOM     74  O   UNL A   1      37.779  32.856  39.409  1.00  0.00    -0.237 OA
ATOM     75  O   UNL A   1      36.525  32.990  37.311  1.00  0.00    -0.744 OA
ENDBRANCH  69  72
ENDBRANCH  41  65
BRANCH  53  76
ATOM     76  C   UNL A   1      45.557  27.213  33.880  1.00  0.00     0.023 A 
ATOM     77  C   UNL A   1      46.781  27.910  33.897  1.00  0.00     0.012 A 
ATOM     78  C   UNL A   1      45.413  26.039  34.642  1.00  0.00     0.148 A 
ATOM     79  C   UNL A   1      47.854  27.435  34.648  1.00  0.00     0.002 A 
ATOM     80  C   UNL A   1      46.477  25.589  35.415  1.00  0.00     0.091 A 
ATOM     81  F   UNL A   1      44.248  25.377  34.589  1.00  0.00    -0.205 F 
ATOM     82  C   UNL A   1      47.700  26.282  35.414  1.00  0.00     0.022 A 
BRANCH  80  83
ATOM     83  S   UNL A   1      46.335  24.153  36.483  1.00  0.00     0.127 S 
ATOM     84  O   UNL A   1      46.374  23.056  35.518  1.00  0.00    -0.237 OA
ATOM     85  O   UNL A   1      47.526  24.266  37.327  1.00  0.00    -0.237 OA
ATOM     86  O   UNL A   1      45.077  24.320  37.200  1.00  0.00    -0.744 OA
ENDBRANCH  80  83
ENDBRANCH  53  76
ENDBRANCH  27  28
ENDBRANCH  20  22
ENDBRANCH  19  20
ENDBRANCH  18  19
ENDBRANCH   1  18
TORSDOF 18
ENDMDL
