MODEL 1
REMARK VINA RESULT:     -12.3      0.000      0.000
REMARK SMILES O=C(COc1ccccc1[C@@H]1[NH2+]CCc2cc(O)c(O)cc21)OCCOC(=O)c1ccc(-c2c3nc(c(-c4cccc(S(=O)(=O)[O-])c4F)c4ccc([nH]4)c(-c4cccc(S(=O)(=O)[O-])c4F)c4nc(c(-c5cccc(S(=O)(=O)[O-])c5F)c5ccc2[nH]5)C=C4)C=C3)cc1
REMARK SMILES IDX 24 1 23 2 2 3 1 4 3 5 4 6 5 7 6 8 10 9 7 10 9 11 8 12 11 13
REMARK SMILES IDX 12 14 22 15 13 16 15 19 21 20 14 21 16 22 19 23 17 24 20 25
REMARK SMILES IDX 18 27 25 29 26 30 27 31 28 32 29 33 30 34 91 35 31 36 90 37
REMARK SMILES IDX 32 38 33 39 34 40 84 41 35 42 89 43 83 44 85 45 36 46 88 47
REMARK SMILES IDX 82 48 81 49 37 51 69 52 49 53 68 54 50 55 53 56 67 57 86 58
REMARK SMILES IDX 51 59 52 60 66 62 87 63 54 64 38 65 39 66 47 67 40 68 42 69
REMARK SMILES IDX 48 70 41 71 43 72 44 73 45 74 46 75 70 76 71 77 79 78 72 79
REMARK SMILES IDX 74 80 80 81 73 82 75 83 76 84 77 85 78 86 55 87 56 88 64 89
REMARK SMILES IDX 57 90 59 91 65 92 58 93 60 94 61 95 62 96 63 97
REMARK H PARENT 12 17 12 18 20 26 18 28 85 50 53 61
REMARK Flexibility Score: inf
ROOT
ATOM      1  C   UNL A   1      31.710  30.521  26.249  1.00  0.00     0.274 C 
ENDROOT
BRANCH   1   2
ATOM      2  O   UNL A   1      31.775  29.607  27.359  1.00  0.00    -0.460 OA
BRANCH   2   3
ATOM      3  C   UNL A   1      31.948  28.286  27.073  1.00  0.00     0.344 C 
ATOM      4  O   UNL A   1      31.180  27.459  27.554  1.00  0.00    -0.248 OA
BRANCH   3   5
ATOM      5  C   UNL A   1      33.097  27.974  26.108  1.00  0.00     0.351 C 
BRANCH   5   6
ATOM      6  O   UNL A   1      33.376  26.600  25.981  1.00  0.00    -0.481 OA
BRANCH   6   7
ATOM      7  C   UNL A   1      33.420  25.948  24.779  1.00  0.00     0.129 A 
ATOM      8  C   UNL A   1      33.600  26.891  23.748  1.00  0.00     0.047 A 
ATOM      9  C   UNL A   1      33.164  24.594  24.452  1.00  0.00     0.056 A 
ATOM     10  C   UNL A   1      33.433  26.557  22.411  1.00  0.00     0.004 A 
ATOM     11  C   UNL A   1      32.898  24.311  23.090  1.00  0.00     0.014 A 
ATOM     12  C   UNL A   1      33.030  25.274  22.086  1.00  0.00     0.001 A 
BRANCH   9  13
ATOM     13  C   UNL A   1      33.148  23.437  25.455  1.00  0.00     0.249 C 
ATOM     14  N   UNL A   1      34.075  23.672  26.576  1.00  0.00    -0.336 N 
ATOM     15  C   UNL A   1      33.460  22.001  25.004  1.00  0.00     0.021 A 
ATOM     16  C   UNL A   1      35.497  23.602  26.206  1.00  0.00     0.266 C 
ATOM     17  H   UNL A   1      33.896  22.968  27.292  1.00  0.00     0.347 HD
ATOM     18  H   UNL A   1      33.904  24.622  26.905  1.00  0.00     0.347 HD
ATOM     19  C   UNL A   1      34.826  21.647  24.845  1.00  0.00    -0.029 A 
ATOM     20  C   UNL A   1      32.486  20.993  25.041  1.00  0.00     0.060 A 
ATOM     21  C   UNL A   1      35.842  22.751  24.978  1.00  0.00     0.097 C 
ATOM     22  C   UNL A   1      35.211  20.310  24.730  1.00  0.00     0.054 A 
ATOM     23  C   UNL A   1      32.891  19.663  24.978  1.00  0.00     0.157 A 
ATOM     24  C   UNL A   1      34.238  19.330  24.831  1.00  0.00     0.157 A 
BRANCH  23  25
ATOM     25  O   UNL A   1      32.000  18.633  25.132  1.00  0.00    -0.504 OA
ATOM     26  H   UNL A   1      31.095  18.764  24.934  1.00  0.00     0.293 HD
ENDBRANCH  23  25
BRANCH  24  27
ATOM     27  O   UNL A   1      34.624  18.020  24.863  1.00  0.00    -0.504 OA
ATOM     28  H   UNL A   1      35.288  17.712  24.278  1.00  0.00     0.293 HD
ENDBRANCH  24  27
ENDBRANCH   9  13
ENDBRANCH   6   7
ENDBRANCH   5   6
ENDBRANCH   3   5
ENDBRANCH   2   3
ENDBRANCH   1   2
BRANCH   1  29
ATOM     29  C   UNL A   1      31.547  31.974  26.722  1.00  0.00     0.275 C 
BRANCH  29  30
ATOM     30  O   UNL A   1      32.802  32.679  26.585  1.00  0.00    -0.458 OA
BRANCH  30  31
ATOM     31  C   UNL A   1      33.261  33.322  27.695  1.00  0.00     0.338 C 
ATOM     32  O   UNL A   1      32.686  34.188  28.319  1.00  0.00    -0.246 OA
BRANCH  31  33
ATOM     33  C   UNL A   1      34.531  32.687  28.139  1.00  0.00     0.060 A 
ATOM     34  C   UNL A   1      34.486  31.360  28.583  1.00  0.00     0.016 A 
ATOM     35  C   UNL A   1      35.747  33.378  28.141  1.00  0.00     0.016 A 
ATOM     36  C   UNL A   1      35.647  30.731  29.048  1.00  0.00     0.010 A 
ATOM     37  C   UNL A   1      36.908  32.750  28.623  1.00  0.00     0.010 A 
ATOM     38  C   UNL A   1      36.864  31.428  29.098  1.00  0.00    -0.014 A 
BRANCH  38  39
ATOM     39  C   UNL A   1      38.037  30.811  29.780  1.00  0.00     0.031 A 
ATOM     40  C   UNL A   1      38.331  31.186  31.208  1.00  0.00     0.074 A 
ATOM     41  C   UNL A   1      38.825  29.908  29.167  1.00  0.00     0.049 A 
ATOM     42  N   UNL A   1      39.265  30.737  32.007  1.00  0.00    -0.248 NA
ATOM     43  C   UNL A   1      37.454  32.200  31.814  1.00  0.00     0.031 C 
ATOM     44  C   UNL A   1      38.677  29.451  27.788  1.00  0.00     0.029 A 
ATOM     45  N   UNL A   1      39.921  29.217  29.632  1.00  0.00    -0.354 N 
ATOM     46  C   UNL A   1      39.089  31.408  33.210  1.00  0.00     0.074 A 
ATOM     47  C   UNL A   1      37.969  32.308  33.030  1.00  0.00     0.031 C 
ATOM     48  C   UNL A   1      39.648  28.561  27.515  1.00  0.00     0.029 A 
ATOM     49  C   UNL A   1      40.506  28.402  28.689  1.00  0.00     0.049 A 
ATOM     50  H   UNL A   1      40.256  29.299  30.553  1.00  0.00     0.167 HD
ATOM     51  C   UNL A   1      39.781  31.284  34.368  1.00  0.00     0.034 A 
ATOM     52  C   UNL A   1      41.613  27.633  28.758  1.00  0.00     0.034 A 
ATOM     53  C   UNL A   1      40.910  30.414  34.565  1.00  0.00     0.049 A 
ATOM     54  C   UNL A   1      42.396  27.551  30.049  1.00  0.00     0.074 A 
ATOM     55  C   UNL A   1      41.669  30.240  35.710  1.00  0.00     0.029 A 
ATOM     56  N   UNL A   1      41.455  29.587  33.597  1.00  0.00    -0.354 N 
ATOM     57  N   UNL A   1      42.139  28.097  31.212  1.00  0.00    -0.248 NA
ATOM     58  C   UNL A   1      43.611  26.716  30.039  1.00  0.00     0.031 C 
ATOM     59  C   UNL A   1      42.687  29.322  35.428  1.00  0.00     0.029 A 
ATOM     60  C   UNL A   1      42.545  28.907  34.115  1.00  0.00     0.049 A 
ATOM     61  H   UNL A   1      41.117  29.496  32.678  1.00  0.00     0.167 HD
ATOM     62  C   UNL A   1      43.139  27.651  32.074  1.00  0.00     0.074 A 
ATOM     63  C   UNL A   1      43.985  26.759  31.310  1.00  0.00     0.031 C 
ATOM     64  C   UNL A   1      43.354  27.972  33.374  1.00  0.00     0.034 A 
BRANCH  51  65
ATOM     65  C   UNL A   1      39.310  32.099  35.540  1.00  0.00     0.023 A 
ATOM     66  C   UNL A   1      39.603  33.477  35.581  1.00  0.00     0.012 A 
ATOM     67  C   UNL A   1      38.538  31.521  36.564  1.00  0.00     0.148 A 
ATOM     68  C   UNL A   1      39.154  34.265  36.638  1.00  0.00     0.002 A 
ATOM     69  C   UNL A   1      38.061  32.320  37.596  1.00  0.00     0.091 A 
ATOM     70  F   UNL A   1      38.291  30.205  36.513  1.00  0.00    -0.205 F 
ATOM     71  C   UNL A   1      38.375  33.689  37.640  1.00  0.00     0.022 A 
BRANCH  69  72
ATOM     72  S   UNL A   1      36.998  31.689  38.899  1.00  0.00     0.127 S 
ATOM     73  O   UNL A   1      36.777  30.313  38.458  1.00  0.00    -0.237 OA
ATOM     74  O   UNL A   1      37.848  31.823  40.081  1.00  0.00    -0.237 OA
ATOM     75  O   UNL A   1      35.815  32.540  38.900  1.00  0.00    -0.744 OA
ENDBRANCH  69  72
ENDBRANCH  51  65
BRANCH  52  76
ATOM     76  C   UNL A   1      42.069  26.852  27.569  1.00  0.00     0.023 A 
ATOM     77  C   UNL A   1      42.685  27.517  26.490  1.00  0.00     0.012 A 
ATOM     78  C   UNL A   1      41.849  25.464  27.482  1.00  0.00     0.148 A 
ATOM     79  C   UNL A   1      43.029  26.823  25.329  1.00  0.00     0.002 A 
ATOM     80  C   UNL A   1      42.249  24.769  26.347  1.00  0.00     0.091 A 
ATOM     81  F   UNL A   1      41.235  24.851  28.504  1.00  0.00    -0.205 F 
ATOM     82  C   UNL A   1      42.820  25.449  25.260  1.00  0.00     0.022 A 
BRANCH  80  83
ATOM     83  S   UNL A   1      42.128  22.981  26.231  1.00  0.00     0.127 S 
ATOM     84  O   UNL A   1      42.908  22.551  27.388  1.00  0.00    -0.237 OA
ATOM     85  O   UNL A   1      40.684  22.765  26.345  1.00  0.00    -0.237 OA
ATOM     86  O   UNL A   1      42.679  22.639  24.926  1.00  0.00    -0.744 OA
ENDBRANCH  80  83
ENDBRANCH  52  76
BRANCH  64  87
ATOM     87  C   UNL A   1      44.534  27.342  34.076  1.00  0.00     0.023 A 
ATOM     88  C   UNL A   1      45.807  27.941  33.979  1.00  0.00     0.012 A 
ATOM     89  C   UNL A   1      44.375  26.194  34.878  1.00  0.00     0.148 A 
ATOM     90  C   UNL A   1      46.908  27.386  34.633  1.00  0.00     0.002 A 
ATOM     91  C   UNL A   1      45.467  25.673  35.566  1.00  0.00     0.091 A 
ATOM     92  F   UNL A   1      43.164  25.623  34.948  1.00  0.00    -0.205 F 
ATOM     93  C   UNL A   1      46.736  26.260  35.434  1.00  0.00     0.022 A 
BRANCH  91  94
ATOM     94  S   UNL A   1      45.319  24.281  36.693  1.00  0.00     0.127 S 
ATOM     95  O   UNL A   1      44.900  23.209  35.793  1.00  0.00    -0.237 OA
ATOM     96  O   UNL A   1      46.683  24.146  37.208  1.00  0.00    -0.237 OA
ATOM     97  O   UNL A   1      44.339  24.684  37.693  1.00  0.00    -0.744 OA
ENDBRANCH  91  94
ENDBRANCH  64  87
ENDBRANCH  38  39
ENDBRANCH  31  33
ENDBRANCH  30  31
ENDBRANCH  29  30
ENDBRANCH   1  29
TORSDOF 19
ENDMDL
MODEL 2
REMARK VINA RESULT:     -12.2      1.758      2.143
REMARK SMILES O=C(COc1ccccc1[C@@H]1[NH2+]CCc2cc(O)c(O)cc21)OCCOC(=O)c1ccc(-c2c3nc(c(-c4cccc(S(=O)(=O)[O-])c4F)c4ccc([nH]4)c(-c4cccc(S(=O)(=O)[O-])c4F)c4nc(c(-c5cccc(S(=O)(=O)[O-])c5F)c5ccc2[nH]5)C=C4)C=C3)cc1
REMARK SMILES IDX 24 1 23 2 2 3 1 4 3 5 4 6 5 7 6 8 10 9 7 10 9 11 8 12 11 13
REMARK SMILES IDX 12 14 22 15 13 16 15 19 21 20 14 21 16 22 19 23 17 24 20 25
REMARK SMILES IDX 18 27 25 29 26 30 27 31 28 32 29 33 30 34 91 35 31 36 90 37
REMARK SMILES IDX 32 38 33 39 34 40 84 41 35 42 89 43 83 44 85 45 36 46 88 47
REMARK SMILES IDX 82 48 81 49 37 51 69 52 49 53 68 54 50 55 53 56 67 57 86 58
REMARK SMILES IDX 51 59 52 60 66 62 87 63 54 64 38 65 39 66 47 67 40 68 42 69
REMARK SMILES IDX 48 70 41 71 43 72 44 73 45 74 46 75 70 76 71 77 79 78 72 79
REMARK SMILES IDX 74 80 80 81 73 82 75 83 76 84 77 85 78 86 55 87 56 88 64 89
REMARK SMILES IDX 57 90 59 91 65 92 58 93 60 94 61 95 62 96 63 97
REMARK H PARENT 12 17 12 18 20 26 18 28 85 50 53 61
REMARK Flexibility Score: inf
ROOT
ATOM      1  C   UNL A   1      31.664  30.763  26.306  1.00  0.00     0.274 C 
ENDROOT
BRANCH   1   2
ATOM      2  O   UNL A   1      31.697  29.806  27.381  1.00  0.00    -0.460 OA
BRANCH   2   3
ATOM      3  C   UNL A   1      31.900  28.500  27.052  1.00  0.00     0.344 C 
ATOM      4  O   UNL A   1      31.163  27.639  27.519  1.00  0.00    -0.248 OA
BRANCH   3   5
ATOM      5  C   UNL A   1      33.041  28.249  26.059  1.00  0.00     0.351 C 
BRANCH   5   6
ATOM      6  O   UNL A   1      32.632  28.250  24.712  1.00  0.00    -0.481 OA
BRANCH   6   7
ATOM      7  C   UNL A   1      31.568  27.527  24.247  1.00  0.00     0.129 A 
ATOM      8  C   UNL A   1      30.601  28.409  23.725  1.00  0.00     0.047 A 
ATOM      9  C   UNL A   1      31.266  26.148  24.364  1.00  0.00     0.056 A 
ATOM     10  C   UNL A   1      29.316  27.987  23.413  1.00  0.00     0.004 A 
ATOM     11  C   UNL A   1      29.920  25.773  24.136  1.00  0.00     0.014 A 
ATOM     12  C   UNL A   1      28.960  26.675  23.669  1.00  0.00     0.001 A 
BRANCH   9  13
ATOM     13  C   UNL A   1      32.278  25.055  24.721  1.00  0.00     0.249 C 
ATOM     14  N   UNL A   1      33.624  25.368  24.209  1.00  0.00    -0.336 N 
ATOM     15  C   UNL A   1      32.044  23.597  24.295  1.00  0.00     0.021 A 
ATOM     16  C   UNL A   1      33.746  25.289  22.745  1.00  0.00     0.266 C 
ATOM     17  H   UNL A   1      34.285  24.708  24.620  1.00  0.00     0.347 HD
ATOM     18  H   UNL A   1      33.819  26.335  24.467  1.00  0.00     0.347 HD
ATOM     19  C   UNL A   1      32.363  23.246  22.956  1.00  0.00    -0.029 A 
ATOM     20  C   UNL A   1      31.823  22.584  25.240  1.00  0.00     0.060 A 
ATOM     21  C   UNL A   1      32.753  24.366  22.027  1.00  0.00     0.097 C 
ATOM     22  C   UNL A   1      32.464  21.909  22.571  1.00  0.00     0.054 A 
ATOM     23  C   UNL A   1      31.978  21.257  24.852  1.00  0.00     0.157 A 
ATOM     24  C   UNL A   1      32.301  20.928  23.534  1.00  0.00     0.157 A 
BRANCH  23  25
ATOM     25  O   UNL A   1      31.896  20.230  25.756  1.00  0.00    -0.504 OA
ATOM     26  H   UNL A   1      31.357  20.318  26.516  1.00  0.00     0.293 HD
ENDBRANCH  23  25
BRANCH  24  27
ATOM     27  O   UNL A   1      32.539  19.626  23.196  1.00  0.00    -0.504 OA
ATOM     28  H   UNL A   1      32.950  19.421  22.379  1.00  0.00     0.293 HD
ENDBRANCH  24  27
ENDBRANCH   9  13
ENDBRANCH   6   7
ENDBRANCH   5   6
ENDBRANCH   3   5
ENDBRANCH   2   3
ENDBRANCH   1   2
BRANCH   1  29
ATOM     29  C   UNL A   1      31.515  32.199  26.831  1.00  0.00     0.275 C 
BRANCH  29  30
ATOM     30  O   UNL A   1      32.754  32.921  26.648  1.00  0.00    -0.458 OA
BRANCH  30  31
ATOM     31  C   UNL A   1      33.238  33.582  27.737  1.00  0.00     0.338 C 
ATOM     32  O   UNL A   1      32.685  34.472  28.347  1.00  0.00    -0.246 OA
BRANCH  31  33
ATOM     33  C   UNL A   1      34.502  32.935  28.180  1.00  0.00     0.060 A 
ATOM     34  C   UNL A   1      34.458  31.587  28.553  1.00  0.00     0.016 A 
ATOM     35  C   UNL A   1      35.710  33.635  28.251  1.00  0.00     0.016 A 
ATOM     36  C   UNL A   1      35.613  30.944  29.015  1.00  0.00     0.010 A 
ATOM     37  C   UNL A   1      36.864  32.993  28.729  1.00  0.00     0.010 A 
ATOM     38  C   UNL A   1      36.821  31.648  29.133  1.00  0.00    -0.014 A 
BRANCH  38  39
ATOM     39  C   UNL A   1      37.981  31.005  29.813  1.00  0.00     0.031 A 
ATOM     40  C   UNL A   1      38.307  31.398  31.230  1.00  0.00     0.074 A 
ATOM     41  C   UNL A   1      38.732  30.064  29.209  1.00  0.00     0.049 A 
ATOM     42  N   UNL A   1      39.236  30.934  32.026  1.00  0.00    -0.248 NA
ATOM     43  C   UNL A   1      37.472  32.453  31.826  1.00  0.00     0.031 C 
ATOM     44  C   UNL A   1      38.550  29.586  27.841  1.00  0.00     0.029 A 
ATOM     45  N   UNL A   1      39.811  29.347  29.674  1.00  0.00    -0.354 N 
ATOM     46  C   UNL A   1      39.098  31.634  33.218  1.00  0.00     0.074 A 
ATOM     47  C   UNL A   1      38.006  32.568  33.033  1.00  0.00     0.031 C 
ATOM     48  C   UNL A   1      39.488  28.658  27.574  1.00  0.00     0.029 A 
ATOM     49  C   UNL A   1      40.355  28.494  28.741  1.00  0.00     0.049 A 
ATOM     50  H   UNL A   1      40.160  29.436  30.589  1.00  0.00     0.167 HD
ATOM     51  C   UNL A   1      39.801  31.510  34.369  1.00  0.00     0.034 A 
ATOM     52  C   UNL A   1      41.437  27.690  28.811  1.00  0.00     0.034 A 
ATOM     53  C   UNL A   1      40.903  30.607  34.569  1.00  0.00     0.049 A 
ATOM     54  C   UNL A   1      42.234  27.607  30.093  1.00  0.00     0.074 A 
ATOM     55  C   UNL A   1      41.671  30.431  35.707  1.00  0.00     0.029 A 
ATOM     56  N   UNL A   1      41.408  29.744  33.612  1.00  0.00    -0.354 N 
ATOM     57  N   UNL A   1      42.011  28.185  31.248  1.00  0.00    -0.248 NA
ATOM     58  C   UNL A   1      43.421  26.733  30.085  1.00  0.00     0.031 C 
ATOM     59  C   UNL A   1      42.655  29.474  35.431  1.00  0.00     0.029 A 
ATOM     60  C   UNL A   1      42.482  29.038  34.129  1.00  0.00     0.049 A 
ATOM     61  H   UNL A   1      41.055  29.645  32.698  1.00  0.00     0.167 HD
ATOM     62  C   UNL A   1      43.007  27.723  32.107  1.00  0.00     0.074 A 
ATOM     63  C   UNL A   1      43.813  26.789  31.351  1.00  0.00     0.031 C 
ATOM     64  C   UNL A   1      43.249  28.062  33.397  1.00  0.00     0.034 A 
BRANCH  51  65
ATOM     65  C   UNL A   1      39.372  32.364  35.530  1.00  0.00     0.023 A 
ATOM     66  C   UNL A   1      38.537  31.808  36.520  1.00  0.00     0.012 A 
ATOM     67  C   UNL A   1      39.833  33.685  35.670  1.00  0.00     0.148 A 
ATOM     68  C   UNL A   1      38.149  32.564  37.624  1.00  0.00     0.002 A 
ATOM     69  C   UNL A   1      39.472  34.421  36.791  1.00  0.00     0.091 A 
ATOM     70  F   UNL A   1      40.608  34.198  34.703  1.00  0.00    -0.205 F 
ATOM     71  C   UNL A   1      38.623  33.866  37.764  1.00  0.00     0.022 A 
BRANCH  69  72
ATOM     72  S   UNL A   1      40.080  36.083  37.098  1.00  0.00     0.127 S 
ATOM     73  O   UNL A   1      39.238  36.502  38.218  1.00  0.00    -0.237 OA
ATOM     74  O   UNL A   1      41.480  35.839  37.445  1.00  0.00    -0.237 OA
ATOM     75  O   UNL A   1      39.879  36.820  35.858  1.00  0.00    -0.744 OA
ENDBRANCH  69  72
ENDBRANCH  51  65
BRANCH  52  76
ATOM     76  C   UNL A   1      41.852  26.871  27.633  1.00  0.00     0.023 A 
ATOM     77  C   UNL A   1      42.453  27.497  26.523  1.00  0.00     0.012 A 
ATOM     78  C   UNL A   1      41.606  25.486  27.587  1.00  0.00     0.148 A 
ATOM     79  C   UNL A   1      42.758  26.768  25.373  1.00  0.00     0.002 A 
ATOM     80  C   UNL A   1      41.967  24.755  26.461  1.00  0.00     0.091 A 
ATOM     81  F   UNL A   1      41.006  24.909  28.638  1.00  0.00    -0.205 F 
ATOM     82  C   UNL A   1      42.523  25.396  25.344  1.00  0.00     0.022 A 
BRANCH  80  83
ATOM     83  S   UNL A   1      41.813  22.966  26.394  1.00  0.00     0.127 S 
ATOM     84  O   UNL A   1      42.527  22.558  27.601  1.00  0.00    -0.237 OA
ATOM     85  O   UNL A   1      40.361  22.784  26.446  1.00  0.00    -0.237 OA
ATOM     86  O   UNL A   1      42.418  22.572  25.129  1.00  0.00    -0.744 OA
ENDBRANCH  80  83
ENDBRANCH  52  76
BRANCH  64  87
ATOM     87  C   UNL A   1      44.417  27.407  34.097  1.00  0.00     0.023 A 
ATOM     88  C   UNL A   1      45.694  28.001  34.031  1.00  0.00     0.012 A 
ATOM     89  C   UNL A   1      44.242  26.239  34.867  1.00  0.00     0.148 A 
ATOM     90  C   UNL A   1      46.783  27.423  34.685  1.00  0.00     0.002 A 
ATOM     91  C   UNL A   1      45.322  25.694  35.554  1.00  0.00     0.091 A 
ATOM     92  F   UNL A   1      43.027  25.674  34.906  1.00  0.00    -0.205 F 
ATOM     93  C   UNL A   1      46.596  26.278  35.453  1.00  0.00     0.022 A 
BRANCH  91  94
ATOM     94  S   UNL A   1      45.152  24.275  36.642  1.00  0.00     0.127 S 
ATOM     95  O   UNL A   1      46.529  24.069  37.085  1.00  0.00    -0.237 OA
ATOM     96  O   UNL A   1      44.248  24.778  37.678  1.00  0.00    -0.237 OA
ATOM     97  O   UNL A   1      44.588  23.211  35.821  1.00  0.00    -0.744 OA
ENDBRANCH  91  94
ENDBRANCH  64  87
ENDBRANCH  38  39
ENDBRANCH  31  33
ENDBRANCH  30  31
ENDBRANCH  29  30
ENDBRANCH   1  29
TORSDOF 19
ENDMDL
MODEL 3
REMARK VINA RESULT:     -12.1      5.026     10.346
REMARK SMILES O=C(COc1ccccc1[C@@H]1[NH2+]CCc2cc(O)c(O)cc21)OCCOC(=O)c1ccc(-c2c3nc(c(-c4cccc(S(=O)(=O)[O-])c4F)c4ccc([nH]4)c(-c4cccc(S(=O)(=O)[O-])c4F)c4nc(c(-c5cccc(S(=O)(=O)[O-])c5F)c5ccc2[nH]5)C=C4)C=C3)cc1
REMARK SMILES IDX 24 1 23 2 2 3 1 4 3 5 4 6 5 7 6 8 10 9 7 10 9 11 8 12 11 13
REMARK SMILES IDX 12 14 22 15 13 16 15 19 21 20 14 21 16 22 19 23 17 24 20 25
REMARK SMILES IDX 18 27 25 29 26 30 27 31 28 32 29 33 30 34 91 35 31 36 90 37
REMARK SMILES IDX 32 38 33 39 34 40 84 41 35 42 89 43 83 44 85 45 36 46 88 47
REMARK SMILES IDX 82 48 81 49 37 51 69 52 49 53 68 54 50 55 53 56 67 57 86 58
REMARK SMILES IDX 51 59 52 60 66 62 87 63 54 64 38 65 39 66 47 67 40 68 42 69
REMARK SMILES IDX 48 70 41 71 43 72 44 73 45 74 46 75 70 76 71 77 79 78 72 79
REMARK SMILES IDX 74 80 80 81 73 82 75 83 76 84 77 85 78 86 55 87 56 88 64 89
REMARK SMILES IDX 57 90 59 91 65 92 58 93 60 94 61 95 62 96 63 97
REMARK H PARENT 12 17 12 18 20 26 18 28 85 50 53 61
REMARK Flexibility Score: inf
ROOT
ATOM      1  C   UNL A   1      35.345  20.963  24.758  1.00  0.00     0.274 C 
ENDROOT
BRANCH   1   2
ATOM      2  O   UNL A   1      34.460  19.851  24.979  1.00  0.00    -0.460 OA
BRANCH   2   3
ATOM      3  C   UNL A   1      33.204  20.129  25.430  1.00  0.00     0.344 C 
ATOM      4  O   UNL A   1      32.332  19.270  25.353  1.00  0.00    -0.248 OA
BRANCH   3   5
ATOM      5  C   UNL A   1      33.029  21.520  26.051  1.00  0.00     0.351 C 
BRANCH   5   6
ATOM      6  O   UNL A   1      32.100  22.332  25.372  1.00  0.00    -0.481 OA
BRANCH   6   7
ATOM      7  C   UNL A   1      32.460  23.312  24.490  1.00  0.00     0.129 A 
ATOM      8  C   UNL A   1      32.578  22.754  23.201  1.00  0.00     0.047 A 
ATOM      9  C   UNL A   1      32.856  24.654  24.709  1.00  0.00     0.056 A 
ATOM     10  C   UNL A   1      33.168  23.446  22.153  1.00  0.00     0.004 A 
ATOM     11  C   UNL A   1      33.546  25.292  23.650  1.00  0.00     0.014 A 
ATOM     12  C   UNL A   1      33.701  24.700  22.393  1.00  0.00     0.001 A 
BRANCH   9  13
ATOM     13  C   UNL A   1      32.600  25.445  25.995  1.00  0.00     0.249 C 
ATOM     14  N   UNL A   1      31.268  25.160  26.556  1.00  0.00    -0.336 N 
ATOM     15  C   UNL A   1      32.691  26.980  26.006  1.00  0.00     0.021 A 
ATOM     16  C   UNL A   1      30.151  25.694  25.761  1.00  0.00     0.266 C 
ATOM     17  H   UNL A   1      31.219  25.568  27.490  1.00  0.00     0.347 HD
ATOM     18  H   UNL A   1      31.163  24.145  26.563  1.00  0.00     0.347 HD
ATOM     19  C   UNL A   1      31.574  27.706  25.514  1.00  0.00    -0.029 A 
ATOM     20  C   UNL A   1      33.680  27.650  26.738  1.00  0.00     0.060 A 
ATOM     21  C   UNL A   1      30.463  26.910  24.879  1.00  0.00     0.097 C 
ATOM     22  C   UNL A   1      31.445  29.074  25.755  1.00  0.00     0.054 A 
ATOM     23  C   UNL A   1      33.512  29.004  27.014  1.00  0.00     0.157 A 
ATOM     24  C   UNL A   1      32.404  29.702  26.532  1.00  0.00     0.157 A 
BRANCH  23  25
ATOM     25  O   UNL A   1      34.381  29.684  27.828  1.00  0.00    -0.504 OA
ATOM     26  H   UNL A   1      34.187  30.562  28.090  1.00  0.00     0.293 HD
ENDBRANCH  23  25
BRANCH  24  27
ATOM     27  O   UNL A   1      32.211  31.006  26.891  1.00  0.00    -0.504 OA
ATOM     28  H   UNL A   1      32.160  31.671  26.233  1.00  0.00     0.293 HD
ENDBRANCH  24  27
ENDBRANCH   9  13
ENDBRANCH   6   7
ENDBRANCH   5   6
ENDBRANCH   3   5
ENDBRANCH   2   3
ENDBRANCH   1   2
BRANCH   1  29
ATOM     29  C   UNL A   1      36.813  20.575  24.997  1.00  0.00     0.275 C 
BRANCH  29  30
ATOM     30  O   UNL A   1      37.457  21.571  25.824  1.00  0.00    -0.458 OA
BRANCH  30  31
ATOM     31  C   UNL A   1      38.792  21.409  26.040  1.00  0.00     0.338 C 
ATOM     32  O   UNL A   1      39.471  20.467  25.692  1.00  0.00    -0.246 OA
BRANCH  31  33
ATOM     33  C   UNL A   1      39.346  22.652  26.640  1.00  0.00     0.060 A 
ATOM     34  C   UNL A   1      38.738  23.871  26.313  1.00  0.00     0.016 A 
ATOM     35  C   UNL A   1      40.452  22.638  27.495  1.00  0.00     0.016 A 
ATOM     36  C   UNL A   1      39.247  25.072  26.820  1.00  0.00     0.010 A 
ATOM     37  C   UNL A   1      40.971  23.845  27.989  1.00  0.00     0.010 A 
ATOM     38  C   UNL A   1      40.384  25.074  27.641  1.00  0.00    -0.014 A 
BRANCH  38  39
ATOM     39  C   UNL A   1      41.026  26.370  28.003  1.00  0.00     0.031 A 
ATOM     40  C   UNL A   1      42.448  26.625  27.578  1.00  0.00     0.074 A 
ATOM     41  C   UNL A   1      40.364  27.331  28.676  1.00  0.00     0.049 A 
ATOM     42  N   UNL A   1      43.182  27.694  27.741  1.00  0.00    -0.248 NA
ATOM     43  C   UNL A   1      43.128  25.526  26.874  1.00  0.00     0.031 C 
ATOM     44  C   UNL A   1      38.992  27.231  29.165  1.00  0.00     0.029 A 
ATOM     45  N   UNL A   1      40.771  28.585  29.073  1.00  0.00    -0.354 N 
ATOM     46  C   UNL A   1      44.410  27.404  27.159  1.00  0.00     0.074 A 
ATOM     47  C   UNL A   1      44.326  26.049  26.654  1.00  0.00     0.031 C 
ATOM     48  C   UNL A   1      38.670  28.372  29.801  1.00  0.00     0.029 A 
ATOM     49  C   UNL A   1      39.821  29.275  29.791  1.00  0.00     0.049 A 
ATOM     50  H   UNL A   1      41.659  28.952  28.863  1.00  0.00     0.167 HD
ATOM     51  C   UNL A   1      45.506  28.190  27.039  1.00  0.00     0.034 A 
ATOM     52  C   UNL A   1      39.878  30.485  30.387  1.00  0.00     0.034 A 
ATOM     53  C   UNL A   1      45.623  29.529  27.552  1.00  0.00     0.049 A 
ATOM     54  C   UNL A   1      41.133  31.321  30.279  1.00  0.00     0.074 A 
ATOM     55  C   UNL A   1      46.708  30.385  27.476  1.00  0.00     0.029 A 
ATOM     56  N   UNL A   1      44.633  30.201  28.249  1.00  0.00    -0.354 N 
ATOM     57  N   UNL A   1      42.238  31.079  29.617  1.00  0.00    -0.248 NA
ATOM     58  C   UNL A   1      41.134  32.617  30.982  1.00  0.00     0.031 C 
ATOM     59  C   UNL A   1      46.381  31.570  28.146  1.00  0.00     0.029 A 
ATOM     60  C   UNL A   1      45.084  31.459  28.616  1.00  0.00     0.049 A 
ATOM     61  H   UNL A   1      43.741  29.840  28.452  1.00  0.00     0.167 HD
ATOM     62  C   UNL A   1      43.048  32.198  29.799  1.00  0.00     0.074 A 
ATOM     63  C   UNL A   1      42.293  33.136  30.602  1.00  0.00     0.031 C 
ATOM     64  C   UNL A   1      44.313  32.419  29.364  1.00  0.00     0.034 A 
BRANCH  51  65
ATOM     65  C   UNL A   1      46.678  27.622  26.286  1.00  0.00     0.023 A 
ATOM     66  C   UNL A   1      46.786  27.862  24.901  1.00  0.00     0.012 A 
ATOM     67  C   UNL A   1      47.690  26.905  26.950  1.00  0.00     0.148 A 
ATOM     68  C   UNL A   1      47.876  27.375  24.183  1.00  0.00     0.002 A 
ATOM     69  C   UNL A   1      48.792  26.455  26.234  1.00  0.00     0.091 A 
ATOM     70  F   UNL A   1      47.552  26.672  28.263  1.00  0.00    -0.205 F 
ATOM     71  C   UNL A   1      48.883  26.681  24.850  1.00  0.00     0.022 A 
BRANCH  69  72
ATOM     72  S   UNL A   1      50.173  25.607  27.009  1.00  0.00     0.127 S 
ATOM     73  O   UNL A   1      49.535  24.379  27.483  1.00  0.00    -0.237 OA
ATOM     74  O   UNL A   1      51.091  25.425  25.886  1.00  0.00    -0.237 OA
ATOM     75  O   UNL A   1      50.657  26.499  28.054  1.00  0.00    -0.744 OA
ENDBRANCH  69  72
ENDBRANCH  51  65
BRANCH  52  76
ATOM     76  C   UNL A   1      38.706  31.013  31.148  1.00  0.00     0.023 A 
ATOM     77  C   UNL A   1      38.662  30.875  32.549  1.00  0.00     0.012 A 
ATOM     78  C   UNL A   1      37.613  31.601  30.484  1.00  0.00     0.148 A 
ATOM     79  C   UNL A   1      37.534  31.271  33.269  1.00  0.00     0.002 A 
ATOM     80  C   UNL A   1      36.518  32.049  31.214  1.00  0.00     0.091 A 
ATOM     81  F   UNL A   1      37.656  31.698  29.147  1.00  0.00    -0.205 F 
ATOM     82  C   UNL A   1      36.466  31.865  32.603  1.00  0.00     0.022 A 
BRANCH  80  83
ATOM     83  S   UNL A   1      35.157  32.936  30.446  1.00  0.00     0.127 S 
ATOM     84  O   UNL A   1      35.828  34.125  29.929  1.00  0.00    -0.237 OA
ATOM     85  O   UNL A   1      34.712  31.986  29.425  1.00  0.00    -0.237 OA
ATOM     86  O   UNL A   1      34.190  33.160  31.513  1.00  0.00    -0.744 OA
ENDBRANCH  80  83
ENDBRANCH  52  76
BRANCH  64  87
ATOM     87  C   UNL A   1      44.966  33.735  29.718  1.00  0.00     0.023 A 
ATOM     88  C   UNL A   1      45.739  33.838  30.893  1.00  0.00     0.012 A 
ATOM     89  C   UNL A   1      44.867  34.850  28.861  1.00  0.00     0.148 A 
ATOM     90  C   UNL A   1      46.366  35.039  31.230  1.00  0.00     0.002 A 
ATOM     91  C   UNL A   1      45.534  36.029  29.180  1.00  0.00     0.091 A 
ATOM     92  F   UNL A   1      44.114  34.745  27.757  1.00  0.00    -0.205 F 
ATOM     93  C   UNL A   1      46.273  36.129  30.370  1.00  0.00     0.022 A 
BRANCH  91  94
ATOM     94  S   UNL A   1      45.544  37.453  28.084  1.00  0.00     0.127 S 
ATOM     95  O   UNL A   1      46.329  38.417  28.852  1.00  0.00    -0.237 OA
ATOM     96  O   UNL A   1      46.218  36.930  26.894  1.00  0.00    -0.237 OA
ATOM     97  O   UNL A   1      44.145  37.803  27.875  1.00  0.00    -0.744 OA
ENDBRANCH  91  94
ENDBRANCH  64  87
ENDBRANCH  38  39
ENDBRANCH  31  33
ENDBRANCH  30  31
ENDBRANCH  29  30
ENDBRANCH   1  29
TORSDOF 19
ENDMDL
