MODEL 1
REMARK VINA RESULT:     -12.0      0.000      0.000
REMARK SMILES C#Cc1ccc2c(c1)C=C(C(=O)OCCOC(=O)c1ccc(-c3c4nc(c(-c5cccc(S(=O)(=O)[O-])c5F)c5ccc([nH]5)c(-c5cccc(S(=O)(=O)[O-])c5F)c5nc(c(-c6cccc(S(=O)(=O)[O-])c6F)c6ccc3[nH]6)C=C5)C=C4)cc1)[C@@H](C(F)(F)F)O2
REMARK SMILES IDX 15 1 14 2 13 3 11 4 12 5 10 6 3 7 4 8 8 9 5 10 7 11 6 12
REMARK SMILES IDX 9 13 87 14 82 15 2 16 1 17 83 18 84 19 85 20 86 21 16 22
REMARK SMILES IDX 17 23 18 24 19 25 20 26 81 27 21 28 80 29 22 30 23 31 24 32
REMARK SMILES IDX 74 33 25 34 79 35 73 36 75 37 26 38 78 39 72 40 71 41 27 43
REMARK SMILES IDX 59 44 39 45 58 46 40 47 43 48 57 49 76 50 41 51 42 52 56 54
REMARK SMILES IDX 77 55 44 56 28 57 29 58 37 59 30 60 32 61 38 62 31 63 33 64
REMARK SMILES IDX 34 65 35 66 36 67 60 68 61 69 69 70 62 71 64 72 70 73 63 74
REMARK SMILES IDX 65 75 66 76 67 77 68 78 45 79 46 80 54 81 47 82 49 83 55 84
REMARK SMILES IDX 48 85 50 86 51 87 52 88 53 89
REMARK H PARENT 75 42 43 53
REMARK Flexibility Score: inf
ROOT
ATOM      1  C   UNL A   1      31.497  30.208  25.376  1.00  0.00     0.275 C 
ENDROOT
BRANCH   1   2
ATOM      2  C   UNL A   1      31.250  29.063  24.388  1.00  0.00     0.275 C 
BRANCH   2   3
ATOM      3  O   UNL A   1      32.012  27.883  24.734  1.00  0.00    -0.459 OA
BRANCH   3   4
ATOM      4  C   UNL A   1      31.429  26.700  24.427  1.00  0.00     0.338 C 
ATOM      5  O   UNL A   1      30.229  26.481  24.371  1.00  0.00    -0.246 OA
BRANCH   4   6
ATOM      6  C   UNL A   1      32.446  25.664  24.145  1.00  0.00     0.087 C 
ATOM      7  C   UNL A   1      36.713  23.705  25.226  1.00  0.00     0.025 A 
ATOM      8  C   UNL A   1      36.702  23.008  24.017  1.00  0.00     0.021 A 
ATOM      9  C   UNL A   1      35.622  24.500  25.569  1.00  0.00     0.029 A 
ATOM     10  C   UNL A   1      35.598  23.105  23.157  1.00  0.00     0.048 A 
ATOM     11  C   UNL A   1      34.534  24.613  24.693  1.00  0.00     0.018 A 
ATOM     12  C   UNL A   1      34.512  23.914  23.491  1.00  0.00     0.128 A 
ATOM     13  C   UNL A   1      33.448  25.507  25.016  1.00  0.00     0.027 C 
ATOM     14  O   UNL A   1      33.470  23.971  22.607  1.00  0.00    -0.475 OA
ATOM     15  C   UNL A   1      32.410  24.951  22.826  1.00  0.00     0.316 C 
BRANCH   7  16
ATOM     16  C   UNL A   1      37.834  23.638  26.111  1.00  0.00    -0.070 C 
ATOM     17  C   UNL A   1      38.801  23.543  26.819  1.00  0.00     0.010 C 
ENDBRANCH   7  16
BRANCH  15  18
ATOM     18  C   UNL A   1      32.420  25.958  21.664  1.00  0.00     0.430 C 
ATOM     19  F   UNL A   1      33.225  27.015  21.934  1.00  0.00    -0.167 F 
ATOM     20  F   UNL A   1      32.898  25.401  20.523  1.00  0.00    -0.167 F 
ATOM     21  F   UNL A   1      31.189  26.444  21.391  1.00  0.00    -0.167 F 
ENDBRANCH  15  18
ENDBRANCH   4   6
ENDBRANCH   3   4
ENDBRANCH   2   3
ENDBRANCH   1   2
BRANCH   1  22
ATOM     22  O   UNL A   1      32.785  30.085  26.002  1.00  0.00    -0.458 OA
BRANCH  22  23
ATOM     23  C   UNL A   1      33.106  31.105  26.827  1.00  0.00     0.338 C 
ATOM     24  O   UNL A   1      32.387  32.023  27.186  1.00  0.00    -0.246 OA
BRANCH  23  25
ATOM     25  C   UNL A   1      34.448  30.886  27.377  1.00  0.00     0.060 A 
ATOM     26  C   UNL A   1      35.293  31.933  27.706  1.00  0.00     0.016 A 
ATOM     27  C   UNL A   1      34.788  29.585  27.716  1.00  0.00     0.016 A 
ATOM     28  C   UNL A   1      36.492  31.641  28.367  1.00  0.00     0.010 A 
ATOM     29  C   UNL A   1      35.862  29.326  28.550  1.00  0.00     0.010 A 
ATOM     30  C   UNL A   1      36.773  30.338  28.834  1.00  0.00    -0.014 A 
BRANCH  30  31
ATOM     31  C   UNL A   1      38.017  30.022  29.588  1.00  0.00     0.031 A 
ATOM     32  C   UNL A   1      38.237  30.548  30.991  1.00  0.00     0.074 A 
ATOM     33  C   UNL A   1      38.974  29.276  28.997  1.00  0.00     0.049 A 
ATOM     34  N   UNL A   1      39.234  30.311  31.806  1.00  0.00    -0.248 NA
ATOM     35  C   UNL A   1      37.239  31.482  31.550  1.00  0.00     0.031 C 
ATOM     36  C   UNL A   1      38.946  28.813  27.606  1.00  0.00     0.029 A 
ATOM     37  N   UNL A   1      40.145  28.761  29.491  1.00  0.00    -0.354 N 
ATOM     38  C   UNL A   1      38.998  31.084  32.938  1.00  0.00     0.074 A 
ATOM     39  C   UNL A   1      37.801  31.848  32.692  1.00  0.00     0.031 C 
ATOM     40  C   UNL A   1      40.003  28.017  27.386  1.00  0.00     0.029 A 
ATOM     41  C   UNL A   1      40.809  27.952  28.599  1.00  0.00     0.049 A 
ATOM     42  H   UNL A   1      40.479  28.953  30.397  1.00  0.00     0.167 HD
ATOM     43  C   UNL A   1      39.682  31.119  34.103  1.00  0.00     0.034 A 
ATOM     44  C   UNL A   1      41.934  27.225  28.739  1.00  0.00     0.034 A 
ATOM     45  C   UNL A   1      40.828  30.303  34.380  1.00  0.00     0.049 A 
ATOM     46  C   UNL A   1      42.643  27.228  30.061  1.00  0.00     0.074 A 
ATOM     47  C   UNL A   1      41.529  30.187  35.565  1.00  0.00     0.029 A 
ATOM     48  N   UNL A   1      41.438  29.467  33.461  1.00  0.00    -0.354 N 
ATOM     49  N   UNL A   1      42.317  27.858  31.163  1.00  0.00    -0.248 NA
ATOM     50  C   UNL A   1      43.857  26.407  30.171  1.00  0.00     0.031 C 
ATOM     51  C   UNL A   1      42.586  29.300  35.355  1.00  0.00     0.029 A 
ATOM     52  C   UNL A   1      42.520  28.840  34.048  1.00  0.00     0.049 A 
ATOM     53  H   UNL A   1      41.146  29.339  32.529  1.00  0.00     0.167 HD
ATOM     54  C   UNL A   1      43.274  27.499  32.103  1.00  0.00     0.074 A 
ATOM     55  C   UNL A   1      44.184  26.584  31.446  1.00  0.00     0.031 C 
ATOM     56  C   UNL A   1      43.391  27.904  33.389  1.00  0.00     0.034 A 
BRANCH  43  57
ATOM     57  C   UNL A   1      39.168  32.003  35.209  1.00  0.00     0.023 A 
ATOM     58  C   UNL A   1      38.200  31.503  36.104  1.00  0.00     0.012 A 
ATOM     59  C   UNL A   1      39.716  33.282  35.423  1.00  0.00     0.148 A 
ATOM     60  C   UNL A   1      37.779  32.265  37.192  1.00  0.00     0.002 A 
ATOM     61  C   UNL A   1      39.315  34.024  36.528  1.00  0.00     0.091 A 
ATOM     62  F   UNL A   1      40.626  33.740  34.552  1.00  0.00    -0.205 F 
ATOM     63  C   UNL A   1      38.345  33.518  37.410  1.00  0.00     0.022 A 
BRANCH  61  64
ATOM     64  S   UNL A   1      40.011  35.630  36.928  1.00  0.00     0.127 S 
ATOM     65  O   UNL A   1      41.434  35.313  37.041  1.00  0.00    -0.237 OA
ATOM     66  O   UNL A   1      39.655  36.420  35.750  1.00  0.00    -0.237 OA
ATOM     67  O   UNL A   1      39.374  36.051  38.168  1.00  0.00    -0.744 OA
ENDBRANCH  61  64
ENDBRANCH  43  57
BRANCH  44  68
ATOM     68  C   UNL A   1      42.394  26.380  27.605  1.00  0.00     0.023 A 
ATOM     69  C   UNL A   1      43.111  26.970  26.547  1.00  0.00     0.012 A 
ATOM     70  C   UNL A   1      42.214  24.983  27.626  1.00  0.00     0.148 A 
ATOM     71  C   UNL A   1      43.645  26.181  25.528  1.00  0.00     0.002 A 
ATOM     72  C   UNL A   1      42.777  24.201  26.627  1.00  0.00     0.091 A 
ATOM     73  F   UNL A   1      41.534  24.450  28.651  1.00  0.00    -0.205 F 
ATOM     74  C   UNL A   1      43.489  24.797  25.574  1.00  0.00     0.022 A 
BRANCH  72  75
ATOM     75  S   UNL A   1      42.704  22.406  26.644  1.00  0.00     0.127 S 
ATOM     76  O   UNL A   1      41.592  22.146  25.733  1.00  0.00    -0.237 OA
ATOM     77  O   UNL A   1      44.024  22.050  26.124  1.00  0.00    -0.237 OA
ATOM     78  O   UNL A   1      42.474  22.031  28.032  1.00  0.00    -0.744 OA
ENDBRANCH  72  75
ENDBRANCH  44  68
BRANCH  56  79
ATOM     79  C   UNL A   1      44.530  27.362  34.203  1.00  0.00     0.023 A 
ATOM     80  C   UNL A   1      45.706  28.121  34.338  1.00  0.00     0.012 A 
ATOM     81  C   UNL A   1      44.368  26.179  34.951  1.00  0.00     0.148 A 
ATOM     82  C   UNL A   1      46.712  27.708  35.210  1.00  0.00     0.002 A 
ATOM     83  C   UNL A   1      45.360  25.791  35.841  1.00  0.00     0.091 A 
ATOM     84  F   UNL A   1      43.233  25.480  34.800  1.00  0.00    -0.205 F 
ATOM     85  C   UNL A   1      46.533  26.553  35.970  1.00  0.00     0.022 A 
BRANCH  83  86
ATOM     86  S   UNL A   1      45.196  24.356  36.907  1.00  0.00     0.127 S 
ATOM     87  O   UNL A   1      46.576  24.157  37.350  1.00  0.00    -0.237 OA
ATOM     88  O   UNL A   1      44.285  24.843  37.942  1.00  0.00    -0.237 OA
ATOM     89  O   UNL A   1      44.658  23.289  36.072  1.00  0.00    -0.744 OA
ENDBRANCH  83  86
ENDBRANCH  56  79
ENDBRANCH  30  31
ENDBRANCH  23  25
ENDBRANCH  22  23
ENDBRANCH   1  22
TORSDOF 16
ENDMDL
MODEL 2
REMARK VINA RESULT:     -12.0      4.851     10.017
REMARK SMILES C#Cc1ccc2c(c1)C=C(C(=O)OCCOC(=O)c1ccc(-c3c4nc(c(-c5cccc(S(=O)(=O)[O-])c5F)c5ccc([nH]5)c(-c5cccc(S(=O)(=O)[O-])c5F)c5nc(c(-c6cccc(S(=O)(=O)[O-])c6F)c6ccc3[nH]6)C=C5)C=C4)cc1)[C@@H](C(F)(F)F)O2
REMARK SMILES IDX 15 1 14 2 13 3 11 4 12 5 10 6 3 7 4 8 8 9 5 10 7 11 6 12
REMARK SMILES IDX 9 13 87 14 82 15 2 16 1 17 83 18 84 19 85 20 86 21 16 22
REMARK SMILES IDX 17 23 18 24 19 25 20 26 81 27 21 28 80 29 22 30 23 31 24 32
REMARK SMILES IDX 74 33 25 34 79 35 73 36 75 37 26 38 78 39 72 40 71 41 27 43
REMARK SMILES IDX 59 44 39 45 58 46 40 47 43 48 57 49 76 50 41 51 42 52 56 54
REMARK SMILES IDX 77 55 44 56 28 57 29 58 37 59 30 60 32 61 38 62 31 63 33 64
REMARK SMILES IDX 34 65 35 66 36 67 60 68 61 69 69 70 62 71 64 72 70 73 63 74
REMARK SMILES IDX 65 75 66 76 67 77 68 78 45 79 46 80 54 81 47 82 49 83 55 84
REMARK SMILES IDX 48 85 50 86 51 87 52 88 53 89
REMARK H PARENT 75 42 43 53
REMARK Flexibility Score: inf
ROOT
ATOM      1  C   UNL A   1      36.186  20.700  24.988  1.00  0.00     0.275 C 
ENDROOT
BRANCH   1   2
ATOM      2  C   UNL A   1      34.682  20.964  25.108  1.00  0.00     0.275 C 
BRANCH   2   3
ATOM      3  O   UNL A   1      34.385  22.379  25.126  1.00  0.00    -0.459 OA
BRANCH   3   4
ATOM      4  C   UNL A   1      33.240  22.745  24.501  1.00  0.00     0.338 C 
ATOM      5  O   UNL A   1      32.673  22.123  23.617  1.00  0.00    -0.246 OA
BRANCH   4   6
ATOM      6  C   UNL A   1      32.727  24.024  25.038  1.00  0.00     0.087 C 
ATOM      7  C   UNL A   1      33.678  28.351  26.931  1.00  0.00     0.025 A 
ATOM      8  C   UNL A   1      32.345  28.473  27.326  1.00  0.00     0.021 A 
ATOM      9  C   UNL A   1      34.080  27.225  26.218  1.00  0.00     0.029 A 
ATOM     10  C   UNL A   1      31.418  27.472  27.001  1.00  0.00     0.048 A 
ATOM     11  C   UNL A   1      33.155  26.215  25.920  1.00  0.00     0.018 A 
ATOM     12  C   UNL A   1      31.823  26.336  26.301  1.00  0.00     0.128 A 
ATOM     13  C   UNL A   1      33.600  25.012  25.257  1.00  0.00     0.027 C 
ATOM     14  O   UNL A   1      30.873  25.394  26.021  1.00  0.00    -0.475 OA
ATOM     15  C   UNL A   1      31.293  24.109  25.466  1.00  0.00     0.316 C 
BRANCH   7  16
ATOM     16  C   UNL A   1      34.646  29.349  27.268  1.00  0.00    -0.070 C 
ATOM     17  C   UNL A   1      35.493  30.146  27.572  1.00  0.00     0.010 C 
ENDBRANCH   7  16
BRANCH  15  18
ATOM     18  C   UNL A   1      30.963  23.002  26.480  1.00  0.00     0.430 C 
ATOM     19  F   UNL A   1      29.921  23.353  27.273  1.00  0.00    -0.167 F 
ATOM     20  F   UNL A   1      30.598  21.849  25.864  1.00  0.00    -0.167 F 
ATOM     21  F   UNL A   1      32.008  22.713  27.287  1.00  0.00    -0.167 F 
ENDBRANCH  15  18
ENDBRANCH   4   6
ENDBRANCH   3   4
ENDBRANCH   2   3
ENDBRANCH   1   2
BRANCH   1  22
ATOM     22  O   UNL A   1      36.943  21.656  25.750  1.00  0.00    -0.458 OA
BRANCH  22  23
ATOM     23  C   UNL A   1      38.262  21.380  25.841  1.00  0.00     0.338 C 
ATOM     24  O   UNL A   1      38.853  20.422  25.371  1.00  0.00    -0.246 OA
BRANCH  23  25
ATOM     25  C   UNL A   1      38.952  22.501  26.487  1.00  0.00     0.060 A 
ATOM     26  C   UNL A   1      40.110  22.330  27.228  1.00  0.00     0.016 A 
ATOM     27  C   UNL A   1      38.498  23.778  26.194  1.00  0.00     0.016 A 
ATOM     28  C   UNL A   1      40.789  23.468  27.680  1.00  0.00     0.010 A 
ATOM     29  C   UNL A   1      39.280  24.890  26.458  1.00  0.00     0.010 A 
ATOM     30  C   UNL A   1      40.406  24.763  27.266  1.00  0.00    -0.014 A 
BRANCH  30  31
ATOM     31  C   UNL A   1      41.150  25.979  27.692  1.00  0.00     0.031 A 
ATOM     32  C   UNL A   1      42.580  26.215  27.253  1.00  0.00     0.074 A 
ATOM     33  C   UNL A   1      40.545  26.871  28.505  1.00  0.00     0.049 A 
ATOM     34  N   UNL A   1      43.345  27.253  27.483  1.00  0.00    -0.248 NA
ATOM     35  C   UNL A   1      43.260  25.150  26.489  1.00  0.00     0.031 C 
ATOM     36  C   UNL A   1      39.218  26.703  29.104  1.00  0.00     0.029 A 
ATOM     37  N   UNL A   1      40.956  28.100  28.953  1.00  0.00    -0.354 N 
ATOM     38  C   UNL A   1      44.583  26.948  26.928  1.00  0.00     0.074 A 
ATOM     39  C   UNL A   1      44.499  25.608  26.404  1.00  0.00     0.031 C 
ATOM     40  C   UNL A   1      38.891  27.821  29.770  1.00  0.00     0.029 A 
ATOM     41  C   UNL A   1      40.001  28.763  29.690  1.00  0.00     0.049 A 
ATOM     42  H   UNL A   1      41.847  28.472  28.768  1.00  0.00     0.167 HD
ATOM     43  C   UNL A   1      45.680  27.729  26.813  1.00  0.00     0.034 A 
ATOM     44  C   UNL A   1      40.007  29.996  30.230  1.00  0.00     0.034 A 
ATOM     45  C   UNL A   1      45.742  29.088  27.265  1.00  0.00     0.049 A 
ATOM     46  C   UNL A   1      41.210  30.871  30.037  1.00  0.00     0.074 A 
ATOM     47  C   UNL A   1      46.771  29.997  27.103  1.00  0.00     0.029 A 
ATOM     48  N   UNL A   1      44.736  29.730  27.966  1.00  0.00    -0.354 N 
ATOM     49  N   UNL A   1      42.315  30.609  29.383  1.00  0.00    -0.248 NA
ATOM     50  C   UNL A   1      41.163  32.214  30.631  1.00  0.00     0.031 C 
ATOM     51  C   UNL A   1      46.398  31.185  27.733  1.00  0.00     0.029 A 
ATOM     52  C   UNL A   1      45.124  31.023  28.257  1.00  0.00     0.049 A 
ATOM     53  H   UNL A   1      43.875  29.327  28.219  1.00  0.00     0.167 HD
ATOM     54  C   UNL A   1      43.091  31.757  29.472  1.00  0.00     0.074 A 
ATOM     55  C   UNL A   1      42.322  32.724  30.230  1.00  0.00     0.031 C 
ATOM     56  C   UNL A   1      44.332  31.982  28.980  1.00  0.00     0.034 A 
BRANCH  43  57
ATOM     57  C   UNL A   1      46.884  27.172  26.098  1.00  0.00     0.023 A 
ATOM     58  C   UNL A   1      47.001  27.342  24.703  1.00  0.00     0.012 A 
ATOM     59  C   UNL A   1      47.939  26.580  26.816  1.00  0.00     0.148 A 
ATOM     60  C   UNL A   1      48.147  26.923  24.032  1.00  0.00     0.002 A 
ATOM     61  C   UNL A   1      49.093  26.193  26.145  1.00  0.00     0.091 A 
ATOM     62  F   UNL A   1      47.800  26.420  28.140  1.00  0.00    -0.205 F 
ATOM     63  C   UNL A   1      49.197  26.361  24.753  1.00  0.00     0.022 A 
BRANCH  61  64
ATOM     64  S   UNL A   1      50.523  25.500  26.983  1.00  0.00     0.127 S 
ATOM     65  O   UNL A   1      51.424  25.240  25.861  1.00  0.00    -0.237 OA
ATOM     66  O   UNL A   1      50.932  26.604  27.850  1.00  0.00    -0.237 OA
ATOM     67  O   UNL A   1      50.048  24.313  27.680  1.00  0.00    -0.744 OA
ENDBRANCH  61  64
ENDBRANCH  43  57
BRANCH  44  68
ATOM     68  C   UNL A   1      38.789  30.482  30.932  1.00  0.00     0.023 A 
ATOM     69  C   UNL A   1      38.570  30.115  32.273  1.00  0.00     0.012 A 
ATOM     70  C   UNL A   1      37.910  31.390  30.310  1.00  0.00     0.148 A 
ATOM     71  C   UNL A   1      37.493  30.645  32.985  1.00  0.00     0.002 A 
ATOM     72  C   UNL A   1      36.861  31.940  31.034  1.00  0.00     0.091 A 
ATOM     73  F   UNL A   1      38.150  31.727  29.035  1.00  0.00    -0.205 F 
ATOM     74  C   UNL A   1      36.647  31.565  32.370  1.00  0.00     0.022 A 
BRANCH  72  75
ATOM     75  S   UNL A   1      35.769  33.195  30.357  1.00  0.00     0.127 S 
ATOM     76  O   UNL A   1      34.625  32.395  29.930  1.00  0.00    -0.237 OA
ATOM     77  O   UNL A   1      35.529  34.041  31.527  1.00  0.00    -0.237 OA
ATOM     78  O   UNL A   1      36.518  33.836  29.285  1.00  0.00    -0.744 OA
ENDBRANCH  72  75
ENDBRANCH  44  68
BRANCH  56  79
ATOM     79  C   UNL A   1      44.957  33.326  29.217  1.00  0.00     0.023 A 
ATOM     80  C   UNL A   1      45.757  33.524  30.357  1.00  0.00     0.012 A 
ATOM     81  C   UNL A   1      44.874  34.331  28.234  1.00  0.00     0.148 A 
ATOM     82  C   UNL A   1      46.467  34.712  30.517  1.00  0.00     0.002 A 
ATOM     83  C   UNL A   1      45.610  35.498  28.384  1.00  0.00     0.091 A 
ATOM     84  F   UNL A   1      44.104  34.108  27.158  1.00  0.00    -0.205 F 
ATOM     85  C   UNL A   1      46.405  35.691  29.526  1.00  0.00     0.022 A 
BRANCH  83  86
ATOM     86  S   UNL A   1      45.644  36.788  27.137  1.00  0.00     0.127 S 
ATOM     87  O   UNL A   1      46.252  36.089  26.005  1.00  0.00    -0.237 OA
ATOM     88  O   UNL A   1      44.224  37.097  26.974  1.00  0.00    -0.237 OA
ATOM     89  O   UNL A   1      46.446  37.871  27.693  1.00  0.00    -0.744 OA
ENDBRANCH  83  86
ENDBRANCH  56  79
ENDBRANCH  30  31
ENDBRANCH  23  25
ENDBRANCH  22  23
ENDBRANCH   1  22
TORSDOF 16
ENDMDL
MODEL 3
REMARK VINA RESULT:     -11.9      5.117     10.055
REMARK SMILES C#Cc1ccc2c(c1)C=C(C(=O)OCCOC(=O)c1ccc(-c3c4nc(c(-c5cccc(S(=O)(=O)[O-])c5F)c5ccc([nH]5)c(-c5cccc(S(=O)(=O)[O-])c5F)c5nc(c(-c6cccc(S(=O)(=O)[O-])c6F)c6ccc3[nH]6)C=C5)C=C4)cc1)[C@@H](C(F)(F)F)O2
REMARK SMILES IDX 15 1 14 2 13 3 11 4 12 5 10 6 3 7 4 8 8 9 5 10 7 11 6 12
REMARK SMILES IDX 9 13 87 14 82 15 2 16 1 17 83 18 84 19 85 20 86 21 16 22
REMARK SMILES IDX 17 23 18 24 19 25 20 26 81 27 21 28 80 29 22 30 23 31 24 32
REMARK SMILES IDX 74 33 25 34 79 35 73 36 75 37 26 38 78 39 72 40 71 41 27 43
REMARK SMILES IDX 59 44 39 45 58 46 40 47 43 48 57 49 76 50 41 51 42 52 56 54
REMARK SMILES IDX 77 55 44 56 28 57 29 58 37 59 30 60 32 61 38 62 31 63 33 64
REMARK SMILES IDX 34 65 35 66 36 67 60 68 61 69 69 70 62 71 64 72 70 73 63 74
REMARK SMILES IDX 65 75 66 76 67 77 68 78 45 79 46 80 54 81 47 82 49 83 55 84
REMARK SMILES IDX 48 85 50 86 51 87 52 88 53 89
REMARK H PARENT 75 42 43 53
REMARK Flexibility Score: inf
ROOT
ATOM      1  C   UNL A   1      36.637  20.423  25.027  1.00  0.00     0.275 C 
ENDROOT
BRANCH   1   2
ATOM      2  C   UNL A   1      35.221  20.968  25.245  1.00  0.00     0.275 C 
BRANCH   2   3
ATOM      3  O   UNL A   1      35.226  22.396  25.473  1.00  0.00    -0.459 OA
BRANCH   3   4
ATOM      4  C   UNL A   1      34.006  22.975  25.577  1.00  0.00     0.338 C 
ATOM      5  O   UNL A   1      33.023  22.491  26.114  1.00  0.00    -0.246 OA
BRANCH   4   6
ATOM      6  C   UNL A   1      33.999  24.315  24.950  1.00  0.00     0.087 C 
ATOM      7  C   UNL A   1      32.889  28.991  25.279  1.00  0.00     0.025 A 
ATOM      8  C   UNL A   1      33.067  29.132  23.902  1.00  0.00     0.021 A 
ATOM      9  C   UNL A   1      33.130  27.758  25.877  1.00  0.00     0.029 A 
ATOM     10  C   UNL A   1      33.489  28.041  23.129  1.00  0.00     0.048 A 
ATOM     11  C   UNL A   1      33.526  26.664  25.096  1.00  0.00     0.018 A 
ATOM     12  C   UNL A   1      33.714  26.800  23.725  1.00  0.00     0.128 A 
ATOM     13  C   UNL A   1      33.689  25.368  25.712  1.00  0.00     0.027 C 
ATOM     14  O   UNL A   1      34.119  25.774  22.916  1.00  0.00    -0.475 OA
ATOM     15  C   UNL A   1      34.176  24.422  23.465  1.00  0.00     0.316 C 
BRANCH   7  16
ATOM     16  C   UNL A   1      32.441  30.084  26.085  1.00  0.00    -0.070 C 
ATOM     17  C   UNL A   1      32.010  30.980  26.761  1.00  0.00     0.010 C 
ENDBRANCH   7  16
BRANCH  15  18
ATOM     18  C   UNL A   1      33.145  23.548  22.731  1.00  0.00     0.430 C 
ATOM     19  F   UNL A   1      32.995  23.938  21.442  1.00  0.00    -0.167 F 
ATOM     20  F   UNL A   1      33.528  22.247  22.691  1.00  0.00    -0.167 F 
ATOM     21  F   UNL A   1      31.926  23.591  23.313  1.00  0.00    -0.167 F 
ENDBRANCH  15  18
ENDBRANCH   4   6
ENDBRANCH   3   4
ENDBRANCH   2   3
ENDBRANCH   1   2
BRANCH   1  22
ATOM     22  O   UNL A   1      37.620  21.463  25.161  1.00  0.00    -0.458 OA
BRANCH  22  23
ATOM     23  C   UNL A   1      38.748  21.087  25.802  1.00  0.00     0.338 C 
ATOM     24  O   UNL A   1      39.291  19.996  25.769  1.00  0.00    -0.246 OA
BRANCH  23  25
ATOM     25  C   UNL A   1      39.345  22.252  26.465  1.00  0.00     0.060 A 
ATOM     26  C   UNL A   1      40.478  22.154  27.255  1.00  0.00     0.016 A 
ATOM     27  C   UNL A   1      38.830  23.498  26.139  1.00  0.00     0.016 A 
ATOM     28  C   UNL A   1      41.071  23.333  27.723  1.00  0.00     0.010 A 
ATOM     29  C   UNL A   1      39.535  24.655  26.425  1.00  0.00     0.010 A 
ATOM     30  C   UNL A   1      40.631  24.600  27.280  1.00  0.00    -0.014 A 
BRANCH  30  31
ATOM     31  C   UNL A   1      41.286  25.861  27.723  1.00  0.00     0.031 A 
ATOM     32  C   UNL A   1      42.703  26.195  27.308  1.00  0.00     0.074 A 
ATOM     33  C   UNL A   1      40.610  26.706  28.530  1.00  0.00     0.049 A 
ATOM     34  N   UNL A   1      43.394  27.280  27.555  1.00  0.00    -0.248 NA
ATOM     35  C   UNL A   1      43.465  25.182  26.551  1.00  0.00     0.031 C 
ATOM     36  C   UNL A   1      39.288  26.447  29.107  1.00  0.00     0.029 A 
ATOM     37  N   UNL A   1      40.930  27.957  28.991  1.00  0.00    -0.354 N 
ATOM     38  C   UNL A   1      44.658  27.061  27.020  1.00  0.00     0.074 A 
ATOM     39  C   UNL A   1      44.672  25.722  26.487  1.00  0.00     0.031 C 
ATOM     40  C   UNL A   1      38.876  27.536  29.773  1.00  0.00     0.029 A 
ATOM     41  C   UNL A   1      39.922  28.550  29.715  1.00  0.00     0.049 A 
ATOM     42  H   UNL A   1      41.798  28.389  28.822  1.00  0.00     0.167 HD
ATOM     43  C   UNL A   1      45.702  27.915  26.925  1.00  0.00     0.034 A 
ATOM     44  C   UNL A   1      39.837  29.778  30.261  1.00  0.00     0.034 A 
ATOM     45  C   UNL A   1      45.666  29.273  27.385  1.00  0.00     0.049 A 
ATOM     46  C   UNL A   1      40.982  30.732  30.091  1.00  0.00     0.074 A 
ATOM     47  C   UNL A   1      46.634  30.249  27.243  1.00  0.00     0.029 A 
ATOM     48  N   UNL A   1      44.608  29.842  28.072  1.00  0.00    -0.354 N 
ATOM     49  N   UNL A   1      42.112  30.549  29.454  1.00  0.00    -0.248 NA
ATOM     50  C   UNL A   1      40.835  32.066  30.691  1.00  0.00     0.031 C 
ATOM     51  C   UNL A   1      46.172  31.406  27.873  1.00  0.00     0.029 A 
ATOM     52  C   UNL A   1      44.904  31.156  28.376  1.00  0.00     0.049 A 
ATOM     53  H   UNL A   1      43.772  29.380  28.309  1.00  0.00     0.167 HD
ATOM     54  C   UNL A   1      42.807  31.746  29.561  1.00  0.00     0.074 A 
ATOM     55  C   UNL A   1      41.964  32.654  30.311  1.00  0.00     0.031 C 
ATOM     56  C   UNL A   1      44.038  32.056  29.090  1.00  0.00     0.034 A 
BRANCH  43  57
ATOM     57  C   UNL A   1      46.951  27.444  26.227  1.00  0.00     0.023 A 
ATOM     58  C   UNL A   1      47.852  26.602  26.911  1.00  0.00     0.012 A 
ATOM     59  C   UNL A   1      47.177  27.747  24.871  1.00  0.00     0.148 A 
ATOM     60  C   UNL A   1      48.964  26.075  26.258  1.00  0.00     0.002 A 
ATOM     61  C   UNL A   1      48.271  27.192  24.218  1.00  0.00     0.091 A 
ATOM     62  F   UNL A   1      46.313  28.558  24.246  1.00  0.00    -0.205 F 
ATOM     63  C   UNL A   1      49.166  26.359  24.910  1.00  0.00     0.022 A 
BRANCH  61  64
ATOM     64  S   UNL A   1      48.601  27.456  22.472  1.00  0.00     0.127 S 
ATOM     65  O   UNL A   1      48.646  26.082  21.971  1.00  0.00    -0.237 OA
ATOM     66  O   UNL A   1      47.426  28.219  22.052  1.00  0.00    -0.237 OA
ATOM     67  O   UNL A   1      49.862  28.179  22.402  1.00  0.00    -0.744 OA
ENDBRANCH  61  64
ENDBRANCH  43  57
BRANCH  44  68
ATOM     68  C   UNL A   1      38.578  30.178  30.946  1.00  0.00     0.023 A 
ATOM     69  C   UNL A   1      38.420  29.905  32.318  1.00  0.00     0.012 A 
ATOM     70  C   UNL A   1      37.591  30.918  30.268  1.00  0.00     0.148 A 
ATOM     71  C   UNL A   1      37.296  30.366  33.005  1.00  0.00     0.002 A 
ATOM     72  C   UNL A   1      36.492  31.402  30.965  1.00  0.00     0.091 A 
ATOM     73  F   UNL A   1      37.774  31.168  28.964  1.00  0.00    -0.205 F 
ATOM     74  C   UNL A   1      36.340  31.124  32.333  1.00  0.00     0.022 A 
BRANCH  72  75
ATOM     75  S   UNL A   1      35.252  32.458  30.208  1.00  0.00     0.127 S 
ATOM     76  O   UNL A   1      34.771  31.615  29.116  1.00  0.00    -0.237 OA
ATOM     77  O   UNL A   1      34.305  32.641  31.309  1.00  0.00    -0.237 OA
ATOM     78  O   UNL A   1      35.954  33.667  29.800  1.00  0.00    -0.744 OA
ENDBRANCH  72  75
ENDBRANCH  44  68
BRANCH  56  79
ATOM     79  C   UNL A   1      44.568  33.437  29.344  1.00  0.00     0.023 A 
ATOM     80  C   UNL A   1      45.244  33.708  30.548  1.00  0.00     0.012 A 
ATOM     81  C   UNL A   1      44.528  34.410  28.326  1.00  0.00     0.148 A 
ATOM     82  C   UNL A   1      45.874  34.936  30.737  1.00  0.00     0.002 A 
ATOM     83  C   UNL A   1      45.186  35.619  28.510  1.00  0.00     0.091 A 
ATOM     84  F   UNL A   1      43.878  34.119  27.190  1.00  0.00    -0.205 F 
ATOM     85  C   UNL A   1      45.857  35.884  29.715  1.00  0.00     0.022 A 
BRANCH  83  86
ATOM     86  S   UNL A   1      45.274  36.876  27.232  1.00  0.00     0.127 S 
ATOM     87  O   UNL A   1      46.168  37.858  27.844  1.00  0.00    -0.237 OA
ATOM     88  O   UNL A   1      45.853  36.136  26.111  1.00  0.00    -0.237 OA
ATOM     89  O   UNL A   1      43.908  37.337  27.020  1.00  0.00    -0.744 OA
ENDBRANCH  83  86
ENDBRANCH  56  79
ENDBRANCH  30  31
ENDBRANCH  23  25
ENDBRANCH  22  23
ENDBRANCH   1  22
TORSDOF 16
ENDMDL
