MODEL 1
REMARK VINA RESULT:     -11.3      0.000      0.000
REMARK SMILES C[C@H]1[C@@H](C(=O)OCCOC(=O)c2ccc(-c3c4nc(c(-c5cccc(S(=O)(=O)[O-])c5F)c5ccc([nH]5)c(-c5cccc(S(=O)(=O)[O-])c5F)c5nc(c(-c6cccc(S(=O)(=O)[O-])c6F)c6ccc3[nH]6)C=C5)C=C4)cc2)CC[N@@H+]1CC1(O)CCCC1
REMARK SMILES IDX 7 1 6 2 4 3 5 4 3 5 1 6 2 7 77 8 75 9 76 10 78 12 79 13
REMARK SMILES IDX 81 14 84 15 82 16 83 17 80 18 8 20 9 21 10 22 11 23 12 24
REMARK SMILES IDX 13 25 74 26 14 27 73 28 15 29 16 30 17 31 67 32 18 33 72 34
REMARK SMILES IDX 66 35 68 36 19 37 71 38 65 39 64 40 20 42 52 43 32 44 51 45
REMARK SMILES IDX 33 46 36 47 50 48 69 49 34 50 35 51 49 53 70 54 37 55 21 56
REMARK SMILES IDX 22 57 30 58 23 59 25 60 31 61 24 62 26 63 27 64 28 65 29 66
REMARK SMILES IDX 53 67 54 68 62 69 55 70 57 71 63 72 56 73 58 74 59 75 60 76
REMARK SMILES IDX 61 77 38 78 39 79 47 80 40 81 42 82 48 83 41 84 43 85 44 86
REMARK SMILES IDX 45 87 46 88
REMARK H PARENT 77 11 80 19 68 41 36 52
REMARK Flexibility Score: inf
ROOT
ATOM      1  C   UNL A   1      35.084  22.047  24.221  1.00  0.00     0.274 C 
ENDROOT
BRANCH   1   2
ATOM      2  O   UNL A   1      33.645  21.955  24.190  1.00  0.00    -0.462 OA
BRANCH   2   3
ATOM      3  C   UNL A   1      33.029  22.534  23.131  1.00  0.00     0.315 C 
ATOM      4  O   UNL A   1      32.340  21.929  22.314  1.00  0.00    -0.252 OA
BRANCH   3   5
ATOM      5  C   UNL A   1      33.196  24.035  23.070  1.00  0.00     0.162 C 
ATOM      6  C   UNL A   1      31.142  24.453  24.601  1.00  0.00     0.076 C 
ATOM      7  C   UNL A   1      32.501  24.937  24.088  1.00  0.00     0.195 C 
ATOM      8  N   UNL A   1      32.270  26.203  23.378  1.00  0.00    -0.330 N 
ATOM      9  C   UNL A   1      32.891  24.629  21.704  1.00  0.00     0.083 C 
ATOM     10  C   UNL A   1      32.086  25.887  21.965  1.00  0.00     0.263 C 
ATOM     11  H   UNL A   1      31.422  26.611  23.772  1.00  0.00     0.348 HD
BRANCH   8  12
ATOM     12  C   UNL A   1      33.172  27.328  23.651  1.00  0.00     0.297 C 
BRANCH  12  13
ATOM     13  C   UNL A   1      33.034  28.292  24.870  1.00  0.00     0.113 C 
ATOM     14  C   UNL A   1      33.905  27.969  26.087  1.00  0.00     0.041 C 
ATOM     15  C   UNL A   1      31.614  28.184  25.452  1.00  0.00     0.041 C 
ATOM     16  C   UNL A   1      33.140  28.482  27.311  1.00  0.00     0.003 C 
ATOM     17  C   UNL A   1      31.719  28.776  26.849  1.00  0.00     0.003 C 
BRANCH  13  18
ATOM     18  O   UNL A   1      33.246  29.644  24.457  1.00  0.00    -0.384 OA
ATOM     19  H   UNL A   1      32.479  30.182  24.709  1.00  0.00     0.211 HD
ENDBRANCH  13  18
ENDBRANCH  12  13
ENDBRANCH   8  12
ENDBRANCH   3   5
ENDBRANCH   2   3
ENDBRANCH   1   2
BRANCH   1  20
ATOM     20  C   UNL A   1      35.632  21.100  25.280  1.00  0.00     0.275 C 
BRANCH  20  21
ATOM     21  O   UNL A   1      36.641  21.778  26.048  1.00  0.00    -0.458 OA
BRANCH  21  22
ATOM     22  C   UNL A   1      37.916  21.435  25.752  1.00  0.00     0.338 C 
ATOM     23  O   UNL A   1      38.299  20.418  25.199  1.00  0.00    -0.246 OA
BRANCH  22  24
ATOM     24  C   UNL A   1      38.837  22.488  26.209  1.00  0.00     0.060 A 
ATOM     25  C   UNL A   1      39.964  22.178  26.977  1.00  0.00     0.016 A 
ATOM     26  C   UNL A   1      38.491  23.815  25.963  1.00  0.00     0.016 A 
ATOM     27  C   UNL A   1      40.701  23.205  27.568  1.00  0.00     0.010 A 
ATOM     28  C   UNL A   1      39.291  24.837  26.471  1.00  0.00     0.010 A 
ATOM     29  C   UNL A   1      40.388  24.546  27.301  1.00  0.00    -0.014 A 
BRANCH  29  30
ATOM     30  C   UNL A   1      41.193  25.677  27.843  1.00  0.00     0.031 A 
ATOM     31  C   UNL A   1      40.520  26.751  28.655  1.00  0.00     0.074 A 
ATOM     32  C   UNL A   1      42.490  25.806  27.500  1.00  0.00     0.049 A 
ATOM     33  N   UNL A   1      40.926  27.964  28.920  1.00  0.00    -0.248 NA
ATOM     34  C   UNL A   1      39.200  26.423  29.222  1.00  0.00     0.031 C 
ATOM     35  C   UNL A   1      43.267  24.832  26.735  1.00  0.00     0.029 A 
ATOM     36  N   UNL A   1      43.369  26.840  27.712  1.00  0.00    -0.354 N 
ATOM     37  C   UNL A   1      39.882  28.573  29.607  1.00  0.00     0.074 A 
ATOM     38  C   UNL A   1      38.832  27.585  29.744  1.00  0.00     0.031 C 
ATOM     39  C   UNL A   1      44.499  25.319  26.522  1.00  0.00     0.029 A 
ATOM     40  C   UNL A   1      44.570  26.672  27.059  1.00  0.00     0.049 A 
ATOM     41  H   UNL A   1      43.162  27.623  28.272  1.00  0.00     0.167 HD
ATOM     42  C   UNL A   1      39.808  29.841  30.077  1.00  0.00     0.034 A 
ATOM     43  C   UNL A   1      45.590  27.528  26.853  1.00  0.00     0.034 A 
ATOM     44  C   UNL A   1      40.888  30.789  30.002  1.00  0.00     0.049 A 
ATOM     45  C   UNL A   1      45.493  28.924  27.398  1.00  0.00     0.074 A 
ATOM     46  C   UNL A   1      40.933  32.082  30.491  1.00  0.00     0.029 A 
ATOM     47  N   UNL A   1      42.118  30.539  29.414  1.00  0.00    -0.354 N 
ATOM     48  N   UNL A   1      44.516  29.475  28.077  1.00  0.00    -0.248 NA
ATOM     49  C   UNL A   1      46.638  29.813  27.159  1.00  0.00     0.031 C 
ATOM     50  C   UNL A   1      42.193  32.615  30.197  1.00  0.00     0.029 A 
ATOM     51  C   UNL A   1      42.934  31.651  29.534  1.00  0.00     0.049 A 
ATOM     52  H   UNL A   1      42.374  29.695  28.976  1.00  0.00     0.167 HD
ATOM     53  C   UNL A   1      44.938  30.765  28.372  1.00  0.00     0.074 A 
ATOM     54  C   UNL A   1      46.267  30.909  27.810  1.00  0.00     0.031 C 
ATOM     55  C   UNL A   1      44.279  31.748  29.030  1.00  0.00     0.034 A 
BRANCH  42  56
ATOM     56  C   UNL A   1      38.532  30.278  30.747  1.00  0.00     0.023 A 
ATOM     57  C   UNL A   1      38.348  30.039  32.122  1.00  0.00     0.012 A 
ATOM     58  C   UNL A   1      37.551  30.996  30.033  1.00  0.00     0.148 A 
ATOM     59  C   UNL A   1      37.199  30.488  32.773  1.00  0.00     0.002 A 
ATOM     60  C   UNL A   1      36.425  31.473  30.696  1.00  0.00     0.091 A 
ATOM     61  F   UNL A   1      37.732  31.194  28.719  1.00  0.00    -0.205 F 
ATOM     62  C   UNL A   1      36.245  31.214  32.064  1.00  0.00     0.022 A 
BRANCH  60  63
ATOM     63  S   UNL A   1      35.183  32.483  29.878  1.00  0.00     0.127 S 
ATOM     64  O   UNL A   1      35.982  33.615  29.412  1.00  0.00    -0.237 OA
ATOM     65  O   UNL A   1      34.708  31.595  28.816  1.00  0.00    -0.237 OA
ATOM     66  O   UNL A   1      34.188  32.788  30.896  1.00  0.00    -0.744 OA
ENDBRANCH  60  63
ENDBRANCH  42  56
BRANCH  43  67
ATOM     67  C   UNL A   1      46.792  27.067  26.102  1.00  0.00     0.023 A 
ATOM     68  C   UNL A   1      46.893  27.352  24.728  1.00  0.00     0.012 A 
ATOM     69  C   UNL A   1      47.866  26.425  26.752  1.00  0.00     0.148 A 
ATOM     70  C   UNL A   1      48.037  26.999  24.011  1.00  0.00     0.002 A 
ATOM     71  C   UNL A   1      49.027  26.130  26.045  1.00  0.00     0.091 A 
ATOM     72  F   UNL A   1      47.743  26.139  28.056  1.00  0.00    -0.205 F 
ATOM     73  C   UNL A   1      49.108  26.404  24.672  1.00  0.00     0.022 A 
BRANCH  71  74
ATOM     74  S   UNL A   1      50.503  25.512  26.862  1.00  0.00     0.127 S 
ATOM     75  O   UNL A   1      51.406  25.306  25.734  1.00  0.00    -0.237 OA
ATOM     76  O   UNL A   1      50.860  26.626  27.742  1.00  0.00    -0.237 OA
ATOM     77  O   UNL A   1      50.076  24.312  27.569  1.00  0.00    -0.744 OA
ENDBRANCH  71  74
ENDBRANCH  43  67
BRANCH  55  78
ATOM     78  C   UNL A   1      44.991  33.057  29.227  1.00  0.00     0.023 A 
ATOM     79  C   UNL A   1      45.789  33.248  30.371  1.00  0.00     0.012 A 
ATOM     80  C   UNL A   1      44.948  34.053  28.232  1.00  0.00     0.148 A 
ATOM     81  C   UNL A   1      46.526  34.421  30.529  1.00  0.00     0.002 A 
ATOM     82  C   UNL A   1      45.715  35.203  28.379  1.00  0.00     0.091 A 
ATOM     83  F   UNL A   1      44.165  33.855  27.162  1.00  0.00    -0.205 F 
ATOM     84  C   UNL A   1      46.499  35.391  29.529  1.00  0.00     0.022 A 
BRANCH  82  85
ATOM     85  S   UNL A   1      45.806  36.467  27.106  1.00  0.00     0.127 S 
ATOM     86  O   UNL A   1      44.417  36.919  27.035  1.00  0.00    -0.237 OA
ATOM     87  O   UNL A   1      46.734  37.434  27.693  1.00  0.00    -0.237 OA
ATOM     88  O   UNL A   1      46.307  35.799  25.912  1.00  0.00    -0.744 OA
ENDBRANCH  82  85
ENDBRANCH  55  78
ENDBRANCH  29  30
ENDBRANCH  22  24
ENDBRANCH  21  22
ENDBRANCH  20  21
ENDBRANCH   1  20
TORSDOF 17
ENDMDL
MODEL 2
REMARK VINA RESULT:     -11.2      4.865      9.960
REMARK SMILES C[C@H]1[C@@H](C(=O)OCCOC(=O)c2ccc(-c3c4nc(c(-c5cccc(S(=O)(=O)[O-])c5F)c5ccc([nH]5)c(-c5cccc(S(=O)(=O)[O-])c5F)c5nc(c(-c6cccc(S(=O)(=O)[O-])c6F)c6ccc3[nH]6)C=C5)C=C4)cc2)CC[N@@H+]1CC1(O)CCCC1
REMARK SMILES IDX 7 1 6 2 4 3 5 4 3 5 1 6 2 7 77 8 75 9 76 10 78 12 79 13
REMARK SMILES IDX 81 14 84 15 82 16 83 17 80 18 8 20 9 21 10 22 11 23 12 24
REMARK SMILES IDX 13 25 74 26 14 27 73 28 15 29 16 30 17 31 67 32 18 33 72 34
REMARK SMILES IDX 66 35 68 36 19 37 71 38 65 39 64 40 20 42 52 43 32 44 51 45
REMARK SMILES IDX 33 46 36 47 50 48 69 49 34 50 35 51 49 53 70 54 37 55 21 56
REMARK SMILES IDX 22 57 30 58 23 59 25 60 31 61 24 62 26 63 27 64 28 65 29 66
REMARK SMILES IDX 53 67 54 68 62 69 55 70 57 71 63 72 56 73 58 74 59 75 60 76
REMARK SMILES IDX 61 77 38 78 39 79 47 80 40 81 42 82 48 83 41 84 43 85 44 86
REMARK SMILES IDX 45 87 46 88
REMARK H PARENT 77 11 80 19 68 41 36 52
REMARK Flexibility Score: inf
ROOT
ATOM      1  C   UNL A   1      32.133  27.752  25.056  1.00  0.00     0.274 C 
ENDROOT
BRANCH   1   2
ATOM      2  O   UNL A   1      31.420  27.085  26.118  1.00  0.00    -0.462 OA
BRANCH   2   3
ATOM      3  C   UNL A   1      30.721  25.978  25.768  1.00  0.00     0.315 C 
ATOM      4  O   UNL A   1      29.586  25.994  25.301  1.00  0.00    -0.252 OA
BRANCH   3   5
ATOM      5  C   UNL A   1      31.493  24.689  25.933  1.00  0.00     0.162 C 
ATOM      6  C   UNL A   1      31.692  24.333  23.369  1.00  0.00     0.076 C 
ATOM      7  C   UNL A   1      32.279  24.099  24.763  1.00  0.00     0.195 C 
ATOM      8  N   UNL A   1      32.273  22.647  24.997  1.00  0.00    -0.330 N 
ATOM      9  C   UNL A   1      30.664  23.548  26.501  1.00  0.00     0.083 C 
ATOM     10  C   UNL A   1      31.034  22.319  25.695  1.00  0.00     0.263 C 
ATOM     11  H   UNL A   1      32.302  22.202  24.080  1.00  0.00     0.348 HD
BRANCH   8  12
ATOM     12  C   UNL A   1      33.483  22.028  25.553  1.00  0.00     0.297 C 
BRANCH  12  13
ATOM     13  C   UNL A   1      34.938  22.476  25.213  1.00  0.00     0.113 C 
ATOM     14  C   UNL A   1      35.192  22.899  23.765  1.00  0.00     0.041 C 
ATOM     15  C   UNL A   1      35.894  21.281  25.373  1.00  0.00     0.041 C 
ATOM     16  C   UNL A   1      36.662  22.576  23.475  1.00  0.00     0.003 C 
ATOM     17  C   UNL A   1      37.145  21.677  24.604  1.00  0.00     0.003 C 
BRANCH  13  18
ATOM     18  O   UNL A   1      35.359  23.507  26.109  1.00  0.00    -0.384 OA
ATOM     19  H   UNL A   1      36.086  24.007  25.707  1.00  0.00     0.211 HD
ENDBRANCH  13  18
ENDBRANCH  12  13
ENDBRANCH   8  12
ENDBRANCH   3   5
ENDBRANCH   2   3
ENDBRANCH   1   2
BRANCH   1  20
ATOM     20  C   UNL A   1      31.903  29.255  25.153  1.00  0.00     0.275 C 
BRANCH  20  21
ATOM     21  O   UNL A   1      33.128  29.900  25.541  1.00  0.00    -0.458 OA
BRANCH  21  22
ATOM     22  C   UNL A   1      33.027  30.741  26.596  1.00  0.00     0.338 C 
ATOM     23  O   UNL A   1      32.086  31.464  26.876  1.00  0.00    -0.246 OA
BRANCH  22  24
ATOM     24  C   UNL A   1      34.254  30.682  27.404  1.00  0.00     0.060 A 
ATOM     25  C   UNL A   1      35.025  31.827  27.630  1.00  0.00     0.016 A 
ATOM     26  C   UNL A   1      34.699  29.434  27.834  1.00  0.00     0.016 A 
ATOM     27  C   UNL A   1      36.284  31.707  28.220  1.00  0.00     0.010 A 
ATOM     28  C   UNL A   1      35.911  29.334  28.514  1.00  0.00     0.010 A 
ATOM     29  C   UNL A   1      36.731  30.463  28.691  1.00  0.00    -0.014 A 
BRANCH  29  30
ATOM     30  C   UNL A   1      38.031  30.298  29.399  1.00  0.00     0.031 A 
ATOM     31  C   UNL A   1      39.078  29.377  28.831  1.00  0.00     0.074 A 
ATOM     32  C   UNL A   1      38.219  30.867  30.605  1.00  0.00     0.049 A 
ATOM     33  N   UNL A   1      40.100  28.821  29.425  1.00  0.00    -0.248 NA
ATOM     34  C   UNL A   1      38.939  29.013  27.411  1.00  0.00     0.031 C 
ATOM     35  C   UNL A   1      37.296  31.792  31.261  1.00  0.00     0.029 A 
ATOM     36  N   UNL A   1      39.234  30.708  31.518  1.00  0.00    -0.354 N 
ATOM     37  C   UNL A   1      40.675  27.977  28.482  1.00  0.00     0.074 A 
ATOM     38  C   UNL A   1      39.904  28.115  27.265  1.00  0.00     0.031 C 
ATOM     39  C   UNL A   1      37.771  32.104  32.476  1.00  0.00     0.029 A 
ATOM     40  C   UNL A   1      38.985  31.336  32.719  1.00  0.00     0.049 A 
ATOM     41  H   UNL A   1      40.055  30.197  31.334  1.00  0.00     0.167 HD
ATOM     42  C   UNL A   1      41.747  27.162  28.623  1.00  0.00     0.034 A 
ATOM     43  C   UNL A   1      39.619  31.254  33.905  1.00  0.00     0.034 A 
ATOM     44  C   UNL A   1      42.551  27.091  29.814  1.00  0.00     0.049 A 
ATOM     45  C   UNL A   1      40.816  30.355  34.032  1.00  0.00     0.074 A 
ATOM     46  C   UNL A   1      43.687  26.334  30.043  1.00  0.00     0.029 A 
ATOM     47  N   UNL A   1      42.314  27.817  30.971  1.00  0.00    -0.354 N 
ATOM     48  N   UNL A   1      41.371  29.590  33.123  1.00  0.00    -0.248 NA
ATOM     49  C   UNL A   1      41.479  30.313  35.343  1.00  0.00     0.031 C 
ATOM     50  C   UNL A   1      44.135  26.603  31.340  1.00  0.00     0.029 A 
ATOM     51  C   UNL A   1      43.285  27.533  31.915  1.00  0.00     0.049 A 
ATOM     52  H   UNL A   1      41.565  28.443  31.101  1.00  0.00     0.167 HD
ATOM     53  C   UNL A   1      42.465  28.998  33.741  1.00  0.00     0.074 A 
ATOM     54  C   UNL A   1      42.504  29.504  35.099  1.00  0.00     0.031 C 
ATOM     55  C   UNL A   1      43.345  28.101  33.236  1.00  0.00     0.034 A 
BRANCH  42  56
ATOM     56  C   UNL A   1      42.142  26.298  27.454  1.00  0.00     0.023 A 
ATOM     57  C   UNL A   1      42.953  26.832  26.434  1.00  0.00     0.012 A 
ATOM     58  C   UNL A   1      41.778  24.937  27.406  1.00  0.00     0.148 A 
ATOM     59  C   UNL A   1      43.379  26.032  25.373  1.00  0.00     0.002 A 
ATOM     60  C   UNL A   1      42.236  24.136  26.365  1.00  0.00     0.091 A 
ATOM     61  F   UNL A   1      40.986  24.451  28.372  1.00  0.00    -0.205 F 
ATOM     62  C   UNL A   1      43.031  24.684  25.345  1.00  0.00     0.022 A 
BRANCH  60  63
ATOM     63  S   UNL A   1      41.900  22.372  26.290  1.00  0.00     0.127 S 
ATOM     64  O   UNL A   1      40.448  22.354  26.128  1.00  0.00    -0.237 OA
ATOM     65  O   UNL A   1      42.650  21.960  25.102  1.00  0.00    -0.237 OA
ATOM     66  O   UNL A   1      42.403  21.819  27.539  1.00  0.00    -0.744 OA
ENDBRANCH  60  63
ENDBRANCH  42  56
BRANCH  43  67
ATOM     67  C   UNL A   1      39.127  32.063  35.055  1.00  0.00     0.023 A 
ATOM     68  C   UNL A   1      38.204  31.492  35.950  1.00  0.00     0.012 A 
ATOM     69  C   UNL A   1      39.625  33.356  35.313  1.00  0.00     0.148 A 
ATOM     70  C   UNL A   1      37.778  32.197  37.077  1.00  0.00     0.002 A 
ATOM     71  C   UNL A   1      39.243  34.028  36.469  1.00  0.00     0.091 A 
ATOM     72  F   UNL A   1      40.485  33.895  34.437  1.00  0.00    -0.205 F 
ATOM     73  C   UNL A   1      38.310  33.455  37.345  1.00  0.00     0.022 A 
BRANCH  71  74
ATOM     74  S   UNL A   1      40.005  35.580  36.960  1.00  0.00     0.127 S 
ATOM     75  O   UNL A   1      39.653  36.453  35.846  1.00  0.00    -0.237 OA
ATOM     76  O   UNL A   1      39.315  35.879  38.218  1.00  0.00    -0.237 OA
ATOM     77  O   UNL A   1      41.421  35.280  37.119  1.00  0.00    -0.744 OA
ENDBRANCH  71  74
ENDBRANCH  43  67
BRANCH  55  78
ATOM     78  C   UNL A   1      44.460  27.636  34.131  1.00  0.00     0.023 A 
ATOM     79  C   UNL A   1      45.628  28.414  34.245  1.00  0.00     0.012 A 
ATOM     80  C   UNL A   1      44.305  26.487  34.931  1.00  0.00     0.148 A 
ATOM     81  C   UNL A   1      46.636  28.045  35.136  1.00  0.00     0.002 A 
ATOM     82  C   UNL A   1      45.297  26.147  35.843  1.00  0.00     0.091 A 
ATOM     83  F   UNL A   1      43.192  25.755  34.788  1.00  0.00    -0.205 F 
ATOM     84  C   UNL A   1      46.466  26.921  35.942  1.00  0.00     0.022 A 
BRANCH  82  85
ATOM     85  S   UNL A   1      45.127  24.766  36.979  1.00  0.00     0.127 S 
ATOM     86  O   UNL A   1      43.995  25.194  37.800  1.00  0.00    -0.237 OA
ATOM     87  O   UNL A   1      44.840  23.653  36.075  1.00  0.00    -0.237 OA
ATOM     88  O   UNL A   1      46.401  24.663  37.678  1.00  0.00    -0.744 OA
ENDBRANCH  82  85
ENDBRANCH  55  78
ENDBRANCH  29  30
ENDBRANCH  22  24
ENDBRANCH  21  22
ENDBRANCH  20  21
ENDBRANCH   1  20
TORSDOF 17
ENDMDL
MODEL 3
REMARK VINA RESULT:     -11.0      5.235     10.082
REMARK SMILES C[C@H]1[C@@H](C(=O)OCCOC(=O)c2ccc(-c3c4nc(c(-c5cccc(S(=O)(=O)[O-])c5F)c5ccc([nH]5)c(-c5cccc(S(=O)(=O)[O-])c5F)c5nc(c(-c6cccc(S(=O)(=O)[O-])c6F)c6ccc3[nH]6)C=C5)C=C4)cc2)CC[N@@H+]1CC1(O)CCCC1
REMARK SMILES IDX 7 1 6 2 4 3 5 4 3 5 1 6 2 7 77 8 75 9 76 10 78 12 79 13
REMARK SMILES IDX 81 14 84 15 82 16 83 17 80 18 8 20 9 21 10 22 11 23 12 24
REMARK SMILES IDX 13 25 74 26 14 27 73 28 15 29 16 30 17 31 67 32 18 33 72 34
REMARK SMILES IDX 66 35 68 36 19 37 71 38 65 39 64 40 20 42 52 43 32 44 51 45
REMARK SMILES IDX 33 46 36 47 50 48 69 49 34 50 35 51 49 53 70 54 37 55 21 56
REMARK SMILES IDX 22 57 30 58 23 59 25 60 31 61 24 62 26 63 27 64 28 65 29 66
REMARK SMILES IDX 53 67 54 68 62 69 55 70 57 71 63 72 56 73 58 74 59 75 60 76
REMARK SMILES IDX 61 77 38 78 39 79 47 80 40 81 42 82 48 83 41 84 43 85 44 86
REMARK SMILES IDX 45 87 46 88
REMARK H PARENT 77 11 80 19 68 41 36 52
REMARK Flexibility Score: inf
ROOT
ATOM      1  C   UNL A   1      31.659  28.448  26.039  1.00  0.00     0.274 C 
ENDROOT
BRANCH   1   2
ATOM      2  O   UNL A   1      31.925  27.870  24.744  1.00  0.00    -0.462 OA
BRANCH   2   3
ATOM      3  C   UNL A   1      31.105  26.865  24.355  1.00  0.00     0.315 C 
ATOM      4  O   UNL A   1      29.894  26.982  24.190  1.00  0.00    -0.252 OA
BRANCH   3   5
ATOM      5  C   UNL A   1      31.823  25.567  24.061  1.00  0.00     0.162 C 
ATOM      6  C   UNL A   1      31.240  24.570  26.385  1.00  0.00     0.076 C 
ATOM      7  C   UNL A   1      31.562  24.324  24.909  1.00  0.00     0.195 C 
ATOM      8  N   UNL A   1      32.818  23.562  24.861  1.00  0.00    -0.330 N 
ATOM      9  C   UNL A   1      33.335  25.711  23.979  1.00  0.00     0.083 C 
ATOM     10  C   UNL A   1      33.910  24.521  24.721  1.00  0.00     0.263 C 
ATOM     11  H   UNL A   1      32.890  23.057  25.745  1.00  0.00     0.348 HD
BRANCH   8  12
ATOM     12  C   UNL A   1      32.893  22.400  23.966  1.00  0.00     0.297 C 
BRANCH  12  13
ATOM     13  C   UNL A   1      32.738  20.919  24.431  1.00  0.00     0.113 C 
ATOM     14  C   UNL A   1      34.026  20.208  24.854  1.00  0.00     0.041 C 
ATOM     15  C   UNL A   1      32.267  20.057  23.247  1.00  0.00     0.041 C 
ATOM     16  C   UNL A   1      33.816  18.722  24.549  1.00  0.00     0.003 C 
ATOM     17  C   UNL A   1      32.586  18.626  23.656  1.00  0.00     0.003 C 
BRANCH  13  18
ATOM     18  O   UNL A   1      31.759  20.826  25.468  1.00  0.00    -0.384 OA
ATOM     19  H   UNL A   1      32.201  20.839  26.331  1.00  0.00     0.211 HD
ENDBRANCH  13  18
ENDBRANCH  12  13
ENDBRANCH   8  12
ENDBRANCH   3   5
ENDBRANCH   2   3
ENDBRANCH   1   2
BRANCH   1  20
ATOM     20  C   UNL A   1      31.776  29.964  25.954  1.00  0.00     0.275 C 
BRANCH  20  21
ATOM     21  O   UNL A   1      33.160  30.341  26.047  1.00  0.00    -0.458 OA
BRANCH  21  22
ATOM     22  C   UNL A   1      33.456  31.200  27.049  1.00  0.00     0.338 C 
ATOM     23  O   UNL A   1      32.759  32.103  27.479  1.00  0.00    -0.246 OA
BRANCH  22  24
ATOM     24  C   UNL A   1      34.795  30.905  27.583  1.00  0.00     0.060 A 
ATOM     25  C   UNL A   1      35.152  29.607  27.963  1.00  0.00     0.016 A 
ATOM     26  C   UNL A   1      35.659  31.973  27.818  1.00  0.00     0.016 A 
ATOM     27  C   UNL A   1      36.345  29.392  28.654  1.00  0.00     0.010 A 
ATOM     28  C   UNL A   1      36.894  31.736  28.417  1.00  0.00     0.010 A 
ATOM     29  C   UNL A   1      37.241  30.449  28.866  1.00  0.00    -0.014 A 
BRANCH  29  30
ATOM     30  C   UNL A   1      38.562  30.256  29.528  1.00  0.00     0.031 A 
ATOM     31  C   UNL A   1      39.559  29.295  28.937  1.00  0.00     0.074 A 
ATOM     32  C   UNL A   1      38.812  30.838  30.717  1.00  0.00     0.049 A 
ATOM     33  N   UNL A   1      40.586  28.718  29.502  1.00  0.00    -0.248 NA
ATOM     34  C   UNL A   1      39.356  28.913  27.529  1.00  0.00     0.031 C 
ATOM     35  C   UNL A   1      37.941  31.800  31.391  1.00  0.00     0.029 A 
ATOM     36  N   UNL A   1      39.855  30.663  31.594  1.00  0.00    -0.354 N 
ATOM     37  C   UNL A   1      41.101  27.843  28.552  1.00  0.00     0.074 A 
ATOM     38  C   UNL A   1      40.289  27.985  27.362  1.00  0.00     0.031 C 
ATOM     39  C   UNL A   1      38.471  32.117  32.582  1.00  0.00     0.029 A 
ATOM     40  C   UNL A   1      39.670  31.316  32.792  1.00  0.00     0.049 A 
ATOM     41  H   UNL A   1      40.653  30.124  31.388  1.00  0.00     0.167 HD
ATOM     42  C   UNL A   1      42.152  26.998  28.667  1.00  0.00     0.034 A 
ATOM     43  C   UNL A   1      40.345  31.233  33.955  1.00  0.00     0.034 A 
ATOM     44  C   UNL A   1      42.998  26.922  29.828  1.00  0.00     0.049 A 
ATOM     45  C   UNL A   1      41.519  30.301  34.054  1.00  0.00     0.074 A 
ATOM     46  C   UNL A   1      44.118  26.134  30.028  1.00  0.00     0.029 A 
ATOM     47  N   UNL A   1      42.825  27.672  30.981  1.00  0.00    -0.354 N 
ATOM     48  N   UNL A   1      42.016  29.506  33.138  1.00  0.00    -0.248 NA
ATOM     49  C   UNL A   1      42.229  30.259  35.339  1.00  0.00     0.031 C 
ATOM     50  C   UNL A   1      44.623  26.410  31.303  1.00  0.00     0.029 A 
ATOM     51  C   UNL A   1      43.823  27.374  31.893  1.00  0.00     0.049 A 
ATOM     52  H   UNL A   1      42.101  28.322  31.129  1.00  0.00     0.167 HD
ATOM     53  C   UNL A   1      43.115  28.891  33.724  1.00  0.00     0.074 A 
ATOM     54  C   UNL A   1      43.219  29.416  35.071  1.00  0.00     0.031 C 
ATOM     55  C   UNL A   1      43.949  27.960  33.202  1.00  0.00     0.034 A 
BRANCH  42  56
ATOM     56  C   UNL A   1      42.478  26.105  27.499  1.00  0.00     0.023 A 
ATOM     57  C   UNL A   1      43.313  26.579  26.469  1.00  0.00     0.012 A 
ATOM     58  C   UNL A   1      42.023  24.771  27.461  1.00  0.00     0.148 A 
ATOM     59  C   UNL A   1      43.674  25.747  25.409  1.00  0.00     0.002 A 
ATOM     60  C   UNL A   1      42.417  23.937  26.419  1.00  0.00     0.091 A 
ATOM     61  F   UNL A   1      41.209  24.343  28.437  1.00  0.00    -0.205 F 
ATOM     62  C   UNL A   1      43.236  24.426  25.390  1.00  0.00     0.022 A 
BRANCH  60  63
ATOM     63  S   UNL A   1      41.962  22.199  26.356  1.00  0.00     0.127 S 
ATOM     64  O   UNL A   1      42.393  21.732  27.672  1.00  0.00    -0.237 OA
ATOM     65  O   UNL A   1      40.511  22.261  26.177  1.00  0.00    -0.237 OA
ATOM     66  O   UNL A   1      42.684  21.642  25.220  1.00  0.00    -0.744 OA
ENDBRANCH  60  63
ENDBRANCH  42  56
BRANCH  43  67
ATOM     67  C   UNL A   1      39.920  32.075  35.110  1.00  0.00     0.023 A 
ATOM     68  C   UNL A   1      40.266  33.438  35.128  1.00  0.00     0.012 A 
ATOM     69  C   UNL A   1      39.112  31.557  36.142  1.00  0.00     0.148 A 
ATOM     70  C   UNL A   1      39.824  34.269  36.158  1.00  0.00     0.002 A 
ATOM     71  C   UNL A   1      38.624  32.403  37.131  1.00  0.00     0.091 A 
ATOM     72  F   UNL A   1      38.812  30.250  36.122  1.00  0.00    -0.205 F 
ATOM     73  C   UNL A   1      38.991  33.756  37.148  1.00  0.00     0.022 A 
BRANCH  71  74
ATOM     74  S   UNL A   1      37.421  31.849  38.346  1.00  0.00     0.127 S 
ATOM     75  O   UNL A   1      38.158  32.012  39.595  1.00  0.00    -0.237 OA
ATOM     76  O   UNL A   1      36.324  32.799  38.149  1.00  0.00    -0.237 OA
ATOM     77  O   UNL A   1      37.096  30.481  37.967  1.00  0.00    -0.744 OA
ENDBRANCH  71  74
ENDBRANCH  43  67
BRANCH  55  78
ATOM     78  C   UNL A   1      45.082  27.476  34.063  1.00  0.00     0.023 A 
ATOM     79  C   UNL A   1      46.331  28.123  33.994  1.00  0.00     0.012 A 
ATOM     80  C   UNL A   1      44.878  26.451  35.006  1.00  0.00     0.148 A 
ATOM     81  C   UNL A   1      47.368  27.745  34.847  1.00  0.00     0.002 A 
ATOM     82  C   UNL A   1      45.904  26.106  35.878  1.00  0.00     0.091 A 
ATOM     83  F   UNL A   1      43.686  25.838  35.037  1.00  0.00    -0.205 F 
ATOM     84  C   UNL A   1      47.152  26.748  35.795  1.00  0.00     0.022 A 
BRANCH  82  85
ATOM     85  S   UNL A   1      45.690  24.891  37.184  1.00  0.00     0.127 S 
ATOM     86  O   UNL A   1      45.783  23.635  36.441  1.00  0.00    -0.237 OA
ATOM     87  O   UNL A   1      46.828  25.170  38.058  1.00  0.00    -0.237 OA
ATOM     88  O   UNL A   1      44.390  25.169  37.780  1.00  0.00    -0.744 OA
ENDBRANCH  82  85
ENDBRANCH  55  78
ENDBRANCH  29  30
ENDBRANCH  22  24
ENDBRANCH  21  22
ENDBRANCH  20  21
ENDBRANCH   1  20
TORSDOF 17
ENDMDL
