MODEL 1
REMARK VINA RESULT:     -13.0      0.000      0.000
REMARK SMILES O=C1O[C@@H](c2ccc(O)c(O)c2)[C@H](C(=O)OCCOC(=O)c2ccc(-c3c4nc(c(-c5cccc(S(=O)(=O)[O-])c5F)c5ccc([nH]5)c(-c5cccc(S(=O)(=O)[O-])c5F)c5nc(c(-c6cccc(S(=O)(=O)[O-])c6F)c6ccc3[nH]6)C=C5)C=C4)cc2)/C1=C\c1ccc(O)c(O)c1
REMARK SMILES IDX 18 1 17 2 16 3 14 4 15 5 13 6 1 7 2 8 3 9 85 10 4 11 86 12
REMARK SMILES IDX 5 13 6 14 12 15 7 16 10 17 8 18 11 19 9 21 87 23 88 24 94 25
REMARK SMILES IDX 89 26 92 27 90 28 93 29 91 31 19 33 20 34 21 35 22 36 23 37
REMARK SMILES IDX 84 38 24 39 83 40 25 41 26 42 27 43 77 44 28 45 82 46 76 47
REMARK SMILES IDX 78 48 29 49 81 50 75 51 74 52 30 54 62 55 42 56 61 57 43 58
REMARK SMILES IDX 46 59 60 60 79 61 44 62 45 63 59 65 80 66 47 67 31 68 32 69
REMARK SMILES IDX 40 70 33 71 35 72 41 73 34 74 36 75 37 76 38 77 39 78 63 79
REMARK SMILES IDX 64 80 72 81 65 82 67 83 73 84 66 85 68 86 69 87 70 88 71 89
REMARK SMILES IDX 48 90 49 91 57 92 50 93 52 94 58 95 51 96 53 97 54 98 55 99
REMARK SMILES IDX 56 100
REMARK H PARENT 11 20 9 22 93 30 91 32 78 53 46 64
REMARK Flexibility Score: inf
ROOT
ATOM      1  C   UNL A   1      31.570  31.432  26.135  1.00  0.00     0.275 C 
ENDROOT
BRANCH   1   2
ATOM      2  C   UNL A   1      31.489  30.078  25.419  1.00  0.00     0.274 C 
BRANCH   2   3
ATOM      3  O   UNL A   1      31.396  28.969  26.344  1.00  0.00    -0.461 OA
BRANCH   3   4
ATOM      4  C   UNL A   1      32.257  27.932  26.129  1.00  0.00     0.318 C 
ATOM      5  O   UNL A   1      33.300  27.772  26.747  1.00  0.00    -0.251 OA
BRANCH   4   6
ATOM      6  C   UNL A   1      31.808  27.083  24.943  1.00  0.00     0.182 C 
ATOM      7  O   UNL A   1      29.789  24.664  26.564  1.00  0.00    -0.247 OA
ATOM      8  C   UNL A   1      30.646  25.275  25.968  1.00  0.00     0.335 C 
ATOM      9  O   UNL A   1      31.977  24.968  25.942  1.00  0.00    -0.453 OA
ATOM     10  C   UNL A   1      30.458  26.473  25.110  1.00  0.00     0.056 C 
ATOM     11  C   UNL A   1      32.657  25.816  24.995  1.00  0.00     0.226 C 
ATOM     12  C   UNL A   1      29.261  26.713  24.546  1.00  0.00     0.020 C 
BRANCH  11  13
ATOM     13  C   UNL A   1      32.813  25.098  23.659  1.00  0.00    -0.002 A 
ATOM     14  C   UNL A   1      32.963  23.699  23.619  1.00  0.00     0.012 A 
ATOM     15  C   UNL A   1      32.795  25.807  22.444  1.00  0.00     0.057 A 
ATOM     16  C   UNL A   1      33.163  23.031  22.408  1.00  0.00     0.050 A 
ATOM     17  C   UNL A   1      32.988  25.134  21.245  1.00  0.00     0.157 A 
ATOM     18  C   UNL A   1      33.185  23.759  21.226  1.00  0.00     0.157 A 
BRANCH  17  19
ATOM     19  O   UNL A   1      32.995  25.843  20.080  1.00  0.00    -0.504 OA
ATOM     20  H   UNL A   1      33.785  26.256  19.788  1.00  0.00     0.293 HD
ENDBRANCH  17  19
BRANCH  18  21
ATOM     21  O   UNL A   1      33.398  23.161  20.015  1.00  0.00    -0.504 OA
ATOM     22  H   UNL A   1      32.839  23.361  19.289  1.00  0.00     0.293 HD
ENDBRANCH  18  21
ENDBRANCH  11  13
BRANCH  12  23
ATOM     23  C   UNL A   1      28.933  27.805  23.622  1.00  0.00    -0.021 A 
ATOM     24  C   UNL A   1      27.638  28.300  23.446  1.00  0.00     0.012 A 
ATOM     25  C   UNL A   1      29.969  28.420  22.925  1.00  0.00     0.058 A 
ATOM     26  C   UNL A   1      27.402  29.378  22.571  1.00  0.00     0.051 A 
ATOM     27  C   UNL A   1      29.734  29.434  22.014  1.00  0.00     0.157 A 
ATOM     28  C   UNL A   1      28.457  29.929  21.850  1.00  0.00     0.157 A 
BRANCH  27  29
ATOM     29  O   UNL A   1      30.780  29.943  21.298  1.00  0.00    -0.504 OA
ATOM     30  H   UNL A   1      31.434  29.367  20.951  1.00  0.00     0.293 HD
ENDBRANCH  27  29
BRANCH  28  31
ATOM     31  O   UNL A   1      28.298  30.971  20.981  1.00  0.00    -0.504 OA
ATOM     32  H   UNL A   1      27.442  31.313  20.813  1.00  0.00     0.293 HD
ENDBRANCH  28  31
ENDBRANCH  12  23
ENDBRANCH   4   6
ENDBRANCH   3   4
ENDBRANCH   2   3
ENDBRANCH   1   2
BRANCH   1  33
ATOM     33  O   UNL A   1      32.229  31.335  27.416  1.00  0.00    -0.458 OA
BRANCH  33  34
ATOM     34  C   UNL A   1      33.145  32.309  27.608  1.00  0.00     0.338 C 
ATOM     35  O   UNL A   1      32.882  33.480  27.846  1.00  0.00    -0.246 OA
BRANCH  34  36
ATOM     36  C   UNL A   1      34.538  31.823  27.607  1.00  0.00     0.060 A 
ATOM     37  C   UNL A   1      34.740  30.475  27.895  1.00  0.00     0.016 A 
ATOM     38  C   UNL A   1      35.580  32.738  27.795  1.00  0.00     0.016 A 
ATOM     39  C   UNL A   1      35.910  30.082  28.547  1.00  0.00     0.010 A 
ATOM     40  C   UNL A   1      36.800  32.309  28.348  1.00  0.00     0.010 A 
ATOM     41  C   UNL A   1      36.958  30.990  28.802  1.00  0.00    -0.014 A 
BRANCH  41  42
ATOM     42  C   UNL A   1      38.180  30.539  29.548  1.00  0.00     0.031 A 
ATOM     43  C   UNL A   1      39.187  29.557  28.974  1.00  0.00     0.074 A 
ATOM     44  C   UNL A   1      38.415  31.054  30.771  1.00  0.00     0.049 A 
ATOM     45  N   UNL A   1      40.227  28.997  29.550  1.00  0.00    -0.248 NA
ATOM     46  C   UNL A   1      39.020  29.158  27.571  1.00  0.00     0.031 C 
ATOM     47  C   UNL A   1      37.557  32.027  31.450  1.00  0.00     0.029 A 
ATOM     48  N   UNL A   1      39.433  30.830  31.664  1.00  0.00    -0.354 N 
ATOM     49  C   UNL A   1      40.802  28.154  28.598  1.00  0.00     0.074 A 
ATOM     50  C   UNL A   1      40.008  28.289  27.396  1.00  0.00     0.031 C 
ATOM     51  C   UNL A   1      38.093  32.339  32.632  1.00  0.00     0.029 A 
ATOM     52  C   UNL A   1      39.252  31.488  32.857  1.00  0.00     0.049 A 
ATOM     53  H   UNL A   1      40.211  30.259  31.470  1.00  0.00     0.167 HD
ATOM     54  C   UNL A   1      41.885  27.343  28.714  1.00  0.00     0.034 A 
ATOM     55  C   UNL A   1      39.880  31.370  34.041  1.00  0.00     0.034 A 
ATOM     56  C   UNL A   1      42.695  27.236  29.903  1.00  0.00     0.049 A 
ATOM     57  C   UNL A   1      41.028  30.424  34.171  1.00  0.00     0.074 A 
ATOM     58  C   UNL A   1      43.829  26.464  30.108  1.00  0.00     0.029 A 
ATOM     59  N   UNL A   1      42.460  27.912  31.089  1.00  0.00    -0.354 N 
ATOM     60  N   UNL A   1      41.564  29.652  33.259  1.00  0.00    -0.248 NA
ATOM     61  C   UNL A   1      41.668  30.344  35.489  1.00  0.00     0.031 C 
ATOM     62  C   UNL A   1      44.257  26.650  31.428  1.00  0.00     0.029 A 
ATOM     63  C   UNL A   1      43.412  27.564  32.035  1.00  0.00     0.049 A 
ATOM     64  H   UNL A   1      41.723  28.548  31.239  1.00  0.00     0.167 HD
ATOM     65  C   UNL A   1      42.616  29.002  33.886  1.00  0.00     0.074 A 
ATOM     66  C   UNL A   1      42.658  29.494  35.249  1.00  0.00     0.031 C 
ATOM     67  C   UNL A   1      43.462  28.071  33.381  1.00  0.00     0.034 A 
BRANCH  54  68
ATOM     68  C   UNL A   1      42.296  26.496  27.527  1.00  0.00     0.023 A 
ATOM     69  C   UNL A   1      43.204  27.008  26.579  1.00  0.00     0.012 A 
ATOM     70  C   UNL A   1      41.895  25.145  27.431  1.00  0.00     0.148 A 
ATOM     71  C   UNL A   1      43.694  26.199  25.550  1.00  0.00     0.002 A 
ATOM     72  C   UNL A   1      42.416  24.334  26.425  1.00  0.00     0.091 A 
ATOM     73  F   UNL A   1      41.023  24.672  28.333  1.00  0.00    -0.205 F 
ATOM     74  C   UNL A   1      43.311  24.861  25.482  1.00  0.00     0.022 A 
BRANCH  72  75
ATOM     75  S   UNL A   1      42.049  22.577  26.304  1.00  0.00     0.127 S 
ATOM     76  O   UNL A   1      42.743  22.216  25.068  1.00  0.00    -0.237 OA
ATOM     77  O   UNL A   1      42.663  22.047  27.522  1.00  0.00    -0.237 OA
ATOM     78  O   UNL A   1      40.598  22.471  26.260  1.00  0.00    -0.744 OA
ENDBRANCH  72  75
ENDBRANCH  54  68
BRANCH  55  79
ATOM     79  C   UNL A   1      39.364  32.158  35.194  1.00  0.00     0.023 A 
ATOM     80  C   UNL A   1      38.562  31.537  36.166  1.00  0.00     0.012 A 
ATOM     81  C   UNL A   1      39.791  33.488  35.393  1.00  0.00     0.148 A 
ATOM     82  C   UNL A   1      38.202  32.227  37.324  1.00  0.00     0.002 A 
ATOM     83  C   UNL A   1      39.497  34.138  36.584  1.00  0.00     0.091 A 
ATOM     84  F   UNL A   1      40.532  34.069  34.438  1.00  0.00    -0.205 F 
ATOM     85  C   UNL A   1      38.689  33.515  37.544  1.00  0.00     0.022 A 
BRANCH  83  86
ATOM     86  S   UNL A   1      40.261  35.705  37.014  1.00  0.00     0.127 S 
ATOM     87  O   UNL A   1      39.727  36.593  35.986  1.00  0.00    -0.237 OA
ATOM     88  O   UNL A   1      39.742  35.942  38.363  1.00  0.00    -0.237 OA
ATOM     89  O   UNL A   1      41.697  35.464  36.967  1.00  0.00    -0.744 OA
ENDBRANCH  83  86
ENDBRANCH  55  79
BRANCH  67  90
ATOM     90  C   UNL A   1      44.520  27.539  34.308  1.00  0.00     0.023 A 
ATOM     91  C   UNL A   1      45.770  28.187  34.388  1.00  0.00     0.012 A 
ATOM     92  C   UNL A   1      44.277  26.404  35.105  1.00  0.00     0.148 A 
ATOM     93  C   UNL A   1      46.777  27.685  35.209  1.00  0.00     0.002 A 
ATOM     94  C   UNL A   1      45.270  25.937  35.957  1.00  0.00     0.091 A 
ATOM     95  F   UNL A   1      43.089  25.790  35.001  1.00  0.00    -0.205 F 
ATOM     96  C   UNL A   1      46.526  26.566  35.999  1.00  0.00     0.022 A 
BRANCH  94  97
ATOM     97  S   UNL A   1      45.006  24.551  37.069  1.00  0.00     0.127 S 
ATOM     98  O   UNL A   1      46.280  24.494  37.783  1.00  0.00    -0.237 OA
ATOM     99  O   UNL A   1      43.875  25.010  37.877  1.00  0.00    -0.237 OA
ATOM    100  O   UNL A   1      44.711  23.407  36.217  1.00  0.00    -0.744 OA
ENDBRANCH  94  97
ENDBRANCH  67  90
ENDBRANCH  41  42
ENDBRANCH  34  36
ENDBRANCH  33  34
ENDBRANCH   1  33
TORSDOF 20
ENDMDL
MODEL 2
REMARK VINA RESULT:     -12.9      5.197     10.373
REMARK SMILES O=C1O[C@@H](c2ccc(O)c(O)c2)[C@H](C(=O)OCCOC(=O)c2ccc(-c3c4nc(c(-c5cccc(S(=O)(=O)[O-])c5F)c5ccc([nH]5)c(-c5cccc(S(=O)(=O)[O-])c5F)c5nc(c(-c6cccc(S(=O)(=O)[O-])c6F)c6ccc3[nH]6)C=C5)C=C4)cc2)/C1=C\c1ccc(O)c(O)c1
REMARK SMILES IDX 18 1 17 2 16 3 14 4 15 5 13 6 1 7 2 8 3 9 85 10 4 11 86 12
REMARK SMILES IDX 5 13 6 14 12 15 7 16 10 17 8 18 11 19 9 21 87 23 88 24 94 25
REMARK SMILES IDX 89 26 92 27 90 28 93 29 91 31 19 33 20 34 21 35 22 36 23 37
REMARK SMILES IDX 84 38 24 39 83 40 25 41 26 42 27 43 77 44 28 45 82 46 76 47
REMARK SMILES IDX 78 48 29 49 81 50 75 51 74 52 30 54 62 55 42 56 61 57 43 58
REMARK SMILES IDX 46 59 60 60 79 61 44 62 45 63 59 65 80 66 47 67 31 68 32 69
REMARK SMILES IDX 40 70 33 71 35 72 41 73 34 74 36 75 37 76 38 77 39 78 63 79
REMARK SMILES IDX 64 80 72 81 65 82 67 83 73 84 66 85 68 86 69 87 70 88 71 89
REMARK SMILES IDX 48 90 49 91 57 92 50 93 52 94 58 95 51 96 53 97 54 98 55 99
REMARK SMILES IDX 56 100
REMARK H PARENT 11 20 9 22 93 30 91 32 78 53 46 64
REMARK Flexibility Score: inf
ROOT
ATOM      1  C   UNL A   1      37.820  20.152  25.026  1.00  0.00     0.275 C 
ENDROOT
BRANCH   1   2
ATOM      2  C   UNL A   1      36.357  20.611  25.086  1.00  0.00     0.274 C 
BRANCH   2   3
ATOM      3  O   UNL A   1      36.097  21.742  24.222  1.00  0.00    -0.461 OA
BRANCH   3   4
ATOM      4  C   UNL A   1      35.559  22.845  24.819  1.00  0.00     0.318 C 
ATOM      5  O   UNL A   1      36.217  23.687  25.414  1.00  0.00    -0.251 OA
BRANCH   4   6
ATOM      6  C   UNL A   1      34.035  22.816  24.751  1.00  0.00     0.182 C 
ATOM      7  O   UNL A   1      33.475  24.103  21.498  1.00  0.00    -0.247 OA
ATOM      8  C   UNL A   1      33.555  23.903  22.688  1.00  0.00     0.335 C 
ATOM      9  O   UNL A   1      33.696  24.861  23.652  1.00  0.00    -0.453 OA
ATOM     10  C   UNL A   1      33.493  22.591  23.381  1.00  0.00     0.056 C 
ATOM     11  C   UNL A   1      33.584  24.260  24.958  1.00  0.00     0.226 C 
ATOM     12  C   UNL A   1      32.880  21.549  22.791  1.00  0.00     0.020 C 
BRANCH  11  13
ATOM     13  C   UNL A   1      32.164  24.414  25.492  1.00  0.00    -0.002 A 
ATOM     14  C   UNL A   1      31.425  25.578  25.213  1.00  0.00     0.012 A 
ATOM     15  C   UNL A   1      31.558  23.400  26.255  1.00  0.00     0.057 A 
ATOM     16  C   UNL A   1      30.142  25.760  25.740  1.00  0.00     0.050 A 
ATOM     17  C   UNL A   1      30.283  23.587  26.769  1.00  0.00     0.157 A 
ATOM     18  C   UNL A   1      29.584  24.762  26.527  1.00  0.00     0.157 A 
BRANCH  17  19
ATOM     19  O   UNL A   1      29.724  22.603  27.532  1.00  0.00    -0.504 OA
ATOM     20  H   UNL A   1      29.073  22.037  27.163  1.00  0.00     0.293 HD
ENDBRANCH  17  19
BRANCH  18  21
ATOM     21  O   UNL A   1      28.343  24.895  27.086  1.00  0.00    -0.504 OA
ATOM     22  H   UNL A   1      27.919  25.731  27.091  1.00  0.00     0.293 HD
ENDBRANCH  18  21
ENDBRANCH  11  13
BRANCH  12  23
ATOM     23  C   UNL A   1      32.672  20.216  23.369  1.00  0.00    -0.021 A 
ATOM     24  C   UNL A   1      32.327  19.095  22.610  1.00  0.00     0.012 A 
ATOM     25  C   UNL A   1      32.882  20.043  24.735  1.00  0.00     0.058 A 
ATOM     26  C   UNL A   1      32.182  17.836  23.226  1.00  0.00     0.051 A 
ATOM     27  C   UNL A   1      32.675  18.825  25.356  1.00  0.00     0.157 A 
ATOM     28  C   UNL A   1      32.346  17.716  24.604  1.00  0.00     0.157 A 
BRANCH  27  29
ATOM     29  O   UNL A   1      32.816  18.735  26.711  1.00  0.00    -0.504 OA
ATOM     30  H   UNL A   1      33.669  18.639  27.088  1.00  0.00     0.293 HD
ENDBRANCH  27  29
BRANCH  28  31
ATOM     31  O   UNL A   1      32.214  16.529  25.265  1.00  0.00    -0.504 OA
ATOM     32  H   UNL A   1      32.801  15.822  25.080  1.00  0.00     0.293 HD
ENDBRANCH  28  31
ENDBRANCH  12  23
ENDBRANCH   4   6
ENDBRANCH   3   4
ENDBRANCH   2   3
ENDBRANCH   1   2
BRANCH   1  33
ATOM     33  O   UNL A   1      38.743  21.260  25.077  1.00  0.00    -0.458 OA
BRANCH  33  34
ATOM     34  C   UNL A   1      39.697  21.103  26.019  1.00  0.00     0.338 C 
ATOM     35  O   UNL A   1      40.478  20.163  26.075  1.00  0.00    -0.246 OA
BRANCH  34  36
ATOM     36  C   UNL A   1      39.800  22.238  26.956  1.00  0.00     0.060 A 
ATOM     37  C   UNL A   1      39.179  23.428  26.582  1.00  0.00     0.016 A 
ATOM     38  C   UNL A   1      40.844  22.262  27.887  1.00  0.00     0.016 A 
ATOM     39  C   UNL A   1      39.727  24.645  26.991  1.00  0.00     0.010 A 
ATOM     40  C   UNL A   1      41.315  23.491  28.383  1.00  0.00     0.010 A 
ATOM     41  C   UNL A   1      40.815  24.705  27.886  1.00  0.00    -0.014 A 
BRANCH  41  42
ATOM     42  C   UNL A   1      41.406  26.032  28.263  1.00  0.00     0.031 A 
ATOM     43  C   UNL A   1      40.612  27.128  28.952  1.00  0.00     0.074 A 
ATOM     44  C   UNL A   1      42.712  26.250  28.011  1.00  0.00     0.049 A 
ATOM     45  N   UNL A   1      40.966  28.362  29.236  1.00  0.00    -0.248 NA
ATOM     46  C   UNL A   1      39.250  26.803  29.393  1.00  0.00     0.031 C 
ATOM     47  C   UNL A   1      43.617  25.288  27.379  1.00  0.00     0.029 A 
ATOM     48  N   UNL A   1      43.505  27.347  28.245  1.00  0.00    -0.354 N 
ATOM     49  C   UNL A   1      39.861  28.963  29.841  1.00  0.00     0.074 A 
ATOM     50  C   UNL A   1      38.828  27.953  29.905  1.00  0.00     0.031 C 
ATOM     51  C   UNL A   1      44.840  25.818  27.301  1.00  0.00     0.029 A 
ATOM     52  C   UNL A   1      44.777  27.203  27.745  1.00  0.00     0.049 A 
ATOM     53  H   UNL A   1      43.195  28.151  28.720  1.00  0.00     0.167 HD
ATOM     54  C   UNL A   1      39.720  30.234  30.299  1.00  0.00     0.034 A 
ATOM     55  C   UNL A   1      45.769  28.094  27.570  1.00  0.00     0.034 A 
ATOM     56  C   UNL A   1      40.764  31.229  30.265  1.00  0.00     0.049 A 
ATOM     57  C   UNL A   1      45.575  29.505  28.018  1.00  0.00     0.074 A 
ATOM     58  C   UNL A   1      40.727  32.534  30.730  1.00  0.00     0.029 A 
ATOM     59  N   UNL A   1      42.029  31.036  29.735  1.00  0.00    -0.354 N 
ATOM     60  N   UNL A   1      44.534  30.046  28.601  1.00  0.00    -0.248 NA
ATOM     61  C   UNL A   1      46.696  30.425  27.798  1.00  0.00     0.031 C 
ATOM     62  C   UNL A   1      41.958  33.139  30.450  1.00  0.00     0.029 A 
ATOM     63  C   UNL A   1      42.775  32.200  29.842  1.00  0.00     0.049 A 
ATOM     64  H   UNL A   1      42.353  30.194  29.339  1.00  0.00     0.167 HD
ATOM     65  C   UNL A   1      44.878  31.369  28.833  1.00  0.00     0.074 A 
ATOM     66  C   UNL A   1      46.235  31.539  28.352  1.00  0.00     0.031 C 
ATOM     67  C   UNL A   1      44.130  32.358  29.382  1.00  0.00     0.034 A 
BRANCH  54  68
ATOM     68  C   UNL A   1      38.394  30.653  30.899  1.00  0.00     0.023 A 
ATOM     69  C   UNL A   1      38.171  30.508  32.283  1.00  0.00     0.012 A 
ATOM     70  C   UNL A   1      37.426  31.321  30.116  1.00  0.00     0.148 A 
ATOM     71  C   UNL A   1      37.008  31.007  32.874  1.00  0.00     0.002 A 
ATOM     72  C   UNL A   1      36.287  31.848  30.718  1.00  0.00     0.091 A 
ATOM     73  F   UNL A   1      37.645  31.443  28.799  1.00  0.00    -0.205 F 
ATOM     74  C   UNL A   1      36.073  31.687  32.096  1.00  0.00     0.022 A 
BRANCH  72  75
ATOM     75  S   UNL A   1      35.066  32.814  29.815  1.00  0.00     0.127 S 
ATOM     76  O   UNL A   1      35.897  33.861  29.224  1.00  0.00    -0.237 OA
ATOM     77  O   UNL A   1      34.547  31.838  28.856  1.00  0.00    -0.237 OA
ATOM     78  O   UNL A   1      34.098  33.266  30.804  1.00  0.00    -0.744 OA
ENDBRANCH  72  75
ENDBRANCH  54  68
BRANCH  55  79
ATOM     79  C   UNL A   1      47.011  27.641  26.885  1.00  0.00     0.023 A 
ATOM     80  C   UNL A   1      47.917  26.801  27.555  1.00  0.00     0.012 A 
ATOM     81  C   UNL A   1      47.215  27.933  25.520  1.00  0.00     0.148 A 
ATOM     82  C   UNL A   1      49.002  26.251  26.871  1.00  0.00     0.002 A 
ATOM     83  C   UNL A   1      48.249  27.317  24.828  1.00  0.00     0.091 A 
ATOM     84  F   UNL A   1      46.354  28.760  24.909  1.00  0.00    -0.205 F 
ATOM     85  C   UNL A   1      49.153  26.488  25.506  1.00  0.00     0.022 A 
BRANCH  83  86
ATOM     86  S   UNL A   1      48.375  27.416  23.039  1.00  0.00     0.127 S 
ATOM     87  O   UNL A   1      49.668  28.069  22.863  1.00  0.00    -0.237 OA
ATOM     88  O   UNL A   1      48.339  26.005  22.649  1.00  0.00    -0.237 OA
ATOM     89  O   UNL A   1      47.209  28.178  22.609  1.00  0.00    -0.744 OA
ENDBRANCH  83  86
ENDBRANCH  55  79
BRANCH  67  90
ATOM     90  C   UNL A   1      44.778  33.709  29.510  1.00  0.00     0.023 A 
ATOM     91  C   UNL A   1      45.438  34.058  30.706  1.00  0.00     0.012 A 
ATOM     92  C   UNL A   1      44.738  34.631  28.447  1.00  0.00     0.148 A 
ATOM     93  C   UNL A   1      46.007  35.321  30.859  1.00  0.00     0.002 A 
ATOM     94  C   UNL A   1      45.349  35.871  28.589  1.00  0.00     0.091 A 
ATOM     95  F   UNL A   1      44.088  34.289  27.325  1.00  0.00    -0.205 F 
ATOM     96  C   UNL A   1      45.970  36.224  29.799  1.00  0.00     0.022 A 
BRANCH  94  97
ATOM     97  S   UNL A   1      45.419  37.065  27.249  1.00  0.00     0.127 S 
ATOM     98  O   UNL A   1      44.002  37.317  26.998  1.00  0.00    -0.237 OA
ATOM     99  O   UNL A   1      46.138  38.182  27.864  1.00  0.00    -0.237 OA
ATOM    100  O   UNL A   1      46.142  36.409  26.168  1.00  0.00    -0.744 OA
ENDBRANCH  94  97
ENDBRANCH  67  90
ENDBRANCH  41  42
ENDBRANCH  34  36
ENDBRANCH  33  34
ENDBRANCH   1  33
TORSDOF 20
ENDMDL
MODEL 3
REMARK VINA RESULT:     -12.7      5.186      8.531
REMARK SMILES O=C1O[C@@H](c2ccc(O)c(O)c2)[C@H](C(=O)OCCOC(=O)c2ccc(-c3c4nc(c(-c5cccc(S(=O)(=O)[O-])c5F)c5ccc([nH]5)c(-c5cccc(S(=O)(=O)[O-])c5F)c5nc(c(-c6cccc(S(=O)(=O)[O-])c6F)c6ccc3[nH]6)C=C5)C=C4)cc2)/C1=C\c1ccc(O)c(O)c1
REMARK SMILES IDX 18 1 17 2 16 3 14 4 15 5 13 6 1 7 2 8 3 9 85 10 4 11 86 12
REMARK SMILES IDX 5 13 6 14 12 15 7 16 10 17 8 18 11 19 9 21 87 23 88 24 94 25
REMARK SMILES IDX 89 26 92 27 90 28 93 29 91 31 19 33 20 34 21 35 22 36 23 37
REMARK SMILES IDX 84 38 24 39 83 40 25 41 26 42 27 43 77 44 28 45 82 46 76 47
REMARK SMILES IDX 78 48 29 49 81 50 75 51 74 52 30 54 62 55 42 56 61 57 43 58
REMARK SMILES IDX 46 59 60 60 79 61 44 62 45 63 59 65 80 66 47 67 31 68 32 69
REMARK SMILES IDX 40 70 33 71 35 72 41 73 34 74 36 75 37 76 38 77 39 78 63 79
REMARK SMILES IDX 64 80 72 81 65 82 67 83 73 84 66 85 68 86 69 87 70 88 71 89
REMARK SMILES IDX 48 90 49 91 57 92 50 93 52 94 58 95 51 96 53 97 54 98 55 99
REMARK SMILES IDX 56 100
REMARK H PARENT 11 20 9 22 93 30 91 32 78 53 46 64
REMARK Flexibility Score: inf
ROOT
ATOM      1  C   UNL A   1      37.737  19.937  25.030  1.00  0.00     0.275 C 
ENDROOT
BRANCH   1   2
ATOM      2  C   UNL A   1      36.424  20.721  25.157  1.00  0.00     0.274 C 
BRANCH   2   3
ATOM      3  O   UNL A   1      36.299  21.754  24.152  1.00  0.00    -0.461 OA
BRANCH   3   4
ATOM      4  C   UNL A   1      35.741  22.930  24.565  1.00  0.00     0.318 C 
ATOM      5  O   UNL A   1      36.390  23.906  24.913  1.00  0.00    -0.251 OA
BRANCH   4   6
ATOM      6  C   UNL A   1      34.222  22.816  24.650  1.00  0.00     0.182 C 
ATOM      7  O   UNL A   1      33.309  23.372  21.271  1.00  0.00    -0.247 OA
ATOM      8  C   UNL A   1      33.501  23.427  22.464  1.00  0.00     0.335 C 
ATOM      9  O   UNL A   1      33.658  24.570  23.197  1.00  0.00    -0.453 OA
ATOM     10  C   UNL A   1      33.583  22.286  23.411  1.00  0.00     0.056 C 
ATOM     11  C   UNL A   1      33.696  24.248  24.602  1.00  0.00     0.226 C 
ATOM     12  C   UNL A   1      32.993  21.117  23.106  1.00  0.00     0.020 C 
BRANCH  11  13
ATOM     13  C   UNL A   1      32.319  24.442  25.227  1.00  0.00    -0.002 A 
ATOM     14  C   UNL A   1      31.548  25.576  24.905  1.00  0.00     0.012 A 
ATOM     15  C   UNL A   1      31.782  23.496  26.118  1.00  0.00     0.057 A 
ATOM     16  C   UNL A   1      30.307  25.798  25.510  1.00  0.00     0.050 A 
ATOM     17  C   UNL A   1      30.547  23.722  26.709  1.00  0.00     0.157 A 
ATOM     18  C   UNL A   1      29.820  24.870  26.420  1.00  0.00     0.157 A 
BRANCH  17  19
ATOM     19  O   UNL A   1      30.056  22.805  27.592  1.00  0.00    -0.504 OA
ATOM     20  H   UNL A   1      29.953  23.034  28.496  1.00  0.00     0.293 HD
ENDBRANCH  17  19
BRANCH  18  21
ATOM     21  O   UNL A   1      28.624  25.046  27.058  1.00  0.00    -0.504 OA
ATOM     22  H   UNL A   1      27.900  25.425  26.599  1.00  0.00     0.293 HD
ENDBRANCH  18  21
ENDBRANCH  11  13
BRANCH  12  23
ATOM     23  C   UNL A   1      32.922  19.925  23.958  1.00  0.00    -0.021 A 
ATOM     24  C   UNL A   1      32.827  19.980  25.351  1.00  0.00     0.012 A 
ATOM     25  C   UNL A   1      32.890  18.673  23.349  1.00  0.00     0.058 A 
ATOM     26  C   UNL A   1      32.722  18.794  26.104  1.00  0.00     0.051 A 
ATOM     27  C   UNL A   1      32.856  17.503  24.086  1.00  0.00     0.157 A 
ATOM     28  C   UNL A   1      32.751  17.560  25.461  1.00  0.00     0.157 A 
BRANCH  27  29
ATOM     29  O   UNL A   1      32.911  16.303  23.437  1.00  0.00    -0.504 OA
ATOM     30  H   UNL A   1      33.629  16.112  22.866  1.00  0.00     0.293 HD
ENDBRANCH  27  29
BRANCH  28  31
ATOM     31  O   UNL A   1      32.659  16.373  26.130  1.00  0.00    -0.504 OA
ATOM     32  H   UNL A   1      31.945  15.791  25.956  1.00  0.00     0.293 HD
ENDBRANCH  28  31
ENDBRANCH  12  23
ENDBRANCH   4   6
ENDBRANCH   3   4
ENDBRANCH   2   3
ENDBRANCH   1   2
BRANCH   1  33
ATOM     33  O   UNL A   1      38.890  20.805  24.993  1.00  0.00    -0.458 OA
BRANCH  33  34
ATOM     34  C   UNL A   1      39.700  20.644  26.062  1.00  0.00     0.338 C 
ATOM     35  O   UNL A   1      40.330  19.627  26.316  1.00  0.00    -0.246 OA
BRANCH  34  36
ATOM     36  C   UNL A   1      39.853  21.863  26.880  1.00  0.00     0.060 A 
ATOM     37  C   UNL A   1      39.163  22.999  26.460  1.00  0.00     0.016 A 
ATOM     38  C   UNL A   1      40.977  21.996  27.701  1.00  0.00     0.016 A 
ATOM     39  C   UNL A   1      39.709  24.260  26.705  1.00  0.00     0.010 A 
ATOM     40  C   UNL A   1      41.454  23.276  28.037  1.00  0.00     0.010 A 
ATOM     41  C   UNL A   1      40.873  24.428  27.483  1.00  0.00    -0.014 A 
BRANCH  41  42
ATOM     42  C   UNL A   1      41.454  25.796  27.682  1.00  0.00     0.031 A 
ATOM     43  C   UNL A   1      42.843  26.185  27.206  1.00  0.00     0.074 A 
ATOM     44  C   UNL A   1      40.697  26.737  28.280  1.00  0.00     0.049 A 
ATOM     45  N   UNL A   1      43.513  27.297  27.407  1.00  0.00    -0.248 NA
ATOM     46  C   UNL A   1      43.575  25.211  26.386  1.00  0.00     0.031 C 
ATOM     47  C   UNL A   1      39.334  26.529  28.771  1.00  0.00     0.029 A 
ATOM     48  N   UNL A   1      40.963  28.049  28.586  1.00  0.00    -0.354 N 
ATOM     49  C   UNL A   1      44.751  27.134  26.783  1.00  0.00     0.074 A 
ATOM     50  C   UNL A   1      44.735  25.823  26.174  1.00  0.00     0.031 C 
ATOM     51  C   UNL A   1      38.871  27.670  29.288  1.00  0.00     0.029 A 
ATOM     52  C   UNL A   1      39.949  28.649  29.293  1.00  0.00     0.049 A 
ATOM     53  H   UNL A   1      41.792  28.511  28.327  1.00  0.00     0.167 HD
ATOM     54  C   UNL A   1      45.801  27.994  26.723  1.00  0.00     0.034 A 
ATOM     55  C   UNL A   1      39.899  29.817  29.958  1.00  0.00     0.034 A 
ATOM     56  C   UNL A   1      45.801  29.316  27.302  1.00  0.00     0.049 A 
ATOM     57  C   UNL A   1      41.086  30.723  29.939  1.00  0.00     0.074 A 
ATOM     58  C   UNL A   1      46.805  30.271  27.269  1.00  0.00     0.029 A 
ATOM     59  N   UNL A   1      44.754  29.870  28.020  1.00  0.00    -0.354 N 
ATOM     60  N   UNL A   1      42.235  30.559  29.331  1.00  0.00    -0.248 NA
ATOM     61  C   UNL A   1      40.966  31.981  30.683  1.00  0.00     0.031 C 
ATOM     62  C   UNL A   1      46.376  31.388  27.997  1.00  0.00     0.029 A 
ATOM     63  C   UNL A   1      45.092  31.143  28.453  1.00  0.00     0.049 A 
ATOM     64  H   UNL A   1      43.894  29.424  28.198  1.00  0.00     0.167 HD
ATOM     65  C   UNL A   1      42.973  31.700  29.606  1.00  0.00     0.074 A 
ATOM     66  C   UNL A   1      42.128  32.559  30.413  1.00  0.00     0.031 C 
ATOM     67  C   UNL A   1      44.242  32.002  29.236  1.00  0.00     0.034 A 
BRANCH  54  68
ATOM     68  C   UNL A   1      47.059  27.565  25.997  1.00  0.00     0.023 A 
ATOM     69  C   UNL A   1      47.997  26.738  26.647  1.00  0.00     0.012 A 
ATOM     70  C   UNL A   1      47.240  27.861  24.628  1.00  0.00     0.148 A 
ATOM     71  C   UNL A   1      49.098  26.227  25.955  1.00  0.00     0.002 A 
ATOM     72  C   UNL A   1      48.319  27.317  23.935  1.00  0.00     0.091 A 
ATOM     73  F   UNL A   1      46.346  28.657  24.024  1.00  0.00    -0.205 F 
ATOM     74  C   UNL A   1      49.251  26.505  24.598  1.00  0.00     0.022 A 
BRANCH  72  75
ATOM     75  S   UNL A   1      48.556  27.549  22.167  1.00  0.00     0.127 S 
ATOM     76  O   UNL A   1      48.803  26.179  21.720  1.00  0.00    -0.237 OA
ATOM     77  O   UNL A   1      47.266  28.100  21.750  1.00  0.00    -0.237 OA
ATOM     78  O   UNL A   1      49.680  28.464  22.027  1.00  0.00    -0.744 OA
ENDBRANCH  72  75
ENDBRANCH  54  68
BRANCH  55  79
ATOM     79  C   UNL A   1      38.669  30.136  30.733  1.00  0.00     0.023 A 
ATOM     80  C   UNL A   1      38.617  29.864  32.112  1.00  0.00     0.012 A 
ATOM     81  C   UNL A   1      37.607  30.838  30.124  1.00  0.00     0.148 A 
ATOM     82  C   UNL A   1      37.530  30.297  32.872  1.00  0.00     0.002 A 
ATOM     83  C   UNL A   1      36.571  31.335  30.902  1.00  0.00     0.091 A 
ATOM     84  F   UNL A   1      37.665  31.060  28.803  1.00  0.00    -0.205 F 
ATOM     85  C   UNL A   1      36.522  31.052  32.274  1.00  0.00     0.022 A 
BRANCH  83  86
ATOM     86  S   UNL A   1      35.360  32.482  30.235  1.00  0.00     0.127 S 
ATOM     87  O   UNL A   1      36.188  33.638  29.907  1.00  0.00    -0.237 OA
ATOM     88  O   UNL A   1      34.843  31.747  29.079  1.00  0.00    -0.237 OA
ATOM     89  O   UNL A   1      34.381  32.676  31.297  1.00  0.00    -0.744 OA
ENDBRANCH  83  86
ENDBRANCH  55  79
BRANCH  67  90
ATOM     90  C   UNL A   1      44.784  33.330  29.685  1.00  0.00     0.023 A 
ATOM     91  C   UNL A   1      45.518  33.415  30.887  1.00  0.00     0.012 A 
ATOM     92  C   UNL A   1      44.574  34.492  28.919  1.00  0.00     0.148 A 
ATOM     93  C   UNL A   1      45.991  34.644  31.342  1.00  0.00     0.002 A 
ATOM     94  C   UNL A   1      45.090  35.706  29.355  1.00  0.00     0.091 A 
ATOM     95  F   UNL A   1      43.857  34.395  27.790  1.00  0.00    -0.205 F 
ATOM     96  C   UNL A   1      45.785  35.787  30.574  1.00  0.00     0.022 A 
BRANCH  94  97
ATOM     97  S   UNL A   1      44.941  37.214  28.391  1.00  0.00     0.127 S 
ATOM     98  O   UNL A   1      45.507  36.805  27.107  1.00  0.00    -0.237 OA
ATOM     99  O   UNL A   1      43.494  37.434  28.377  1.00  0.00    -0.237 OA
ATOM    100  O   UNL A   1      45.696  38.227  29.115  1.00  0.00    -0.744 OA
ENDBRANCH  94  97
ENDBRANCH  67  90
ENDBRANCH  41  42
ENDBRANCH  34  36
ENDBRANCH  33  34
ENDBRANCH   1  33
TORSDOF 20
ENDMDL
