MODEL 1
REMARK VINA RESULT:     -11.6      0.000      0.000
REMARK SMILES COC(=O)[C@@H]1CCN(S(=O)(=O)N2CCC(C(=O)OCCOC(=O)c3ccc(-c4c5nc(c(-c6cccc(S(=O)(=O)[O-])c6F)c6ccc([nH]6)c(-c6cccc(S(=O)(=O)[O-])c6F)c6nc(c(-c7cccc(S(=O)(=O)[O-])c7F)c7ccc4[nH]7)C=C6)C=C5)cc3)CC2)C1
REMARK SMILES IDX 19 1 18 2 16 3 17 4 15 5 12 6 13 7 88 8 14 9 87 10 9 11
REMARK SMILES IDX 10 12 11 13 8 14 5 15 6 16 89 17 7 18 3 19 4 20 2 21 1 22
REMARK SMILES IDX 20 23 21 24 22 25 23 26 24 27 25 28 86 29 26 30 85 31 27 32
REMARK SMILES IDX 28 33 29 34 79 35 30 36 84 37 78 38 80 39 31 40 83 41 77 42
REMARK SMILES IDX 76 43 32 45 64 46 44 47 63 48 45 49 48 50 62 51 81 52 46 53
REMARK SMILES IDX 47 54 61 56 82 57 49 58 33 59 34 60 42 61 35 62 37 63 43 64
REMARK SMILES IDX 36 65 38 66 39 67 40 68 41 69 65 70 66 71 74 72 67 73 69 74
REMARK SMILES IDX 75 75 68 76 70 77 71 78 72 79 73 80 50 81 51 82 59 83 52 84
REMARK SMILES IDX 54 85 60 86 53 87 55 88 56 89 57 90 58 91
REMARK H PARENT 80 44 48 55
REMARK Flexibility Score: inf
ROOT
ATOM      1  C   UNL A   1      31.446  29.689  24.327  1.00  0.00     0.274 C 
ENDROOT
BRANCH   1   2
ATOM      2  O   UNL A   1      30.143  29.102  24.151  1.00  0.00    -0.462 OA
BRANCH   2   3
ATOM      3  C   UNL A   1      30.100  28.077  23.267  1.00  0.00     0.309 C 
ATOM      4  O   UNL A   1      29.993  28.202  22.051  1.00  0.00    -0.252 OA
BRANCH   3   5
ATOM      5  C   UNL A   1      30.151  26.717  23.910  1.00  0.00     0.102 C 
ATOM      6  N   UNL A   1      31.127  24.433  25.326  1.00  0.00    -0.189 NA
ATOM      7  C   UNL A   1      30.703  24.265  23.914  1.00  0.00     0.104 C 
ATOM      8  C   UNL A   1      30.462  25.543  26.033  1.00  0.00     0.104 C 
ATOM      9  C   UNL A   1      30.863  25.593  23.159  1.00  0.00     0.032 C 
ATOM     10  C   UNL A   1      30.720  26.850  25.313  1.00  0.00     0.032 C 
BRANCH   6  11
ATOM     11  S   UNL A   1      31.479  23.041  26.204  1.00  0.00     0.281 S 
ATOM     12  O   UNL A   1      30.823  21.918  25.571  1.00  0.00    -0.195 OA
ATOM     13  O   UNL A   1      31.247  23.326  27.601  1.00  0.00    -0.195 OA
BRANCH  11  14
ATOM     14  N   UNL A   1      33.153  22.830  26.004  1.00  0.00    -0.188 NA
ATOM     15  C   UNL A   1      34.276  22.916  23.836  1.00  0.00     0.116 C 
ATOM     16  C   UNL A   1      34.135  24.309  24.419  1.00  0.00     0.033 C 
ATOM     17  C   UNL A   1      33.511  22.001  24.792  1.00  0.00     0.118 C 
ATOM     18  C   UNL A   1      34.015  24.036  25.902  1.00  0.00     0.104 C 
BRANCH  15  19
ATOM     19  C   UNL A   1      35.733  22.529  23.743  1.00  0.00     0.310 C 
ATOM     20  O   UNL A   1      36.517  22.967  22.913  1.00  0.00    -0.252 OA
BRANCH  19  21
ATOM     21  O   UNL A   1      36.034  21.591  24.681  1.00  0.00    -0.469 OA
ATOM     22  C   UNL A   1      37.406  21.189  24.650  1.00  0.00     0.282 C 
ENDBRANCH  19  21
ENDBRANCH  15  19
ENDBRANCH  11  14
ENDBRANCH   6  11
ENDBRANCH   3   5
ENDBRANCH   2   3
ENDBRANCH   1   2
BRANCH   1  23
ATOM     23  C   UNL A   1      31.519  30.490  25.628  1.00  0.00     0.275 C 
BRANCH  23  24
ATOM     24  O   UNL A   1      32.770  30.292  26.316  1.00  0.00    -0.458 OA
BRANCH  24  25
ATOM     25  C   UNL A   1      33.206  31.353  27.034  1.00  0.00     0.338 C 
ATOM     26  O   UNL A   1      32.611  32.396  27.247  1.00  0.00    -0.246 OA
BRANCH  25  27
ATOM     27  C   UNL A   1      34.519  31.059  27.624  1.00  0.00     0.060 A 
ATOM     28  C   UNL A   1      34.811  29.748  28.008  1.00  0.00     0.016 A 
ATOM     29  C   UNL A   1      35.406  32.094  27.909  1.00  0.00     0.016 A 
ATOM     30  C   UNL A   1      35.982  29.464  28.703  1.00  0.00     0.010 A 
ATOM     31  C   UNL A   1      36.598  31.802  28.576  1.00  0.00     0.010 A 
ATOM     32  C   UNL A   1      36.888  30.490  28.992  1.00  0.00    -0.014 A 
BRANCH  32  33
ATOM     33  C   UNL A   1      38.137  30.205  29.740  1.00  0.00     0.031 A 
ATOM     34  C   UNL A   1      39.150  29.254  29.168  1.00  0.00     0.074 A 
ATOM     35  C   UNL A   1      38.330  30.760  30.951  1.00  0.00     0.049 A 
ATOM     36  N   UNL A   1      40.217  28.749  29.729  1.00  0.00    -0.248 NA
ATOM     37  C   UNL A   1      38.925  28.801  27.785  1.00  0.00     0.031 C 
ATOM     38  C   UNL A   1      37.426  31.709  31.601  1.00  0.00     0.029 A 
ATOM     39  N   UNL A   1      39.335  30.576  31.869  1.00  0.00    -0.354 N 
ATOM     40  C   UNL A   1      40.762  27.880  28.792  1.00  0.00     0.074 A 
ATOM     41  C   UNL A   1      39.909  27.927  27.625  1.00  0.00     0.031 C 
ATOM     42  C   UNL A   1      37.900  32.003  32.821  1.00  0.00     0.029 A 
ATOM     43  C   UNL A   1      39.108  31.221  33.062  1.00  0.00     0.049 A 
ATOM     44  H   UNL A   1      40.138  30.035  31.691  1.00  0.00     0.167 HD
ATOM     45  C   UNL A   1      41.876  27.116  28.897  1.00  0.00     0.034 A 
ATOM     46  C   UNL A   1      39.770  31.154  34.233  1.00  0.00     0.034 A 
ATOM     47  C   UNL A   1      42.731  27.098  30.054  1.00  0.00     0.049 A 
ATOM     48  C   UNL A   1      40.986  30.274  34.332  1.00  0.00     0.074 A 
ATOM     49  C   UNL A   1      43.907  26.395  30.243  1.00  0.00     0.029 A 
ATOM     50  N   UNL A   1      42.495  27.804  31.225  1.00  0.00    -0.354 N 
ATOM     51  N   UNL A   1      41.540  29.523  33.410  1.00  0.00    -0.248 NA
ATOM     52  C   UNL A   1      41.683  30.248  35.625  1.00  0.00     0.031 C 
ATOM     53  C   UNL A   1      44.364  26.648  31.540  1.00  0.00     0.029 A 
ATOM     54  C   UNL A   1      43.496  27.544  32.144  1.00  0.00     0.049 A 
ATOM     55  H   UNL A   1      41.729  28.402  31.378  1.00  0.00     0.167 HD
ATOM     56  C   UNL A   1      42.670  28.970  33.998  1.00  0.00     0.074 A 
ATOM     57  C   UNL A   1      42.731  29.483  35.351  1.00  0.00     0.031 C 
ATOM     58  C   UNL A   1      43.572  28.106  33.469  1.00  0.00     0.034 A 
BRANCH  45  59
ATOM     59  C   UNL A   1      42.243  26.241  27.727  1.00  0.00     0.023 A 
ATOM     60  C   UNL A   1      43.024  26.763  26.675  1.00  0.00     0.012 A 
ATOM     61  C   UNL A   1      41.864  24.884  27.696  1.00  0.00     0.148 A 
ATOM     62  C   UNL A   1      43.393  25.958  25.597  1.00  0.00     0.002 A 
ATOM     63  C   UNL A   1      42.274  24.076  26.643  1.00  0.00     0.091 A 
ATOM     64  F   UNL A   1      41.105  24.411  28.696  1.00  0.00    -0.205 F 
ATOM     65  C   UNL A   1      43.027  24.614  25.586  1.00  0.00     0.022 A 
BRANCH  63  66
ATOM     66  S   UNL A   1      41.924  22.316  26.575  1.00  0.00     0.127 S 
ATOM     67  O   UNL A   1      42.510  21.850  27.832  1.00  0.00    -0.237 OA
ATOM     68  O   UNL A   1      40.462  22.296  26.540  1.00  0.00    -0.237 OA
ATOM     69  O   UNL A   1      42.570  21.822  25.367  1.00  0.00    -0.744 OA
ENDBRANCH  63  66
ENDBRANCH  45  59
BRANCH  46  70
ATOM     70  C   UNL A   1      39.304  31.953  35.401  1.00  0.00     0.023 A 
ATOM     71  C   UNL A   1      38.405  31.378  36.320  1.00  0.00     0.012 A 
ATOM     72  C   UNL A   1      39.758  33.270  35.617  1.00  0.00     0.148 A 
ATOM     73  C   UNL A   1      37.940  32.110  37.413  1.00  0.00     0.002 A 
ATOM     74  C   UNL A   1      39.336  33.972  36.739  1.00  0.00     0.091 A 
ATOM     75  F   UNL A   1      40.604  33.804  34.726  1.00  0.00    -0.205 F 
ATOM     76  C   UNL A   1      38.412  33.402  37.628  1.00  0.00     0.022 A 
BRANCH  74  77
ATOM     77  S   UNL A   1      39.986  35.592  37.166  1.00  0.00     0.127 S 
ATOM     78  O   UNL A   1      39.286  35.875  38.415  1.00  0.00    -0.237 OA
ATOM     79  O   UNL A   1      41.416  35.313  37.309  1.00  0.00    -0.237 OA
ATOM     80  O   UNL A   1      39.653  36.459  36.044  1.00  0.00    -0.744 OA
ENDBRANCH  74  77
ENDBRANCH  46  70
BRANCH  58  81
ATOM     81  C   UNL A   1      44.740  27.700  34.329  1.00  0.00     0.023 A 
ATOM     82  C   UNL A   1      45.906  28.490  34.360  1.00  0.00     0.012 A 
ATOM     83  C   UNL A   1      44.645  26.573  35.170  1.00  0.00     0.148 A 
ATOM     84  C   UNL A   1      46.970  28.148  35.195  1.00  0.00     0.002 A 
ATOM     85  C   UNL A   1      45.686  26.268  36.037  1.00  0.00     0.091 A 
ATOM     86  F   UNL A   1      43.533  25.825  35.111  1.00  0.00    -0.205 F 
ATOM     87  C   UNL A   1      46.855  27.048  36.041  1.00  0.00     0.022 A 
BRANCH  85  88
ATOM     88  S   UNL A   1      45.588  24.933  37.234  1.00  0.00     0.127 S 
ATOM     89  O   UNL A   1      44.370  25.278  37.966  1.00  0.00    -0.237 OA
ATOM     90  O   UNL A   1      45.469  23.756  36.372  1.00  0.00    -0.237 OA
ATOM     91  O   UNL A   1      46.819  24.995  38.010  1.00  0.00    -0.744 OA
ENDBRANCH  85  88
ENDBRANCH  58  81
ENDBRANCH  32  33
ENDBRANCH  25  27
ENDBRANCH  24  25
ENDBRANCH  23  24
ENDBRANCH   1  23
TORSDOF 18
ENDMDL
MODEL 2
REMARK VINA RESULT:     -11.5      1.273      1.948
REMARK SMILES COC(=O)[C@@H]1CCN(S(=O)(=O)N2CCC(C(=O)OCCOC(=O)c3ccc(-c4c5nc(c(-c6cccc(S(=O)(=O)[O-])c6F)c6ccc([nH]6)c(-c6cccc(S(=O)(=O)[O-])c6F)c6nc(c(-c7cccc(S(=O)(=O)[O-])c7F)c7ccc4[nH]7)C=C6)C=C5)cc3)CC2)C1
REMARK SMILES IDX 19 1 18 2 16 3 17 4 15 5 12 6 13 7 88 8 14 9 87 10 9 11
REMARK SMILES IDX 10 12 11 13 8 14 5 15 6 16 89 17 7 18 3 19 4 20 2 21 1 22
REMARK SMILES IDX 20 23 21 24 22 25 23 26 24 27 25 28 86 29 26 30 85 31 27 32
REMARK SMILES IDX 28 33 29 34 79 35 30 36 84 37 78 38 80 39 31 40 83 41 77 42
REMARK SMILES IDX 76 43 32 45 64 46 44 47 63 48 45 49 48 50 62 51 81 52 46 53
REMARK SMILES IDX 47 54 61 56 82 57 49 58 33 59 34 60 42 61 35 62 37 63 43 64
REMARK SMILES IDX 36 65 38 66 39 67 40 68 41 69 65 70 66 71 74 72 67 73 69 74
REMARK SMILES IDX 75 75 68 76 70 77 71 78 72 79 73 80 50 81 51 82 59 83 52 84
REMARK SMILES IDX 54 85 60 86 53 87 55 88 56 89 57 90 58 91
REMARK H PARENT 80 44 48 55
REMARK Flexibility Score: inf
ROOT
ATOM      1  C   UNL A   1      32.133  29.294  24.204  1.00  0.00     0.274 C 
ENDROOT
BRANCH   1   2
ATOM      2  O   UNL A   1      31.098  28.562  23.520  1.00  0.00    -0.462 OA
BRANCH   2   3
ATOM      3  C   UNL A   1      30.825  27.346  24.048  1.00  0.00     0.309 C 
ATOM      4  O   UNL A   1      29.699  26.915  24.277  1.00  0.00    -0.252 OA
BRANCH   3   5
ATOM      5  C   UNL A   1      32.051  26.542  24.390  1.00  0.00     0.102 C 
ATOM      6  N   UNL A   1      33.822  24.320  24.713  1.00  0.00    -0.189 NA
ATOM      7  C   UNL A   1      33.415  25.084  25.918  1.00  0.00     0.104 C 
ATOM      8  C   UNL A   1      33.793  25.099  23.461  1.00  0.00     0.104 C 
ATOM      9  C   UNL A   1      32.041  25.733  25.686  1.00  0.00     0.032 C 
ATOM     10  C   UNL A   1      32.402  25.643  23.216  1.00  0.00     0.032 C 
BRANCH   6  11
ATOM     11  S   UNL A   1      35.036  23.169  24.895  1.00  0.00     0.281 S 
ATOM     12  O   UNL A   1      35.233  22.926  26.307  1.00  0.00    -0.195 OA
ATOM     13  O   UNL A   1      36.148  23.561  24.061  1.00  0.00    -0.195 OA
BRANCH  11  14
ATOM     14  N   UNL A   1      34.377  21.754  24.223  1.00  0.00    -0.188 NA
ATOM     15  C   UNL A   1      33.443  19.933  25.557  1.00  0.00     0.116 C 
ATOM     16  C   UNL A   1      32.395  20.999  25.301  1.00  0.00     0.033 C 
ATOM     17  C   UNL A   1      34.742  20.503  24.987  1.00  0.00     0.118 C 
ATOM     18  C   UNL A   1      32.905  21.670  24.045  1.00  0.00     0.104 C 
BRANCH  15  19
ATOM     19  C   UNL A   1      33.057  18.642  24.876  1.00  0.00     0.310 C 
ATOM     20  O   UNL A   1      31.958  18.111  24.962  1.00  0.00    -0.252 OA
BRANCH  19  21
ATOM     21  O   UNL A   1      34.118  18.130  24.196  1.00  0.00    -0.469 OA
ATOM     22  C   UNL A   1      33.743  17.131  23.244  1.00  0.00     0.282 C 
ENDBRANCH  19  21
ENDBRANCH  15  19
ENDBRANCH  11  14
ENDBRANCH   6  11
ENDBRANCH   3   5
ENDBRANCH   2   3
ENDBRANCH   1   2
BRANCH   1  23
ATOM     23  C   UNL A   1      31.572  30.044  25.413  1.00  0.00     0.275 C 
BRANCH  23  24
ATOM     24  O   UNL A   1      32.434  29.940  26.563  1.00  0.00    -0.458 OA
BRANCH  24  25
ATOM     25  C   UNL A   1      32.956  31.110  26.999  1.00  0.00     0.338 C 
ATOM     26  O   UNL A   1      32.409  32.199  27.022  1.00  0.00    -0.246 OA
BRANCH  25  27
ATOM     27  C   UNL A   1      34.302  30.891  27.544  1.00  0.00     0.060 A 
ATOM     28  C   UNL A   1      34.698  29.593  27.873  1.00  0.00     0.016 A 
ATOM     29  C   UNL A   1      35.122  31.977  27.843  1.00  0.00     0.016 A 
ATOM     30  C   UNL A   1      35.906  29.370  28.527  1.00  0.00     0.010 A 
ATOM     31  C   UNL A   1      36.351  31.750  28.468  1.00  0.00     0.010 A 
ATOM     32  C   UNL A   1      36.744  30.448  28.829  1.00  0.00    -0.014 A 
BRANCH  32  33
ATOM     33  C   UNL A   1      38.032  30.228  29.533  1.00  0.00     0.031 A 
ATOM     34  C   UNL A   1      39.060  29.308  28.940  1.00  0.00     0.074 A 
ATOM     35  C   UNL A   1      38.247  30.815  30.726  1.00  0.00     0.049 A 
ATOM     36  N   UNL A   1      40.167  28.857  29.469  1.00  0.00    -0.248 NA
ATOM     37  C   UNL A   1      38.802  28.818  27.576  1.00  0.00     0.031 C 
ATOM     38  C   UNL A   1      37.330  31.740  31.392  1.00  0.00     0.029 A 
ATOM     39  N   UNL A   1      39.293  30.690  31.607  1.00  0.00    -0.354 N 
ATOM     40  C   UNL A   1      40.712  27.992  28.528  1.00  0.00     0.074 A 
ATOM     41  C   UNL A   1      39.814  27.981  27.394  1.00  0.00     0.031 C 
ATOM     42  C   UNL A   1      37.837  32.077  32.588  1.00  0.00     0.029 A 
ATOM     43  C   UNL A   1      39.084  31.349  32.796  1.00  0.00     0.049 A 
ATOM     44  H   UNL A   1      40.110  30.178  31.408  1.00  0.00     0.167 HD
ATOM     45  C   UNL A   1      41.859  27.277  28.604  1.00  0.00     0.034 A 
ATOM     46  C   UNL A   1      39.792  31.333  33.941  1.00  0.00     0.034 A 
ATOM     47  C   UNL A   1      42.757  27.316  29.728  1.00  0.00     0.049 A 
ATOM     48  C   UNL A   1      41.046  30.504  34.010  1.00  0.00     0.074 A 
ATOM     49  C   UNL A   1      43.968  26.665  29.884  1.00  0.00     0.029 A 
ATOM     50  N   UNL A   1      42.537  28.035  30.893  1.00  0.00    -0.354 N 
ATOM     51  N   UNL A   1      41.595  29.758  33.081  1.00  0.00    -0.248 NA
ATOM     52  C   UNL A   1      41.793  30.532  35.276  1.00  0.00     0.031 C 
ATOM     53  C   UNL A   1      44.462  26.962  31.157  1.00  0.00     0.029 A 
ATOM     54  C   UNL A   1      43.582  27.834  31.778  1.00  0.00     0.049 A 
ATOM     55  H   UNL A   1      41.753  28.605  31.065  1.00  0.00     0.167 HD
ATOM     56  C   UNL A   1      42.769  29.263  33.635  1.00  0.00     0.074 A 
ATOM     57  C   UNL A   1      42.860  29.804  34.975  1.00  0.00     0.031 C 
ATOM     58  C   UNL A   1      43.685  28.425  33.088  1.00  0.00     0.034 A 
BRANCH  45  59
ATOM     59  C   UNL A   1      42.217  26.394  27.437  1.00  0.00     0.023 A 
ATOM     60  C   UNL A   1      42.937  26.925  26.347  1.00  0.00     0.012 A 
ATOM     61  C   UNL A   1      41.893  25.023  27.446  1.00  0.00     0.148 A 
ATOM     62  C   UNL A   1      43.297  26.114  25.270  1.00  0.00     0.002 A 
ATOM     63  C   UNL A   1      42.296  24.211  26.393  1.00  0.00     0.091 A 
ATOM     64  F   UNL A   1      41.192  24.539  28.482  1.00  0.00    -0.205 F 
ATOM     65  C   UNL A   1      42.986  24.757  25.298  1.00  0.00     0.022 A 
BRANCH  63  66
ATOM     66  S   UNL A   1      42.015  22.437  26.371  1.00  0.00     0.127 S 
ATOM     67  O   UNL A   1      42.523  22.041  27.684  1.00  0.00    -0.237 OA
ATOM     68  O   UNL A   1      40.561  22.359  26.231  1.00  0.00    -0.237 OA
ATOM     69  O   UNL A   1      42.765  21.923  25.234  1.00  0.00    -0.744 OA
ENDBRANCH  63  66
ENDBRANCH  45  59
BRANCH  46  70
ATOM     70  C   UNL A   1      39.339  32.136  35.112  1.00  0.00     0.023 A 
ATOM     71  C   UNL A   1      38.419  31.577  36.021  1.00  0.00     0.012 A 
ATOM     72  C   UNL A   1      39.824  33.439  35.340  1.00  0.00     0.148 A 
ATOM     73  C   UNL A   1      37.964  32.314  37.115  1.00  0.00     0.002 A 
ATOM     74  C   UNL A   1      39.412  34.145  36.463  1.00  0.00     0.091 A 
ATOM     75  F   UNL A   1      40.689  33.957  34.458  1.00  0.00    -0.205 F 
ATOM     76  C   UNL A   1      38.468  33.592  37.342  1.00  0.00     0.022 A 
BRANCH  74  77
ATOM     77  S   UNL A   1      40.100  35.744  36.906  1.00  0.00     0.127 S 
ATOM     78  O   UNL A   1      39.695  36.568  35.771  1.00  0.00    -0.237 OA
ATOM     79  O   UNL A   1      39.402  36.034  38.159  1.00  0.00    -0.237 OA
ATOM     80  O   UNL A   1      41.533  35.531  37.052  1.00  0.00    -0.744 OA
ENDBRANCH  74  77
ENDBRANCH  46  70
BRANCH  58  81
ATOM     81  C   UNL A   1      44.900  28.083  33.910  1.00  0.00     0.023 A 
ATOM     82  C   UNL A   1      46.029  28.925  33.888  1.00  0.00     0.012 A 
ATOM     83  C   UNL A   1      44.885  26.966  34.769  1.00  0.00     0.148 A 
ATOM     84  C   UNL A   1      47.137  28.642  34.687  1.00  0.00     0.002 A 
ATOM     85  C   UNL A   1      45.970  26.721  35.601  1.00  0.00     0.091 A 
ATOM     86  F   UNL A   1      43.807  26.169  34.760  1.00  0.00    -0.205 F 
ATOM     87  C   UNL A   1      47.102  27.551  35.551  1.00  0.00     0.022 A 
BRANCH  85  88
ATOM     88  S   UNL A   1      45.975  25.400  36.817  1.00  0.00     0.127 S 
ATOM     89  O   UNL A   1      44.693  25.610  37.490  1.00  0.00    -0.237 OA
ATOM     90  O   UNL A   1      46.033  24.205  35.975  1.00  0.00    -0.237 OA
ATOM     91  O   UNL A   1      47.154  25.617  37.645  1.00  0.00    -0.744 OA
ENDBRANCH  85  88
ENDBRANCH  58  81
ENDBRANCH  32  33
ENDBRANCH  25  27
ENDBRANCH  24  25
ENDBRANCH  23  24
ENDBRANCH   1  23
TORSDOF 18
ENDMDL
MODEL 3
REMARK VINA RESULT:     -11.0      2.028      2.693
REMARK SMILES COC(=O)[C@@H]1CCN(S(=O)(=O)N2CCC(C(=O)OCCOC(=O)c3ccc(-c4c5nc(c(-c6cccc(S(=O)(=O)[O-])c6F)c6ccc([nH]6)c(-c6cccc(S(=O)(=O)[O-])c6F)c6nc(c(-c7cccc(S(=O)(=O)[O-])c7F)c7ccc4[nH]7)C=C6)C=C5)cc3)CC2)C1
REMARK SMILES IDX 19 1 18 2 16 3 17 4 15 5 12 6 13 7 88 8 14 9 87 10 9 11
REMARK SMILES IDX 10 12 11 13 8 14 5 15 6 16 89 17 7 18 3 19 4 20 2 21 1 22
REMARK SMILES IDX 20 23 21 24 22 25 23 26 24 27 25 28 86 29 26 30 85 31 27 32
REMARK SMILES IDX 28 33 29 34 79 35 30 36 84 37 78 38 80 39 31 40 83 41 77 42
REMARK SMILES IDX 76 43 32 45 64 46 44 47 63 48 45 49 48 50 62 51 81 52 46 53
REMARK SMILES IDX 47 54 61 56 82 57 49 58 33 59 34 60 42 61 35 62 37 63 43 64
REMARK SMILES IDX 36 65 38 66 39 67 40 68 41 69 65 70 66 71 74 72 67 73 69 74
REMARK SMILES IDX 75 75 68 76 70 77 71 78 72 79 73 80 50 81 51 82 59 83 52 84
REMARK SMILES IDX 54 85 60 86 53 87 55 88 56 89 57 90 58 91
REMARK H PARENT 80 44 48 55
REMARK Flexibility Score: inf
ROOT
ATOM      1  C   UNL A   1      31.763  31.250  26.331  1.00  0.00     0.274 C 
ENDROOT
BRANCH   1   2
ATOM      2  O   UNL A   1      32.069  30.190  27.257  1.00  0.00    -0.462 OA
BRANCH   2   3
ATOM      3  C   UNL A   1      33.225  29.533  27.000  1.00  0.00     0.309 C 
ATOM      4  O   UNL A   1      34.349  30.003  27.149  1.00  0.00    -0.252 OA
BRANCH   3   5
ATOM      5  C   UNL A   1      33.027  28.145  26.453  1.00  0.00     0.102 C 
ATOM      6  N   UNL A   1      32.036  25.982  24.866  1.00  0.00    -0.189 NA
ATOM      7  C   UNL A   1      31.832  25.936  26.335  1.00  0.00     0.104 C 
ATOM      8  C   UNL A   1      33.208  26.768  24.439  1.00  0.00     0.104 C 
ATOM      9  C   UNL A   1      31.793  27.364  26.902  1.00  0.00     0.032 C 
ATOM     10  C   UNL A   1      33.090  28.194  24.934  1.00  0.00     0.032 C 
BRANCH   6  11
ATOM     11  S   UNL A   1      31.652  24.601  23.984  1.00  0.00     0.281 S 
ATOM     12  O   UNL A   1      31.634  24.941  22.578  1.00  0.00    -0.195 OA
ATOM     13  O   UNL A   1      30.497  23.988  24.600  1.00  0.00    -0.195 OA
BRANCH  11  14
ATOM     14  N   UNL A   1      32.970  23.560  24.239  1.00  0.00    -0.188 NA
ATOM     15  C   UNL A   1      32.741  21.157  24.616  1.00  0.00     0.116 C 
ATOM     16  C   UNL A   1      32.780  21.463  23.132  1.00  0.00     0.033 C 
ATOM     17  C   UNL A   1      32.714  22.521  25.307  1.00  0.00     0.118 C 
ATOM     18  C   UNL A   1      33.503  22.791  23.086  1.00  0.00     0.104 C 
BRANCH  15  19
ATOM     19  C   UNL A   1      33.955  20.354  25.020  1.00  0.00     0.310 C 
ATOM     20  O   UNL A   1      34.167  19.198  24.684  1.00  0.00    -0.252 OA
BRANCH  19  21
ATOM     21  O   UNL A   1      34.751  21.083  25.848  1.00  0.00    -0.469 OA
ATOM     22  C   UNL A   1      36.101  21.176  25.387  1.00  0.00     0.282 C 
ENDBRANCH  19  21
ENDBRANCH  15  19
ENDBRANCH  11  14
ENDBRANCH   6  11
ENDBRANCH   3   5
ENDBRANCH   2   3
ENDBRANCH   1   2
BRANCH   1  23
ATOM     23  C   UNL A   1      31.742  32.608  27.034  1.00  0.00     0.275 C 
BRANCH  23  24
ATOM     24  O   UNL A   1      33.060  33.179  27.149  1.00  0.00    -0.458 OA
BRANCH  24  25
ATOM     25  C   UNL A   1      33.259  33.954  28.240  1.00  0.00     0.338 C 
ATOM     26  O   UNL A   1      32.562  34.875  28.629  1.00  0.00    -0.246 OA
BRANCH  25  27
ATOM     27  C   UNL A   1      34.433  33.483  28.988  1.00  0.00     0.060 A 
ATOM     28  C   UNL A   1      35.656  34.133  28.809  1.00  0.00     0.016 A 
ATOM     29  C   UNL A   1      34.352  32.330  29.765  1.00  0.00     0.016 A 
ATOM     30  C   UNL A   1      36.815  33.622  29.384  1.00  0.00     0.010 A 
ATOM     31  C   UNL A   1      35.510  31.837  30.372  1.00  0.00     0.010 A 
ATOM     32  C   UNL A   1      36.751  32.469  30.173  1.00  0.00    -0.014 A 
BRANCH  32  33
ATOM     33  C   UNL A   1      37.979  31.907  30.788  1.00  0.00     0.031 A 
ATOM     34  C   UNL A   1      38.780  30.875  30.048  1.00  0.00     0.074 A 
ATOM     35  C   UNL A   1      38.336  32.287  32.030  1.00  0.00     0.049 A 
ATOM     36  N   UNL A   1      39.780  30.147  30.471  1.00  0.00    -0.248 NA
ATOM     37  C   UNL A   1      38.399  30.618  28.649  1.00  0.00     0.031 C 
ATOM     38  C   UNL A   1      37.645  33.292  32.839  1.00  0.00     0.029 A 
ATOM     39  N   UNL A   1      39.350  31.845  32.843  1.00  0.00    -0.354 N 
ATOM     40  C   UNL A   1      40.114  29.310  29.414  1.00  0.00     0.074 A 
ATOM     41  C   UNL A   1      39.210  29.620  28.328  1.00  0.00     0.031 C 
ATOM     42  C   UNL A   1      38.235  33.371  34.041  1.00  0.00     0.029 A 
ATOM     43  C   UNL A   1      39.308  32.383  34.108  1.00  0.00     0.049 A 
ATOM     44  H   UNL A   1      40.038  31.205  32.550  1.00  0.00     0.167 HD
ATOM     45  C   UNL A   1      41.088  28.371  29.355  1.00  0.00     0.034 A 
ATOM     46  C   UNL A   1      40.019  32.083  35.211  1.00  0.00     0.034 A 
ATOM     47  C   UNL A   1      41.997  28.088  30.434  1.00  0.00     0.049 A 
ATOM     48  C   UNL A   1      41.074  31.013  35.128  1.00  0.00     0.074 A 
ATOM     49  C   UNL A   1      43.048  27.190  30.460  1.00  0.00     0.029 A 
ATOM     50  N   UNL A   1      41.955  28.690  31.683  1.00  0.00    -0.354 N 
ATOM     51  N   UNL A   1      41.437  30.289  34.095  1.00  0.00    -0.248 NA
ATOM     52  C   UNL A   1      41.836  30.734  36.353  1.00  0.00     0.031 C 
ATOM     53  C   UNL A   1      43.619  27.222  31.736  1.00  0.00     0.029 A 
ATOM     54  C   UNL A   1      42.953  28.173  32.492  1.00  0.00     0.049 A 
ATOM     55  H   UNL A   1      41.310  29.383  31.954  1.00  0.00     0.167 HD
ATOM     56  C   UNL A   1      42.493  29.501  34.535  1.00  0.00     0.074 A 
ATOM     57  C   UNL A   1      42.721  29.845  35.923  1.00  0.00     0.031 C 
ATOM     58  C   UNL A   1      43.203  28.567  33.855  1.00  0.00     0.034 A 
BRANCH  45  59
ATOM     59  C   UNL A   1      41.231  27.582  28.079  1.00  0.00     0.023 A 
ATOM     60  C   UNL A   1      41.778  28.192  26.932  1.00  0.00     0.012 A 
ATOM     61  C   UNL A   1      40.877  26.219  28.033  1.00  0.00     0.148 A 
ATOM     62  C   UNL A   1      41.939  27.468  25.751  1.00  0.00     0.002 A 
ATOM     63  C   UNL A   1      41.084  25.491  26.867  1.00  0.00     0.091 A 
ATOM     64  F   UNL A   1      40.340  25.661  29.128  1.00  0.00    -0.205 F 
ATOM     65  C   UNL A   1      41.602  26.117  25.721  1.00  0.00     0.022 A 
BRANCH  63  66
ATOM     66  S   UNL A   1      40.758  23.728  26.752  1.00  0.00     0.127 S 
ATOM     67  O   UNL A   1      41.616  23.343  25.632  1.00  0.00    -0.237 OA
ATOM     68  O   UNL A   1      41.207  23.248  28.058  1.00  0.00    -0.237 OA
ATOM     69  O   UNL A   1      39.328  23.597  26.513  1.00  0.00    -0.744 OA
ENDBRANCH  63  66
ENDBRANCH  45  59
BRANCH  46  70
ATOM     70  C   UNL A   1      39.767  32.813  36.485  1.00  0.00     0.023 A 
ATOM     71  C   UNL A   1      40.479  33.998  36.757  1.00  0.00     0.012 A 
ATOM     72  C   UNL A   1      38.818  32.352  37.419  1.00  0.00     0.148 A 
ATOM     73  C   UNL A   1      40.275  34.691  37.951  1.00  0.00     0.002 A 
ATOM     74  C   UNL A   1      38.578  33.079  38.578  1.00  0.00     0.091 A 
ATOM     75  F   UNL A   1      38.160  31.217  37.147  1.00  0.00    -0.205 F 
ATOM     76  C   UNL A   1      39.319  34.238  38.856  1.00  0.00     0.022 A 
BRANCH  74  77
ATOM     77  S   UNL A   1      37.280  32.643  39.741  1.00  0.00     0.127 S 
ATOM     78  O   UNL A   1      37.744  31.351  40.238  1.00  0.00    -0.237 OA
ATOM     79  O   UNL A   1      37.359  33.741  40.706  1.00  0.00    -0.237 OA
ATOM     80  O   UNL A   1      36.047  32.615  38.964  1.00  0.00    -0.744 OA
ENDBRANCH  74  77
ENDBRANCH  46  70
BRANCH  58  81
ATOM     81  C   UNL A   1      44.337  27.886  34.576  1.00  0.00     0.023 A 
ATOM     82  C   UNL A   1      45.630  28.444  34.549  1.00  0.00     0.012 A 
ATOM     83  C   UNL A   1      44.095  26.734  35.351  1.00  0.00     0.148 A 
ATOM     84  C   UNL A   1      46.672  27.847  35.259  1.00  0.00     0.002 A 
ATOM     85  C   UNL A   1      45.125  26.176  36.097  1.00  0.00     0.091 A 
ATOM     86  F   UNL A   1      42.861  26.210  35.349  1.00  0.00    -0.205 F 
ATOM     87  C   UNL A   1      46.418  26.725  36.041  1.00  0.00     0.022 A 
BRANCH  85  88
ATOM     88  S   UNL A   1      44.870  24.792  37.213  1.00  0.00     0.127 S 
ATOM     89  O   UNL A   1      43.632  25.179  37.889  1.00  0.00    -0.237 OA
ATOM     90  O   UNL A   1      44.733  23.669  36.284  1.00  0.00    -0.237 OA
ATOM     91  O   UNL A   1      46.051  24.735  38.063  1.00  0.00    -0.744 OA
ENDBRANCH  85  88
ENDBRANCH  58  81
ENDBRANCH  32  33
ENDBRANCH  25  27
ENDBRANCH  24  25
ENDBRANCH  23  24
ENDBRANCH   1  23
TORSDOF 18
ENDMDL
