MODEL 1
REMARK VINA RESULT:     -12.2      0.000      0.000
REMARK SMILES CC1(C)CCC[C@H]1NS(=O)(=O)c1ccc(O)c(C(=O)OCCOC(=O)c2ccc(-c3c4nc(c(-c5cccc(S(=O)(=O)[O-])c5F)c5ccc([nH]5)c(-c5cccc(S(=O)(=O)[O-])c5F)c5nc(c(-c6cccc(S(=O)(=O)[O-])c6F)c6ccc3[nH]6)C=C5)C=C4)cc2)c1
REMARK SMILES IDX 21 1 20 2 18 3 19 4 17 5 12 6 13 7 89 8 14 9 15 10 9 11
REMARK SMILES IDX 10 12 11 13 8 14 7 16 1 17 2 18 3 19 4 20 5 21 6 22 16 23
REMARK SMILES IDX 22 25 23 26 24 27 25 28 26 29 27 30 88 31 28 32 87 33 29 34
REMARK SMILES IDX 30 35 31 36 81 37 32 38 86 39 80 40 82 41 33 42 85 43 79 44
REMARK SMILES IDX 78 45 34 47 66 48 46 49 65 50 47 51 50 52 64 53 83 54 48 55
REMARK SMILES IDX 49 56 63 58 84 59 51 60 35 61 36 62 44 63 37 64 39 65 45 66
REMARK SMILES IDX 38 67 40 68 41 69 42 70 43 71 67 72 68 73 76 74 69 75 71 76
REMARK SMILES IDX 77 77 70 78 72 79 73 80 74 81 75 82 52 83 53 84 61 85 54 86
REMARK SMILES IDX 56 87 62 88 55 89 57 90 58 91 59 92 60 93
REMARK H PARENT 8 15 16 24 82 46 50 57
REMARK Flexibility Score: inf
ROOT
ATOM      1  C   UNL A   1      31.725  28.733  24.853  1.00  0.00     0.275 C 
ENDROOT
BRANCH   1   2
ATOM      2  O   UNL A   1      33.057  28.192  24.790  1.00  0.00    -0.458 OA
BRANCH   2   3
ATOM      3  C   UNL A   1      33.557  27.915  23.558  1.00  0.00     0.342 C 
ATOM      4  O   UNL A   1      34.149  28.681  22.819  1.00  0.00    -0.246 OA
BRANCH   3   5
ATOM      5  C   UNL A   1      33.433  26.462  23.296  1.00  0.00     0.103 A 
ATOM      6  C   UNL A   1      33.101  24.256  24.241  1.00  0.00     0.083 A 
ATOM      7  C   UNL A   1      32.801  23.759  22.972  1.00  0.00     0.025 A 
ATOM      8  C   UNL A   1      33.468  25.597  24.400  1.00  0.00     0.041 A 
ATOM      9  C   UNL A   1      32.887  24.593  21.856  1.00  0.00     0.048 A 
ATOM     10  C   UNL A   1      33.183  25.947  22.020  1.00  0.00     0.130 A 
BRANCH   6  11
ATOM     11  S   UNL A   1      32.706  23.300  25.689  1.00  0.00     0.240 S 
ATOM     12  O   UNL A   1      31.524  22.534  25.351  1.00  0.00    -0.207 OA
ATOM     13  O   UNL A   1      32.732  24.206  26.808  1.00  0.00    -0.207 OA
BRANCH  11  14
ATOM     14  N   UNL A   1      34.004  22.268  25.963  1.00  0.00    -0.208 NA
ATOM     15  H   UNL A   1      34.628  22.761  26.601  1.00  0.00     0.141 HD
BRANCH  14  16
ATOM     16  C   UNL A   1      34.853  21.757  24.873  1.00  0.00     0.075 C 
ATOM     17  C   UNL A   1      36.386  23.747  25.649  1.00  0.00     0.013 C 
ATOM     18  C   UNL A   1      36.259  22.441  24.852  1.00  0.00    -0.019 C 
ATOM     19  C   UNL A   1      36.648  22.750  23.388  1.00  0.00     0.013 C 
ATOM     20  C   UNL A   1      37.194  21.366  25.435  1.00  0.00     0.008 C 
ATOM     21  C   UNL A   1      36.635  20.061  24.899  1.00  0.00     0.002 C 
ATOM     22  C   UNL A   1      35.131  20.248  25.009  1.00  0.00     0.020 C 
ENDBRANCH  14  16
ENDBRANCH  11  14
ENDBRANCH   6  11
BRANCH  10  23
ATOM     23  O   UNL A   1      33.228  26.760  20.924  1.00  0.00    -0.507 OA
ATOM     24  H   UNL A   1      32.876  27.628  20.969  1.00  0.00     0.293 HD
ENDBRANCH  10  23
ENDBRANCH   3   5
ENDBRANCH   2   3
ENDBRANCH   1   2
BRANCH   1  25
ATOM     25  C   UNL A   1      31.774  30.162  25.388  1.00  0.00     0.275 C 
BRANCH  25  26
ATOM     26  O   UNL A   1      32.340  30.144  26.711  1.00  0.00    -0.458 OA
BRANCH  26  27
ATOM     27  C   UNL A   1      32.910  31.298  27.123  1.00  0.00     0.338 C 
ATOM     28  O   UNL A   1      32.400  32.405  27.170  1.00  0.00    -0.246 OA
BRANCH  27  29
ATOM     29  C   UNL A   1      34.280  31.022  27.581  1.00  0.00     0.060 A 
ATOM     30  C   UNL A   1      34.682  29.697  27.710  1.00  0.00     0.016 A 
ATOM     31  C   UNL A   1      35.108  32.053  28.019  1.00  0.00     0.016 A 
ATOM     32  C   UNL A   1      35.868  29.392  28.376  1.00  0.00     0.010 A 
ATOM     33  C   UNL A   1      36.338  31.743  28.615  1.00  0.00     0.010 A 
ATOM     34  C   UNL A   1      36.705  30.406  28.860  1.00  0.00    -0.014 A 
BRANCH  34  35
ATOM     35  C   UNL A   1      37.890  30.063  29.710  1.00  0.00     0.031 A 
ATOM     36  C   UNL A   1      38.990  29.185  29.155  1.00  0.00     0.074 A 
ATOM     37  C   UNL A   1      38.021  30.552  30.961  1.00  0.00     0.049 A 
ATOM     38  N   UNL A   1      40.033  28.676  29.763  1.00  0.00    -0.248 NA
ATOM     39  C   UNL A   1      38.893  28.811  27.734  1.00  0.00     0.031 C 
ATOM     40  C   UNL A   1      37.059  31.423  31.637  1.00  0.00     0.029 A 
ATOM     41  N   UNL A   1      39.026  30.389  31.886  1.00  0.00    -0.354 N 
ATOM     42  C   UNL A   1      40.661  27.859  28.829  1.00  0.00     0.074 A 
ATOM     43  C   UNL A   1      39.884  27.940  27.612  1.00  0.00     0.031 C 
ATOM     44  C   UNL A   1      37.535  31.749  32.849  1.00  0.00     0.029 A 
ATOM     45  C   UNL A   1      38.804  31.061  33.067  1.00  0.00     0.049 A 
ATOM     46  H   UNL A   1      39.828  29.843  31.720  1.00  0.00     0.167 HD
ATOM     47  C   UNL A   1      41.791  27.121  28.959  1.00  0.00     0.034 A 
ATOM     48  C   UNL A   1      39.527  31.111  34.204  1.00  0.00     0.034 A 
ATOM     49  C   UNL A   1      42.636  27.126  30.123  1.00  0.00     0.049 A 
ATOM     50  C   UNL A   1      40.815  30.339  34.299  1.00  0.00     0.074 A 
ATOM     51  C   UNL A   1      43.824  26.443  30.327  1.00  0.00     0.029 A 
ATOM     52  N   UNL A   1      42.406  27.871  31.268  1.00  0.00    -0.354 N 
ATOM     53  N   UNL A   1      41.407  29.603  33.390  1.00  0.00    -0.248 NA
ATOM     54  C   UNL A   1      41.544  30.418  35.574  1.00  0.00     0.031 C 
ATOM     55  C   UNL A   1      44.314  26.780  31.595  1.00  0.00     0.029 A 
ATOM     56  C   UNL A   1      43.434  27.677  32.176  1.00  0.00     0.049 A 
ATOM     57  H   UNL A   1      41.625  28.454  31.415  1.00  0.00     0.167 HD
ATOM     58  C   UNL A   1      42.583  29.146  33.976  1.00  0.00     0.074 A 
ATOM     59  C   UNL A   1      42.640  29.721  35.304  1.00  0.00     0.031 C 
ATOM     60  C   UNL A   1      43.515  28.302  33.470  1.00  0.00     0.034 A 
BRANCH  47  61
ATOM     61  C   UNL A   1      42.210  26.269  27.788  1.00  0.00     0.023 A 
ATOM     62  C   UNL A   1      43.070  26.800  26.807  1.00  0.00     0.012 A 
ATOM     63  C   UNL A   1      41.796  24.926  27.691  1.00  0.00     0.148 A 
ATOM     64  C   UNL A   1      43.485  26.019  25.729  1.00  0.00     0.002 A 
ATOM     65  C   UNL A   1      42.249  24.139  26.636  1.00  0.00     0.091 A 
ATOM     66  F   UNL A   1      40.961  24.442  28.622  1.00  0.00    -0.205 F 
ATOM     67  C   UNL A   1      43.084  24.687  25.649  1.00  0.00     0.022 A 
BRANCH  65  68
ATOM     68  S   UNL A   1      41.851  22.393  26.496  1.00  0.00     0.127 S 
ATOM     69  O   UNL A   1      42.613  22.008  25.310  1.00  0.00    -0.237 OA
ATOM     70  O   UNL A   1      42.371  21.853  27.754  1.00  0.00    -0.237 OA
ATOM     71  O   UNL A   1      40.402  22.324  26.365  1.00  0.00    -0.744 OA
ENDBRANCH  65  68
ENDBRANCH  47  61
BRANCH  48  72
ATOM     72  C   UNL A   1      39.066  31.960  35.341  1.00  0.00     0.023 A 
ATOM     73  C   UNL A   1      39.224  33.358  35.267  1.00  0.00     0.012 A 
ATOM     74  C   UNL A   1      38.452  31.400  36.477  1.00  0.00     0.148 A 
ATOM     75  C   UNL A   1      38.800  34.179  36.313  1.00  0.00     0.002 A 
ATOM     76  C   UNL A   1      37.975  32.228  37.487  1.00  0.00     0.091 A 
ATOM     77  F   UNL A   1      38.337  30.066  36.548  1.00  0.00    -0.205 F 
ATOM     78  C   UNL A   1      38.163  33.616  37.415  1.00  0.00     0.022 A 
BRANCH  76  79
ATOM     79  S   UNL A   1      37.018  31.590  38.868  1.00  0.00     0.127 S 
ATOM     80  O   UNL A   1      37.926  31.812  39.990  1.00  0.00    -0.237 OA
ATOM     81  O   UNL A   1      35.839  32.456  38.851  1.00  0.00    -0.237 OA
ATOM     82  O   UNL A   1      36.740  30.200  38.535  1.00  0.00    -0.744 OA
ENDBRANCH  76  79
ENDBRANCH  48  72
BRANCH  60  83
ATOM     83  C   UNL A   1      44.693  27.961  34.346  1.00  0.00     0.023 A 
ATOM     84  C   UNL A   1      45.862  28.746  34.273  1.00  0.00     0.012 A 
ATOM     85  C   UNL A   1      44.629  26.903  35.273  1.00  0.00     0.148 A 
ATOM     86  C   UNL A   1      46.960  28.461  35.083  1.00  0.00     0.002 A 
ATOM     87  C   UNL A   1      45.714  26.650  36.106  1.00  0.00     0.091 A 
ATOM     88  F   UNL A   1      43.521  26.150  35.314  1.00  0.00    -0.205 F 
ATOM     89  C   UNL A   1      46.883  27.421  36.006  1.00  0.00     0.022 A 
BRANCH  87  90
ATOM     90  S   UNL A   1      45.656  25.380  37.377  1.00  0.00     0.127 S 
ATOM     91  O   UNL A   1      47.004  25.453  37.936  1.00  0.00    -0.237 OA
ATOM     92  O   UNL A   1      44.601  25.866  38.267  1.00  0.00    -0.237 OA
ATOM     93  O   UNL A   1      45.326  24.145  36.679  1.00  0.00    -0.744 OA
ENDBRANCH  87  90
ENDBRANCH  60  83
ENDBRANCH  34  35
ENDBRANCH  27  29
ENDBRANCH  26  27
ENDBRANCH  25  26
ENDBRANCH   1  25
TORSDOF 18
ENDMDL
MODEL 2
REMARK VINA RESULT:     -11.9      4.626      9.887
REMARK SMILES CC1(C)CCC[C@H]1NS(=O)(=O)c1ccc(O)c(C(=O)OCCOC(=O)c2ccc(-c3c4nc(c(-c5cccc(S(=O)(=O)[O-])c5F)c5ccc([nH]5)c(-c5cccc(S(=O)(=O)[O-])c5F)c5nc(c(-c6cccc(S(=O)(=O)[O-])c6F)c6ccc3[nH]6)C=C5)C=C4)cc2)c1
REMARK SMILES IDX 21 1 20 2 18 3 19 4 17 5 12 6 13 7 89 8 14 9 15 10 9 11
REMARK SMILES IDX 10 12 11 13 8 14 7 16 1 17 2 18 3 19 4 20 5 21 6 22 16 23
REMARK SMILES IDX 22 25 23 26 24 27 25 28 26 29 27 30 88 31 28 32 87 33 29 34
REMARK SMILES IDX 30 35 31 36 81 37 32 38 86 39 80 40 82 41 33 42 85 43 79 44
REMARK SMILES IDX 78 45 34 47 66 48 46 49 65 50 47 51 50 52 64 53 83 54 48 55
REMARK SMILES IDX 49 56 63 58 84 59 51 60 35 61 36 62 44 63 37 64 39 65 45 66
REMARK SMILES IDX 38 67 40 68 41 69 42 70 43 71 67 72 68 73 76 74 69 75 71 76
REMARK SMILES IDX 77 77 70 78 72 79 73 80 74 81 75 82 52 83 53 84 61 85 54 86
REMARK SMILES IDX 56 87 62 88 55 89 57 90 58 91 59 92 60 93
REMARK H PARENT 8 15 16 24 82 46 50 57
REMARK Flexibility Score: inf
ROOT
ATOM      1  C   UNL A   1      34.733  21.150  25.269  1.00  0.00     0.275 C 
ENDROOT
BRANCH   1   2
ATOM      2  O   UNL A   1      34.886  22.477  25.806  1.00  0.00    -0.458 OA
BRANCH   2   3
ATOM      3  C   UNL A   1      34.148  22.792  26.901  1.00  0.00     0.342 C 
ATOM      4  O   UNL A   1      34.431  22.568  28.065  1.00  0.00    -0.246 OA
BRANCH   3   5
ATOM      5  C   UNL A   1      32.994  23.626  26.489  1.00  0.00     0.103 A 
ATOM      6  C   UNL A   1      32.157  25.312  24.965  1.00  0.00     0.083 A 
ATOM      7  C   UNL A   1      30.849  24.992  25.330  1.00  0.00     0.025 A 
ATOM      8  C   UNL A   1      33.236  24.666  25.580  1.00  0.00     0.041 A 
ATOM      9  C   UNL A   1      30.614  24.042  26.326  1.00  0.00     0.048 A 
ATOM     10  C   UNL A   1      31.684  23.346  26.890  1.00  0.00     0.130 A 
BRANCH   6  11
ATOM     11  S   UNL A   1      32.463  26.283  23.504  1.00  0.00     0.240 S 
ATOM     12  O   UNL A   1      31.306  26.096  22.652  1.00  0.00    -0.207 OA
ATOM     13  O   UNL A   1      33.795  25.964  23.061  1.00  0.00    -0.207 OA
BRANCH  11  14
ATOM     14  N   UNL A   1      32.563  27.887  23.997  1.00  0.00    -0.208 NA
ATOM     15  H   UNL A   1      33.538  28.045  24.251  1.00  0.00     0.141 HD
BRANCH  14  16
ATOM     16  C   UNL A   1      31.760  28.427  25.108  1.00  0.00     0.075 C 
ATOM     17  C   UNL A   1      34.010  28.051  26.414  1.00  0.00     0.013 C 
ATOM     18  C   UNL A   1      32.627  28.717  26.375  1.00  0.00    -0.019 C 
ATOM     19  C   UNL A   1      31.854  28.256  27.632  1.00  0.00     0.013 C 
ATOM     20  C   UNL A   1      32.772  30.250  26.372  1.00  0.00     0.008 C 
ATOM     21  C   UNL A   1      31.433  30.746  25.861  1.00  0.00     0.002 C 
ATOM     22  C   UNL A   1      31.095  29.769  24.747  1.00  0.00     0.020 C 
ENDBRANCH  14  16
ENDBRANCH  11  14
ENDBRANCH   6  11
BRANCH  10  23
ATOM     23  O   UNL A   1      31.437  22.393  27.837  1.00  0.00    -0.507 OA
ATOM     24  H   UNL A   1      30.669  22.450  28.371  1.00  0.00     0.293 HD
ENDBRANCH  10  23
ENDBRANCH   3   5
ENDBRANCH   2   3
ENDBRANCH   1   2
BRANCH   1  25
ATOM     25  C   UNL A   1      36.109  20.537  25.014  1.00  0.00     0.275 C 
BRANCH  25  26
ATOM     26  O   UNL A   1      37.100  21.578  25.066  1.00  0.00    -0.458 OA
BRANCH  26  27
ATOM     27  C   UNL A   1      38.303  21.220  25.565  1.00  0.00     0.338 C 
ATOM     28  O   UNL A   1      38.882  20.156  25.424  1.00  0.00    -0.246 OA
BRANCH  27  29
ATOM     29  C   UNL A   1      38.881  22.360  26.294  1.00  0.00     0.060 A 
ATOM     30  C   UNL A   1      38.330  23.622  26.096  1.00  0.00     0.016 A 
ATOM     31  C   UNL A   1      40.044  22.211  27.046  1.00  0.00     0.016 A 
ATOM     32  C   UNL A   1      38.999  24.753  26.561  1.00  0.00     0.010 A 
ATOM     33  C   UNL A   1      40.669  23.347  27.580  1.00  0.00     0.010 A 
ATOM     34  C   UNL A   1      40.191  24.638  27.291  1.00  0.00    -0.014 A 
BRANCH  34  35
ATOM     35  C   UNL A   1      40.978  25.863  27.643  1.00  0.00     0.031 A 
ATOM     36  C   UNL A   1      40.363  26.931  28.520  1.00  0.00     0.074 A 
ATOM     37  C   UNL A   1      42.251  26.022  27.224  1.00  0.00     0.049 A 
ATOM     38  N   UNL A   1      40.830  28.113  28.841  1.00  0.00    -0.248 NA
ATOM     39  C   UNL A   1      39.039  26.643  29.095  1.00  0.00     0.031 C 
ATOM     40  C   UNL A   1      42.994  25.080  26.387  1.00  0.00     0.029 A 
ATOM     41  N   UNL A   1      43.149  27.039  27.453  1.00  0.00    -0.354 N 
ATOM     42  C   UNL A   1      39.826  28.736  29.575  1.00  0.00     0.074 A 
ATOM     43  C   UNL A   1      38.724  27.801  29.655  1.00  0.00     0.031 C 
ATOM     44  C   UNL A   1      44.242  25.539  26.206  1.00  0.00     0.029 A 
ATOM     45  C   UNL A   1      44.373  26.839  26.856  1.00  0.00     0.049 A 
ATOM     46  H   UNL A   1      42.936  27.834  27.993  1.00  0.00     0.167 HD
ATOM     47  C   UNL A   1      39.821  29.964  30.149  1.00  0.00     0.034 A 
ATOM     48  C   UNL A   1      45.475  27.617  26.819  1.00  0.00     0.034 A 
ATOM     49  C   UNL A   1      40.952  30.853  30.178  1.00  0.00     0.049 A 
ATOM     50  C   UNL A   1      45.469  28.946  27.524  1.00  0.00     0.074 A 
ATOM     51  C   UNL A   1      41.052  32.098  30.774  1.00  0.00     0.029 A 
ATOM     52  N   UNL A   1      42.189  30.581  29.616  1.00  0.00    -0.354 N 
ATOM     53  N   UNL A   1      44.522  29.497  28.243  1.00  0.00    -0.248 NA
ATOM     54  C   UNL A   1      46.694  29.754  27.427  1.00  0.00     0.031 C 
ATOM     55  C   UNL A   1      42.353  32.578  30.577  1.00  0.00     0.029 A 
ATOM     56  C   UNL A   1      43.063  31.627  29.864  1.00  0.00     0.049 A 
ATOM     57  H   UNL A   1      42.415  29.763  29.115  1.00  0.00     0.167 HD
ATOM     58  C   UNL A   1      45.040  30.706  28.695  1.00  0.00     0.074 A 
ATOM     59  C   UNL A   1      46.400  30.789  28.204  1.00  0.00     0.031 C 
ATOM     60  C   UNL A   1      44.433  31.673  29.425  1.00  0.00     0.034 A 
BRANCH  47  61
ATOM     61  C   UNL A   1      38.557  30.410  30.837  1.00  0.00     0.023 A 
ATOM     62  C   UNL A   1      38.368  30.134  32.206  1.00  0.00     0.012 A 
ATOM     63  C   UNL A   1      37.582  31.152  30.141  1.00  0.00     0.148 A 
ATOM     64  C   UNL A   1      37.215  30.560  32.863  1.00  0.00     0.002 A 
ATOM     65  C   UNL A   1      36.454  31.611  30.814  1.00  0.00     0.091 A 
ATOM     66  F   UNL A   1      37.766  31.388  28.834  1.00  0.00    -0.205 F 
ATOM     67  C   UNL A   1      36.264  31.306  32.172  1.00  0.00     0.022 A 
BRANCH  65  68
ATOM     68  S   UNL A   1      35.216  32.648  30.025  1.00  0.00     0.127 S 
ATOM     69  O   UNL A   1      34.666  31.742  29.019  1.00  0.00    -0.237 OA
ATOM     70  O   UNL A   1      34.309  32.948  31.135  1.00  0.00    -0.237 OA
ATOM     71  O   UNL A   1      35.936  33.803  29.508  1.00  0.00    -0.744 OA
ENDBRANCH  65  68
ENDBRANCH  47  61
BRANCH  48  72
ATOM     72  C   UNL A   1      46.700  27.137  26.115  1.00  0.00     0.023 A 
ATOM     73  C   UNL A   1      47.520  26.174  26.737  1.00  0.00     0.012 A 
ATOM     74  C   UNL A   1      47.042  27.602  24.832  1.00  0.00     0.148 A 
ATOM     75  C   UNL A   1      48.671  25.704  26.103  1.00  0.00     0.002 A 
ATOM     76  C   UNL A   1      48.155  27.083  24.180  1.00  0.00     0.091 A 
ATOM     77  F   UNL A   1      46.270  28.541  24.267  1.00  0.00    -0.205 F 
ATOM     78  C   UNL A   1      48.980  26.146  24.819  1.00  0.00     0.022 A 
BRANCH  76  79
ATOM     79  S   UNL A   1      48.536  27.496  22.474  1.00  0.00     0.127 S 
ATOM     80  O   UNL A   1      49.807  28.201  22.612  1.00  0.00    -0.237 OA
ATOM     81  O   UNL A   1      48.630  26.175  21.850  1.00  0.00    -0.237 OA
ATOM     82  O   UNL A   1      47.409  28.293  22.008  1.00  0.00    -0.744 OA
ENDBRANCH  76  79
ENDBRANCH  48  72
BRANCH  60  83
ATOM     83  C   UNL A   1      45.240  32.901  29.759  1.00  0.00     0.023 A 
ATOM     84  C   UNL A   1      45.205  34.011  28.890  1.00  0.00     0.012 A 
ATOM     85  C   UNL A   1      45.988  32.980  30.950  1.00  0.00     0.148 A 
ATOM     86  C   UNL A   1      45.930  35.166  29.183  1.00  0.00     0.002 A 
ATOM     87  C   UNL A   1      46.676  34.150  31.255  1.00  0.00     0.091 A 
ATOM     88  F   UNL A   1      46.031  31.909  31.754  1.00  0.00    -0.205 F 
ATOM     89  C   UNL A   1      46.657  35.239  30.369  1.00  0.00     0.022 A 
BRANCH  87  90
ATOM     90  S   UNL A   1      47.565  34.349  32.805  1.00  0.00     0.127 S 
ATOM     91  O   UNL A   1      46.475  34.363  33.777  1.00  0.00    -0.237 OA
ATOM     92  O   UNL A   1      48.404  33.150  32.847  1.00  0.00    -0.237 OA
ATOM     93  O   UNL A   1      48.309  35.594  32.669  1.00  0.00    -0.744 OA
ENDBRANCH  87  90
ENDBRANCH  60  83
ENDBRANCH  34  35
ENDBRANCH  27  29
ENDBRANCH  26  27
ENDBRANCH  25  26
ENDBRANCH   1  25
TORSDOF 18
ENDMDL
MODEL 3
REMARK VINA RESULT:     -11.9      5.194      7.776
REMARK SMILES CC1(C)CCC[C@H]1NS(=O)(=O)c1ccc(O)c(C(=O)OCCOC(=O)c2ccc(-c3c4nc(c(-c5cccc(S(=O)(=O)[O-])c5F)c5ccc([nH]5)c(-c5cccc(S(=O)(=O)[O-])c5F)c5nc(c(-c6cccc(S(=O)(=O)[O-])c6F)c6ccc3[nH]6)C=C5)C=C4)cc2)c1
REMARK SMILES IDX 21 1 20 2 18 3 19 4 17 5 12 6 13 7 89 8 14 9 15 10 9 11
REMARK SMILES IDX 10 12 11 13 8 14 7 16 1 17 2 18 3 19 4 20 5 21 6 22 16 23
REMARK SMILES IDX 22 25 23 26 24 27 25 28 26 29 27 30 88 31 28 32 87 33 29 34
REMARK SMILES IDX 30 35 31 36 81 37 32 38 86 39 80 40 82 41 33 42 85 43 79 44
REMARK SMILES IDX 78 45 34 47 66 48 46 49 65 50 47 51 50 52 64 53 83 54 48 55
REMARK SMILES IDX 49 56 63 58 84 59 51 60 35 61 36 62 44 63 37 64 39 65 45 66
REMARK SMILES IDX 38 67 40 68 41 69 42 70 43 71 67 72 68 73 76 74 69 75 71 76
REMARK SMILES IDX 77 77 70 78 72 79 73 80 74 81 75 82 52 83 53 84 61 85 54 86
REMARK SMILES IDX 56 87 62 88 55 89 57 90 58 91 59 92 60 93
REMARK H PARENT 8 15 16 24 82 46 50 57
REMARK Flexibility Score: inf
ROOT
ATOM      1  C   UNL A   1      35.906  20.307  25.077  1.00  0.00     0.275 C 
ENDROOT
BRANCH   1   2
ATOM      2  O   UNL A   1      35.379  21.546  24.570  1.00  0.00    -0.458 OA
BRANCH   2   3
ATOM      3  C   UNL A   1      34.896  22.433  25.479  1.00  0.00     0.342 C 
ATOM      4  O   UNL A   1      35.470  22.853  26.468  1.00  0.00    -0.246 OA
BRANCH   3   5
ATOM      5  C   UNL A   1      33.603  22.972  24.997  1.00  0.00     0.103 A 
ATOM      6  C   UNL A   1      32.482  24.655  23.663  1.00  0.00     0.083 A 
ATOM      7  C   UNL A   1      31.312  23.895  23.689  1.00  0.00     0.025 A 
ATOM      8  C   UNL A   1      33.616  24.221  24.360  1.00  0.00     0.041 A 
ATOM      9  C   UNL A   1      31.263  22.711  24.427  1.00  0.00     0.048 A 
ATOM     10  C   UNL A   1      32.413  22.240  25.063  1.00  0.00     0.130 A 
BRANCH   6  11
ATOM     11  S   UNL A   1      32.654  25.989  22.497  1.00  0.00     0.240 S 
ATOM     12  O   UNL A   1      31.412  26.028  21.751  1.00  0.00    -0.207 OA
ATOM     13  O   UNL A   1      33.928  25.815  21.848  1.00  0.00    -0.207 OA
BRANCH  11  14
ATOM     14  N   UNL A   1      32.833  27.400  23.392  1.00  0.00    -0.208 NA
ATOM     15  H   UNL A   1      33.717  27.308  23.892  1.00  0.00     0.141 HD
BRANCH  14  16
ATOM     16  C   UNL A   1      31.843  27.836  24.391  1.00  0.00     0.075 C 
ATOM     17  C   UNL A   1      33.881  27.472  26.011  1.00  0.00     0.013 C 
ATOM     18  C   UNL A   1      32.489  28.082  25.793  1.00  0.00    -0.019 C 
ATOM     19  C   UNL A   1      31.556  27.513  26.886  1.00  0.00     0.013 C 
ATOM     20  C   UNL A   1      32.556  29.617  25.897  1.00  0.00     0.008 C 
ATOM     21  C   UNL A   1      31.287  30.089  25.211  1.00  0.00     0.002 C 
ATOM     22  C   UNL A   1      31.174  29.170  24.006  1.00  0.00     0.020 C 
ENDBRANCH  14  16
ENDBRANCH  11  14
ENDBRANCH   6  11
BRANCH  10  23
ATOM     23  O   UNL A   1      32.362  21.061  25.751  1.00  0.00    -0.507 OA
ATOM     24  H   UNL A   1      31.581  20.819  26.209  1.00  0.00     0.293 HD
ENDBRANCH  10  23
ENDBRANCH   3   5
ENDBRANCH   2   3
ENDBRANCH   1   2
BRANCH   1  25
ATOM     25  C   UNL A   1      37.389  20.197  24.730  1.00  0.00     0.275 C 
BRANCH  25  26
ATOM     26  O   UNL A   1      38.064  21.381  25.191  1.00  0.00    -0.458 OA
BRANCH  26  27
ATOM     27  C   UNL A   1      39.176  21.175  25.931  1.00  0.00     0.338 C 
ATOM     28  O   UNL A   1      39.841  20.156  26.007  1.00  0.00    -0.246 OA
BRANCH  27  29
ATOM     29  C   UNL A   1      39.529  22.421  26.629  1.00  0.00     0.060 A 
ATOM     30  C   UNL A   1      38.906  23.601  26.235  1.00  0.00     0.016 A 
ATOM     31  C   UNL A   1      40.568  22.450  27.556  1.00  0.00     0.016 A 
ATOM     32  C   UNL A   1      39.391  24.827  26.687  1.00  0.00     0.010 A 
ATOM     33  C   UNL A   1      40.998  23.681  28.069  1.00  0.00     0.010 A 
ATOM     34  C   UNL A   1      40.459  24.891  27.593  1.00  0.00    -0.014 A 
BRANCH  34  35
ATOM     35  C   UNL A   1      41.069  26.213  27.944  1.00  0.00     0.031 A 
ATOM     36  C   UNL A   1      42.473  26.544  27.488  1.00  0.00     0.074 A 
ATOM     37  C   UNL A   1      40.377  27.143  28.635  1.00  0.00     0.049 A 
ATOM     38  N   UNL A   1      43.222  27.576  27.786  1.00  0.00    -0.248 NA
ATOM     39  C   UNL A   1      43.131  25.575  26.595  1.00  0.00     0.031 C 
ATOM     40  C   UNL A   1      39.011  26.988  29.134  1.00  0.00     0.029 A 
ATOM     41  N   UNL A   1      40.731  28.412  29.032  1.00  0.00    -0.354 N 
ATOM     42  C   UNL A   1      44.458  27.338  27.194  1.00  0.00     0.074 A 
ATOM     43  C   UNL A   1      44.359  26.064  26.517  1.00  0.00     0.031 C 
ATOM     44  C   UNL A   1      38.627  28.126  29.733  1.00  0.00     0.029 A 
ATOM     45  C   UNL A   1      39.739  29.071  29.722  1.00  0.00     0.049 A 
ATOM     46  H   UNL A   1      41.610  28.811  28.841  1.00  0.00     0.167 HD
ATOM     47  C   UNL A   1      45.571  28.112  27.193  1.00  0.00     0.034 A 
ATOM     48  C   UNL A   1      39.724  30.292  30.296  1.00  0.00     0.034 A 
ATOM     49  C   UNL A   1      45.644  29.433  27.761  1.00  0.00     0.049 A 
ATOM     50  C   UNL A   1      40.950  31.162  30.221  1.00  0.00     0.074 A 
ATOM     51  C   UNL A   1      46.717  30.307  27.768  1.00  0.00     0.029 A 
ATOM     52  N   UNL A   1      44.596  30.084  28.392  1.00  0.00    -0.354 N 
ATOM     53  N   UNL A   1      42.093  30.931  29.624  1.00  0.00    -0.248 NA
ATOM     54  C   UNL A   1      40.875  32.472  30.885  1.00  0.00     0.031 C 
ATOM     55  C   UNL A   1      46.316  31.491  28.400  1.00  0.00     0.029 A 
ATOM     56  C   UNL A   1      44.991  31.353  28.780  1.00  0.00     0.049 A 
ATOM     57  H   UNL A   1      43.701  29.700  28.542  1.00  0.00     0.167 HD
ATOM     58  C   UNL A   1      42.867  32.069  29.827  1.00  0.00     0.074 A 
ATOM     59  C   UNL A   1      42.048  33.006  30.567  1.00  0.00     0.031 C 
ATOM     60  C   UNL A   1      44.150  32.303  29.460  1.00  0.00     0.034 A 
BRANCH  47  61
ATOM     61  C   UNL A   1      46.802  27.567  26.517  1.00  0.00     0.023 A 
ATOM     62  C   UNL A   1      47.683  26.731  27.231  1.00  0.00     0.012 A 
ATOM     63  C   UNL A   1      47.057  27.838  25.157  1.00  0.00     0.148 A 
ATOM     64  C   UNL A   1      48.814  26.199  26.614  1.00  0.00     0.002 A 
ATOM     65  C   UNL A   1      48.165  27.269  24.536  1.00  0.00     0.091 A 
ATOM     66  F   UNL A   1      46.221  28.653  24.498  1.00  0.00    -0.205 F 
ATOM     67  C   UNL A   1      49.050  26.460  25.266  1.00  0.00     0.022 A 
BRANCH  65  68
ATOM     68  S   UNL A   1      48.502  27.482  22.785  1.00  0.00     0.127 S 
ATOM     69  O   UNL A   1      49.782  28.188  22.812  1.00  0.00    -0.237 OA
ATOM     70  O   UNL A   1      48.580  26.099  22.312  1.00  0.00    -0.237 OA
ATOM     71  O   UNL A   1      47.377  28.237  22.251  1.00  0.00    -0.744 OA
ENDBRANCH  65  68
ENDBRANCH  47  61
BRANCH  48  72
ATOM     72  C   UNL A   1      38.485  30.784  30.964  1.00  0.00     0.023 A 
ATOM     73  C   UNL A   1      38.340  30.622  32.357  1.00  0.00     0.012 A 
ATOM     74  C   UNL A   1      37.466  31.432  30.241  1.00  0.00     0.148 A 
ATOM     75  C   UNL A   1      37.193  31.076  33.010  1.00  0.00     0.002 A 
ATOM     76  C   UNL A   1      36.355  31.937  30.908  1.00  0.00     0.091 A 
ATOM     77  F   UNL A   1      37.603  31.551  28.913  1.00  0.00    -0.205 F 
ATOM     78  C   UNL A   1      36.209  31.746  32.290  1.00  0.00     0.022 A 
BRANCH  76  79
ATOM     79  S   UNL A   1      35.116  32.935  30.073  1.00  0.00     0.127 S 
ATOM     80  O   UNL A   1      34.512  31.964  29.165  1.00  0.00    -0.237 OA
ATOM     81  O   UNL A   1      34.260  33.356  31.182  1.00  0.00    -0.237 OA
ATOM     82  O   UNL A   1      35.855  34.023  29.446  1.00  0.00    -0.744 OA
ENDBRANCH  76  79
ENDBRANCH  48  72
BRANCH  60  83
ATOM     83  C   UNL A   1      44.748  33.635  29.833  1.00  0.00     0.023 A 
ATOM     84  C   UNL A   1      45.384  33.783  31.083  1.00  0.00     0.012 A 
ATOM     85  C   UNL A   1      44.728  34.720  28.936  1.00  0.00     0.148 A 
ATOM     86  C   UNL A   1      45.959  35.001  31.447  1.00  0.00     0.002 A 
ATOM     87  C   UNL A   1      45.339  35.919  29.289  1.00  0.00     0.091 A 
ATOM     88  F   UNL A   1      44.099  34.572  27.761  1.00  0.00    -0.205 F 
ATOM     89  C   UNL A   1      45.945  36.064  30.547  1.00  0.00     0.022 A 
BRANCH  87  90
ATOM     90  S   UNL A   1      45.434  37.306  28.150  1.00  0.00     0.127 S 
ATOM     91  O   UNL A   1      46.384  36.812  27.155  1.00  0.00    -0.237 OA
ATOM     92  O   UNL A   1      44.056  37.421  27.672  1.00  0.00    -0.237 OA
ATOM     93  O   UNL A   1      45.885  38.436  28.950  1.00  0.00    -0.744 OA
ENDBRANCH  87  90
ENDBRANCH  60  83
ENDBRANCH  34  35
ENDBRANCH  27  29
ENDBRANCH  26  27
ENDBRANCH  25  26
ENDBRANCH   1  25
TORSDOF 18
ENDMDL
