MODEL 1
REMARK VINA RESULT:     -12.6      0.000      0.000
REMARK SMILES CS(=O)(=O)c1ccc(/C=C(/C(=O)OCCOC(=O)c2ccc(-c3c4nc(c(-c5cccc(S(=O)(=O)[O-])c5F)c5ccc([nH]5)c(-c5cccc(S(=O)(=O)[O-])c5F)c5nc(c(-c6cccc(S(=O)(=O)[O-])c6F)c6ccc3[nH]6)C=C5)C=C4)cc2)c2ccccc2)cc1
REMARK SMILES IDX 15 1 14 2 13 3 11 4 12 5 10 6 9 7 8 8 5 9 6 10 89 11 7 12
REMARK SMILES IDX 88 13 2 14 1 15 3 16 4 17 82 18 83 19 87 20 84 21 86 22
REMARK SMILES IDX 85 23 16 24 17 25 18 26 19 27 20 28 81 29 21 30 80 31 22 32
REMARK SMILES IDX 23 33 24 34 74 35 25 36 79 37 73 38 75 39 26 40 78 41 72 42
REMARK SMILES IDX 71 43 27 45 59 46 39 47 58 48 40 49 43 50 57 51 76 52 41 53
REMARK SMILES IDX 42 54 56 56 77 57 44 58 28 59 29 60 37 61 30 62 32 63 38 64
REMARK SMILES IDX 31 65 33 66 34 67 35 68 36 69 60 70 61 71 69 72 62 73 64 74
REMARK SMILES IDX 70 75 63 76 65 77 66 78 67 79 68 80 45 81 46 82 54 83 47 84
REMARK SMILES IDX 49 85 55 86 48 87 50 88 51 89 52 90 53 91
REMARK H PARENT 75 44 43 55
REMARK Flexibility Score: inf
ROOT
ATOM      1  C   UNL A   1      36.126  21.960  24.425  1.00  0.00     0.275 C 
ENDROOT
BRANCH   1   2
ATOM      2  C   UNL A   1      34.656  22.301  24.662  1.00  0.00     0.275 C 
BRANCH   2   3
ATOM      3  O   UNL A   1      34.431  23.719  24.512  1.00  0.00    -0.458 OA
BRANCH   3   4
ATOM      4  C   UNL A   1      33.676  24.288  25.488  1.00  0.00     0.338 C 
ATOM      5  O   UNL A   1      33.577  23.881  26.636  1.00  0.00    -0.246 OA
BRANCH   4   6
ATOM      6  C   UNL A   1      32.964  25.509  25.002  1.00  0.00     0.067 C 
ATOM      7  C   UNL A   1      32.249  25.421  23.857  1.00  0.00     0.024 C 
BRANCH   7   8
ATOM      8  C   UNL A   1      31.228  26.375  23.367  1.00  0.00    -0.025 A 
ATOM      9  C   UNL A   1      29.251  28.306  22.854  1.00  0.00     0.067 A 
ATOM     10  C   UNL A   1      30.545  28.491  22.374  1.00  0.00     0.021 A 
ATOM     11  C   UNL A   1      28.907  27.121  23.503  1.00  0.00     0.021 A 
ATOM     12  C   UNL A   1      31.512  27.511  22.600  1.00  0.00     0.009 A 
ATOM     13  C   UNL A   1      29.897  26.165  23.759  1.00  0.00     0.009 A 
BRANCH   9  14
ATOM     14  S   UNL A   1      28.113  29.651  22.643  1.00  0.00     0.175 S 
ATOM     15  C   UNL A   1      28.785  31.045  23.495  1.00  0.00     0.163 C 
ATOM     16  O   UNL A   1      26.892  29.277  23.336  1.00  0.00    -0.224 OA
ATOM     17  O   UNL A   1      28.112  29.975  21.232  1.00  0.00    -0.224 OA
ENDBRANCH   9  14
ENDBRANCH   7   8
BRANCH   6  18
ATOM     18  C   UNL A   1      32.921  26.685  25.893  1.00  0.00    -0.011 A 
ATOM     19  C   UNL A   1      33.989  27.597  25.880  1.00  0.00     0.009 A 
ATOM     20  C   UNL A   1      31.809  26.944  26.702  1.00  0.00     0.009 A 
ATOM     21  C   UNL A   1      33.923  28.772  26.631  1.00  0.00     0.001 A 
ATOM     22  C   UNL A   1      31.755  28.112  27.466  1.00  0.00     0.001 A 
ATOM     23  C   UNL A   1      32.806  29.029  27.423  1.00  0.00     0.000 A 
ENDBRANCH   6  18
ENDBRANCH   4   6
ENDBRANCH   3   4
ENDBRANCH   2   3
ENDBRANCH   1   2
BRANCH   1  24
ATOM     24  O   UNL A   1      36.725  21.515  25.654  1.00  0.00    -0.458 OA
BRANCH  24  25
ATOM     25  C   UNL A   1      38.072  21.406  25.649  1.00  0.00     0.338 C 
ATOM     26  O   UNL A   1      38.735  20.533  25.107  1.00  0.00    -0.246 OA
BRANCH  25  27
ATOM     27  C   UNL A   1      38.685  22.529  26.385  1.00  0.00     0.060 A 
ATOM     28  C   UNL A   1      38.124  23.801  26.323  1.00  0.00     0.016 A 
ATOM     29  C   UNL A   1      39.917  22.349  27.014  1.00  0.00     0.016 A 
ATOM     30  C   UNL A   1      38.859  24.904  26.761  1.00  0.00     0.010 A 
ATOM     31  C   UNL A   1      40.596  23.451  27.555  1.00  0.00     0.010 A 
ATOM     32  C   UNL A   1      40.112  24.758  27.375  1.00  0.00    -0.014 A 
BRANCH  32  33
ATOM     33  C   UNL A   1      40.933  25.952  27.765  1.00  0.00     0.031 A 
ATOM     34  C   UNL A   1      40.350  27.034  28.652  1.00  0.00     0.074 A 
ATOM     35  C   UNL A   1      42.209  26.092  27.346  1.00  0.00     0.049 A 
ATOM     36  N   UNL A   1      40.812  28.234  28.907  1.00  0.00    -0.248 NA
ATOM     37  C   UNL A   1      39.072  26.740  29.324  1.00  0.00     0.031 C 
ATOM     38  C   UNL A   1      42.937  25.141  26.506  1.00  0.00     0.029 A 
ATOM     39  N   UNL A   1      43.125  27.096  27.569  1.00  0.00    -0.354 N 
ATOM     40  C   UNL A   1      39.835  28.871  29.667  1.00  0.00     0.074 A 
ATOM     41  C   UNL A   1      38.767  27.914  29.860  1.00  0.00     0.031 C 
ATOM     42  C   UNL A   1      44.194  25.572  26.332  1.00  0.00     0.029 A 
ATOM     43  C   UNL A   1      44.336  26.885  26.949  1.00  0.00     0.049 A 
ATOM     44  H   UNL A   1      42.933  27.888  28.122  1.00  0.00     0.167 HD
ATOM     45  C   UNL A   1      39.828  30.131  30.164  1.00  0.00     0.034 A 
ATOM     46  C   UNL A   1      45.426  27.669  26.834  1.00  0.00     0.034 A 
ATOM     47  C   UNL A   1      40.939  31.043  30.089  1.00  0.00     0.049 A 
ATOM     48  C   UNL A   1      45.418  29.042  27.443  1.00  0.00     0.074 A 
ATOM     49  C   UNL A   1      41.037  32.324  30.609  1.00  0.00     0.029 A 
ATOM     50  N   UNL A   1      42.156  30.764  29.491  1.00  0.00    -0.354 N 
ATOM     51  N   UNL A   1      44.480  29.625  28.147  1.00  0.00    -0.248 NA
ATOM     52  C   UNL A   1      46.617  29.867  27.237  1.00  0.00     0.031 C 
ATOM     53  C   UNL A   1      42.316  32.817  30.327  1.00  0.00     0.029 A 
ATOM     54  C   UNL A   1      43.015  31.841  29.637  1.00  0.00     0.049 A 
ATOM     55  H   UNL A   1      42.379  29.924  29.028  1.00  0.00     0.167 HD
ATOM     56  C   UNL A   1      44.975  30.882  28.471  1.00  0.00     0.074 A 
ATOM     57  C   UNL A   1      46.312  30.962  27.922  1.00  0.00     0.031 C 
ATOM     58  C   UNL A   1      44.362  31.893  29.133  1.00  0.00     0.034 A 
BRANCH  45  59
ATOM     59  C   UNL A   1      38.585  30.609  30.873  1.00  0.00     0.023 A 
ATOM     60  C   UNL A   1      38.487  30.498  32.273  1.00  0.00     0.012 A 
ATOM     61  C   UNL A   1      37.555  31.253  30.157  1.00  0.00     0.148 A 
ATOM     62  C   UNL A   1      37.372  30.999  32.948  1.00  0.00     0.002 A 
ATOM     63  C   UNL A   1      36.467  31.786  30.840  1.00  0.00     0.091 A 
ATOM     64  F   UNL A   1      37.654  31.332  28.823  1.00  0.00    -0.205 F 
ATOM     65  C   UNL A   1      36.371  31.653  32.235  1.00  0.00     0.022 A 
BRANCH  63  66
ATOM     66  S   UNL A   1      35.175  32.721  30.011  1.00  0.00     0.127 S 
ATOM     67  O   UNL A   1      34.660  31.736  29.062  1.00  0.00    -0.237 OA
ATOM     68  O   UNL A   1      34.262  33.040  31.110  1.00  0.00    -0.237 OA
ATOM     69  O   UNL A   1      35.837  33.877  29.424  1.00  0.00    -0.744 OA
ENDBRANCH  63  66
ENDBRANCH  45  59
BRANCH  46  70
ATOM     70  C   UNL A   1      46.623  27.159  26.105  1.00  0.00     0.023 A 
ATOM     71  C   UNL A   1      46.753  27.410  24.726  1.00  0.00     0.012 A 
ATOM     72  C   UNL A   1      47.665  26.495  26.782  1.00  0.00     0.148 A 
ATOM     73  C   UNL A   1      47.896  27.006  24.035  1.00  0.00     0.002 A 
ATOM     74  C   UNL A   1      48.831  26.163  26.104  1.00  0.00     0.091 A 
ATOM     75  F   UNL A   1      47.511  26.229  28.087  1.00  0.00    -0.205 F 
ATOM     76  C   UNL A   1      48.944  26.401  24.727  1.00  0.00     0.022 A 
BRANCH  74  77
ATOM     77  S   UNL A   1      50.280  25.553  26.974  1.00  0.00     0.127 S 
ATOM     78  O   UNL A   1      49.782  24.314  27.563  1.00  0.00    -0.237 OA
ATOM     79  O   UNL A   1      51.244  25.374  25.887  1.00  0.00    -0.237 OA
ATOM     80  O   UNL A   1      50.635  26.614  27.908  1.00  0.00    -0.744 OA
ENDBRANCH  74  77
ENDBRANCH  46  70
BRANCH  58  81
ATOM     81  C   UNL A   1      45.132  33.174  29.312  1.00  0.00     0.023 A 
ATOM     82  C   UNL A   1      45.943  33.336  30.452  1.00  0.00     0.012 A 
ATOM     83  C   UNL A   1      45.101  34.185  28.333  1.00  0.00     0.148 A 
ATOM     84  C   UNL A   1      46.689  34.500  30.631  1.00  0.00     0.002 A 
ATOM     85  C   UNL A   1      45.877  35.327  28.500  1.00  0.00     0.091 A 
ATOM     86  F   UNL A   1      44.307  34.022  27.265  1.00  0.00    -0.205 F 
ATOM     87  C   UNL A   1      46.665  35.490  29.652  1.00  0.00     0.022 A 
BRANCH  85  88
ATOM     88  S   UNL A   1      45.962  36.616  27.252  1.00  0.00     0.127 S 
ATOM     89  O   UNL A   1      46.952  37.524  27.826  1.00  0.00    -0.237 OA
ATOM     90  O   UNL A   1      46.420  35.883  26.070  1.00  0.00    -0.237 OA
ATOM     91  O   UNL A   1      44.610  37.146  27.140  1.00  0.00    -0.744 OA
ENDBRANCH  85  88
ENDBRANCH  58  81
ENDBRANCH  32  33
ENDBRANCH  25  27
ENDBRANCH  24  25
ENDBRANCH   1  24
TORSDOF 17
ENDMDL
MODEL 2
REMARK VINA RESULT:     -12.2      4.979      9.971
REMARK SMILES CS(=O)(=O)c1ccc(/C=C(/C(=O)OCCOC(=O)c2ccc(-c3c4nc(c(-c5cccc(S(=O)(=O)[O-])c5F)c5ccc([nH]5)c(-c5cccc(S(=O)(=O)[O-])c5F)c5nc(c(-c6cccc(S(=O)(=O)[O-])c6F)c6ccc3[nH]6)C=C5)C=C4)cc2)c2ccccc2)cc1
REMARK SMILES IDX 15 1 14 2 13 3 11 4 12 5 10 6 9 7 8 8 5 9 6 10 89 11 7 12
REMARK SMILES IDX 88 13 2 14 1 15 3 16 4 17 82 18 83 19 87 20 84 21 86 22
REMARK SMILES IDX 85 23 16 24 17 25 18 26 19 27 20 28 81 29 21 30 80 31 22 32
REMARK SMILES IDX 23 33 24 34 74 35 25 36 79 37 73 38 75 39 26 40 78 41 72 42
REMARK SMILES IDX 71 43 27 45 59 46 39 47 58 48 40 49 43 50 57 51 76 52 41 53
REMARK SMILES IDX 42 54 56 56 77 57 44 58 28 59 29 60 37 61 30 62 32 63 38 64
REMARK SMILES IDX 31 65 33 66 34 67 35 68 36 69 60 70 61 71 69 72 62 73 64 74
REMARK SMILES IDX 70 75 63 76 65 77 66 78 67 79 68 80 45 81 46 82 54 83 47 84
REMARK SMILES IDX 49 85 55 86 48 87 50 88 51 89 52 90 53 91
REMARK H PARENT 75 44 43 55
REMARK Flexibility Score: inf
ROOT
ATOM      1  C   UNL A   1      31.934  29.173  24.601  1.00  0.00     0.275 C 
ENDROOT
BRANCH   1   2
ATOM      2  C   UNL A   1      32.314  28.246  23.448  1.00  0.00     0.275 C 
BRANCH   2   3
ATOM      3  O   UNL A   1      32.488  26.893  23.919  1.00  0.00    -0.458 OA
BRANCH   3   4
ATOM      4  C   UNL A   1      33.236  26.094  23.111  1.00  0.00     0.338 C 
ATOM      5  O   UNL A   1      33.783  26.446  22.076  1.00  0.00    -0.246 OA
BRANCH   4   6
ATOM      6  C   UNL A   1      33.334  24.701  23.641  1.00  0.00     0.067 C 
ATOM      7  C   UNL A   1      32.237  23.911  23.574  1.00  0.00     0.024 C 
BRANCH   7   8
ATOM      8  C   UNL A   1      32.186  22.439  23.731  1.00  0.00    -0.025 A 
ATOM      9  C   UNL A   1      32.472  19.644  23.818  1.00  0.00     0.067 A 
ATOM     10  C   UNL A   1      32.525  20.386  24.996  1.00  0.00     0.021 A 
ATOM     11  C   UNL A   1      32.179  20.271  22.608  1.00  0.00     0.021 A 
ATOM     12  C   UNL A   1      32.345  21.769  24.949  1.00  0.00     0.009 A 
ATOM     13  C   UNL A   1      32.042  21.664  22.570  1.00  0.00     0.009 A 
BRANCH   9  14
ATOM     14  S   UNL A   1      32.840  17.913  23.939  1.00  0.00     0.175 S 
ATOM     15  C   UNL A   1      34.572  17.766  24.256  1.00  0.00     0.163 C 
ATOM     16  O   UNL A   1      32.598  17.342  22.625  1.00  0.00    -0.224 OA
ATOM     17  O   UNL A   1      32.149  17.424  25.114  1.00  0.00    -0.224 OA
ENDBRANCH   9  14
ENDBRANCH   7   8
BRANCH   6  18
ATOM     18  C   UNL A   1      34.667  24.200  24.028  1.00  0.00    -0.011 A 
ATOM     19  C   UNL A   1      35.150  24.460  25.321  1.00  0.00     0.009 A 
ATOM     20  C   UNL A   1      35.432  23.418  23.156  1.00  0.00     0.009 A 
ATOM     21  C   UNL A   1      36.358  23.906  25.749  1.00  0.00     0.001 A 
ATOM     22  C   UNL A   1      36.649  22.880  23.582  1.00  0.00     0.001 A 
ATOM     23  C   UNL A   1      37.106  23.116  24.878  1.00  0.00     0.000 A 
ENDBRANCH   6  18
ENDBRANCH   4   6
ENDBRANCH   3   4
ENDBRANCH   2   3
ENDBRANCH   1   2
BRANCH   1  24
ATOM     24  O   UNL A   1      33.098  29.461  25.394  1.00  0.00    -0.458 OA
BRANCH  24  25
ATOM     25  C   UNL A   1      32.974  30.477  26.277  1.00  0.00     0.338 C 
ATOM     26  O   UNL A   1      32.117  31.349  26.277  1.00  0.00    -0.246 OA
BRANCH  25  27
ATOM     27  C   UNL A   1      34.026  30.397  27.310  1.00  0.00     0.060 A 
ATOM     28  C   UNL A   1      34.788  31.518  27.626  1.00  0.00     0.016 A 
ATOM     29  C   UNL A   1      34.361  29.158  27.857  1.00  0.00     0.016 A 
ATOM     30  C   UNL A   1      35.961  31.369  28.369  1.00  0.00     0.010 A 
ATOM     31  C   UNL A   1      35.477  29.042  28.697  1.00  0.00     0.010 A 
ATOM     32  C   UNL A   1      36.339  30.132  28.911  1.00  0.00    -0.014 A 
BRANCH  32  33
ATOM     33  C   UNL A   1      37.643  29.963  29.634  1.00  0.00     0.031 A 
ATOM     34  C   UNL A   1      38.785  29.195  29.000  1.00  0.00     0.074 A 
ATOM     35  C   UNL A   1      37.837  30.494  30.861  1.00  0.00     0.049 A 
ATOM     36  N   UNL A   1      39.889  28.750  29.548  1.00  0.00    -0.248 NA
ATOM     37  C   UNL A   1      38.663  28.865  27.569  1.00  0.00     0.031 C 
ATOM     38  C   UNL A   1      36.858  31.279  31.612  1.00  0.00     0.029 A 
ATOM     39  N   UNL A   1      38.930  30.452  31.697  1.00  0.00    -0.354 N 
ATOM     40  C   UNL A   1      40.531  27.997  28.568  1.00  0.00     0.074 A 
ATOM     41  C   UNL A   1      39.709  28.072  27.380  1.00  0.00     0.031 C 
ATOM     42  C   UNL A   1      37.406  31.691  32.763  1.00  0.00     0.029 A 
ATOM     43  C   UNL A   1      38.736  31.108  32.892  1.00  0.00     0.049 A 
ATOM     44  H   UNL A   1      39.771  29.998  31.462  1.00  0.00     0.167 HD
ATOM     45  C   UNL A   1      41.698  27.313  28.646  1.00  0.00     0.034 A 
ATOM     46  C   UNL A   1      39.505  31.196  33.995  1.00  0.00     0.034 A 
ATOM     47  C   UNL A   1      42.585  27.341  29.780  1.00  0.00     0.049 A 
ATOM     48  C   UNL A   1      40.823  30.477  34.037  1.00  0.00     0.074 A 
ATOM     49  C   UNL A   1      43.814  26.717  29.925  1.00  0.00     0.029 A 
ATOM     50  N   UNL A   1      42.363  28.057  30.944  1.00  0.00    -0.354 N 
ATOM     51  N   UNL A   1      41.403  29.764  33.104  1.00  0.00    -0.248 NA
ATOM     52  C   UNL A   1      41.590  30.570  35.289  1.00  0.00     0.031 C 
ATOM     53  C   UNL A   1      44.335  27.059  31.178  1.00  0.00     0.029 A 
ATOM     54  C   UNL A   1      43.434  27.900  31.809  1.00  0.00     0.049 A 
ATOM     55  H   UNL A   1      41.561  28.598  31.131  1.00  0.00     0.167 HD
ATOM     56  C   UNL A   1      42.602  29.326  33.652  1.00  0.00     0.074 A 
ATOM     57  C   UNL A   1      42.686  29.887  34.984  1.00  0.00     0.031 C 
ATOM     58  C   UNL A   1      43.534  28.503  33.112  1.00  0.00     0.034 A 
BRANCH  45  59
ATOM     59  C   UNL A   1      42.119  26.487  27.456  1.00  0.00     0.023 A 
ATOM     60  C   UNL A   1      42.916  27.061  26.448  1.00  0.00     0.012 A 
ATOM     61  C   UNL A   1      41.799  25.115  27.388  1.00  0.00     0.148 A 
ATOM     62  C   UNL A   1      43.369  26.289  25.377  1.00  0.00     0.002 A 
ATOM     63  C   UNL A   1      42.289  24.343  26.340  1.00  0.00     0.091 A 
ATOM     64  F   UNL A   1      41.022  24.589  28.345  1.00  0.00    -0.205 F 
ATOM     65  C   UNL A   1      43.067  24.930  25.329  1.00  0.00     0.022 A 
BRANCH  63  66
ATOM     66  S   UNL A   1      42.021  22.567  26.247  1.00  0.00     0.127 S 
ATOM     67  O   UNL A   1      42.595  22.115  27.513  1.00  0.00    -0.237 OA
ATOM     68  O   UNL A   1      40.563  22.472  26.172  1.00  0.00    -0.237 OA
ATOM     69  O   UNL A   1      42.716  22.125  25.046  1.00  0.00    -0.744 OA
ENDBRANCH  63  66
ENDBRANCH  45  59
BRANCH  46  70
ATOM     70  C   UNL A   1      39.036  32.009  35.154  1.00  0.00     0.023 A 
ATOM     71  C   UNL A   1      38.170  31.430  36.100  1.00  0.00     0.012 A 
ATOM     72  C   UNL A   1      39.501  33.323  35.364  1.00  0.00     0.148 A 
ATOM     73  C   UNL A   1      37.771  32.145  37.230  1.00  0.00     0.002 A 
ATOM     74  C   UNL A   1      39.161  34.000  36.528  1.00  0.00     0.091 A 
ATOM     75  F   UNL A   1      40.295  33.875  34.436  1.00  0.00    -0.205 F 
ATOM     76  C   UNL A   1      38.283  33.421  37.455  1.00  0.00     0.022 A 
BRANCH  74  77
ATOM     77  S   UNL A   1      39.931  35.565  36.961  1.00  0.00     0.127 S 
ATOM     78  O   UNL A   1      39.266  35.894  38.217  1.00  0.00    -0.237 OA
ATOM     79  O   UNL A   1      41.342  35.192  37.089  1.00  0.00    -0.237 OA
ATOM     80  O   UNL A   1      39.655  36.447  35.834  1.00  0.00    -0.744 OA
ENDBRANCH  74  77
ENDBRANCH  46  70
BRANCH  58  81
ATOM     81  C   UNL A   1      44.733  28.164  33.956  1.00  0.00     0.023 A 
ATOM     82  C   UNL A   1      45.862  29.005  33.917  1.00  0.00     0.012 A 
ATOM     83  C   UNL A   1      44.723  27.054  34.823  1.00  0.00     0.148 A 
ATOM     84  C   UNL A   1      46.977  28.731  34.708  1.00  0.00     0.002 A 
ATOM     85  C   UNL A   1      45.824  26.809  35.636  1.00  0.00     0.091 A 
ATOM     86  F   UNL A   1      43.648  26.253  34.828  1.00  0.00    -0.205 F 
ATOM     87  C   UNL A   1      46.954  27.640  35.574  1.00  0.00     0.022 A 
BRANCH  85  88
ATOM     88  S   UNL A   1      45.847  25.470  36.834  1.00  0.00     0.127 S 
ATOM     89  O   UNL A   1      47.239  25.489  37.278  1.00  0.00    -0.237 OA
ATOM     90  O   UNL A   1      44.881  25.925  37.836  1.00  0.00    -0.237 OA
ATOM     91  O   UNL A   1      45.436  24.279  36.102  1.00  0.00    -0.744 OA
ENDBRANCH  85  88
ENDBRANCH  58  81
ENDBRANCH  32  33
ENDBRANCH  25  27
ENDBRANCH  24  25
ENDBRANCH   1  24
TORSDOF 17
ENDMDL
MODEL 3
REMARK VINA RESULT:     -11.9      1.030      2.028
REMARK SMILES CS(=O)(=O)c1ccc(/C=C(/C(=O)OCCOC(=O)c2ccc(-c3c4nc(c(-c5cccc(S(=O)(=O)[O-])c5F)c5ccc([nH]5)c(-c5cccc(S(=O)(=O)[O-])c5F)c5nc(c(-c6cccc(S(=O)(=O)[O-])c6F)c6ccc3[nH]6)C=C5)C=C4)cc2)c2ccccc2)cc1
REMARK SMILES IDX 15 1 14 2 13 3 11 4 12 5 10 6 9 7 8 8 5 9 6 10 89 11 7 12
REMARK SMILES IDX 88 13 2 14 1 15 3 16 4 17 82 18 83 19 87 20 84 21 86 22
REMARK SMILES IDX 85 23 16 24 17 25 18 26 19 27 20 28 81 29 21 30 80 31 22 32
REMARK SMILES IDX 23 33 24 34 74 35 25 36 79 37 73 38 75 39 26 40 78 41 72 42
REMARK SMILES IDX 71 43 27 45 59 46 39 47 58 48 40 49 43 50 57 51 76 52 41 53
REMARK SMILES IDX 42 54 56 56 77 57 44 58 28 59 29 60 37 61 30 62 32 63 38 64
REMARK SMILES IDX 31 65 33 66 34 67 35 68 36 69 60 70 61 71 69 72 62 73 64 74
REMARK SMILES IDX 70 75 63 76 65 77 66 78 67 79 68 80 45 81 46 82 54 83 47 84
REMARK SMILES IDX 49 85 55 86 48 87 50 88 51 89 52 90 53 91
REMARK H PARENT 75 44 43 55
REMARK Flexibility Score: inf
ROOT
ATOM      1  C   UNL A   1      35.703  21.096  25.124  1.00  0.00     0.275 C 
ENDROOT
BRANCH   1   2
ATOM      2  C   UNL A   1      35.111  21.538  26.460  1.00  0.00     0.275 C 
BRANCH   2   3
ATOM      3  O   UNL A   1      34.701  22.920  26.404  1.00  0.00    -0.458 OA
BRANCH   3   4
ATOM      4  C   UNL A   1      33.444  23.167  26.861  1.00  0.00     0.338 C 
ATOM      5  O   UNL A   1      33.027  22.884  27.974  1.00  0.00    -0.246 OA
BRANCH   4   6
ATOM      6  C   UNL A   1      32.603  23.853  25.835  1.00  0.00     0.067 C 
ATOM      7  C   UNL A   1      32.082  25.064  26.138  1.00  0.00     0.024 C 
BRANCH   7   8
ATOM      8  C   UNL A   1      31.505  26.050  25.195  1.00  0.00    -0.025 A 
ATOM      9  C   UNL A   1      30.146  28.031  23.735  1.00  0.00     0.067 A 
ATOM     10  C   UNL A   1      31.489  28.204  24.059  1.00  0.00     0.021 A 
ATOM     11  C   UNL A   1      29.499  26.836  24.046  1.00  0.00     0.021 A 
ATOM     12  C   UNL A   1      32.168  27.200  24.751  1.00  0.00     0.009 A 
ATOM     13  C   UNL A   1      30.180  25.855  24.777  1.00  0.00     0.009 A 
BRANCH   9  14
ATOM     14  S   UNL A   1      29.318  29.402  22.973  1.00  0.00     0.175 S 
ATOM     15  C   UNL A   1      27.587  29.043  22.987  1.00  0.00     0.163 C 
ATOM     16  O   UNL A   1      29.736  29.421  21.582  1.00  0.00    -0.224 OA
ATOM     17  O   UNL A   1      29.522  30.543  23.840  1.00  0.00    -0.224 OA
ENDBRANCH   9  14
ENDBRANCH   7   8
BRANCH   6  18
ATOM     18  C   UNL A   1      32.544  23.266  24.482  1.00  0.00    -0.011 A 
ATOM     19  C   UNL A   1      33.241  23.885  23.432  1.00  0.00     0.009 A 
ATOM     20  C   UNL A   1      31.861  22.069  24.238  1.00  0.00     0.009 A 
ATOM     21  C   UNL A   1      33.291  23.291  22.170  1.00  0.00     0.001 A 
ATOM     22  C   UNL A   1      31.899  21.486  22.969  1.00  0.00     0.001 A 
ATOM     23  C   UNL A   1      32.621  22.092  21.939  1.00  0.00     0.000 A 
ENDBRANCH   6  18
ENDBRANCH   4   6
ENDBRANCH   3   4
ENDBRANCH   2   3
ENDBRANCH   1   2
BRANCH   1  24
ATOM     24  O   UNL A   1      36.890  21.858  24.845  1.00  0.00    -0.458 OA
BRANCH  24  25
ATOM     25  C   UNL A   1      38.015  21.454  25.476  1.00  0.00     0.338 C 
ATOM     26  O   UNL A   1      38.511  20.337  25.446  1.00  0.00    -0.246 OA
BRANCH  25  27
ATOM     27  C   UNL A   1      38.622  22.574  26.221  1.00  0.00     0.060 A 
ATOM     28  C   UNL A   1      38.072  23.851  26.144  1.00  0.00     0.016 A 
ATOM     29  C   UNL A   1      39.838  22.386  26.877  1.00  0.00     0.016 A 
ATOM     30  C   UNL A   1      38.807  24.949  26.594  1.00  0.00     0.010 A 
ATOM     31  C   UNL A   1      40.514  23.484  27.428  1.00  0.00     0.010 A 
ATOM     32  C   UNL A   1      40.046  24.795  27.234  1.00  0.00    -0.014 A 
BRANCH  32  33
ATOM     33  C   UNL A   1      40.868  25.983  27.638  1.00  0.00     0.031 A 
ATOM     34  C   UNL A   1      40.290  27.050  28.545  1.00  0.00     0.074 A 
ATOM     35  C   UNL A   1      42.141  26.131  27.212  1.00  0.00     0.049 A 
ATOM     36  N   UNL A   1      40.752  28.247  28.817  1.00  0.00    -0.248 NA
ATOM     37  C   UNL A   1      39.017  26.745  29.221  1.00  0.00     0.031 C 
ATOM     38  C   UNL A   1      42.865  25.195  26.353  1.00  0.00     0.029 A 
ATOM     39  N   UNL A   1      43.058  27.132  27.445  1.00  0.00    -0.354 N 
ATOM     40  C   UNL A   1      39.780  28.871  29.593  1.00  0.00     0.074 A 
ATOM     41  C   UNL A   1      38.714  27.910  29.778  1.00  0.00     0.031 C 
ATOM     42  C   UNL A   1      44.120  25.629  26.177  1.00  0.00     0.029 A 
ATOM     43  C   UNL A   1      44.264  26.933  26.813  1.00  0.00     0.049 A 
ATOM     44  H   UNL A   1      42.868  27.915  28.012  1.00  0.00     0.167 HD
ATOM     45  C   UNL A   1      39.774  30.123  30.110  1.00  0.00     0.034 A 
ATOM     46  C   UNL A   1      45.353  27.720  26.704  1.00  0.00     0.034 A 
ATOM     47  C   UNL A   1      40.884  31.037  30.042  1.00  0.00     0.049 A 
ATOM     48  C   UNL A   1      45.348  29.082  27.335  1.00  0.00     0.074 A 
ATOM     49  C   UNL A   1      40.984  32.310  30.582  1.00  0.00     0.029 A 
ATOM     50  N   UNL A   1      42.098  30.769  29.431  1.00  0.00    -0.354 N 
ATOM     51  N   UNL A   1      44.414  29.654  28.054  1.00  0.00    -0.248 NA
ATOM     52  C   UNL A   1      46.545  29.912  27.134  1.00  0.00     0.031 C 
ATOM     53  C   UNL A   1      42.261  32.808  30.299  1.00  0.00     0.029 A 
ATOM     54  C   UNL A   1      42.957  31.844  29.589  1.00  0.00     0.049 A 
ATOM     55  H   UNL A   1      42.319  29.936  28.953  1.00  0.00     0.167 HD
ATOM     56  C   UNL A   1      44.910  30.906  28.395  1.00  0.00     0.074 A 
ATOM     57  C   UNL A   1      46.243  30.996  27.838  1.00  0.00     0.031 C 
ATOM     58  C   UNL A   1      44.300  31.906  29.077  1.00  0.00     0.034 A 
BRANCH  45  59
ATOM     59  C   UNL A   1      38.536  30.588  30.835  1.00  0.00     0.023 A 
ATOM     60  C   UNL A   1      38.418  30.392  32.224  1.00  0.00     0.012 A 
ATOM     61  C   UNL A   1      37.531  31.303  30.150  1.00  0.00     0.148 A 
ATOM     62  C   UNL A   1      37.309  30.879  32.917  1.00  0.00     0.002 A 
ATOM     63  C   UNL A   1      36.450  31.821  30.854  1.00  0.00     0.091 A 
ATOM     64  F   UNL A   1      37.648  31.462  28.824  1.00  0.00    -0.205 F 
ATOM     65  C   UNL A   1      36.333  31.603  32.236  1.00  0.00     0.022 A 
BRANCH  63  66
ATOM     66  S   UNL A   1      35.192  32.840  30.072  1.00  0.00     0.127 S 
ATOM     67  O   UNL A   1      35.917  34.091  29.857  1.00  0.00    -0.237 OA
ATOM     68  O   UNL A   1      34.896  32.091  28.850  1.00  0.00    -0.237 OA
ATOM     69  O   UNL A   1      34.089  32.903  31.020  1.00  0.00    -0.744 OA
ENDBRANCH  63  66
ENDBRANCH  45  59
BRANCH  46  70
ATOM     70  C   UNL A   1      46.546  27.223  25.959  1.00  0.00     0.023 A 
ATOM     71  C   UNL A   1      46.645  27.457  24.575  1.00  0.00     0.012 A 
ATOM     72  C   UNL A   1      47.614  26.589  26.626  1.00  0.00     0.148 A 
ATOM     73  C   UNL A   1      47.782  27.064  23.868  1.00  0.00     0.002 A 
ATOM     74  C   UNL A   1      48.773  26.269  25.929  1.00  0.00     0.091 A 
ATOM     75  F   UNL A   1      47.489  26.339  27.936  1.00  0.00    -0.205 F 
ATOM     76  C   UNL A   1      48.854  26.490  24.548  1.00  0.00     0.022 A 
BRANCH  74  77
ATOM     77  S   UNL A   1      50.250  25.701  26.780  1.00  0.00     0.127 S 
ATOM     78  O   UNL A   1      50.458  26.756  27.765  1.00  0.00    -0.237 OA
ATOM     79  O   UNL A   1      49.815  24.417  27.335  1.00  0.00    -0.237 OA
ATOM     80  O   UNL A   1      51.263  25.580  25.739  1.00  0.00    -0.744 OA
ENDBRANCH  74  77
ENDBRANCH  46  70
BRANCH  58  81
ATOM     81  C   UNL A   1      45.071  33.184  29.271  1.00  0.00     0.023 A 
ATOM     82  C   UNL A   1      45.914  33.316  30.391  1.00  0.00     0.012 A 
ATOM     83  C   UNL A   1      45.007  34.224  28.324  1.00  0.00     0.148 A 
ATOM     84  C   UNL A   1      46.660  34.478  30.583  1.00  0.00     0.002 A 
ATOM     85  C   UNL A   1      45.783  35.364  28.502  1.00  0.00     0.091 A 
ATOM     86  F   UNL A   1      44.182  34.089  27.276  1.00  0.00    -0.205 F 
ATOM     87  C   UNL A   1      46.603  35.497  29.635  1.00  0.00     0.022 A 
BRANCH  85  88
ATOM     88  S   UNL A   1      45.825  36.690  27.291  1.00  0.00     0.127 S 
ATOM     89  O   UNL A   1      46.950  37.493  27.766  1.00  0.00    -0.237 OA
ATOM     90  O   UNL A   1      46.077  35.969  26.041  1.00  0.00    -0.237 OA
ATOM     91  O   UNL A   1      44.519  37.330  27.361  1.00  0.00    -0.744 OA
ENDBRANCH  85  88
ENDBRANCH  58  81
ENDBRANCH  32  33
ENDBRANCH  25  27
ENDBRANCH  24  25
ENDBRANCH   1  24
TORSDOF 17
ENDMDL
