MODEL 1
REMARK VINA RESULT:     -10.8      0.000      0.000
REMARK SMILES O=C(OCCOC(=O)c1n[nH]c2cc(Br)cc(Cl)c12)c1ccc(-c2c3nc(c(-c4cccc(S(=O)(=O)[O-])c4F)c4ccc([nH]4)c(-c4cccc(S(=O)(=O)[O-])c4F)c4nc(c(-c5cccc(S(=O)(=O)[O-])c5F)c5ccc2[nH]5)C=C4)C=C3)cc1
REMARK SMILES IDX 3 1 2 2 1 3 20 4 21 5 82 6 22 7 81 8 23 9 24 10 25 11 75 12
REMARK SMILES IDX 26 13 80 14 74 15 76 16 27 17 79 18 73 19 72 20 28 22 60 23
REMARK SMILES IDX 40 24 59 25 41 26 44 27 58 28 77 29 42 30 43 31 57 33 78 34
REMARK SMILES IDX 45 35 29 36 30 37 38 38 31 39 33 40 39 41 32 42 34 43 35 44
REMARK SMILES IDX 36 45 37 46 61 47 62 48 70 49 63 50 65 51 71 52 64 53 66 54
REMARK SMILES IDX 67 55 68 56 69 57 46 58 47 59 55 60 48 61 50 62 56 63 49 64
REMARK SMILES IDX 51 65 52 66 53 67 54 68 4 69 5 70 6 71 7 72 8 73 9 74 10 75
REMARK SMILES IDX 19 76 11 77 12 78 17 79 13 81 16 82 18 83 14 84 15 85
REMARK H PARENT 76 21 44 32 11 80
REMARK Flexibility Score: inf
ROOT
ATOM      1  O   UNL A   1      35.509  33.182  27.898  1.00  0.00    -0.458 OA
ENDROOT
BRANCH   1   2
ATOM      2  C   UNL A   1      35.266  31.849  27.939  1.00  0.00     0.338 C 
ATOM      3  O   UNL A   1      34.252  31.338  27.493  1.00  0.00    -0.246 OA
BRANCH   2   4
ATOM      4  C   UNL A   1      36.472  31.090  28.352  1.00  0.00     0.060 A 
ATOM      5  C   UNL A   1      37.605  31.724  28.876  1.00  0.00     0.016 A 
ATOM      6  C   UNL A   1      36.458  29.699  28.194  1.00  0.00     0.016 A 
ATOM      7  C   UNL A   1      38.750  30.994  29.142  1.00  0.00     0.010 A 
ATOM      8  C   UNL A   1      37.602  28.963  28.472  1.00  0.00     0.010 A 
ATOM      9  C   UNL A   1      38.759  29.622  28.896  1.00  0.00    -0.014 A 
BRANCH   9  10
ATOM     10  C   UNL A   1      40.009  28.907  29.112  1.00  0.00     0.031 A 
ATOM     11  C   UNL A   1      40.423  28.707  30.530  1.00  0.00     0.074 A 
ATOM     12  C   UNL A   1      40.702  28.365  28.092  1.00  0.00     0.049 A 
ATOM     13  N   UNL A   1      41.494  29.127  31.123  1.00  0.00    -0.248 NA
ATOM     14  C   UNL A   1      39.480  28.017  31.421  1.00  0.00     0.031 C 
ATOM     15  C   UNL A   1      40.284  28.226  26.693  1.00  0.00     0.029 A 
ATOM     16  N   UNL A   1      41.880  27.685  28.132  1.00  0.00    -0.354 N 
ATOM     17  C   UNL A   1      41.454  28.599  32.415  1.00  0.00     0.074 A 
ATOM     18  C   UNL A   1      40.136  28.041  32.581  1.00  0.00     0.031 C 
ATOM     19  C   UNL A   1      41.052  27.288  26.095  1.00  0.00     0.029 A 
ATOM     20  C   UNL A   1      42.099  26.886  27.017  1.00  0.00     0.049 A 
ATOM     21  H   UNL A   1      42.517  27.752  28.879  1.00  0.00     0.167 HD
ATOM     22  C   UNL A   1      42.566  28.501  33.199  1.00  0.00     0.034 A 
ATOM     23  C   UNL A   1      43.024  25.904  26.905  1.00  0.00     0.034 A 
ATOM     24  C   UNL A   1      43.649  29.299  32.694  1.00  0.00     0.049 A 
ATOM     25  C   UNL A   1      44.065  26.156  27.926  1.00  0.00     0.074 A 
ATOM     26  C   UNL A   1      43.865  30.646  32.490  1.00  0.00     0.029 A 
ATOM     27  N   UNL A   1      44.635  28.649  31.995  1.00  0.00    -0.354 N 
ATOM     28  N   UNL A   1      44.868  27.181  27.901  1.00  0.00    -0.248 NA
ATOM     29  C   UNL A   1      43.952  25.478  29.207  1.00  0.00     0.031 C 
ATOM     30  C   UNL A   1      44.652  30.713  31.304  1.00  0.00     0.029 A 
ATOM     31  C   UNL A   1      44.901  29.404  30.884  1.00  0.00     0.049 A 
ATOM     32  H   UNL A   1      45.070  27.803  32.245  1.00  0.00     0.167 HD
ATOM     33  C   UNL A   1      45.006  27.547  29.232  1.00  0.00     0.074 A 
ATOM     34  C   UNL A   1      44.524  26.395  29.992  1.00  0.00     0.031 C 
ATOM     35  C   UNL A   1      45.227  28.847  29.589  1.00  0.00     0.034 A 
BRANCH  22  36
ATOM     36  C   UNL A   1      42.803  27.468  34.277  1.00  0.00     0.023 A 
ATOM     37  C   UNL A   1      42.679  27.884  35.624  1.00  0.00     0.012 A 
ATOM     38  C   UNL A   1      43.387  26.204  34.050  1.00  0.00     0.148 A 
ATOM     39  C   UNL A   1      43.154  27.103  36.684  1.00  0.00     0.002 A 
ATOM     40  C   UNL A   1      43.788  25.397  35.112  1.00  0.00     0.091 A 
ATOM     41  F   UNL A   1      43.679  25.820  32.803  1.00  0.00    -0.205 F 
ATOM     42  C   UNL A   1      43.702  25.855  36.429  1.00  0.00     0.022 A 
BRANCH  40  43
ATOM     43  S   UNL A   1      44.447  23.747  34.844  1.00  0.00     0.127 S 
ATOM     44  O   UNL A   1      45.677  24.036  34.112  1.00  0.00    -0.237 OA
ATOM     45  O   UNL A   1      44.638  23.273  36.215  1.00  0.00    -0.237 OA
ATOM     46  O   UNL A   1      43.411  23.034  34.107  1.00  0.00    -0.744 OA
ENDBRANCH  40  43
ENDBRANCH  22  36
BRANCH  23  47
ATOM     47  C   UNL A   1      42.920  24.608  26.199  1.00  0.00     0.023 A 
ATOM     48  C   UNL A   1      43.993  24.165  25.402  1.00  0.00     0.012 A 
ATOM     49  C   UNL A   1      41.911  23.679  26.541  1.00  0.00     0.148 A 
ATOM     50  C   UNL A   1      44.079  22.830  24.989  1.00  0.00     0.002 A 
ATOM     51  C   UNL A   1      42.001  22.354  26.128  1.00  0.00     0.091 A 
ATOM     52  F   UNL A   1      40.919  24.073  27.351  1.00  0.00    -0.205 F 
ATOM     53  C   UNL A   1      43.090  21.922  25.361  1.00  0.00     0.022 A 
BRANCH  51  54
ATOM     54  S   UNL A   1      40.791  21.116  26.612  1.00  0.00     0.127 S 
ATOM     55  O   UNL A   1      39.572  21.621  25.981  1.00  0.00    -0.237 OA
ATOM     56  O   UNL A   1      41.340  19.907  26.006  1.00  0.00    -0.237 OA
ATOM     57  O   UNL A   1      40.763  21.134  28.070  1.00  0.00    -0.744 OA
ENDBRANCH  51  54
ENDBRANCH  23  47
BRANCH  35  58
ATOM     58  C   UNL A   1      45.534  29.845  28.497  1.00  0.00     0.023 A 
ATOM     59  C   UNL A   1      44.521  30.611  27.880  1.00  0.00     0.012 A 
ATOM     60  C   UNL A   1      46.876  30.163  28.229  1.00  0.00     0.148 A 
ATOM     61  C   UNL A   1      44.835  31.652  27.003  1.00  0.00     0.002 A 
ATOM     62  C   UNL A   1      47.187  31.233  27.396  1.00  0.00     0.091 A 
ATOM     63  F   UNL A   1      47.833  29.435  28.826  1.00  0.00    -0.205 F 
ATOM     64  C   UNL A   1      46.169  31.974  26.773  1.00  0.00     0.022 A 
BRANCH  62  65
ATOM     65  S   UNL A   1      48.878  31.793  27.176  1.00  0.00     0.127 S 
ATOM     66  O   UNL A   1      49.501  30.638  26.532  1.00  0.00    -0.237 OA
ATOM     67  O   UNL A   1      48.714  32.962  26.310  1.00  0.00    -0.237 OA
ATOM     68  O   UNL A   1      49.371  32.109  28.511  1.00  0.00    -0.744 OA
ENDBRANCH  62  65
ENDBRANCH  35  58
ENDBRANCH   9  10
ENDBRANCH   2   4
ENDBRANCH   1   2
BRANCH   1  69
ATOM     69  C   UNL A   1      34.429  34.104  28.151  1.00  0.00     0.275 C 
BRANCH  69  70
ATOM     70  C   UNL A   1      34.195  34.528  29.600  1.00  0.00     0.275 C 
BRANCH  70  71
ATOM     71  O   UNL A   1      35.335  34.185  30.401  1.00  0.00    -0.457 OA
BRANCH  71  72
ATOM     72  C   UNL A   1      35.075  33.524  31.570  1.00  0.00     0.359 C 
ATOM     73  O   UNL A   1      34.043  32.903  31.815  1.00  0.00    -0.244 OA
BRANCH  72  74
ATOM     74  C   UNL A   1      36.150  33.721  32.535  1.00  0.00     0.179 A 
ATOM     75  N   UNL A   1      36.441  34.933  33.040  1.00  0.00    -0.167 NA
ATOM     76  C   UNL A   1      36.984  32.711  33.091  1.00  0.00     0.053 A 
ATOM     77  N   UNL A   1      37.427  34.700  33.920  1.00  0.00    -0.277 N 
ATOM     78  C   UNL A   1      37.803  33.386  33.993  1.00  0.00     0.069 A 
ATOM     79  C   UNL A   1      37.151  31.321  32.967  1.00  0.00     0.054 A 
ATOM     80  H   UNL A   1      37.842  35.410  34.461  1.00  0.00     0.190 HD
ATOM     81  C   UNL A   1      38.776  32.742  34.771  1.00  0.00     0.044 A 
ATOM     82  C   UNL A   1      38.112  30.645  33.715  1.00  0.00     0.037 A 
ATOM     83  Cl  UNL A   1      36.139  30.492  31.868  1.00  0.00    -0.083 Cl
ATOM     84  C   UNL A   1      38.910  31.359  34.604  1.00  0.00     0.021 A 
ATOM     85  Br  UNL A   1      40.216  30.430  35.612  1.00  0.00    -0.051 Br
ENDBRANCH  72  74
ENDBRANCH  71  72
ENDBRANCH  70  71
ENDBRANCH  69  70
ENDBRANCH   1  69
TORSDOF 14
ENDMDL
MODEL 2
REMARK VINA RESULT:     -10.7      3.932     10.582
REMARK SMILES O=C(OCCOC(=O)c1n[nH]c2cc(Br)cc(Cl)c12)c1ccc(-c2c3nc(c(-c4cccc(S(=O)(=O)[O-])c4F)c4ccc([nH]4)c(-c4cccc(S(=O)(=O)[O-])c4F)c4nc(c(-c5cccc(S(=O)(=O)[O-])c5F)c5ccc2[nH]5)C=C4)C=C3)cc1
REMARK SMILES IDX 3 1 2 2 1 3 20 4 21 5 82 6 22 7 81 8 23 9 24 10 25 11 75 12
REMARK SMILES IDX 26 13 80 14 74 15 76 16 27 17 79 18 73 19 72 20 28 22 60 23
REMARK SMILES IDX 40 24 59 25 41 26 44 27 58 28 77 29 42 30 43 31 57 33 78 34
REMARK SMILES IDX 45 35 29 36 30 37 38 38 31 39 33 40 39 41 32 42 34 43 35 44
REMARK SMILES IDX 36 45 37 46 61 47 62 48 70 49 63 50 65 51 71 52 64 53 66 54
REMARK SMILES IDX 67 55 68 56 69 57 46 58 47 59 55 60 48 61 50 62 56 63 49 64
REMARK SMILES IDX 51 65 52 66 53 67 54 68 4 69 5 70 6 71 7 72 8 73 9 74 10 75
REMARK SMILES IDX 19 76 11 77 12 78 17 79 13 81 16 82 18 83 14 84 15 85
REMARK H PARENT 76 21 44 32 11 80
REMARK Flexibility Score: inf
ROOT
ATOM      1  O   UNL A   1      40.710  21.539  27.624  1.00  0.00    -0.458 OA
ENDROOT
BRANCH   1   2
ATOM      2  C   UNL A   1      39.979  22.420  26.900  1.00  0.00     0.338 C 
ATOM      3  O   UNL A   1      39.099  22.084  26.124  1.00  0.00    -0.246 OA
BRANCH   2   4
ATOM      4  C   UNL A   1      40.206  23.815  27.350  1.00  0.00     0.060 A 
ATOM      5  C   UNL A   1      41.363  24.191  28.044  1.00  0.00     0.016 A 
ATOM      6  C   UNL A   1      39.217  24.765  27.071  1.00  0.00     0.016 A 
ATOM      7  C   UNL A   1      41.486  25.475  28.547  1.00  0.00     0.010 A 
ATOM      8  C   UNL A   1      39.344  26.057  27.564  1.00  0.00     0.010 A 
ATOM      9  C   UNL A   1      40.453  26.391  28.344  1.00  0.00    -0.014 A 
BRANCH   9  10
ATOM     10  C   UNL A   1      40.588  27.704  28.960  1.00  0.00     0.031 A 
ATOM     11  C   UNL A   1      41.609  28.613  28.368  1.00  0.00     0.074 A 
ATOM     12  C   UNL A   1      39.763  28.113  29.943  1.00  0.00     0.049 A 
ATOM     13  N   UNL A   1      42.653  29.130  28.934  1.00  0.00    -0.248 NA
ATOM     14  C   UNL A   1      41.495  28.921  26.936  1.00  0.00     0.031 C 
ATOM     15  C   UNL A   1      38.544  27.458  30.427  1.00  0.00     0.029 A 
ATOM     16  N   UNL A   1      39.769  29.294  30.619  1.00  0.00    -0.354 N 
ATOM     17  C   UNL A   1      43.229  29.978  27.986  1.00  0.00     0.074 A 
ATOM     18  C   UNL A   1      42.555  29.706  26.741  1.00  0.00     0.031 C 
ATOM     19  C   UNL A   1      37.800  28.359  31.106  1.00  0.00     0.029 A 
ATOM     20  C   UNL A   1      38.558  29.590  31.232  1.00  0.00     0.049 A 
ATOM     21  H   UNL A   1      40.557  29.883  30.670  1.00  0.00     0.167 HD
ATOM     22  C   UNL A   1      44.100  30.970  28.327  1.00  0.00     0.034 A 
ATOM     23  C   UNL A   1      38.184  30.794  31.726  1.00  0.00     0.034 A 
ATOM     24  C   UNL A   1      44.601  30.806  29.664  1.00  0.00     0.049 A 
ATOM     25  C   UNL A   1      39.417  31.577  31.968  1.00  0.00     0.074 A 
ATOM     26  C   UNL A   1      45.363  29.860  30.317  1.00  0.00     0.029 A 
ATOM     27  N   UNL A   1      44.038  31.581  30.646  1.00  0.00    -0.354 N 
ATOM     28  N   UNL A   1      40.305  31.266  32.869  1.00  0.00    -0.248 NA
ATOM     29  C   UNL A   1      39.867  32.490  30.931  1.00  0.00     0.031 C 
ATOM     30  C   UNL A   1      44.830  29.813  31.639  1.00  0.00     0.029 A 
ATOM     31  C   UNL A   1      43.806  30.760  31.718  1.00  0.00     0.049 A 
ATOM     32  H   UNL A   1      43.838  32.542  30.591  1.00  0.00     0.167 HD
ATOM     33  C   UNL A   1      41.522  31.572  32.276  1.00  0.00     0.074 A 
ATOM     34  C   UNL A   1      41.185  32.430  31.143  1.00  0.00     0.031 C 
ATOM     35  C   UNL A   1      42.654  30.872  32.585  1.00  0.00     0.034 A 
BRANCH  22  36
ATOM     36  C   UNL A   1      44.305  32.266  27.577  1.00  0.00     0.023 A 
ATOM     37  C   UNL A   1      45.425  32.357  26.717  1.00  0.00     0.012 A 
ATOM     38  C   UNL A   1      43.623  33.468  27.866  1.00  0.00     0.148 A 
ATOM     39  C   UNL A   1      45.869  33.584  26.209  1.00  0.00     0.002 A 
ATOM     40  C   UNL A   1      44.021  34.674  27.297  1.00  0.00     0.091 A 
ATOM     41  F   UNL A   1      42.659  33.478  28.793  1.00  0.00    -0.205 F 
ATOM     42  C   UNL A   1      45.162  34.743  26.494  1.00  0.00     0.022 A 
BRANCH  40  43
ATOM     43  S   UNL A   1      43.107  36.195  27.581  1.00  0.00     0.127 S 
ATOM     44  O   UNL A   1      43.933  37.171  26.876  1.00  0.00    -0.237 OA
ATOM     45  O   UNL A   1      41.823  35.897  26.947  1.00  0.00    -0.237 OA
ATOM     46  O   UNL A   1      43.037  36.337  29.030  1.00  0.00    -0.744 OA
ENDBRANCH  40  43
ENDBRANCH  22  36
BRANCH  23  47
ATOM     47  C   UNL A   1      36.847  31.426  31.715  1.00  0.00     0.023 A 
ATOM     48  C   UNL A   1      36.292  31.896  32.921  1.00  0.00     0.012 A 
ATOM     49  C   UNL A   1      36.253  31.835  30.500  1.00  0.00     0.148 A 
ATOM     50  C   UNL A   1      35.204  32.776  32.917  1.00  0.00     0.002 A 
ATOM     51  C   UNL A   1      35.172  32.710  30.501  1.00  0.00     0.091 A 
ATOM     52  F   UNL A   1      36.811  31.446  29.345  1.00  0.00    -0.205 F 
ATOM     53  C   UNL A   1      34.651  33.192  31.708  1.00  0.00     0.022 A 
BRANCH  51  54
ATOM     54  S   UNL A   1      34.439  33.330  28.981  1.00  0.00     0.127 S 
ATOM     55  O   UNL A   1      35.558  34.057  28.380  1.00  0.00    -0.237 OA
ATOM     56  O   UNL A   1      34.074  32.093  28.297  1.00  0.00    -0.237 OA
ATOM     57  O   UNL A   1      33.325  34.177  29.391  1.00  0.00    -0.744 OA
ENDBRANCH  51  54
ENDBRANCH  23  47
BRANCH  35  58
ATOM     58  C   UNL A   1      42.601  29.903  33.744  1.00  0.00     0.023 A 
ATOM     59  C   UNL A   1      42.044  28.613  33.612  1.00  0.00     0.012 A 
ATOM     60  C   UNL A   1      43.300  30.218  34.922  1.00  0.00     0.148 A 
ATOM     61  C   UNL A   1      42.161  27.668  34.633  1.00  0.00     0.002 A 
ATOM     62  C   UNL A   1      43.460  29.259  35.916  1.00  0.00     0.091 A 
ATOM     63  F   UNL A   1      43.832  31.444  35.035  1.00  0.00    -0.205 F 
ATOM     64  C   UNL A   1      42.883  27.985  35.780  1.00  0.00     0.022 A 
BRANCH  62  65
ATOM     65  S   UNL A   1      44.501  29.553  37.348  1.00  0.00     0.127 S 
ATOM     66  O   UNL A   1      43.746  30.575  38.069  1.00  0.00    -0.237 OA
ATOM     67  O   UNL A   1      44.527  28.240  37.995  1.00  0.00    -0.237 OA
ATOM     68  O   UNL A   1      45.792  29.980  36.821  1.00  0.00    -0.744 OA
ENDBRANCH  62  65
ENDBRANCH  35  58
ENDBRANCH   9  10
ENDBRANCH   2   4
ENDBRANCH   1   2
BRANCH   1  69
ATOM     69  C   UNL A   1      41.230  20.357  26.981  1.00  0.00     0.275 C 
BRANCH  69  70
ATOM     70  C   UNL A   1      42.489  20.519  26.130  1.00  0.00     0.275 C 
BRANCH  70  71
ATOM     71  O   UNL A   1      43.181  21.719  26.503  1.00  0.00    -0.457 OA
BRANCH  71  72
ATOM     72  C   UNL A   1      43.570  22.535  25.476  1.00  0.00     0.359 C 
ATOM     73  O   UNL A   1      43.034  22.584  24.372  1.00  0.00    -0.244 OA
BRANCH  72  74
ATOM     74  C   UNL A   1      44.767  23.288  25.830  1.00  0.00     0.179 A 
ATOM     75  N   UNL A   1      45.906  22.680  26.211  1.00  0.00    -0.167 NA
ATOM     76  C   UNL A   1      44.921  24.702  25.788  1.00  0.00     0.053 A 
ATOM     77  N   UNL A   1      46.777  23.685  26.388  1.00  0.00    -0.277 N 
ATOM     78  C   UNL A   1      46.247  24.925  26.156  1.00  0.00     0.069 A 
ATOM     79  C   UNL A   1      44.129  25.822  25.478  1.00  0.00     0.054 A 
ATOM     80  H   UNL A   1      47.712  23.542  26.662  1.00  0.00     0.190 HD
ATOM     81  C   UNL A   1      46.814  26.205  26.229  1.00  0.00     0.044 A 
ATOM     82  C   UNL A   1      44.652  27.111  25.548  1.00  0.00     0.037 A 
ATOM     83  Cl  UNL A   1      42.507  25.547  25.017  1.00  0.00    -0.083 Cl
ATOM     84  C   UNL A   1      45.982  27.288  25.920  1.00  0.00     0.021 A 
ATOM     85  Br  UNL A   1      46.680  29.045  26.016  1.00  0.00    -0.051 Br
ENDBRANCH  72  74
ENDBRANCH  71  72
ENDBRANCH  70  71
ENDBRANCH  69  70
ENDBRANCH   1  69
TORSDOF 14
ENDMDL
MODEL 3
REMARK VINA RESULT:     -10.7      1.875      2.307
REMARK SMILES O=C(OCCOC(=O)c1n[nH]c2cc(Br)cc(Cl)c12)c1ccc(-c2c3nc(c(-c4cccc(S(=O)(=O)[O-])c4F)c4ccc([nH]4)c(-c4cccc(S(=O)(=O)[O-])c4F)c4nc(c(-c5cccc(S(=O)(=O)[O-])c5F)c5ccc2[nH]5)C=C4)C=C3)cc1
REMARK SMILES IDX 3 1 2 2 1 3 20 4 21 5 82 6 22 7 81 8 23 9 24 10 25 11 75 12
REMARK SMILES IDX 26 13 80 14 74 15 76 16 27 17 79 18 73 19 72 20 28 22 60 23
REMARK SMILES IDX 40 24 59 25 41 26 44 27 58 28 77 29 42 30 43 31 57 33 78 34
REMARK SMILES IDX 45 35 29 36 30 37 38 38 31 39 33 40 39 41 32 42 34 43 35 44
REMARK SMILES IDX 36 45 37 46 61 47 62 48 70 49 63 50 65 51 71 52 64 53 66 54
REMARK SMILES IDX 67 55 68 56 69 57 46 58 47 59 55 60 48 61 50 62 56 63 49 64
REMARK SMILES IDX 51 65 52 66 53 67 54 68 4 69 5 70 6 71 7 72 8 73 9 74 10 75
REMARK SMILES IDX 19 76 11 77 12 78 17 79 13 81 16 82 18 83 14 84 15 85
REMARK H PARENT 76 21 44 32 11 80
REMARK Flexibility Score: inf
ROOT
ATOM      1  O   UNL A   1      34.951  31.949  29.593  1.00  0.00    -0.458 OA
ENDROOT
BRANCH   1   2
ATOM      2  C   UNL A   1      35.720  32.146  28.495  1.00  0.00     0.338 C 
ATOM      3  O   UNL A   1      35.479  32.992  27.650  1.00  0.00    -0.246 OA
BRANCH   2   4
ATOM      4  C   UNL A   1      36.996  31.394  28.583  1.00  0.00     0.060 A 
ATOM      5  C   UNL A   1      37.160  30.139  27.983  1.00  0.00     0.016 A 
ATOM      6  C   UNL A   1      38.050  31.969  29.301  1.00  0.00     0.016 A 
ATOM      7  C   UNL A   1      38.324  29.418  28.185  1.00  0.00     0.010 A 
ATOM      8  C   UNL A   1      39.224  31.254  29.493  1.00  0.00     0.010 A 
ATOM      9  C   UNL A   1      39.335  29.960  28.978  1.00  0.00    -0.014 A 
BRANCH   9  10
ATOM     10  C   UNL A   1      40.508  29.135  29.230  1.00  0.00     0.031 A 
ATOM     11  C   UNL A   1      40.770  28.770  30.652  1.00  0.00     0.074 A 
ATOM     12  C   UNL A   1      41.257  28.642  28.226  1.00  0.00     0.049 A 
ATOM     13  N   UNL A   1      41.804  29.049  31.378  1.00  0.00    -0.248 NA
ATOM     14  C   UNL A   1      39.702  28.072  31.380  1.00  0.00     0.031 C 
ATOM     15  C   UNL A   1      40.967  28.669  26.788  1.00  0.00     0.029 A 
ATOM     16  N   UNL A   1      42.378  27.873  28.301  1.00  0.00    -0.354 N 
ATOM     17  C   UNL A   1      41.606  28.404  32.600  1.00  0.00     0.074 A 
ATOM     18  C   UNL A   1      40.243  27.935  32.591  1.00  0.00     0.031 C 
ATOM     19  C   UNL A   1      41.725  27.737  26.169  1.00  0.00     0.029 A 
ATOM     20  C   UNL A   1      42.649  27.170  27.134  1.00  0.00     0.049 A 
ATOM     21  H   UNL A   1      42.944  27.821  29.105  1.00  0.00     0.167 HD
ATOM     22  C   UNL A   1      42.628  28.148  33.465  1.00  0.00     0.034 A 
ATOM     23  C   UNL A   1      43.512  26.136  27.005  1.00  0.00     0.034 A 
ATOM     24  C   UNL A   1      43.805  28.905  33.143  1.00  0.00     0.049 A 
ATOM     25  C   UNL A   1      44.466  26.209  28.135  1.00  0.00     0.074 A 
ATOM     26  C   UNL A   1      44.129  30.246  33.098  1.00  0.00     0.029 A 
ATOM     27  N   UNL A   1      44.809  28.252  32.472  1.00  0.00    -0.354 N 
ATOM     28  N   UNL A   1      45.334  27.168  28.286  1.00  0.00    -0.248 NA
ATOM     29  C   UNL A   1      44.185  25.423  29.324  1.00  0.00     0.031 C 
ATOM     30  C   UNL A   1      45.030  30.366  31.999  1.00  0.00     0.029 A 
ATOM     31  C   UNL A   1      45.229  29.087  31.471  1.00  0.00     0.049 A 
ATOM     32  H   UNL A   1      45.159  27.355  32.671  1.00  0.00     0.167 HD
ATOM     33  C   UNL A   1      45.368  27.393  29.654  1.00  0.00     0.074 A 
ATOM     34  C   UNL A   1      44.739  26.215  30.247  1.00  0.00     0.031 C 
ATOM     35  C   UNL A   1      45.640  28.633  30.161  1.00  0.00     0.034 A 
BRANCH  22  36
ATOM     36  C   UNL A   1      42.691  27.002  34.449  1.00  0.00     0.023 A 
ATOM     37  C   UNL A   1      42.247  27.245  35.771  1.00  0.00     0.012 A 
ATOM     38  C   UNL A   1      43.393  25.799  34.223  1.00  0.00     0.148 A 
ATOM     39  C   UNL A   1      42.528  26.361  36.819  1.00  0.00     0.002 A 
ATOM     40  C   UNL A   1      43.604  24.886  35.253  1.00  0.00     0.091 A 
ATOM     41  F   UNL A   1      43.977  25.582  33.040  1.00  0.00    -0.205 F 
ATOM     42  C   UNL A   1      43.202  25.176  36.558  1.00  0.00     0.022 A 
BRANCH  40  43
ATOM     43  S   UNL A   1      44.414  23.309  34.961  1.00  0.00     0.127 S 
ATOM     44  O   UNL A   1      44.634  22.833  36.323  1.00  0.00    -0.237 OA
ATOM     45  O   UNL A   1      43.393  22.581  34.207  1.00  0.00    -0.237 OA
ATOM     46  O   UNL A   1      45.609  23.627  34.189  1.00  0.00    -0.744 OA
ENDBRANCH  40  43
ENDBRANCH  22  36
BRANCH  23  47
ATOM     47  C   UNL A   1      43.391  24.925  26.164  1.00  0.00     0.023 A 
ATOM     48  C   UNL A   1      44.341  24.683  25.154  1.00  0.00     0.012 A 
ATOM     49  C   UNL A   1      42.531  23.868  26.541  1.00  0.00     0.148 A 
ATOM     50  C   UNL A   1      44.459  23.420  24.564  1.00  0.00     0.002 A 
ATOM     51  C   UNL A   1      42.652  22.614  25.953  1.00  0.00     0.091 A 
ATOM     52  F   UNL A   1      41.666  24.067  27.545  1.00  0.00    -0.205 F 
ATOM     53  C   UNL A   1      43.623  22.382  24.971  1.00  0.00     0.022 A 
BRANCH  51  54
ATOM     54  S   UNL A   1      41.644  21.215  26.462  1.00  0.00     0.127 S 
ATOM     55  O   UNL A   1      40.296  21.676  26.129  1.00  0.00    -0.237 OA
ATOM     56  O   UNL A   1      42.157  20.149  25.607  1.00  0.00    -0.237 OA
ATOM     57  O   UNL A   1      41.886  21.049  27.891  1.00  0.00    -0.744 OA
ENDBRANCH  51  54
ENDBRANCH  23  47
BRANCH  35  58
ATOM     58  C   UNL A   1      46.117  29.705  29.207  1.00  0.00     0.023 A 
ATOM     59  C   UNL A   1      47.471  29.815  28.827  1.00  0.00     0.012 A 
ATOM     60  C   UNL A   1      45.161  30.481  28.530  1.00  0.00     0.148 A 
ATOM     61  C   UNL A   1      47.868  30.690  27.814  1.00  0.00     0.002 A 
ATOM     62  C   UNL A   1      45.552  31.314  27.487  1.00  0.00     0.091 A 
ATOM     63  F   UNL A   1      43.875  30.365  28.893  1.00  0.00    -0.205 F 
ATOM     64  C   UNL A   1      46.905  31.429  27.132  1.00  0.00     0.022 A 
BRANCH  62  65
ATOM     65  S   UNL A   1      44.348  32.178  26.473  1.00  0.00     0.127 S 
ATOM     66  O   UNL A   1      45.170  32.651  25.361  1.00  0.00    -0.237 OA
ATOM     67  O   UNL A   1      43.404  31.113  26.127  1.00  0.00    -0.237 OA
ATOM     68  O   UNL A   1      43.783  33.218  27.324  1.00  0.00    -0.744 OA
ENDBRANCH  62  65
ENDBRANCH  35  58
ENDBRANCH   9  10
ENDBRANCH   2   4
ENDBRANCH   1   2
BRANCH   1  69
ATOM     69  C   UNL A   1      34.720  33.046  30.500  1.00  0.00     0.275 C 
BRANCH  69  70
ATOM     70  C   UNL A   1      34.550  32.707  31.981  1.00  0.00     0.275 C 
BRANCH  70  71
ATOM     71  O   UNL A   1      35.684  31.961  32.446  1.00  0.00    -0.457 OA
BRANCH  71  72
ATOM     72  C   UNL A   1      36.249  32.389  33.617  1.00  0.00     0.359 C 
ATOM     73  O   UNL A   1      35.684  33.080  34.461  1.00  0.00    -0.244 OA
BRANCH  72  74
ATOM     74  C   UNL A   1      37.648  31.990  33.700  1.00  0.00     0.179 A 
ATOM     75  N   UNL A   1      38.038  30.893  34.375  1.00  0.00    -0.167 NA
ATOM     76  C   UNL A   1      38.752  32.640  33.080  1.00  0.00     0.053 A 
ATOM     77  N   UNL A   1      39.363  30.829  34.171  1.00  0.00    -0.277 N 
ATOM     78  C   UNL A   1      39.855  31.852  33.406  1.00  0.00     0.069 A 
ATOM     79  C   UNL A   1      38.971  33.774  32.279  1.00  0.00     0.054 A 
ATOM     80  H   UNL A   1      39.928  30.112  34.540  1.00  0.00     0.190 HD
ATOM     81  C   UNL A   1      41.156  32.143  32.974  1.00  0.00     0.044 A 
ATOM     82  C   UNL A   1      40.250  34.103  31.836  1.00  0.00     0.037 A 
ATOM     83  Cl  UNL A   1      37.617  34.732  31.870  1.00  0.00    -0.083 Cl
ATOM     84  C   UNL A   1      41.323  33.288  32.187  1.00  0.00     0.021 A 
ATOM     85  Br  UNL A   1      43.057  33.749  31.583  1.00  0.00    -0.051 Br
ENDBRANCH  72  74
ENDBRANCH  71  72
ENDBRANCH  70  71
ENDBRANCH  69  70
ENDBRANCH   1  69
TORSDOF 14
ENDMDL
