MODEL 1
REMARK VINA RESULT:     -12.9      0.000      0.000
REMARK SMILES C[C@H]1CCCC[C@H]1[N@H+]1[C@@H](C(=O)OCCOC(=O)c2ccc(-c3c4nc(c(-c5cccc(S(=O)(=O)[O-])c5F)c5ccc([nH]5)c(-c5cccc(S(=O)(=O)[O-])c5F)c5nc(c(-c6cccc(S(=O)(=O)[O-])c6F)c6ccc3[nH]6)C=C5)C=C4)cc2)CC[C@H]2CCCC[C@H]21
REMARK SMILES IDX 14 1 13 2 12 3 10 4 11 5 9 6 8 7 88 8 81 10 83 11 87 12
REMARK SMILES IDX 82 13 84 14 86 15 85 16 7 17 1 18 2 19 3 20 4 21 6 22 5 23
REMARK SMILES IDX 15 24 16 25 17 26 18 27 19 28 80 29 20 30 79 31 21 32 22 33
REMARK SMILES IDX 23 34 73 35 24 36 78 37 72 38 74 39 25 40 77 41 71 42 70 43
REMARK SMILES IDX 26 45 58 46 38 47 57 48 39 49 42 50 56 51 75 52 40 53 41 54
REMARK SMILES IDX 55 56 76 57 43 58 27 59 28 60 36 61 29 62 31 63 37 64 30 65
REMARK SMILES IDX 32 66 33 67 34 68 35 69 59 70 60 71 68 72 61 73 63 74 69 75
REMARK SMILES IDX 62 76 64 77 65 78 66 79 67 80 44 81 45 82 53 83 46 84 48 85
REMARK SMILES IDX 54 86 47 87 49 88 50 89 51 90 52 91
REMARK H PARENT 8 9 74 44 42 55
REMARK Flexibility Score: inf
ROOT
ATOM      1  C   UNL A   1      31.874  30.485  26.139  1.00  0.00     0.275 C 
ENDROOT
BRANCH   1   2
ATOM      2  C   UNL A   1      31.730  29.035  25.596  1.00  0.00     0.274 C 
BRANCH   2   3
ATOM      3  O   UNL A   1      32.561  27.995  26.213  1.00  0.00    -0.458 OA
BRANCH   3   4
ATOM      4  C   UNL A   1      32.050  26.730  26.268  1.00  0.00     0.365 C 
ATOM      5  O   UNL A   1      30.873  26.527  26.572  1.00  0.00    -0.245 OA
BRANCH   4   6
ATOM      6  C   UNL A   1      33.049  25.540  26.134  1.00  0.00     0.295 C 
ATOM      7  N   UNL A   1      34.000  25.349  24.985  1.00  0.00    -0.318 N 
ATOM      8  C   UNL A   1      34.930  24.113  25.559  1.00  0.00     0.188 C 
ATOM      9  H   UNL A   1      34.607  26.122  24.711  1.00  0.00     0.349 HD
ATOM     10  C   UNL A   1      32.402  24.166  26.400  1.00  0.00     0.078 C 
ATOM     11  C   UNL A   1      34.392  22.945  24.813  1.00  0.00     0.048 C 
ATOM     12  C   UNL A   1      36.464  23.738  25.729  1.00  0.00     0.065 C 
ATOM     13  C   UNL A   1      32.978  22.917  25.588  1.00  0.00     0.016 C 
ATOM     14  C   UNL A   1      35.140  23.339  23.420  1.00  0.00     0.010 C 
ATOM     15  C   UNL A   1      37.239  22.942  24.643  1.00  0.00     0.006 C 
ATOM     16  C   UNL A   1      36.572  22.867  23.293  1.00  0.00     0.001 C 
BRANCH   7  17
ATOM     17  C   UNL A   1      33.166  25.159  23.598  1.00  0.00     0.187 C 
ATOM     18  C   UNL A   1      30.647  23.726  23.445  1.00  0.00     0.014 C 
ATOM     19  C   UNL A   1      31.585  24.932  23.164  1.00  0.00     0.044 C 
ATOM     20  C   UNL A   1      30.751  26.192  23.220  1.00  0.00     0.009 C 
ATOM     21  C   UNL A   1      31.464  27.350  22.590  1.00  0.00     0.001 C 
ATOM     22  C   UNL A   1      33.726  26.057  22.467  1.00  0.00     0.065 C 
ATOM     23  C   UNL A   1      32.838  27.180  21.989  1.00  0.00     0.006 C 
ENDBRANCH   7  17
ENDBRANCH   4   6
ENDBRANCH   3   4
ENDBRANCH   2   3
ENDBRANCH   1   2
BRANCH   1  24
ATOM     24  O   UNL A   1      32.736  30.530  27.296  1.00  0.00    -0.458 OA
BRANCH  24  25
ATOM     25  C   UNL A   1      33.490  31.644  27.502  1.00  0.00     0.338 C 
ATOM     26  O   UNL A   1      33.041  32.792  27.618  1.00  0.00    -0.246 OA
BRANCH  25  27
ATOM     27  C   UNL A   1      34.918  31.273  27.780  1.00  0.00     0.060 A 
ATOM     28  C   UNL A   1      35.234  29.960  28.134  1.00  0.00     0.016 A 
ATOM     29  C   UNL A   1      35.900  32.262  27.971  1.00  0.00     0.016 A 
ATOM     30  C   UNL A   1      36.408  29.690  28.848  1.00  0.00     0.010 A 
ATOM     31  C   UNL A   1      37.149  31.942  28.555  1.00  0.00     0.010 A 
ATOM     32  C   UNL A   1      37.420  30.648  29.036  1.00  0.00    -0.014 A 
BRANCH  32  33
ATOM     33  C   UNL A   1      38.742  30.273  29.664  1.00  0.00     0.031 A 
ATOM     34  C   UNL A   1      39.707  29.280  29.033  1.00  0.00     0.074 A 
ATOM     35  C   UNL A   1      39.094  30.803  30.859  1.00  0.00     0.049 A 
ATOM     36  N   UNL A   1      40.730  28.656  29.573  1.00  0.00    -0.248 NA
ATOM     37  C   UNL A   1      39.505  28.951  27.615  1.00  0.00     0.031 C 
ATOM     38  C   UNL A   1      38.336  31.812  31.602  1.00  0.00     0.029 A 
ATOM     39  N   UNL A   1      40.176  30.552  31.677  1.00  0.00    -0.354 N 
ATOM     40  C   UNL A   1      41.237  27.802  28.594  1.00  0.00     0.074 A 
ATOM     41  C   UNL A   1      40.435  28.026  27.407  1.00  0.00     0.031 C 
ATOM     42  C   UNL A   1      38.984  32.126  32.727  1.00  0.00     0.029 A 
ATOM     43  C   UNL A   1      40.111  31.223  32.879  1.00  0.00     0.049 A 
ATOM     44  H   UNL A   1      40.917  29.955  31.429  1.00  0.00     0.167 HD
ATOM     45  C   UNL A   1      42.258  26.906  28.676  1.00  0.00     0.034 A 
ATOM     46  C   UNL A   1      40.795  31.083  34.031  1.00  0.00     0.034 A 
ATOM     47  C   UNL A   1      43.093  26.720  29.841  1.00  0.00     0.049 A 
ATOM     48  C   UNL A   1      41.862  30.040  34.133  1.00  0.00     0.074 A 
ATOM     49  C   UNL A   1      44.157  25.847  30.011  1.00  0.00     0.029 A 
ATOM     50  N   UNL A   1      42.967  27.418  31.034  1.00  0.00    -0.354 N 
ATOM     51  N   UNL A   1      42.297  29.217  33.214  1.00  0.00    -0.248 NA
ATOM     52  C   UNL A   1      42.533  29.912  35.433  1.00  0.00     0.031 C 
ATOM     53  C   UNL A   1      44.651  25.995  31.314  1.00  0.00     0.029 A 
ATOM     54  C   UNL A   1      43.924  26.990  31.943  1.00  0.00     0.049 A 
ATOM     55  H   UNL A   1      42.295  28.115  31.209  1.00  0.00     0.167 HD
ATOM     56  C   UNL A   1      43.321  28.494  33.812  1.00  0.00     0.074 A 
ATOM     57  C   UNL A   1      43.445  28.986  35.169  1.00  0.00     0.031 C 
ATOM     58  C   UNL A   1      44.081  27.507  33.279  1.00  0.00     0.034 A 
BRANCH  45  59
ATOM     59  C   UNL A   1      42.531  26.020  27.477  1.00  0.00     0.023 A 
ATOM     60  C   UNL A   1      43.345  26.475  26.421  1.00  0.00     0.012 A 
ATOM     61  C   UNL A   1      42.033  24.699  27.433  1.00  0.00     0.148 A 
ATOM     62  C   UNL A   1      43.618  25.653  25.324  1.00  0.00     0.002 A 
ATOM     63  C   UNL A   1      42.347  23.870  26.358  1.00  0.00     0.091 A 
ATOM     64  F   UNL A   1      41.254  24.273  28.437  1.00  0.00    -0.205 F 
ATOM     65  C   UNL A   1      43.127  24.350  25.296  1.00  0.00     0.022 A 
BRANCH  63  66
ATOM     66  S   UNL A   1      41.828  22.149  26.285  1.00  0.00     0.127 S 
ATOM     67  O   UNL A   1      42.513  21.685  25.079  1.00  0.00    -0.237 OA
ATOM     68  O   UNL A   1      42.364  21.606  27.534  1.00  0.00    -0.237 OA
ATOM     69  O   UNL A   1      40.374  22.175  26.216  1.00  0.00    -0.744 OA
ENDBRANCH  63  66
ENDBRANCH  45  59
BRANCH  46  70
ATOM     70  C   UNL A   1      40.452  31.958  35.188  1.00  0.00     0.023 A 
ATOM     71  C   UNL A   1      41.095  33.202  35.323  1.00  0.00     0.012 A 
ATOM     72  C   UNL A   1      39.423  31.611  36.088  1.00  0.00     0.148 A 
ATOM     73  C   UNL A   1      40.717  34.086  36.333  1.00  0.00     0.002 A 
ATOM     74  C   UNL A   1      39.005  32.526  37.045  1.00  0.00     0.091 A 
ATOM     75  F   UNL A   1      38.836  30.413  35.950  1.00  0.00    -0.205 F 
ATOM     76  C   UNL A   1      39.662  33.758  37.179  1.00  0.00     0.022 A 
BRANCH  74  77
ATOM     77  S   UNL A   1      37.545  32.261  38.060  1.00  0.00     0.127 S 
ATOM     78  O   UNL A   1      37.953  32.856  39.330  1.00  0.00    -0.237 OA
ATOM     79  O   UNL A   1      36.528  33.015  37.324  1.00  0.00    -0.237 OA
ATOM     80  O   UNL A   1      37.330  30.821  38.077  1.00  0.00    -0.744 OA
ENDBRANCH  74  77
ENDBRANCH  46  70
BRANCH  58  81
ATOM     81  C   UNL A   1      45.171  26.936  34.148  1.00  0.00     0.023 A 
ATOM     82  C   UNL A   1      46.455  27.518  34.152  1.00  0.00     0.012 A 
ATOM     83  C   UNL A   1      44.914  25.826  34.977  1.00  0.00     0.148 A 
ATOM     84  C   UNL A   1      47.476  26.978  34.935  1.00  0.00     0.002 A 
ATOM     85  C   UNL A   1      45.923  25.325  35.791  1.00  0.00     0.091 A 
ATOM     86  F   UNL A   1      43.695  25.268  34.940  1.00  0.00    -0.205 F 
ATOM     87  C   UNL A   1      47.207  25.889  35.761  1.00  0.00     0.022 A 
BRANCH  85  88
ATOM     88  S   UNL A   1      45.640  23.981  36.949  1.00  0.00     0.127 S 
ATOM     89  O   UNL A   1      46.959  23.832  37.563  1.00  0.00    -0.237 OA
ATOM     90  O   UNL A   1      44.617  24.541  37.832  1.00  0.00    -0.237 OA
ATOM     91  O   UNL A   1      45.191  22.851  36.149  1.00  0.00    -0.744 OA
ENDBRANCH  85  88
ENDBRANCH  58  81
ENDBRANCH  32  33
ENDBRANCH  25  27
ENDBRANCH  24  25
ENDBRANCH   1  24
TORSDOF 15
ENDMDL
MODEL 2
REMARK VINA RESULT:     -12.8      5.088     10.048
REMARK SMILES C[C@H]1CCCC[C@H]1[N@H+]1[C@@H](C(=O)OCCOC(=O)c2ccc(-c3c4nc(c(-c5cccc(S(=O)(=O)[O-])c5F)c5ccc([nH]5)c(-c5cccc(S(=O)(=O)[O-])c5F)c5nc(c(-c6cccc(S(=O)(=O)[O-])c6F)c6ccc3[nH]6)C=C5)C=C4)cc2)CC[C@H]2CCCC[C@H]21
REMARK SMILES IDX 14 1 13 2 12 3 10 4 11 5 9 6 8 7 88 8 81 10 83 11 87 12
REMARK SMILES IDX 82 13 84 14 86 15 85 16 7 17 1 18 2 19 3 20 4 21 6 22 5 23
REMARK SMILES IDX 15 24 16 25 17 26 18 27 19 28 80 29 20 30 79 31 21 32 22 33
REMARK SMILES IDX 23 34 73 35 24 36 78 37 72 38 74 39 25 40 77 41 71 42 70 43
REMARK SMILES IDX 26 45 58 46 38 47 57 48 39 49 42 50 56 51 75 52 40 53 41 54
REMARK SMILES IDX 55 56 76 57 43 58 27 59 28 60 36 61 29 62 31 63 37 64 30 65
REMARK SMILES IDX 32 66 33 67 34 68 35 69 59 70 60 71 68 72 61 73 63 74 69 75
REMARK SMILES IDX 62 76 64 77 65 78 66 79 67 80 44 81 45 82 53 83 46 84 48 85
REMARK SMILES IDX 54 86 47 87 49 88 50 89 51 90 52 91
REMARK H PARENT 8 9 74 44 42 55
REMARK Flexibility Score: inf
ROOT
ATOM      1  C   UNL A   1      36.791  20.848  24.966  1.00  0.00     0.275 C 
ENDROOT
BRANCH   1   2
ATOM      2  C   UNL A   1      35.397  21.476  24.689  1.00  0.00     0.274 C 
BRANCH   2   3
ATOM      3  O   UNL A   1      35.218  22.898  25.004  1.00  0.00    -0.458 OA
BRANCH   3   4
ATOM      4  C   UNL A   1      34.767  23.713  24.007  1.00  0.00     0.365 C 
ATOM      5  O   UNL A   1      34.861  23.388  22.822  1.00  0.00    -0.245 OA
BRANCH   4   6
ATOM      6  C   UNL A   1      34.317  25.154  24.398  1.00  0.00     0.295 C 
ATOM      7  N   UNL A   1      33.543  25.499  25.641  1.00  0.00    -0.318 N 
ATOM      8  C   UNL A   1      33.626  27.146  25.607  1.00  0.00     0.188 C 
ATOM      9  H   UNL A   1      33.884  25.168  26.544  1.00  0.00     0.349 HD
ATOM     10  C   UNL A   1      33.650  25.922  23.239  1.00  0.00     0.078 C 
ATOM     11  C   UNL A   1      32.272  27.517  25.119  1.00  0.00     0.048 C 
ATOM     12  C   UNL A   1      33.988  28.354  26.572  1.00  0.00     0.065 C 
ATOM     13  C   UNL A   1      32.503  26.967  23.620  1.00  0.00     0.016 C 
ATOM     14  C   UNL A   1      31.546  27.225  26.547  1.00  0.00     0.010 C 
ATOM     15  C   UNL A   1      32.907  29.083  27.416  1.00  0.00     0.006 C 
ATOM     16  C   UNL A   1      31.589  28.362  27.545  1.00  0.00     0.001 C 
BRANCH   7  17
ATOM     17  C   UNL A   1      32.091  24.760  25.615  1.00  0.00     0.187 C 
ATOM     18  C   UNL A   1      30.518  24.436  23.198  1.00  0.00     0.014 C 
ATOM     19  C   UNL A   1      31.180  23.931  24.509  1.00  0.00     0.044 C 
ATOM     20  C   UNL A   1      31.646  22.512  24.278  1.00  0.00     0.009 C 
ATOM     21  C   UNL A   1      31.938  21.812  25.570  1.00  0.00     0.001 C 
ATOM     22  C   UNL A   1      31.801  24.024  26.947  1.00  0.00     0.065 C 
ATOM     23  C   UNL A   1      31.749  22.516  26.892  1.00  0.00     0.006 C 
ENDBRANCH   7  17
ENDBRANCH   4   6
ENDBRANCH   3   4
ENDBRANCH   2   3
ENDBRANCH   1   2
BRANCH   1  24
ATOM     24  O   UNL A   1      37.796  21.865  25.166  1.00  0.00    -0.458 OA
BRANCH  24  25
ATOM     25  C   UNL A   1      38.904  21.552  25.892  1.00  0.00     0.338 C 
ATOM     26  O   UNL A   1      39.558  20.508  25.771  1.00  0.00    -0.246 OA
BRANCH  25  27
ATOM     27  C   UNL A   1      39.351  22.729  26.710  1.00  0.00     0.060 A 
ATOM     28  C   UNL A   1      38.892  24.008  26.388  1.00  0.00     0.016 A 
ATOM     29  C   UNL A   1      40.432  22.622  27.603  1.00  0.00     0.016 A 
ATOM     30  C   UNL A   1      39.624  25.134  26.781  1.00  0.00     0.010 A 
ATOM     31  C   UNL A   1      41.067  23.778  28.116  1.00  0.00     0.010 A 
ATOM     32  C   UNL A   1      40.694  25.065  27.692  1.00  0.00    -0.014 A 
BRANCH  32  33
ATOM     33  C   UNL A   1      41.351  26.320  28.219  1.00  0.00     0.031 A 
ATOM     34  C   UNL A   1      40.595  27.385  28.999  1.00  0.00     0.074 A 
ATOM     35  C   UNL A   1      42.662  26.548  27.973  1.00  0.00     0.049 A 
ATOM     36  N   UNL A   1      40.945  28.622  29.273  1.00  0.00    -0.248 NA
ATOM     37  C   UNL A   1      39.284  27.015  29.551  1.00  0.00     0.031 C 
ATOM     38  C   UNL A   1      43.575  25.629  27.290  1.00  0.00     0.029 A 
ATOM     39  N   UNL A   1      43.458  27.640  28.248  1.00  0.00    -0.354 N 
ATOM     40  C   UNL A   1      39.870  29.201  29.948  1.00  0.00     0.074 A 
ATOM     41  C   UNL A   1      38.872  28.159  30.086  1.00  0.00     0.031 C 
ATOM     42  C   UNL A   1      44.799  26.162  27.239  1.00  0.00     0.029 A 
ATOM     43  C   UNL A   1      44.728  27.529  27.725  1.00  0.00     0.049 A 
ATOM     44  H   UNL A   1      43.152  28.419  28.765  1.00  0.00     0.167 HD
ATOM     45  C   UNL A   1      39.719  30.477  30.395  1.00  0.00     0.034 A 
ATOM     46  C   UNL A   1      45.714  28.429  27.544  1.00  0.00     0.034 A 
ATOM     47  C   UNL A   1      40.735  31.502  30.306  1.00  0.00     0.049 A 
ATOM     48  C   UNL A   1      45.505  29.847  27.969  1.00  0.00     0.074 A 
ATOM     49  C   UNL A   1      40.675  32.817  30.742  1.00  0.00     0.029 A 
ATOM     50  N   UNL A   1      41.994  31.332  29.750  1.00  0.00    -0.354 N 
ATOM     51  N   UNL A   1      44.470  30.383  28.564  1.00  0.00    -0.248 NA
ATOM     52  C   UNL A   1      46.604  30.783  27.698  1.00  0.00     0.031 C 
ATOM     53  C   UNL A   1      41.884  33.448  30.422  1.00  0.00     0.029 A 
ATOM     54  C   UNL A   1      42.715  32.515  29.824  1.00  0.00     0.049 A 
ATOM     55  H   UNL A   1      42.328  30.493  29.359  1.00  0.00     0.167 HD
ATOM     56  C   UNL A   1      44.805  31.714  28.773  1.00  0.00     0.074 A 
ATOM     57  C   UNL A   1      46.144  31.897  28.250  1.00  0.00     0.031 C 
ATOM     58  C   UNL A   1      44.062  32.693  29.345  1.00  0.00     0.034 A 
BRANCH  45  59
ATOM     59  C   UNL A   1      38.389  30.868  31.007  1.00  0.00     0.023 A 
ATOM     60  C   UNL A   1      38.141  30.655  32.377  1.00  0.00     0.012 A 
ATOM     61  C   UNL A   1      37.404  31.517  30.229  1.00  0.00     0.148 A 
ATOM     62  C   UNL A   1      36.925  31.035  32.951  1.00  0.00     0.002 A 
ATOM     63  C   UNL A   1      36.212  31.934  30.818  1.00  0.00     0.091 A 
ATOM     64  F   UNL A   1      37.643  31.711  28.924  1.00  0.00    -0.205 F 
ATOM     65  C   UNL A   1      35.965  31.680  32.175  1.00  0.00     0.022 A 
BRANCH  63  66
ATOM     66  S   UNL A   1      34.958  32.851  29.911  1.00  0.00     0.127 S 
ATOM     67  O   UNL A   1      34.028  33.214  30.978  1.00  0.00    -0.237 OA
ATOM     68  O   UNL A   1      35.724  33.973  29.364  1.00  0.00    -0.237 OA
ATOM     69  O   UNL A   1      34.442  31.931  28.907  1.00  0.00    -0.744 OA
ENDBRANCH  63  66
ENDBRANCH  45  59
BRANCH  46  70
ATOM     70  C   UNL A   1      46.985  27.991  26.899  1.00  0.00     0.023 A 
ATOM     71  C   UNL A   1      47.978  27.378  27.684  1.00  0.00     0.012 A 
ATOM     72  C   UNL A   1      47.167  28.084  25.503  1.00  0.00     0.148 A 
ATOM     73  C   UNL A   1      49.130  26.862  27.090  1.00  0.00     0.002 A 
ATOM     74  C   UNL A   1      48.282  27.504  24.912  1.00  0.00     0.091 A 
ATOM     75  F   UNL A   1      46.214  28.687  24.778  1.00  0.00    -0.205 F 
ATOM     76  C   UNL A   1      49.272  26.907  25.706  1.00  0.00     0.022 A 
BRANCH  74  77
ATOM     77  S   UNL A   1      48.463  27.360  23.130  1.00  0.00     0.127 S 
ATOM     78  O   UNL A   1      49.811  27.884  22.924  1.00  0.00    -0.237 OA
ATOM     79  O   UNL A   1      48.325  25.916  22.930  1.00  0.00    -0.237 OA
ATOM     80  O   UNL A   1      47.384  28.152  22.556  1.00  0.00    -0.744 OA
ENDBRANCH  74  77
ENDBRANCH  46  70
BRANCH  58  81
ATOM     81  C   UNL A   1      44.709  34.044  29.498  1.00  0.00     0.023 A 
ATOM     82  C   UNL A   1      45.384  34.378  30.689  1.00  0.00     0.012 A 
ATOM     83  C   UNL A   1      44.660  34.981  28.446  1.00  0.00     0.148 A 
ATOM     84  C   UNL A   1      45.963  35.638  30.847  1.00  0.00     0.002 A 
ATOM     85  C   UNL A   1      45.282  36.216  28.593  1.00  0.00     0.091 A 
ATOM     86  F   UNL A   1      43.990  34.657  27.331  1.00  0.00    -0.205 F 
ATOM     87  C   UNL A   1      45.921  36.551  29.796  1.00  0.00     0.022 A 
BRANCH  85  88
ATOM     88  S   UNL A   1      45.351  37.418  27.259  1.00  0.00     0.127 S 
ATOM     89  O   UNL A   1      46.080  36.680  26.229  1.00  0.00    -0.237 OA
ATOM     90  O   UNL A   1      43.934  37.637  26.965  1.00  0.00    -0.237 OA
ATOM     91  O   UNL A   1      46.039  38.579  27.803  1.00  0.00    -0.744 OA
ENDBRANCH  85  88
ENDBRANCH  58  81
ENDBRANCH  32  33
ENDBRANCH  25  27
ENDBRANCH  24  25
ENDBRANCH   1  24
TORSDOF 15
ENDMDL
MODEL 3
REMARK VINA RESULT:     -12.8      5.079      9.928
REMARK SMILES C[C@H]1CCCC[C@H]1[N@H+]1[C@@H](C(=O)OCCOC(=O)c2ccc(-c3c4nc(c(-c5cccc(S(=O)(=O)[O-])c5F)c5ccc([nH]5)c(-c5cccc(S(=O)(=O)[O-])c5F)c5nc(c(-c6cccc(S(=O)(=O)[O-])c6F)c6ccc3[nH]6)C=C5)C=C4)cc2)CC[C@H]2CCCC[C@H]21
REMARK SMILES IDX 14 1 13 2 12 3 10 4 11 5 9 6 8 7 88 8 81 10 83 11 87 12
REMARK SMILES IDX 82 13 84 14 86 15 85 16 7 17 1 18 2 19 3 20 4 21 6 22 5 23
REMARK SMILES IDX 15 24 16 25 17 26 18 27 19 28 80 29 20 30 79 31 21 32 22 33
REMARK SMILES IDX 23 34 73 35 24 36 78 37 72 38 74 39 25 40 77 41 71 42 70 43
REMARK SMILES IDX 26 45 58 46 38 47 57 48 39 49 42 50 56 51 75 52 40 53 41 54
REMARK SMILES IDX 55 56 76 57 43 58 27 59 28 60 36 61 29 62 31 63 37 64 30 65
REMARK SMILES IDX 32 66 33 67 34 68 35 69 59 70 60 71 68 72 61 73 63 74 69 75
REMARK SMILES IDX 62 76 64 77 65 78 66 79 67 80 44 81 45 82 53 83 46 84 48 85
REMARK SMILES IDX 54 86 47 87 49 88 50 89 51 90 52 91
REMARK H PARENT 8 9 74 44 42 55
REMARK Flexibility Score: inf
ROOT
ATOM      1  C   UNL A   1      36.015  20.704  25.012  1.00  0.00     0.275 C 
ENDROOT
BRANCH   1   2
ATOM      2  C   UNL A   1      34.776  21.496  24.509  1.00  0.00     0.274 C 
BRANCH   2   3
ATOM      3  O   UNL A   1      34.689  22.917  24.867  1.00  0.00    -0.458 OA
BRANCH   3   4
ATOM      4  C   UNL A   1      34.439  23.806  23.863  1.00  0.00     0.365 C 
ATOM      5  O   UNL A   1      34.617  23.505  22.682  1.00  0.00    -0.245 OA
BRANCH   4   6
ATOM      6  C   UNL A   1      34.119  25.279  24.264  1.00  0.00     0.295 C 
ATOM      7  N   UNL A   1      33.386  25.684  25.513  1.00  0.00    -0.318 N 
ATOM      8  C   UNL A   1      33.612  27.318  25.486  1.00  0.00     0.188 C 
ATOM      9  H   UNL A   1      33.702  25.320  26.412  1.00  0.00     0.349 HD
ATOM     10  C   UNL A   1      33.514  26.109  23.112  1.00  0.00     0.078 C 
ATOM     11  C   UNL A   1      32.293  27.807  25.008  1.00  0.00     0.048 C 
ATOM     12  C   UNL A   1      34.084  28.485  26.453  1.00  0.00     0.065 C 
ATOM     13  C   UNL A   1      32.465  27.247  23.505  1.00  0.00     0.016 C 
ATOM     14  C   UNL A   1      31.553  27.573  26.440  1.00  0.00     0.010 C 
ATOM     15  C   UNL A   1      33.075  29.301  27.308  1.00  0.00     0.006 C 
ATOM     16  C   UNL A   1      31.701  28.697  27.443  1.00  0.00     0.001 C 
BRANCH   7  17
ATOM     17  C   UNL A   1      31.874  25.075  25.493  1.00  0.00     0.187 C 
ATOM     18  C   UNL A   1      30.304  24.805  23.068  1.00  0.00     0.014 C 
ATOM     19  C   UNL A   1      30.905  24.290  24.404  1.00  0.00     0.044 C 
ATOM     20  C   UNL A   1      31.247  22.828  24.227  1.00  0.00     0.009 C 
ATOM     21  C   UNL A   1      31.463  22.152  25.546  1.00  0.00     0.001 C 
ATOM     22  C   UNL A   1      31.507  24.414  26.845  1.00  0.00     0.065 C 
ATOM     23  C   UNL A   1      31.324  22.915  26.841  1.00  0.00     0.006 C 
ENDBRANCH   7  17
ENDBRANCH   4   6
ENDBRANCH   3   4
ENDBRANCH   2   3
ENDBRANCH   1   2
BRANCH   1  24
ATOM     24  O   UNL A   1      37.230  21.464  24.845  1.00  0.00    -0.458 OA
BRANCH  24  25
ATOM     25  C   UNL A   1      38.350  21.056  25.502  1.00  0.00     0.338 C 
ATOM     26  O   UNL A   1      38.923  19.974  25.319  1.00  0.00    -0.246 OA
BRANCH  25  27
ATOM     27  C   UNL A   1      38.919  22.174  26.325  1.00  0.00     0.060 A 
ATOM     28  C   UNL A   1      38.490  23.484  26.102  1.00  0.00     0.016 A 
ATOM     29  C   UNL A   1      40.068  21.982  27.113  1.00  0.00     0.016 A 
ATOM     30  C   UNL A   1      39.303  24.561  26.474  1.00  0.00     0.010 A 
ATOM     31  C   UNL A   1      40.797  23.087  27.615  1.00  0.00     0.010 A 
ATOM     32  C   UNL A   1      40.445  24.406  27.281  1.00  0.00    -0.014 A 
BRANCH  32  33
ATOM     33  C   UNL A   1      41.200  25.608  27.800  1.00  0.00     0.031 A 
ATOM     34  C   UNL A   1      40.551  26.692  28.648  1.00  0.00     0.074 A 
ATOM     35  C   UNL A   1      42.507  25.770  27.484  1.00  0.00     0.049 A 
ATOM     36  N   UNL A   1      40.986  27.899  28.931  1.00  0.00    -0.248 NA
ATOM     37  C   UNL A   1      39.255  26.379  29.266  1.00  0.00     0.031 C 
ATOM     38  C   UNL A   1      43.326  24.821  26.728  1.00  0.00     0.029 A 
ATOM     39  N   UNL A   1      43.378  26.809  27.740  1.00  0.00    -0.354 N 
ATOM     40  C   UNL A   1      39.985  28.517  29.681  1.00  0.00     0.074 A 
ATOM     41  C   UNL A   1      38.939  27.529  29.851  1.00  0.00     0.031 C 
ATOM     42  C   UNL A   1      44.574  25.287  26.619  1.00  0.00     0.029 A 
ATOM     43  C   UNL A   1      44.608  26.642  27.141  1.00  0.00     0.049 A 
ATOM     44  H   UNL A   1      43.145  27.588  28.292  1.00  0.00     0.167 HD
ATOM     45  C   UNL A   1      39.932  29.787  30.167  1.00  0.00     0.034 A 
ATOM     46  C   UNL A   1      45.631  27.491  26.926  1.00  0.00     0.034 A 
ATOM     47  C   UNL A   1      40.998  30.756  30.045  1.00  0.00     0.049 A 
ATOM     48  C   UNL A   1      45.527  28.906  27.396  1.00  0.00     0.074 A 
ATOM     49  C   UNL A   1      41.037  32.060  30.516  1.00  0.00     0.029 A 
ATOM     50  N   UNL A   1      42.212  30.533  29.413  1.00  0.00    -0.354 N 
ATOM     51  N   UNL A   1      44.559  29.481  28.063  1.00  0.00    -0.248 NA
ATOM     52  C   UNL A   1      46.660  29.787  27.085  1.00  0.00     0.031 C 
ATOM     53  C   UNL A   1      42.260  32.632  30.141  1.00  0.00     0.029 A 
ATOM     54  C   UNL A   1      43.001  31.672  29.474  1.00  0.00     0.049 A 
ATOM     55  H   UNL A   1      42.475  29.687  28.983  1.00  0.00     0.167 HD
ATOM     56  C   UNL A   1      44.980  30.786  28.285  1.00  0.00     0.074 A 
ATOM     57  C   UNL A   1      46.296  30.909  27.690  1.00  0.00     0.031 C 
ATOM     58  C   UNL A   1      44.327  31.788  28.922  1.00  0.00     0.034 A 
BRANCH  45  59
ATOM     59  C   UNL A   1      38.663  30.234  30.864  1.00  0.00     0.023 A 
ATOM     60  C   UNL A   1      38.467  29.969  32.234  1.00  0.00     0.012 A 
ATOM     61  C   UNL A   1      37.689  30.986  30.170  1.00  0.00     0.148 A 
ATOM     62  C   UNL A   1      37.308  30.399  32.887  1.00  0.00     0.002 A 
ATOM     63  C   UNL A   1      36.557  31.450  30.838  1.00  0.00     0.091 A 
ATOM     64  F   UNL A   1      37.877  31.229  28.865  1.00  0.00    -0.205 F 
ATOM     65  C   UNL A   1      36.359  31.145  32.192  1.00  0.00     0.022 A 
BRANCH  63  66
ATOM     66  S   UNL A   1      35.328  32.493  30.041  1.00  0.00     0.127 S 
ATOM     67  O   UNL A   1      34.869  31.630  28.953  1.00  0.00    -0.237 OA
ATOM     68  O   UNL A   1      34.348  32.697  31.110  1.00  0.00    -0.237 OA
ATOM     69  O   UNL A   1      36.035  33.700  29.636  1.00  0.00    -0.744 OA
ENDBRANCH  63  66
ENDBRANCH  45  59
BRANCH  46  70
ATOM     70  C   UNL A   1      46.837  27.002  26.198  1.00  0.00     0.023 A 
ATOM     71  C   UNL A   1      46.978  27.294  24.829  1.00  0.00     0.012 A 
ATOM     72  C   UNL A   1      47.886  26.346  26.876  1.00  0.00     0.148 A 
ATOM     73  C   UNL A   1      48.143  26.944  24.148  1.00  0.00     0.002 A 
ATOM     74  C   UNL A   1      49.071  26.065  26.208  1.00  0.00     0.091 A 
ATOM     75  F   UNL A   1      47.722  26.064  28.176  1.00  0.00    -0.205 F 
ATOM     76  C   UNL A   1      49.195  26.349  24.840  1.00  0.00     0.022 A 
BRANCH  74  77
ATOM     77  S   UNL A   1      50.536  25.463  27.057  1.00  0.00     0.127 S 
ATOM     78  O   UNL A   1      51.466  25.274  25.947  1.00  0.00    -0.237 OA
ATOM     79  O   UNL A   1      50.852  26.585  27.942  1.00  0.00    -0.237 OA
ATOM     80  O   UNL A   1      50.123  24.250  27.748  1.00  0.00    -0.744 OA
ENDBRANCH  74  77
ENDBRANCH  46  70
BRANCH  58  81
ATOM     81  C   UNL A   1      45.057  33.097  29.071  1.00  0.00     0.023 A 
ATOM     82  C   UNL A   1      45.829  33.354  30.221  1.00  0.00     0.012 A 
ATOM     83  C   UNL A   1      44.990  34.070  28.054  1.00  0.00     0.148 A 
ATOM     84  C   UNL A   1      46.487  34.575  30.377  1.00  0.00     0.002 A 
ATOM     85  C   UNL A   1      45.688  35.264  28.193  1.00  0.00     0.091 A 
ATOM     86  F   UNL A   1      44.229  33.820  26.979  1.00  0.00    -0.205 F 
ATOM     87  C   UNL A   1      46.425  35.524  29.360  1.00  0.00     0.022 A 
BRANCH  85  88
ATOM     88  S   UNL A   1      45.733  36.505  26.896  1.00  0.00     0.127 S 
ATOM     89  O   UNL A   1      46.138  35.711  25.737  1.00  0.00    -0.237 OA
ATOM     90  O   UNL A   1      44.346  36.969  26.861  1.00  0.00    -0.237 OA
ATOM     91  O   UNL A   1      46.693  37.508  27.334  1.00  0.00    -0.744 OA
ENDBRANCH  85  88
ENDBRANCH  58  81
ENDBRANCH  32  33
ENDBRANCH  25  27
ENDBRANCH  24  25
ENDBRANCH   1  24
TORSDOF 15
ENDMDL
