MODEL 1
REMARK VINA RESULT:     -10.5      0.000      0.000
REMARK SMILES O=C(C[C@H](c1ccsc1)n1cccc1)OCCOC(=O)c1ccc(-c2c3nc(c(-c4cccc(S(=O)(=O)[O-])c4F)c4ccc([nH]4)c(-c4cccc(S(=O)(=O)[O-])c4F)c4nc(c(-c5cccc(S(=O)(=O)[O-])c5F)c5ccc2[nH]5)C=C4)C=C3)cc1
REMARK SMILES IDX 17 1 16 2 15 3 2 4 1 5 3 6 4 7 10 8 11 9 14 10 12 11 13 12
REMARK SMILES IDX 5 13 6 14 9 15 7 16 8 17 18 18 19 19 20 20 21 21 22 22 83 23
REMARK SMILES IDX 23 24 82 25 24 26 25 27 26 28 76 29 27 30 81 31 75 32 77 33
REMARK SMILES IDX 28 34 80 35 74 36 73 37 29 39 61 40 41 41 60 42 42 43 45 44
REMARK SMILES IDX 59 45 78 46 43 47 44 48 58 50 79 51 46 52 30 53 31 54 39 55
REMARK SMILES IDX 32 56 34 57 40 58 33 59 35 60 36 61 37 62 38 63 62 64 63 65
REMARK SMILES IDX 71 66 64 67 66 68 72 69 65 70 67 71 68 72 69 73 70 74 47 75
REMARK SMILES IDX 48 76 56 77 49 78 51 79 57 80 50 81 52 82 53 83 54 84 55 85
REMARK H PARENT 77 38 45 49
REMARK Flexibility Score: inf
ROOT
ATOM      1  C   UNL A   1      34.838  31.953  28.062  1.00  0.00     0.275 C 
ENDROOT
BRANCH   1   2
ATOM      2  C   UNL A   1      34.842  33.087  29.069  1.00  0.00     0.274 C 
BRANCH   2   3
ATOM      3  O   UNL A   1      34.513  32.690  30.410  1.00  0.00    -0.462 OA
BRANCH   3   4
ATOM      4  C   UNL A   1      34.612  33.428  31.534  1.00  0.00     0.308 C 
ATOM      5  O   UNL A   1      34.419  34.644  31.459  1.00  0.00    -0.252 OA
BRANCH   4   6
ATOM      6  C   UNL A   1      34.994  32.822  32.865  1.00  0.00     0.153 C 
BRANCH   6   7
ATOM      7  C   UNL A   1      36.434  32.307  32.981  1.00  0.00     0.128 C 
BRANCH   7   8
ATOM      8  N   UNL A   1      37.377  32.860  31.993  1.00  0.00    -0.346 N 
ATOM      9  C   UNL A   1      37.870  34.140  31.945  1.00  0.00     0.086 A 
ATOM     10  C   UNL A   1      37.889  32.156  30.924  1.00  0.00     0.086 A 
ATOM     11  C   UNL A   1      38.644  34.271  30.814  1.00  0.00     0.019 A 
ATOM     12  C   UNL A   1      38.656  33.015  30.167  1.00  0.00     0.019 A 
ENDBRANCH   7   8
BRANCH   7  13
ATOM     13  C   UNL A   1      36.991  32.552  34.373  1.00  0.00    -0.014 A 
ATOM     14  C   UNL A   1      36.593  33.618  35.252  1.00  0.00     0.017 A 
ATOM     15  C   UNL A   1      37.927  31.742  34.992  1.00  0.00     0.070 A 
ATOM     16  C   UNL A   1      37.238  33.581  36.467  1.00  0.00     0.065 A 
ATOM     17  S   UNL A   1      38.317  32.263  36.574  1.00  0.00    -0.152 S 
ENDBRANCH   7  13
ENDBRANCH   6   7
ENDBRANCH   4   6
ENDBRANCH   3   4
ENDBRANCH   2   3
ENDBRANCH   1   2
BRANCH   1  18
ATOM     18  O   UNL A   1      36.102  31.321  27.932  1.00  0.00    -0.458 OA
BRANCH  18  19
ATOM     19  C   UNL A   1      36.088  29.966  27.986  1.00  0.00     0.338 C 
ATOM     20  O   UNL A   1      35.123  29.245  27.878  1.00  0.00    -0.246 OA
BRANCH  19  21
ATOM     21  C   UNL A   1      37.451  29.502  28.292  1.00  0.00     0.060 A 
ATOM     22  C   UNL A   1      38.433  29.640  27.305  1.00  0.00     0.016 A 
ATOM     23  C   UNL A   1      37.695  28.787  29.470  1.00  0.00     0.016 A 
ATOM     24  C   UNL A   1      39.636  28.971  27.459  1.00  0.00     0.010 A 
ATOM     25  C   UNL A   1      38.868  28.077  29.592  1.00  0.00     0.010 A 
ATOM     26  C   UNL A   1      39.828  28.159  28.585  1.00  0.00    -0.014 A 
BRANCH  26  27
ATOM     27  C   UNL A   1      41.143  27.535  28.800  1.00  0.00     0.031 A 
ATOM     28  C   UNL A   1      41.043  26.026  28.392  1.00  0.00     0.074 A 
ATOM     29  C   UNL A   1      42.107  28.371  29.327  1.00  0.00     0.049 A 
ATOM     30  N   UNL A   1      41.560  24.967  28.941  1.00  0.00    -0.248 NA
ATOM     31  C   UNL A   1      40.108  25.611  27.297  1.00  0.00     0.031 C 
ATOM     32  C   UNL A   1      41.960  29.841  29.529  1.00  0.00     0.029 A 
ATOM     33  N   UNL A   1      43.403  28.203  29.780  1.00  0.00    -0.354 N 
ATOM     34  C   UNL A   1      41.288  23.867  28.077  1.00  0.00     0.074 A 
ATOM     35  C   UNL A   1      40.230  24.283  27.222  1.00  0.00     0.031 C 
ATOM     36  C   UNL A   1      43.042  30.375  30.151  1.00  0.00     0.029 A 
ATOM     37  C   UNL A   1      44.023  29.336  30.398  1.00  0.00     0.049 A 
ATOM     38  H   UNL A   1      43.875  27.346  29.683  1.00  0.00     0.167 HD
ATOM     39  C   UNL A   1      42.134  22.794  27.964  1.00  0.00     0.034 A 
ATOM     40  C   UNL A   1      45.219  29.393  31.087  1.00  0.00     0.034 A 
ATOM     41  C   UNL A   1      43.234  23.016  28.844  1.00  0.00     0.049 A 
ATOM     42  C   UNL A   1      45.823  28.082  30.837  1.00  0.00     0.074 A 
ATOM     43  C   UNL A   1      43.345  23.036  30.208  1.00  0.00     0.029 A 
ATOM     44  N   UNL A   1      44.277  23.704  28.268  1.00  0.00    -0.354 N 
ATOM     45  N   UNL A   1      46.316  27.710  29.694  1.00  0.00    -0.248 NA
ATOM     46  C   UNL A   1      45.713  27.055  31.879  1.00  0.00     0.031 C 
ATOM     47  C   UNL A   1      44.139  24.181  30.412  1.00  0.00     0.029 A 
ATOM     48  C   UNL A   1      44.751  24.567  29.210  1.00  0.00     0.049 A 
ATOM     49  H   UNL A   1      44.617  23.594  27.351  1.00  0.00     0.167 HD
ATOM     50  C   UNL A   1      46.187  26.349  29.774  1.00  0.00     0.074 A 
ATOM     51  C   UNL A   1      46.163  26.016  31.185  1.00  0.00     0.031 C 
ATOM     52  C   UNL A   1      45.555  25.675  28.774  1.00  0.00     0.034 A 
BRANCH  39  53
ATOM     53  C   UNL A   1      42.375  21.715  26.920  1.00  0.00     0.023 A 
ATOM     54  C   UNL A   1      41.740  20.467  27.210  1.00  0.00     0.012 A 
ATOM     55  C   UNL A   1      43.405  21.698  25.969  1.00  0.00     0.148 A 
ATOM     56  C   UNL A   1      42.244  19.248  26.766  1.00  0.00     0.002 A 
ATOM     57  C   UNL A   1      43.856  20.473  25.461  1.00  0.00     0.091 A 
ATOM     58  F   UNL A   1      43.989  22.843  25.606  1.00  0.00    -0.205 F 
ATOM     59  C   UNL A   1      43.323  19.252  25.908  1.00  0.00     0.022 A 
BRANCH  57  60
ATOM     60  S   UNL A   1      45.147  20.337  24.220  1.00  0.00     0.127 S 
ATOM     61  O   UNL A   1      45.081  18.922  23.866  1.00  0.00    -0.237 OA
ATOM     62  O   UNL A   1      44.650  21.243  23.180  1.00  0.00    -0.237 OA
ATOM     63  O   UNL A   1      46.370  20.787  24.868  1.00  0.00    -0.744 OA
ENDBRANCH  57  60
ENDBRANCH  39  53
BRANCH  40  64
ATOM     64  C   UNL A   1      45.991  30.295  32.052  1.00  0.00     0.023 A 
ATOM     65  C   UNL A   1      47.346  30.627  31.943  1.00  0.00     0.012 A 
ATOM     66  C   UNL A   1      45.289  30.960  33.119  1.00  0.00     0.148 A 
ATOM     67  C   UNL A   1      47.923  31.631  32.762  1.00  0.00     0.002 A 
ATOM     68  C   UNL A   1      45.812  32.047  33.814  1.00  0.00     0.091 A 
ATOM     69  F   UNL A   1      44.099  30.502  33.521  1.00  0.00    -0.205 F 
ATOM     70  C   UNL A   1      47.148  32.382  33.650  1.00  0.00     0.022 A 
BRANCH  68  71
ATOM     71  S   UNL A   1      44.765  33.146  34.800  1.00  0.00     0.127 S 
ATOM     72  O   UNL A   1      44.608  32.402  36.047  1.00  0.00    -0.237 OA
ATOM     73  O   UNL A   1      45.608  34.339  34.899  1.00  0.00    -0.237 OA
ATOM     74  O   UNL A   1      43.538  33.339  34.037  1.00  0.00    -0.744 OA
ENDBRANCH  68  71
ENDBRANCH  40  64
BRANCH  52  75
ATOM     75  C   UNL A   1      45.571  26.341  27.390  1.00  0.00     0.023 A 
ATOM     76  C   UNL A   1      44.318  26.713  26.863  1.00  0.00     0.012 A 
ATOM     77  C   UNL A   1      46.697  26.541  26.549  1.00  0.00     0.148 A 
ATOM     78  C   UNL A   1      44.176  27.236  25.573  1.00  0.00     0.002 A 
ATOM     79  C   UNL A   1      46.553  27.038  25.242  1.00  0.00     0.091 A 
ATOM     80  F   UNL A   1      47.910  26.254  27.022  1.00  0.00    -0.205 F 
ATOM     81  C   UNL A   1      45.290  27.393  24.760  1.00  0.00     0.022 A 
BRANCH  79  82
ATOM     82  S   UNL A   1      47.903  27.190  24.047  1.00  0.00     0.127 S 
ATOM     83  O   UNL A   1      47.283  27.953  22.961  1.00  0.00    -0.237 OA
ATOM     84  O   UNL A   1      48.909  27.937  24.797  1.00  0.00    -0.237 OA
ATOM     85  O   UNL A   1      48.280  25.833  23.681  1.00  0.00    -0.744 OA
ENDBRANCH  79  82
ENDBRANCH  52  75
ENDBRANCH  26  27
ENDBRANCH  19  21
ENDBRANCH  18  19
ENDBRANCH   1  18
TORSDOF 17
ENDMDL
MODEL 2
REMARK VINA RESULT:     -10.4      3.731      5.554
REMARK SMILES O=C(C[C@H](c1ccsc1)n1cccc1)OCCOC(=O)c1ccc(-c2c3nc(c(-c4cccc(S(=O)(=O)[O-])c4F)c4ccc([nH]4)c(-c4cccc(S(=O)(=O)[O-])c4F)c4nc(c(-c5cccc(S(=O)(=O)[O-])c5F)c5ccc2[nH]5)C=C4)C=C3)cc1
REMARK SMILES IDX 17 1 16 2 15 3 2 4 1 5 3 6 4 7 10 8 11 9 14 10 12 11 13 12
REMARK SMILES IDX 5 13 6 14 9 15 7 16 8 17 18 18 19 19 20 20 21 21 22 22 83 23
REMARK SMILES IDX 23 24 82 25 24 26 25 27 26 28 76 29 27 30 81 31 75 32 77 33
REMARK SMILES IDX 28 34 80 35 74 36 73 37 29 39 61 40 41 41 60 42 42 43 45 44
REMARK SMILES IDX 59 45 78 46 43 47 44 48 58 50 79 51 46 52 30 53 31 54 39 55
REMARK SMILES IDX 32 56 34 57 40 58 33 59 35 60 36 61 37 62 38 63 62 64 63 65
REMARK SMILES IDX 71 66 64 67 66 68 72 69 65 70 67 71 68 72 69 73 70 74 47 75
REMARK SMILES IDX 48 76 56 77 49 78 51 79 57 80 50 81 52 82 53 83 54 84 55 85
REMARK H PARENT 77 38 45 49
REMARK Flexibility Score: inf
ROOT
ATOM      1  C   UNL A   1      34.743  28.917  27.344  1.00  0.00     0.275 C 
ENDROOT
BRANCH   1   2
ATOM      2  C   UNL A   1      33.890  29.041  26.096  1.00  0.00     0.274 C 
BRANCH   2   3
ATOM      3  O   UNL A   1      32.477  29.103  26.347  1.00  0.00    -0.462 OA
BRANCH   3   4
ATOM      4  C   UNL A   1      31.649  28.081  26.643  1.00  0.00     0.308 C 
ATOM      5  O   UNL A   1      31.427  27.827  27.829  1.00  0.00    -0.252 OA
BRANCH   4   6
ATOM      6  C   UNL A   1      31.023  27.216  25.574  1.00  0.00     0.153 C 
BRANCH   6   7
ATOM      7  C   UNL A   1      31.275  27.649  24.124  1.00  0.00     0.128 C 
BRANCH   7   8
ATOM      8  N   UNL A   1      31.775  26.588  23.233  1.00  0.00    -0.346 N 
ATOM      9  C   UNL A   1      32.315  26.744  21.981  1.00  0.00     0.086 A 
ATOM     10  C   UNL A   1      31.740  25.241  23.527  1.00  0.00     0.086 A 
ATOM     11  C   UNL A   1      32.566  25.498  21.451  1.00  0.00     0.019 A 
ATOM     12  C   UNL A   1      32.201  24.546  22.430  1.00  0.00     0.019 A 
ENDBRANCH   7   8
BRANCH   7  13
ATOM     13  C   UNL A   1      30.023  28.251  23.508  1.00  0.00    -0.014 A 
ATOM     14  C   UNL A   1      28.730  27.621  23.470  1.00  0.00     0.017 A 
ATOM     15  C   UNL A   1      29.961  29.512  22.941  1.00  0.00     0.070 A 
ATOM     16  C   UNL A   1      27.769  28.408  22.879  1.00  0.00     0.065 A 
ATOM     17  S   UNL A   1      28.398  29.912  22.375  1.00  0.00    -0.152 S 
ENDBRANCH   7  13
ENDBRANCH   6   7
ENDBRANCH   4   6
ENDBRANCH   3   4
ENDBRANCH   2   3
ENDBRANCH   1   2
BRANCH   1  18
ATOM     18  O   UNL A   1      35.912  29.720  27.300  1.00  0.00    -0.458 OA
BRANCH  18  19
ATOM     19  C   UNL A   1      36.348  30.186  28.496  1.00  0.00     0.338 C 
ATOM     20  O   UNL A   1      35.764  30.942  29.237  1.00  0.00    -0.246 OA
BRANCH  19  21
ATOM     21  C   UNL A   1      37.716  29.687  28.716  1.00  0.00     0.060 A 
ATOM     22  C   UNL A   1      38.611  29.720  27.641  1.00  0.00     0.016 A 
ATOM     23  C   UNL A   1      38.037  29.040  29.914  1.00  0.00     0.016 A 
ATOM     24  C   UNL A   1      39.799  29.014  27.736  1.00  0.00     0.010 A 
ATOM     25  C   UNL A   1      39.191  28.292  29.983  1.00  0.00     0.010 A 
ATOM     26  C   UNL A   1      40.060  28.269  28.894  1.00  0.00    -0.014 A 
BRANCH  26  27
ATOM     27  C   UNL A   1      41.366  27.607  29.038  1.00  0.00     0.031 A 
ATOM     28  C   UNL A   1      41.211  26.113  28.593  1.00  0.00     0.074 A 
ATOM     29  C   UNL A   1      42.372  28.402  29.549  1.00  0.00     0.049 A 
ATOM     30  N   UNL A   1      41.722  25.026  29.090  1.00  0.00    -0.248 NA
ATOM     31  C   UNL A   1      40.222  25.754  27.525  1.00  0.00     0.031 C 
ATOM     32  C   UNL A   1      42.272  29.869  29.798  1.00  0.00     0.029 A 
ATOM     33  N   UNL A   1      43.680  28.190  29.944  1.00  0.00    -0.354 N 
ATOM     34  C   UNL A   1      41.387  23.958  28.207  1.00  0.00     0.074 A 
ATOM     35  C   UNL A   1      40.306  24.425  27.408  1.00  0.00     0.031 C 
ATOM     36  C   UNL A   1      43.391  30.358  30.390  1.00  0.00     0.029 A 
ATOM     37  C   UNL A   1      44.354  29.287  30.568  1.00  0.00     0.049 A 
ATOM     38  H   UNL A   1      44.125  27.324  29.803  1.00  0.00     0.167 HD
ATOM     39  C   UNL A   1      42.200  22.869  28.030  1.00  0.00     0.034 A 
ATOM     40  C   UNL A   1      45.577  29.295  31.208  1.00  0.00     0.034 A 
ATOM     41  C   UNL A   1      43.339  23.037  28.871  1.00  0.00     0.049 A 
ATOM     42  C   UNL A   1      46.137  27.977  30.898  1.00  0.00     0.074 A 
ATOM     43  C   UNL A   1      43.505  23.015  30.229  1.00  0.00     0.029 A 
ATOM     44  N   UNL A   1      44.376  23.715  28.272  1.00  0.00    -0.354 N 
ATOM     45  N   UNL A   1      46.574  27.626  29.726  1.00  0.00    -0.248 NA
ATOM     46  C   UNL A   1      46.042  26.923  31.914  1.00  0.00     0.031 C 
ATOM     47  C   UNL A   1      44.336  24.134  30.432  1.00  0.00     0.029 A 
ATOM     48  C   UNL A   1      44.910  24.539  29.218  1.00  0.00     0.049 A 
ATOM     49  H   UNL A   1      44.676  23.624  27.339  1.00  0.00     0.167 HD
ATOM     50  C   UNL A   1      46.413  26.267  29.772  1.00  0.00     0.074 A 
ATOM     51  C   UNL A   1      46.437  25.894  31.173  1.00  0.00     0.031 C 
ATOM     52  C   UNL A   1      45.723  25.639  28.781  1.00  0.00     0.034 A 
BRANCH  39  53
ATOM     53  C   UNL A   1      42.370  21.815  26.947  1.00  0.00     0.023 A 
ATOM     54  C   UNL A   1      41.620  20.618  27.171  1.00  0.00     0.012 A 
ATOM     55  C   UNL A   1      43.418  21.744  26.018  1.00  0.00     0.148 A 
ATOM     56  C   UNL A   1      42.026  19.378  26.687  1.00  0.00     0.002 A 
ATOM     57  C   UNL A   1      43.772  20.505  25.470  1.00  0.00     0.091 A 
ATOM     58  F   UNL A   1      44.109  22.846  25.716  1.00  0.00    -0.205 F 
ATOM     59  C   UNL A   1      43.123  19.319  25.854  1.00  0.00     0.022 A 
BRANCH  57  60
ATOM     60  S   UNL A   1      45.076  20.304  24.251  1.00  0.00     0.127 S 
ATOM     61  O   UNL A   1      44.969  18.885  23.922  1.00  0.00    -0.237 OA
ATOM     62  O   UNL A   1      44.626  21.207  23.188  1.00  0.00    -0.237 OA
ATOM     63  O   UNL A   1      46.304  20.726  24.910  1.00  0.00    -0.744 OA
ENDBRANCH  57  60
ENDBRANCH  39  53
BRANCH  40  64
ATOM     64  C   UNL A   1      46.410  30.149  32.166  1.00  0.00     0.023 A 
ATOM     65  C   UNL A   1      47.609  30.795  31.843  1.00  0.00     0.012 A 
ATOM     66  C   UNL A   1      45.914  30.423  33.489  1.00  0.00     0.148 A 
ATOM     67  C   UNL A   1      48.201  31.730  32.731  1.00  0.00     0.002 A 
ATOM     68  C   UNL A   1      46.407  31.448  34.292  1.00  0.00     0.091 A 
ATOM     69  F   UNL A   1      44.972  29.639  34.024  1.00  0.00    -0.205 F 
ATOM     70  C   UNL A   1      47.572  32.103  33.922  1.00  0.00     0.022 A 
BRANCH  68  71
ATOM     71  S   UNL A   1      45.487  32.074  35.720  1.00  0.00     0.127 S 
ATOM     72  O   UNL A   1      46.268  33.243  36.115  1.00  0.00    -0.237 OA
ATOM     73  O   UNL A   1      44.188  32.379  35.118  1.00  0.00    -0.237 OA
ATOM     74  O   UNL A   1      45.457  30.991  36.696  1.00  0.00    -0.744 OA
ENDBRANCH  68  71
ENDBRANCH  40  64
BRANCH  52  75
ATOM     75  C   UNL A   1      45.702  26.344  27.417  1.00  0.00     0.023 A 
ATOM     76  C   UNL A   1      44.442  26.784  26.963  1.00  0.00     0.012 A 
ATOM     77  C   UNL A   1      46.794  26.522  26.526  1.00  0.00     0.148 A 
ATOM     78  C   UNL A   1      44.261  27.350  25.696  1.00  0.00     0.002 A 
ATOM     79  C   UNL A   1      46.608  27.062  25.242  1.00  0.00     0.091 A 
ATOM     80  F   UNL A   1      48.014  26.170  26.931  1.00  0.00    -0.205 F 
ATOM     81  C   UNL A   1      45.339  27.484  24.834  1.00  0.00     0.022 A 
BRANCH  79  82
ATOM     82  S   UNL A   1      47.904  27.193  23.987  1.00  0.00     0.127 S 
ATOM     83  O   UNL A   1      47.252  27.979  22.936  1.00  0.00    -0.237 OA
ATOM     84  O   UNL A   1      48.962  27.909  24.694  1.00  0.00    -0.237 OA
ATOM     85  O   UNL A   1      48.231  25.830  23.592  1.00  0.00    -0.744 OA
ENDBRANCH  79  82
ENDBRANCH  52  75
ENDBRANCH  26  27
ENDBRANCH  19  21
ENDBRANCH  18  19
ENDBRANCH   1  18
TORSDOF 17
ENDMDL
MODEL 3
REMARK VINA RESULT:     -10.4      2.915      5.512
REMARK SMILES O=C(C[C@H](c1ccsc1)n1cccc1)OCCOC(=O)c1ccc(-c2c3nc(c(-c4cccc(S(=O)(=O)[O-])c4F)c4ccc([nH]4)c(-c4cccc(S(=O)(=O)[O-])c4F)c4nc(c(-c5cccc(S(=O)(=O)[O-])c5F)c5ccc2[nH]5)C=C4)C=C3)cc1
REMARK SMILES IDX 17 1 16 2 15 3 2 4 1 5 3 6 4 7 10 8 11 9 14 10 12 11 13 12
REMARK SMILES IDX 5 13 6 14 9 15 7 16 8 17 18 18 19 19 20 20 21 21 22 22 83 23
REMARK SMILES IDX 23 24 82 25 24 26 25 27 26 28 76 29 27 30 81 31 75 32 77 33
REMARK SMILES IDX 28 34 80 35 74 36 73 37 29 39 61 40 41 41 60 42 42 43 45 44
REMARK SMILES IDX 59 45 78 46 43 47 44 48 58 50 79 51 46 52 30 53 31 54 39 55
REMARK SMILES IDX 32 56 34 57 40 58 33 59 35 60 36 61 37 62 38 63 62 64 63 65
REMARK SMILES IDX 71 66 64 67 66 68 72 69 65 70 67 71 68 72 69 73 70 74 47 75
REMARK SMILES IDX 48 76 56 77 49 78 51 79 57 80 50 81 52 82 53 83 54 84 55 85
REMARK H PARENT 77 38 45 49
REMARK Flexibility Score: inf
ROOT
ATOM      1  C   UNL A   1      34.070  29.464  27.514  1.00  0.00     0.275 C 
ENDROOT
BRANCH   1   2
ATOM      2  C   UNL A   1      33.431  29.144  26.176  1.00  0.00     0.274 C 
BRANCH   2   3
ATOM      3  O   UNL A   1      34.012  28.021  25.495  1.00  0.00    -0.462 OA
BRANCH   3   4
ATOM      4  C   UNL A   1      33.379  27.094  24.748  1.00  0.00     0.308 C 
ATOM      5  O   UNL A   1      32.196  27.283  24.454  1.00  0.00    -0.252 OA
BRANCH   4   6
ATOM      6  C   UNL A   1      34.056  25.820  24.300  1.00  0.00     0.153 C 
BRANCH   6   7
ATOM      7  C   UNL A   1      34.214  24.731  25.368  1.00  0.00     0.128 C 
BRANCH   7   8
ATOM      8  N   UNL A   1      33.006  23.927  25.624  1.00  0.00    -0.346 N 
ATOM      9  C   UNL A   1      32.367  23.752  26.827  1.00  0.00     0.086 A 
ATOM     10  C   UNL A   1      32.342  23.188  24.668  1.00  0.00     0.086 A 
ATOM     11  C   UNL A   1      31.338  22.854  26.652  1.00  0.00     0.019 A 
ATOM     12  C   UNL A   1      31.323  22.496  25.285  1.00  0.00     0.019 A 
ENDBRANCH   7   8
BRANCH   7  13
ATOM     13  C   UNL A   1      35.358  23.791  25.027  1.00  0.00    -0.014 A 
ATOM     14  C   UNL A   1      35.705  23.351  23.702  1.00  0.00     0.017 A 
ATOM     15  C   UNL A   1      36.245  23.273  25.953  1.00  0.00     0.070 A 
ATOM     16  C   UNL A   1      36.807  22.528  23.682  1.00  0.00     0.065 A 
ATOM     17  S   UNL A   1      37.446  22.282  25.245  1.00  0.00    -0.152 S 
ENDBRANCH   7  13
ENDBRANCH   6   7
ENDBRANCH   4   6
ENDBRANCH   3   4
ENDBRANCH   2   3
ENDBRANCH   1   2
BRANCH   1  18
ATOM     18  O   UNL A   1      35.459  29.174  27.550  1.00  0.00    -0.458 OA
BRANCH  18  19
ATOM     19  C   UNL A   1      36.271  30.228  27.809  1.00  0.00     0.338 C 
ATOM     20  O   UNL A   1      35.990  31.401  27.719  1.00  0.00    -0.246 OA
BRANCH  19  21
ATOM     21  C   UNL A   1      37.609  29.710  28.141  1.00  0.00     0.060 A 
ATOM     22  C   UNL A   1      38.587  29.720  27.141  1.00  0.00     0.016 A 
ATOM     23  C   UNL A   1      37.824  29.069  29.365  1.00  0.00     0.016 A 
ATOM     24  C   UNL A   1      39.752  28.996  27.335  1.00  0.00     0.010 A 
ATOM     25  C   UNL A   1      38.956  28.304  29.532  1.00  0.00     0.010 A 
ATOM     26  C   UNL A   1      39.909  28.258  28.516  1.00  0.00    -0.014 A 
BRANCH  26  27
ATOM     27  C   UNL A   1      41.188  27.577  28.768  1.00  0.00     0.031 A 
ATOM     28  C   UNL A   1      41.036  26.075  28.350  1.00  0.00     0.074 A 
ATOM     29  C   UNL A   1      42.171  28.368  29.329  1.00  0.00     0.049 A 
ATOM     30  N   UNL A   1      41.490  24.993  28.909  1.00  0.00    -0.248 NA
ATOM     31  C   UNL A   1      40.118  25.705  27.224  1.00  0.00     0.031 C 
ATOM     32  C   UNL A   1      42.081  29.842  29.534  1.00  0.00     0.029 A 
ATOM     33  N   UNL A   1      43.443  28.143  29.821  1.00  0.00    -0.354 N 
ATOM     34  C   UNL A   1      41.198  23.908  28.031  1.00  0.00     0.074 A 
ATOM     35  C   UNL A   1      40.185  24.373  27.146  1.00  0.00     0.031 C 
ATOM     36  C   UNL A   1      43.165  30.327  30.192  1.00  0.00     0.029 A 
ATOM     37  C   UNL A   1      44.093  29.245  30.464  1.00  0.00     0.049 A 
ATOM     38  H   UNL A   1      43.881  27.266  29.733  1.00  0.00     0.167 HD
ATOM     39  C   UNL A   1      42.000  22.801  27.938  1.00  0.00     0.034 A 
ATOM     40  C   UNL A   1      45.268  29.248  31.189  1.00  0.00     0.034 A 
ATOM     41  C   UNL A   1      43.080  22.971  28.853  1.00  0.00     0.049 A 
ATOM     42  C   UNL A   1      45.822  27.913  30.951  1.00  0.00     0.074 A 
ATOM     43  C   UNL A   1      43.150  22.981  30.220  1.00  0.00     0.029 A 
ATOM     44  N   UNL A   1      44.169  23.616  28.313  1.00  0.00    -0.354 N 
ATOM     45  N   UNL A   1      46.334  27.524  29.822  1.00  0.00    -0.248 NA
ATOM     46  C   UNL A   1      45.636  26.887  31.984  1.00  0.00     0.031 C 
ATOM     47  C   UNL A   1      43.986  24.090  30.454  1.00  0.00     0.029 A 
ATOM     48  C   UNL A   1      44.651  24.454  29.274  1.00  0.00     0.049 A 
ATOM     49  H   UNL A   1      44.533  23.494  27.406  1.00  0.00     0.167 HD
ATOM     50  C   UNL A   1      46.144  26.170  29.890  1.00  0.00     0.074 A 
ATOM     51  C   UNL A   1      46.062  25.833  31.298  1.00  0.00     0.031 C 
ATOM     52  C   UNL A   1      45.514  25.528  28.869  1.00  0.00     0.034 A 
BRANCH  39  53
ATOM     53  C   UNL A   1      42.226  21.717  26.897  1.00  0.00     0.023 A 
ATOM     54  C   UNL A   1      41.538  20.492  27.166  1.00  0.00     0.012 A 
ATOM     55  C   UNL A   1      43.277  21.664  25.971  1.00  0.00     0.148 A 
ATOM     56  C   UNL A   1      42.007  19.257  26.731  1.00  0.00     0.002 A 
ATOM     57  C   UNL A   1      43.695  20.424  25.470  1.00  0.00     0.091 A 
ATOM     58  F   UNL A   1      43.912  22.787  25.627  1.00  0.00    -0.205 F 
ATOM     59  C   UNL A   1      43.107  19.222  25.900  1.00  0.00     0.022 A 
BRANCH  57  60
ATOM     60  S   UNL A   1      45.010  20.243  24.260  1.00  0.00     0.127 S 
ATOM     61  O   UNL A   1      46.200  20.515  25.061  1.00  0.00    -0.237 OA
ATOM     62  O   UNL A   1      44.854  18.841  23.864  1.00  0.00    -0.237 OA
ATOM     63  O   UNL A   1      44.709  21.198  23.202  1.00  0.00    -0.744 OA
ENDBRANCH  57  60
ENDBRANCH  39  53
BRANCH  40  64
ATOM     64  C   UNL A   1      46.047  30.112  32.182  1.00  0.00     0.023 A 
ATOM     65  C   UNL A   1      47.206  30.840  31.888  1.00  0.00     0.012 A 
ATOM     66  C   UNL A   1      45.535  30.303  33.513  1.00  0.00     0.148 A 
ATOM     67  C   UNL A   1      47.740  31.774  32.813  1.00  0.00     0.002 A 
ATOM     68  C   UNL A   1      45.965  31.324  34.357  1.00  0.00     0.091 A 
ATOM     69  F   UNL A   1      44.641  29.443  34.013  1.00  0.00    -0.205 F 
ATOM     70  C   UNL A   1      47.089  32.061  34.016  1.00  0.00     0.022 A 
BRANCH  68  71
ATOM     71  S   UNL A   1      45.008  31.836  35.805  1.00  0.00     0.127 S 
ATOM     72  O   UNL A   1      43.630  31.702  35.341  1.00  0.00    -0.237 OA
ATOM     73  O   UNL A   1      45.422  30.839  36.794  1.00  0.00    -0.237 OA
ATOM     74  O   UNL A   1      45.427  33.198  36.114  1.00  0.00    -0.744 OA
ENDBRANCH  68  71
ENDBRANCH  40  64
BRANCH  52  75
ATOM     75  C   UNL A   1      45.602  26.198  27.489  1.00  0.00     0.023 A 
ATOM     76  C   UNL A   1      44.378  26.571  26.899  1.00  0.00     0.012 A 
ATOM     77  C   UNL A   1      46.771  26.401  26.708  1.00  0.00     0.148 A 
ATOM     78  C   UNL A   1      44.303  27.097  25.605  1.00  0.00     0.002 A 
ATOM     79  C   UNL A   1      46.694  26.901  25.396  1.00  0.00     0.091 A 
ATOM     80  F   UNL A   1      47.957  26.113  27.243  1.00  0.00    -0.205 F 
ATOM     81  C   UNL A   1      45.457  27.257  24.851  1.00  0.00     0.022 A 
BRANCH  79  82
ATOM     82  S   UNL A   1      48.104  27.057  24.274  1.00  0.00     0.127 S 
ATOM     83  O   UNL A   1      48.649  25.697  24.256  1.00  0.00    -0.237 OA
ATOM     84  O   UNL A   1      47.472  27.461  23.022  1.00  0.00    -0.237 OA
ATOM     85  O   UNL A   1      48.993  28.045  24.869  1.00  0.00    -0.744 OA
ENDBRANCH  79  82
ENDBRANCH  52  75
ENDBRANCH  26  27
ENDBRANCH  19  21
ENDBRANCH  18  19
ENDBRANCH   1  18
TORSDOF 17
ENDMDL
