MODEL 1
REMARK VINA RESULT:     -10.5      0.000      0.000
REMARK SMILES CCCC(=O)/C(=C/NC(N)=O)C(=O)OCCOC(=O)c1ccc(-c2c3nc(c(-c4cccc(S(=O)(=O)[O-])c4F)c4ccc([nH]4)c(-c4cccc(S(=O)(=O)[O-])c4F)c4nc(c(-c5cccc(S(=O)(=O)[O-])c5F)c5ccc2[nH]5)C=C4)C=C3)cc1
REMARK SMILES IDX 15 1 14 2 12 3 13 4 6 5 7 6 4 7 5 8 3 9 2 10 1 11 8 12 9 13
REMARK SMILES IDX 10 15 11 16 16 19 17 20 18 21 19 22 20 23 21 24 82 25 22 26
REMARK SMILES IDX 81 27 23 28 24 29 25 30 75 31 26 32 80 33 74 34 76 35 27 36
REMARK SMILES IDX 79 37 73 38 72 39 28 41 60 42 40 43 59 44 41 45 44 46 58 47
REMARK SMILES IDX 77 48 42 49 43 50 57 52 78 53 45 54 29 55 30 56 38 57 31 58
REMARK SMILES IDX 33 59 39 60 32 61 34 62 35 63 36 64 37 65 61 66 62 67 70 68
REMARK SMILES IDX 63 69 65 70 71 71 64 72 66 73 67 74 68 75 69 76 46 77 47 78
REMARK SMILES IDX 55 79 48 80 50 81 56 82 49 83 51 84 52 85 53 86 54 87
REMARK H PARENT 8 14 10 17 10 18 76 40 44 51
REMARK Flexibility Score: inf
ROOT
ATOM      1  C   UNL A   1      32.577  28.671  24.506  1.00  0.00     0.275 C 
ENDROOT
BRANCH   1   2
ATOM      2  O   UNL A   1      31.769  28.154  23.423  1.00  0.00    -0.458 OA
BRANCH   2   3
ATOM      3  C   UNL A   1      30.710  27.368  23.782  1.00  0.00     0.343 C 
ATOM      4  O   UNL A   1      29.550  27.749  23.794  1.00  0.00    -0.246 OA
BRANCH   3   5
ATOM      5  C   UNL A   1      31.143  25.996  24.179  1.00  0.00     0.119 C 
ATOM      6  C   UNL A   1      31.547  25.093  23.270  1.00  0.00     0.106 C 
BRANCH   5   7
ATOM      7  C   UNL A   1      31.302  25.642  25.631  1.00  0.00     0.171 C 
ATOM      8  O   UNL A   1      30.772  26.342  26.496  1.00  0.00    -0.294 OA
BRANCH   7   9
ATOM      9  C   UNL A   1      32.142  24.445  26.079  1.00  0.00     0.081 C 
BRANCH   9  10
ATOM     10  C   UNL A   1      33.658  24.636  26.138  1.00  0.00     0.005 C 
ATOM     11  C   UNL A   1      34.473  23.550  25.450  1.00  0.00     0.004 C 
ENDBRANCH   9  10
ENDBRANCH   7   9
ENDBRANCH   5   7
BRANCH   6  12
ATOM     12  N   UNL A   1      31.456  25.218  21.905  1.00  0.00    -0.314 N 
ATOM     13  C   UNL A   1      32.522  25.563  21.119  1.00  0.00     0.316 C 
ATOM     14  H   UNL A   1      30.587  25.051  21.474  1.00  0.00     0.171 HD
ATOM     15  N   UNL A   1      32.228  25.580  19.798  1.00  0.00    -0.351 N 
ATOM     16  O   UNL A   1      33.647  25.834  21.519  1.00  0.00    -0.249 OA
ATOM     17  H   UNL A   1      31.318  25.359  19.493  1.00  0.00     0.161 HD
ATOM     18  H   UNL A   1      32.925  25.811  19.142  1.00  0.00     0.161 HD
ENDBRANCH   6  12
ENDBRANCH   3   5
ENDBRANCH   2   3
ENDBRANCH   1   2
BRANCH   1  19
ATOM     19  C   UNL A   1      31.851  29.762  25.299  1.00  0.00     0.275 C 
BRANCH  19  20
ATOM     20  O   UNL A   1      32.367  29.864  26.636  1.00  0.00    -0.458 OA
BRANCH  20  21
ATOM     21  C   UNL A   1      32.892  31.070  26.953  1.00  0.00     0.338 C 
ATOM     22  O   UNL A   1      32.327  32.150  26.919  1.00  0.00    -0.246 OA
BRANCH  21  23
ATOM     23  C   UNL A   1      34.224  30.888  27.541  1.00  0.00     0.060 A 
ATOM     24  C   UNL A   1      34.559  29.598  27.932  1.00  0.00     0.016 A 
ATOM     25  C   UNL A   1      35.079  31.951  27.821  1.00  0.00     0.016 A 
ATOM     26  C   UNL A   1      35.714  29.354  28.660  1.00  0.00     0.010 A 
ATOM     27  C   UNL A   1      36.286  31.695  28.491  1.00  0.00     0.010 A 
ATOM     28  C   UNL A   1      36.606  30.396  28.934  1.00  0.00    -0.014 A 
BRANCH  28  29
ATOM     29  C   UNL A   1      37.862  30.102  29.678  1.00  0.00     0.031 A 
ATOM     30  C   UNL A   1      38.906  29.196  29.085  1.00  0.00     0.074 A 
ATOM     31  C   UNL A   1      38.072  30.665  30.885  1.00  0.00     0.049 A 
ATOM     32  N   UNL A   1      39.999  28.727  29.632  1.00  0.00    -0.248 NA
ATOM     33  C   UNL A   1      38.695  28.753  27.698  1.00  0.00     0.031 C 
ATOM     34  C   UNL A   1      37.157  31.590  31.558  1.00  0.00     0.029 A 
ATOM     35  N   UNL A   1      39.118  30.537  31.768  1.00  0.00    -0.354 N 
ATOM     36  C   UNL A   1      40.568  27.885  28.685  1.00  0.00     0.074 A 
ATOM     37  C   UNL A   1      39.706  27.914  27.523  1.00  0.00     0.031 C 
ATOM     38  C   UNL A   1      37.683  31.954  32.736  1.00  0.00     0.029 A 
ATOM     39  C   UNL A   1      38.926  31.224  32.945  1.00  0.00     0.049 A 
ATOM     40  H   UNL A   1      39.925  30.007  31.576  1.00  0.00     0.167 HD
ATOM     41  C   UNL A   1      41.707  27.156  28.777  1.00  0.00     0.034 A 
ATOM     42  C   UNL A   1      39.637  31.226  34.088  1.00  0.00     0.034 A 
ATOM     43  C   UNL A   1      42.586  27.172  29.917  1.00  0.00     0.049 A 
ATOM     44  C   UNL A   1      40.877  30.381  34.176  1.00  0.00     0.074 A 
ATOM     45  C   UNL A   1      43.787  26.505  30.086  1.00  0.00     0.029 A 
ATOM     46  N   UNL A   1      42.359  27.883  31.085  1.00  0.00    -0.354 N 
ATOM     47  N   UNL A   1      41.433  29.635  33.252  1.00  0.00    -0.248 NA
ATOM     48  C   UNL A   1      41.590  30.382  35.460  1.00  0.00     0.031 C 
ATOM     49  C   UNL A   1      44.266  26.782  31.370  1.00  0.00     0.029 A 
ATOM     50  C   UNL A   1      43.382  27.651  31.990  1.00  0.00     0.049 A 
ATOM     51  H   UNL A   1      41.583  28.466  31.250  1.00  0.00     0.167 HD
ATOM     52  C   UNL A   1      42.569  29.090  33.838  1.00  0.00     0.074 A 
ATOM     53  C   UNL A   1      42.640  29.620  35.184  1.00  0.00     0.031 C 
ATOM     54  C   UNL A   1      43.460  28.211  33.315  1.00  0.00     0.034 A 
BRANCH  41  55
ATOM     55  C   UNL A   1      42.073  26.272  27.612  1.00  0.00     0.023 A 
ATOM     56  C   UNL A   1      42.825  26.788  26.537  1.00  0.00     0.012 A 
ATOM     57  C   UNL A   1      41.720  24.907  27.614  1.00  0.00     0.148 A 
ATOM     58  C   UNL A   1      43.189  25.970  25.467  1.00  0.00     0.002 A 
ATOM     59  C   UNL A   1      42.125  24.087  26.567  1.00  0.00     0.091 A 
ATOM     60  F   UNL A   1      40.988  24.437  28.635  1.00  0.00    -0.205 F 
ATOM     61  C   UNL A   1      42.848  24.619  25.487  1.00  0.00     0.022 A 
BRANCH  59  62
ATOM     62  S   UNL A   1      41.804  22.319  26.537  1.00  0.00     0.127 S 
ATOM     63  O   UNL A   1      40.346  22.286  26.427  1.00  0.00    -0.237 OA
ATOM     64  O   UNL A   1      42.516  21.898  25.330  1.00  0.00    -0.237 OA
ATOM     65  O   UNL A   1      42.347  21.790  27.780  1.00  0.00    -0.744 OA
ENDBRANCH  59  62
ENDBRANCH  41  55
BRANCH  42  66
ATOM     66  C   UNL A   1      39.176  32.040  35.250  1.00  0.00     0.023 A 
ATOM     67  C   UNL A   1      38.261  31.491  36.168  1.00  0.00     0.012 A 
ATOM     68  C   UNL A   1      39.664  33.345  35.464  1.00  0.00     0.148 A 
ATOM     69  C   UNL A   1      37.825  32.234  37.267  1.00  0.00     0.002 A 
ATOM     70  C   UNL A   1      39.274  34.055  36.593  1.00  0.00     0.091 A 
ATOM     71  F   UNL A   1      40.515  33.861  34.567  1.00  0.00    -0.205 F 
ATOM     72  C   UNL A   1      38.341  33.509  37.486  1.00  0.00     0.022 A 
BRANCH  70  73
ATOM     73  S   UNL A   1      39.990  35.645  37.025  1.00  0.00     0.127 S 
ATOM     74  O   UNL A   1      41.409  35.316  37.132  1.00  0.00    -0.237 OA
ATOM     75  O   UNL A   1      39.633  36.462  35.865  1.00  0.00    -0.237 OA
ATOM     76  O   UNL A   1      39.340  36.048  38.265  1.00  0.00    -0.744 OA
ENDBRANCH  70  73
ENDBRANCH  42  66
BRANCH  54  77
ATOM     77  C   UNL A   1      44.600  27.776  34.198  1.00  0.00     0.023 A 
ATOM     78  C   UNL A   1      45.783  28.542  34.240  1.00  0.00     0.012 A 
ATOM     79  C   UNL A   1      44.478  26.645  35.029  1.00  0.00     0.148 A 
ATOM     80  C   UNL A   1      46.840  28.169  35.069  1.00  0.00     0.002 A 
ATOM     81  C   UNL A   1      45.515  26.309  35.891  1.00  0.00     0.091 A 
ATOM     82  F   UNL A   1      43.351  25.922  34.964  1.00  0.00    -0.205 F 
ATOM     83  C   UNL A   1      46.702  27.061  35.901  1.00  0.00     0.022 A 
BRANCH  81  84
ATOM     84  S   UNL A   1      45.396  24.956  37.067  1.00  0.00     0.127 S 
ATOM     85  O   UNL A   1      45.831  25.600  38.306  1.00  0.00    -0.237 OA
ATOM     86  O   UNL A   1      43.970  24.630  37.017  1.00  0.00    -0.237 OA
ATOM     87  O   UNL A   1      46.276  23.909  36.569  1.00  0.00    -0.744 OA
ENDBRANCH  81  84
ENDBRANCH  54  77
ENDBRANCH  28  29
ENDBRANCH  21  23
ENDBRANCH  20  21
ENDBRANCH  19  20
ENDBRANCH   1  19
TORSDOF 18
ENDMDL
MODEL 2
REMARK VINA RESULT:     -10.4      3.762     10.079
REMARK SMILES CCCC(=O)/C(=C/NC(N)=O)C(=O)OCCOC(=O)c1ccc(-c2c3nc(c(-c4cccc(S(=O)(=O)[O-])c4F)c4ccc([nH]4)c(-c4cccc(S(=O)(=O)[O-])c4F)c4nc(c(-c5cccc(S(=O)(=O)[O-])c5F)c5ccc2[nH]5)C=C4)C=C3)cc1
REMARK SMILES IDX 15 1 14 2 12 3 13 4 6 5 7 6 4 7 5 8 3 9 2 10 1 11 8 12 9 13
REMARK SMILES IDX 10 15 11 16 16 19 17 20 18 21 19 22 20 23 21 24 82 25 22 26
REMARK SMILES IDX 81 27 23 28 24 29 25 30 75 31 26 32 80 33 74 34 76 35 27 36
REMARK SMILES IDX 79 37 73 38 72 39 28 41 60 42 40 43 59 44 41 45 44 46 58 47
REMARK SMILES IDX 77 48 42 49 43 50 57 52 78 53 45 54 29 55 30 56 38 57 31 58
REMARK SMILES IDX 33 59 39 60 32 61 34 62 35 63 36 64 37 65 61 66 62 67 70 68
REMARK SMILES IDX 63 69 65 70 71 71 64 72 66 73 67 74 68 75 69 76 46 77 47 78
REMARK SMILES IDX 55 79 48 80 50 81 56 82 49 83 51 84 52 85 53 86 54 87
REMARK H PARENT 8 14 10 17 10 18 76 40 44 51
REMARK Flexibility Score: inf
ROOT
ATOM      1  C   UNL A   1      35.566  33.917  29.062  1.00  0.00     0.275 C 
ENDROOT
BRANCH   1   2
ATOM      2  O   UNL A   1      35.558  33.294  30.369  1.00  0.00    -0.458 OA
BRANCH   2   3
ATOM      3  C   UNL A   1      36.367  33.862  31.313  1.00  0.00     0.343 C 
ATOM      4  O   UNL A   1      37.562  34.061  31.157  1.00  0.00    -0.246 OA
BRANCH   3   5
ATOM      5  C   UNL A   1      35.622  34.191  32.563  1.00  0.00     0.119 C 
ATOM      6  C   UNL A   1      34.679  35.148  32.592  1.00  0.00     0.106 C 
BRANCH   5   7
ATOM      7  C   UNL A   1      35.785  33.336  33.789  1.00  0.00     0.171 C 
ATOM      8  O   UNL A   1      35.042  33.503  34.757  1.00  0.00    -0.294 OA
BRANCH   7   9
ATOM      9  C   UNL A   1      36.881  32.274  33.888  1.00  0.00     0.081 C 
BRANCH   9  10
ATOM     10  C   UNL A   1      38.056  32.566  34.822  1.00  0.00     0.005 C 
ATOM     11  C   UNL A   1      37.930  31.984  36.222  1.00  0.00     0.004 C 
ENDBRANCH   9  10
ENDBRANCH   7   9
ENDBRANCH   5   7
BRANCH   6  12
ATOM     12  N   UNL A   1      34.401  36.045  31.589  1.00  0.00    -0.314 N 
ATOM     13  C   UNL A   1      33.360  36.931  31.654  1.00  0.00     0.316 C 
ATOM     14  H   UNL A   1      34.976  36.050  30.790  1.00  0.00     0.171 HD
ATOM     15  N   UNL A   1      33.295  37.758  30.584  1.00  0.00    -0.351 N 
ATOM     16  O   UNL A   1      32.546  37.011  32.565  1.00  0.00    -0.249 OA
ATOM     17  H   UNL A   1      33.958  37.679  29.860  1.00  0.00     0.161 HD
ATOM     18  H   UNL A   1      32.586  38.438  30.531  1.00  0.00     0.161 HD
ENDBRANCH   6  12
ENDBRANCH   3   5
ENDBRANCH   2   3
ENDBRANCH   1   2
BRANCH   1  19
ATOM     19  C   UNL A   1      34.614  33.221  28.085  1.00  0.00     0.275 C 
BRANCH  19  20
ATOM     20  O   UNL A   1      34.191  31.945  28.589  1.00  0.00    -0.458 OA
BRANCH  20  21
ATOM     21  C   UNL A   1      34.428  30.900  27.764  1.00  0.00     0.338 C 
ATOM     22  O   UNL A   1      33.802  30.596  26.762  1.00  0.00    -0.246 OA
BRANCH  21  23
ATOM     23  C   UNL A   1      35.693  30.256  28.136  1.00  0.00     0.060 A 
ATOM     24  C   UNL A   1      35.749  29.683  29.400  1.00  0.00     0.016 A 
ATOM     25  C   UNL A   1      36.832  30.309  27.338  1.00  0.00     0.016 A 
ATOM     26  C   UNL A   1      36.949  29.213  29.914  1.00  0.00     0.010 A 
ATOM     27  C   UNL A   1      38.031  29.765  27.826  1.00  0.00     0.010 A 
ATOM     28  C   UNL A   1      38.105  29.229  29.128  1.00  0.00    -0.014 A 
BRANCH  28  29
ATOM     29  C   UNL A   1      39.372  28.678  29.683  1.00  0.00     0.031 A 
ATOM     30  C   UNL A   1      39.990  29.280  30.915  1.00  0.00     0.074 A 
ATOM     31  C   UNL A   1      39.962  27.622  29.087  1.00  0.00     0.049 A 
ATOM     32  N   UNL A   1      41.146  29.020  31.471  1.00  0.00    -0.248 NA
ATOM     33  C   UNL A   1      39.211  30.314  31.615  1.00  0.00     0.031 C 
ATOM     34  C   UNL A   1      39.449  26.922  27.907  1.00  0.00     0.029 A 
ATOM     35  N   UNL A   1      41.127  26.957  29.383  1.00  0.00    -0.354 N 
ATOM     36  C   UNL A   1      41.263  29.899  32.539  1.00  0.00     0.074 A 
ATOM     37  C   UNL A   1      40.055  30.696  32.563  1.00  0.00     0.031 C 
ATOM     38  C   UNL A   1      40.283  25.923  27.588  1.00  0.00     0.029 A 
ATOM     39  C   UNL A   1      41.434  25.964  28.480  1.00  0.00     0.049 A 
ATOM     40  H   UNL A   1      41.687  27.168  30.165  1.00  0.00     0.167 HD
ATOM     41  C   UNL A   1      42.285  30.029  33.421  1.00  0.00     0.034 A 
ATOM     42  C   UNL A   1      42.539  25.207  28.347  1.00  0.00     0.034 A 
ATOM     43  C   UNL A   1      43.460  29.198  33.421  1.00  0.00     0.049 A 
ATOM     44  C   UNL A   1      43.672  25.395  29.316  1.00  0.00     0.074 A 
ATOM     45  C   UNL A   1      44.528  29.219  34.302  1.00  0.00     0.029 A 
ATOM     46  N   UNL A   1      43.730  28.202  32.495  1.00  0.00    -0.354 N 
ATOM     47  N   UNL A   1      43.743  26.190  30.355  1.00  0.00    -0.248 NA
ATOM     48  C   UNL A   1      44.873  24.578  29.099  1.00  0.00     0.031 C 
ATOM     49  C   UNL A   1      45.460  28.264  33.885  1.00  0.00     0.029 A 
ATOM     50  C   UNL A   1      44.958  27.620  32.766  1.00  0.00     0.049 A 
ATOM     51  H   UNL A   1      43.137  27.946  31.752  1.00  0.00     0.167 HD
ATOM     52  C   UNL A   1      44.989  25.960  30.925  1.00  0.00     0.074 A 
ATOM     53  C   UNL A   1      45.624  24.924  30.135  1.00  0.00     0.031 C 
ATOM     54  C   UNL A   1      45.565  26.567  31.992  1.00  0.00     0.034 A 
BRANCH  41  55
ATOM     55  C   UNL A   1      42.182  31.112  34.463  1.00  0.00     0.023 A 
ATOM     56  C   UNL A   1      41.710  30.810  35.757  1.00  0.00     0.012 A 
ATOM     57  C   UNL A   1      42.613  32.423  34.175  1.00  0.00     0.148 A 
ATOM     58  C   UNL A   1      41.635  31.803  36.735  1.00  0.00     0.002 A 
ATOM     59  C   UNL A   1      42.578  33.396  35.167  1.00  0.00     0.091 A 
ATOM     60  F   UNL A   1      43.041  32.696  32.934  1.00  0.00    -0.205 F 
ATOM     61  C   UNL A   1      42.078  33.091  36.444  1.00  0.00     0.022 A 
BRANCH  59  62
ATOM     62  S   UNL A   1      43.200  35.063  34.915  1.00  0.00     0.127 S 
ATOM     63  O   UNL A   1      42.248  35.587  33.936  1.00  0.00    -0.237 OA
ATOM     64  O   UNL A   1      43.077  35.642  36.253  1.00  0.00    -0.237 OA
ATOM     65  O   UNL A   1      44.567  34.916  34.437  1.00  0.00    -0.744 OA
ENDBRANCH  59  62
ENDBRANCH  41  55
BRANCH  42  66
ATOM     66  C   UNL A   1      42.633  24.218  27.233  1.00  0.00     0.023 A 
ATOM     67  C   UNL A   1      43.334  24.553  26.060  1.00  0.00     0.012 A 
ATOM     68  C   UNL A   1      42.058  22.936  27.347  1.00  0.00     0.148 A 
ATOM     69  C   UNL A   1      43.441  23.638  25.010  1.00  0.00     0.002 A 
ATOM     70  C   UNL A   1      42.222  22.008  26.326  1.00  0.00     0.091 A 
ATOM     71  F   UNL A   1      41.375  22.643  28.463  1.00  0.00    -0.205 F 
ATOM     72  C   UNL A   1      42.898  22.363  25.149  1.00  0.00     0.022 A 
BRANCH  70  73
ATOM     73  S   UNL A   1      41.675  20.304  26.477  1.00  0.00     0.127 S 
ATOM     74  O   UNL A   1      40.227  20.443  26.352  1.00  0.00    -0.237 OA
ATOM     75  O   UNL A   1      42.333  19.673  25.333  1.00  0.00    -0.237 OA
ATOM     76  O   UNL A   1      42.156  19.846  27.774  1.00  0.00    -0.744 OA
ENDBRANCH  70  73
ENDBRANCH  42  66
BRANCH  54  77
ATOM     77  C   UNL A   1      46.950  26.118  32.378  1.00  0.00     0.023 A 
ATOM     78  C   UNL A   1      48.073  26.748  31.806  1.00  0.00     0.012 A 
ATOM     79  C   UNL A   1      47.139  25.116  33.351  1.00  0.00     0.148 A 
ATOM     80  C   UNL A   1      49.364  26.363  32.169  1.00  0.00     0.002 A 
ATOM     81  C   UNL A   1      48.427  24.775  33.745  1.00  0.00     0.091 A 
ATOM     82  F   UNL A   1      46.058  24.519  33.872  1.00  0.00    -0.205 F 
ATOM     83  C   UNL A   1      49.540  25.386  33.145  1.00  0.00     0.022 A 
BRANCH  81  84
ATOM     84  S   UNL A   1      48.754  23.595  35.061  1.00  0.00     0.127 S 
ATOM     85  O   UNL A   1      48.054  24.206  36.190  1.00  0.00    -0.237 OA
ATOM     86  O   UNL A   1      48.130  22.376  34.543  1.00  0.00    -0.237 OA
ATOM     87  O   UNL A   1      50.203  23.527  35.191  1.00  0.00    -0.744 OA
ENDBRANCH  81  84
ENDBRANCH  54  77
ENDBRANCH  28  29
ENDBRANCH  21  23
ENDBRANCH  20  21
ENDBRANCH  19  20
ENDBRANCH   1  19
TORSDOF 18
ENDMDL
MODEL 3
REMARK VINA RESULT:     -10.4      1.851      2.440
REMARK SMILES CCCC(=O)/C(=C/NC(N)=O)C(=O)OCCOC(=O)c1ccc(-c2c3nc(c(-c4cccc(S(=O)(=O)[O-])c4F)c4ccc([nH]4)c(-c4cccc(S(=O)(=O)[O-])c4F)c4nc(c(-c5cccc(S(=O)(=O)[O-])c5F)c5ccc2[nH]5)C=C4)C=C3)cc1
REMARK SMILES IDX 15 1 14 2 12 3 13 4 6 5 7 6 4 7 5 8 3 9 2 10 1 11 8 12 9 13
REMARK SMILES IDX 10 15 11 16 16 19 17 20 18 21 19 22 20 23 21 24 82 25 22 26
REMARK SMILES IDX 81 27 23 28 24 29 25 30 75 31 26 32 80 33 74 34 76 35 27 36
REMARK SMILES IDX 79 37 73 38 72 39 28 41 60 42 40 43 59 44 41 45 44 46 58 47
REMARK SMILES IDX 77 48 42 49 43 50 57 52 78 53 45 54 29 55 30 56 38 57 31 58
REMARK SMILES IDX 33 59 39 60 32 61 34 62 35 63 36 64 37 65 61 66 62 67 70 68
REMARK SMILES IDX 63 69 65 70 71 71 64 72 66 73 67 74 68 75 69 76 46 77 47 78
REMARK SMILES IDX 55 79 48 80 50 81 56 82 49 83 51 84 52 85 53 86 54 87
REMARK H PARENT 8 14 10 17 10 18 76 40 44 51
REMARK Flexibility Score: inf
ROOT
ATOM      1  C   UNL A   1      31.519  30.066  25.261  1.00  0.00     0.275 C 
ENDROOT
BRANCH   1   2
ATOM      2  O   UNL A   1      32.677  29.281  24.888  1.00  0.00    -0.458 OA
BRANCH   2   3
ATOM      3  C   UNL A   1      32.771  28.938  23.568  1.00  0.00     0.343 C 
ATOM      4  O   UNL A   1      33.693  29.273  22.840  1.00  0.00    -0.246 OA
BRANCH   3   5
ATOM      5  C   UNL A   1      31.604  28.123  23.118  1.00  0.00     0.119 C 
ATOM      6  C   UNL A   1      30.604  28.660  22.399  1.00  0.00     0.106 C 
BRANCH   5   7
ATOM      7  C   UNL A   1      31.601  26.633  23.312  1.00  0.00     0.171 C 
ATOM      8  O   UNL A   1      30.594  26.072  23.745  1.00  0.00    -0.294 OA
BRANCH   7   9
ATOM      9  C   UNL A   1      32.837  25.781  23.017  1.00  0.00     0.081 C 
BRANCH   9  10
ATOM     10  C   UNL A   1      33.847  25.597  24.150  1.00  0.00     0.005 C 
ATOM     11  C   UNL A   1      33.565  24.430  25.084  1.00  0.00     0.004 C 
ENDBRANCH   9  10
ENDBRANCH   7   9
ENDBRANCH   5   7
BRANCH   6  12
ATOM     12  N   UNL A   1      30.417  29.996  22.140  1.00  0.00    -0.314 N 
ATOM     13  C   UNL A   1      29.254  30.495  21.619  1.00  0.00     0.316 C 
ATOM     14  H   UNL A   1      31.152  30.622  22.337  1.00  0.00     0.171 HD
ATOM     15  N   UNL A   1      29.261  31.842  21.489  1.00  0.00    -0.351 N 
ATOM     16  O   UNL A   1      28.276  29.834  21.294  1.00  0.00    -0.249 OA
ATOM     17  H   UNL A   1      30.055  32.359  21.757  1.00  0.00     0.161 HD
ATOM     18  H   UNL A   1      28.470  32.306  21.129  1.00  0.00     0.161 HD
ENDBRANCH   6  12
ENDBRANCH   3   5
ENDBRANCH   2   3
ENDBRANCH   1   2
BRANCH   1  19
ATOM     19  C   UNL A   1      31.776  30.917  26.508  1.00  0.00     0.275 C 
BRANCH  19  20
ATOM     20  O   UNL A   1      33.095  30.692  27.030  1.00  0.00    -0.458 OA
BRANCH  20  21
ATOM     21  C   UNL A   1      33.717  31.797  27.502  1.00  0.00     0.338 C 
ATOM     22  O   UNL A   1      33.233  32.907  27.651  1.00  0.00    -0.246 OA
BRANCH  21  23
ATOM     23  C   UNL A   1      35.048  31.437  28.003  1.00  0.00     0.060 A 
ATOM     24  C   UNL A   1      35.191  30.155  28.519  1.00  0.00     0.016 A 
ATOM     25  C   UNL A   1      36.098  32.348  28.085  1.00  0.00     0.016 A 
ATOM     26  C   UNL A   1      36.352  29.781  29.179  1.00  0.00     0.010 A 
ATOM     27  C   UNL A   1      37.302  31.946  28.686  1.00  0.00     0.010 A 
ATOM     28  C   UNL A   1      37.433  30.664  29.256  1.00  0.00    -0.014 A 
BRANCH  28  29
ATOM     29  C   UNL A   1      38.687  30.225  29.930  1.00  0.00     0.031 A 
ATOM     30  C   UNL A   1      39.595  29.221  29.274  1.00  0.00     0.074 A 
ATOM     31  C   UNL A   1      39.017  30.742  31.131  1.00  0.00     0.049 A 
ATOM     32  N   UNL A   1      40.656  28.629  29.758  1.00  0.00    -0.248 NA
ATOM     33  C   UNL A   1      39.267  28.827  27.895  1.00  0.00     0.031 C 
ATOM     34  C   UNL A   1      38.243  31.749  31.861  1.00  0.00     0.029 A 
ATOM     35  N   UNL A   1      40.086  30.488  31.956  1.00  0.00    -0.354 N 
ATOM     36  C   UNL A   1      41.082  27.745  28.774  1.00  0.00     0.074 A 
ATOM     37  C   UNL A   1      40.171  27.886  27.659  1.00  0.00     0.031 C 
ATOM     38  C   UNL A   1      38.864  32.035  33.013  1.00  0.00     0.029 A 
ATOM     39  C   UNL A   1      40.030  31.172  33.150  1.00  0.00     0.049 A 
ATOM     40  H   UNL A   1      40.820  29.877  31.718  1.00  0.00     0.167 HD
ATOM     41  C   UNL A   1      42.138  26.896  28.799  1.00  0.00     0.034 A 
ATOM     42  C   UNL A   1      40.794  31.079  34.254  1.00  0.00     0.034 A 
ATOM     43  C   UNL A   1      43.071  26.799  29.892  1.00  0.00     0.049 A 
ATOM     44  C   UNL A   1      41.937  30.103  34.268  1.00  0.00     0.074 A 
ATOM     45  C   UNL A   1      44.199  26.004  29.991  1.00  0.00     0.029 A 
ATOM     46  N   UNL A   1      42.981  27.512  31.078  1.00  0.00    -0.354 N 
ATOM     47  N   UNL A   1      42.362  29.318  33.309  1.00  0.00    -0.248 NA
ATOM     48  C   UNL A   1      42.711  30.007  35.513  1.00  0.00     0.031 C 
ATOM     49  C   UNL A   1      44.770  26.207  31.251  1.00  0.00     0.029 A 
ATOM     50  C   UNL A   1      44.018  27.156  31.925  1.00  0.00     0.049 A 
ATOM     51  H   UNL A   1      42.283  28.172  31.289  1.00  0.00     0.167 HD
ATOM     52  C   UNL A   1      43.460  28.643  33.828  1.00  0.00     0.074 A 
ATOM     53  C   UNL A   1      43.656  29.141  35.175  1.00  0.00     0.031 C 
ATOM     54  C   UNL A   1      44.223  27.683  33.251  1.00  0.00     0.034 A 
BRANCH  41  55
ATOM     55  C   UNL A   1      42.347  25.997  27.607  1.00  0.00     0.023 A 
ATOM     56  C   UNL A   1      43.012  26.479  26.461  1.00  0.00     0.012 A 
ATOM     57  C   UNL A   1      41.934  24.650  27.649  1.00  0.00     0.148 A 
ATOM     58  C   UNL A   1      43.230  25.646  25.364  1.00  0.00     0.002 A 
ATOM     59  C   UNL A   1      42.196  23.813  26.570  1.00  0.00     0.091 A 
ATOM     60  F   UNL A   1      41.287  24.213  28.739  1.00  0.00    -0.205 F 
ATOM     61  C   UNL A   1      42.832  24.312  25.422  1.00  0.00     0.022 A 
BRANCH  59  62
ATOM     62  S   UNL A   1      41.794  22.062  26.580  1.00  0.00     0.127 S 
ATOM     63  O   UNL A   1      42.458  21.614  27.804  1.00  0.00    -0.237 OA
ATOM     64  O   UNL A   1      40.332  22.083  26.654  1.00  0.00    -0.237 OA
ATOM     65  O   UNL A   1      42.333  21.517  25.343  1.00  0.00    -0.744 OA
ENDBRANCH  59  62
ENDBRANCH  41  55
BRANCH  42  66
ATOM     66  C   UNL A   1      40.483  31.919  35.447  1.00  0.00     0.023 A 
ATOM     67  C   UNL A   1      41.291  33.031  35.748  1.00  0.00     0.012 A 
ATOM     68  C   UNL A   1      39.370  31.637  36.266  1.00  0.00     0.148 A 
ATOM     69  C   UNL A   1      41.010  33.835  36.855  1.00  0.00     0.002 A 
ATOM     70  C   UNL A   1      39.059  32.477  37.327  1.00  0.00     0.091 A 
ATOM     71  F   UNL A   1      38.626  30.560  35.978  1.00  0.00    -0.205 F 
ATOM     72  C   UNL A   1      39.888  33.566  37.635  1.00  0.00     0.022 A 
BRANCH  70  73
ATOM     73  S   UNL A   1      37.561  32.286  38.300  1.00  0.00     0.127 S 
ATOM     74  O   UNL A   1      36.606  33.088  37.541  1.00  0.00    -0.237 OA
ATOM     75  O   UNL A   1      37.341  30.841  38.234  1.00  0.00    -0.237 OA
ATOM     76  O   UNL A   1      37.886  32.783  39.630  1.00  0.00    -0.744 OA
ENDBRANCH  70  73
ENDBRANCH  42  66
BRANCH  54  77
ATOM     77  C   UNL A   1      45.352  27.112  34.068  1.00  0.00     0.023 A 
ATOM     78  C   UNL A   1      46.621  27.726  34.030  1.00  0.00     0.012 A 
ATOM     79  C   UNL A   1      45.142  26.008  34.918  1.00  0.00     0.148 A 
ATOM     80  C   UNL A   1      47.673  27.228  34.799  1.00  0.00     0.002 A 
ATOM     81  C   UNL A   1      46.181  25.550  35.719  1.00  0.00     0.091 A 
ATOM     82  F   UNL A   1      43.933  25.430  34.928  1.00  0.00    -0.205 F 
ATOM     83  C   UNL A   1      47.450  26.148  35.650  1.00  0.00     0.022 A 
BRANCH  81  84
ATOM     84  S   UNL A   1      45.968  24.226  36.915  1.00  0.00     0.127 S 
ATOM     85  O   UNL A   1      45.696  23.081  36.047  1.00  0.00    -0.237 OA
ATOM     86  O   UNL A   1      47.274  24.195  37.576  1.00  0.00    -0.237 OA
ATOM     87  O   UNL A   1      44.863  24.630  37.773  1.00  0.00    -0.744 OA
ENDBRANCH  81  84
ENDBRANCH  54  77
ENDBRANCH  28  29
ENDBRANCH  21  23
ENDBRANCH  20  21
ENDBRANCH  19  20
ENDBRANCH   1  19
TORSDOF 18
ENDMDL
