MODEL 1
REMARK VINA RESULT:     -10.8      0.000      0.000
REMARK SMILES CCCC[C@@H](Sc1nc(OCCC2CCCCC2)cc(OCCC2CCCCC2)n1)C(=O)OCCOC(=O)c1ccc(-c2c3nc(c(-c4cccc(S(=O)(=O)[O-])c4F)c4ccc([nH]4)c(-c4cccc(S(=O)(=O)[O-])c4F)c4nc(c(-c5cccc(S(=O)(=O)[O-])c5F)c5ccc2[nH]5)C=C4)C=C3)cc1
REMARK SMILES IDX 33 1 31 2 32 3 5 4 4 5 3 6 2 7 1 8 6 9 7 10 8 11 30 12 9 13
REMARK SMILES IDX 20 14 19 15 10 16 11 17 12 18 13 19 14 20 18 21 15 22 17 23
REMARK SMILES IDX 16 24 21 25 22 26 23 27 24 28 25 29 29 30 26 31 28 32 27 33
REMARK SMILES IDX 34 34 35 35 36 36 37 37 38 38 39 39 40 40 101 41 41 42
REMARK SMILES IDX 100 43 42 44 43 45 44 46 94 47 45 48 99 49 93 50 95 51 46 52
REMARK SMILES IDX 98 53 92 54 91 55 47 57 79 58 59 59 78 60 60 61 63 62 77 63
REMARK SMILES IDX 96 64 61 65 62 66 76 68 97 69 64 70 48 71 49 72 57 73 50 74
REMARK SMILES IDX 52 75 58 76 51 77 53 78 54 79 55 80 56 81 80 82 81 83 89 84
REMARK SMILES IDX 82 85 84 86 90 87 83 88 85 89 86 90 87 91 88 92 65 93 66 94
REMARK SMILES IDX 74 95 67 96 69 97 75 98 68 99 70 100 71 101 72 102 73 103
REMARK H PARENT 95 56 63 67
REMARK Flexibility Score: inf
ROOT
ATOM      1  O   UNL A   1      35.042  21.365  24.413  1.00  0.00    -0.461 OA
ENDROOT
BRANCH   1   2
ATOM      2  C   UNL A   1      33.745  20.979  24.588  1.00  0.00     0.319 C 
ATOM      3  O   UNL A   1      33.383  19.820  24.747  1.00  0.00    -0.251 OA
BRANCH   2   4
ATOM      4  C   UNL A   1      32.770  22.155  24.499  1.00  0.00     0.164 C 
BRANCH   4   5
ATOM      5  C   UNL A   1      33.399  23.442  25.082  1.00  0.00     0.027 C 
BRANCH   5   6
ATOM      6  C   UNL A   1      32.927  23.949  26.454  1.00  0.00     0.001 C 
BRANCH   6   7
ATOM      7  C   UNL A   1      31.512  24.535  26.513  1.00  0.00    -0.003 C 
ATOM      8  C   UNL A   1      30.451  23.482  26.797  1.00  0.00     0.004 C 
ENDBRANCH   6   7
ENDBRANCH   5   6
ENDBRANCH   4   5
BRANCH   4   9
ATOM      9  S   UNL A   1      32.299  22.225  22.723  1.00  0.00    -0.071 SA
BRANCH   9  10
ATOM     10  C   UNL A   1      31.895  23.936  22.576  1.00  0.00     0.195 A 
ATOM     11  N   UNL A   1      32.857  24.781  22.176  1.00  0.00    -0.187 NA
ATOM     12  N   UNL A   1      30.718  24.299  23.087  1.00  0.00    -0.187 NA
ATOM     13  C   UNL A   1      32.637  26.083  22.406  1.00  0.00     0.221 A 
ATOM     14  C   UNL A   1      30.540  25.593  23.316  1.00  0.00     0.221 A 
ATOM     15  C   UNL A   1      31.525  26.510  23.081  1.00  0.00     0.136 A 
BRANCH  13  16
ATOM     16  O   UNL A   1      33.587  26.915  21.873  1.00  0.00    -0.477 OA
BRANCH  16  17
ATOM     17  C   UNL A   1      33.662  28.276  22.302  1.00  0.00     0.231 C 
BRANCH  17  18
ATOM     18  C   UNL A   1      34.590  28.560  23.505  1.00  0.00     0.045 C 
BRANCH  18  19
ATOM     19  C   UNL A   1      33.910  28.836  24.859  1.00  0.00    -0.008 C 
ATOM     20  C   UNL A   1      32.583  29.602  24.706  1.00  0.00     0.004 C 
ATOM     21  C   UNL A   1      33.654  27.545  25.652  1.00  0.00     0.004 C 
ATOM     22  C   UNL A   1      31.962  29.910  26.073  1.00  0.00     0.000 C 
ATOM     23  C   UNL A   1      33.088  27.858  27.035  1.00  0.00     0.000 C 
ATOM     24  C   UNL A   1      31.796  28.660  26.934  1.00  0.00     0.000 C 
ENDBRANCH  18  19
ENDBRANCH  17  18
ENDBRANCH  16  17
ENDBRANCH  13  16
BRANCH  14  25
ATOM     25  O   UNL A   1      29.366  25.916  23.944  1.00  0.00    -0.477 OA
BRANCH  25  26
ATOM     26  C   UNL A   1      28.702  27.078  23.428  1.00  0.00     0.231 C 
BRANCH  26  27
ATOM     27  C   UNL A   1      29.381  28.358  23.957  1.00  0.00     0.045 C 
BRANCH  27  28
ATOM     28  C   UNL A   1      29.151  29.578  23.051  1.00  0.00    -0.008 C 
ATOM     29  C   UNL A   1      27.876  29.481  22.205  1.00  0.00     0.004 C 
ATOM     30  C   UNL A   1      29.072  30.913  23.802  1.00  0.00     0.004 C 
ATOM     31  C   UNL A   1      27.997  30.503  21.076  1.00  0.00     0.000 C 
ATOM     32  C   UNL A   1      29.069  32.074  22.795  1.00  0.00     0.000 C 
ATOM     33  C   UNL A   1      28.053  31.915  21.656  1.00  0.00     0.000 C 
ENDBRANCH  27  28
ENDBRANCH  26  27
ENDBRANCH  25  26
ENDBRANCH  14  25
ENDBRANCH   9  10
ENDBRANCH   4   9
ENDBRANCH   2   4
ENDBRANCH   1   2
BRANCH   1  34
ATOM     34  C   UNL A   1      36.039  20.524  25.020  1.00  0.00     0.274 C 
BRANCH  34  35
ATOM     35  C   UNL A   1      37.036  21.335  25.849  1.00  0.00     0.275 C 
BRANCH  35  36
ATOM     36  O   UNL A   1      38.334  21.371  25.228  1.00  0.00    -0.458 OA
BRANCH  36  37
ATOM     37  C   UNL A   1      39.374  21.199  26.074  1.00  0.00     0.338 C 
ATOM     38  O   UNL A   1      40.013  20.176  26.256  1.00  0.00    -0.246 OA
BRANCH  37  39
ATOM     39  C   UNL A   1      39.742  22.476  26.703  1.00  0.00     0.060 A 
ATOM     40  C   UNL A   1      39.193  23.649  26.184  1.00  0.00     0.016 A 
ATOM     41  C   UNL A   1      40.736  22.530  27.678  1.00  0.00     0.016 A 
ATOM     42  C   UNL A   1      39.673  24.889  26.589  1.00  0.00     0.010 A 
ATOM     43  C   UNL A   1      41.205  23.779  28.102  1.00  0.00     0.010 A 
ATOM     44  C   UNL A   1      40.704  24.963  27.530  1.00  0.00    -0.014 A 
BRANCH  44  45
ATOM     45  C   UNL A   1      41.317  26.277  27.837  1.00  0.00     0.031 A 
ATOM     46  C   UNL A   1      42.718  26.571  27.374  1.00  0.00     0.074 A 
ATOM     47  C   UNL A   1      40.616  27.210  28.508  1.00  0.00     0.049 A 
ATOM     48  N   UNL A   1      43.449  27.636  27.578  1.00  0.00    -0.248 NA
ATOM     49  C   UNL A   1      43.386  25.526  26.579  1.00  0.00     0.031 C 
ATOM     50  C   UNL A   1      39.246  27.046  28.996  1.00  0.00     0.029 A 
ATOM     51  N   UNL A   1      40.965  28.475  28.905  1.00  0.00    -0.354 N 
ATOM     52  C   UNL A   1      44.676  27.373  26.981  1.00  0.00     0.074 A 
ATOM     53  C   UNL A   1      44.593  26.048  26.408  1.00  0.00     0.031 C 
ATOM     54  C   UNL A   1      38.876  28.164  29.641  1.00  0.00     0.029 A 
ATOM     55  C   UNL A   1      39.990  29.109  29.638  1.00  0.00     0.049 A 
ATOM     56  H   UNL A   1      41.832  28.888  28.688  1.00  0.00     0.167 HD
ATOM     57  C   UNL A   1      45.769  28.170  26.902  1.00  0.00     0.034 A 
ATOM     58  C   UNL A   1      40.000  30.309  30.249  1.00  0.00     0.034 A 
ATOM     59  C   UNL A   1      45.831  29.508  27.428  1.00  0.00     0.049 A 
ATOM     60  C   UNL A   1      41.221  31.181  30.132  1.00  0.00     0.074 A 
ATOM     61  C   UNL A   1      46.878  30.411  27.362  1.00  0.00     0.029 A 
ATOM     62  N   UNL A   1      44.803  30.138  28.112  1.00  0.00    -0.354 N 
ATOM     63  N   UNL A   1      42.338  30.955  29.482  1.00  0.00    -0.248 NA
ATOM     64  C   UNL A   1      41.172  32.486  30.805  1.00  0.00     0.031 C 
ATOM     65  C   UNL A   1      46.484  31.585  28.012  1.00  0.00     0.029 A 
ATOM     66  C   UNL A   1      45.188  31.418  28.474  1.00  0.00     0.049 A 
ATOM     67  H   UNL A   1      43.928  29.734  28.311  1.00  0.00     0.167 HD
ATOM     68  C   UNL A   1      43.112  32.097  29.646  1.00  0.00     0.074 A 
ATOM     69  C   UNL A   1      42.324  33.025  30.433  1.00  0.00     0.031 C 
ATOM     70  C   UNL A   1      44.371  32.350  29.206  1.00  0.00     0.034 A 
BRANCH  57  71
ATOM     71  C   UNL A   1      46.976  27.628  26.187  1.00  0.00     0.023 A 
ATOM     72  C   UNL A   1      47.879  26.797  26.881  1.00  0.00     0.012 A 
ATOM     73  C   UNL A   1      47.194  27.897  24.822  1.00  0.00     0.148 A 
ATOM     74  C   UNL A   1      48.995  26.266  26.236  1.00  0.00     0.002 A 
ATOM     75  C   UNL A   1      48.289  27.334  24.176  1.00  0.00     0.091 A 
ATOM     76  F   UNL A   1      46.339  28.711  24.186  1.00  0.00    -0.205 F 
ATOM     77  C   UNL A   1      49.194  26.526  24.882  1.00  0.00     0.022 A 
BRANCH  75  78
ATOM     78  S   UNL A   1      48.589  27.557  22.419  1.00  0.00     0.127 S 
ATOM     79  O   UNL A   1      49.867  28.265  22.424  1.00  0.00    -0.237 OA
ATOM     80  O   UNL A   1      48.659  26.176  21.937  1.00  0.00    -0.237 OA
ATOM     81  O   UNL A   1      47.451  28.314  21.914  1.00  0.00    -0.744 OA
ENDBRANCH  75  78
ENDBRANCH  57  71
BRANCH  58  82
ATOM     82  C   UNL A   1      38.793  30.774  30.987  1.00  0.00     0.023 A 
ATOM     83  C   UNL A   1      38.652  30.455  32.351  1.00  0.00     0.012 A 
ATOM     84  C   UNL A   1      37.805  31.555  30.358  1.00  0.00     0.148 A 
ATOM     85  C   UNL A   1      37.536  30.884  33.069  1.00  0.00     0.002 A 
ATOM     86  C   UNL A   1      36.722  32.024  31.093  1.00  0.00     0.091 A 
ATOM     87  F   UNL A   1      37.944  31.829  29.052  1.00  0.00    -0.205 F 
ATOM     88  C   UNL A   1      36.578  31.678  32.444  1.00  0.00     0.022 A 
BRANCH  86  89
ATOM     89  S   UNL A   1      35.513  33.156  30.395  1.00  0.00     0.127 S 
ATOM     90  O   UNL A   1      36.359  34.043  29.601  1.00  0.00    -0.237 OA
ATOM     91  O   UNL A   1      34.662  32.256  29.617  1.00  0.00    -0.237 OA
ATOM     92  O   UNL A   1      34.848  33.764  31.540  1.00  0.00    -0.744 OA
ENDBRANCH  86  89
ENDBRANCH  58  82
BRANCH  70  93
ATOM     93  C   UNL A   1      44.968  33.690  29.545  1.00  0.00     0.023 A 
ATOM     94  C   UNL A   1      45.629  33.862  30.777  1.00  0.00     0.012 A 
ATOM     95  C   UNL A   1      44.929  34.755  28.626  1.00  0.00     0.148 A 
ATOM     96  C   UNL A   1      46.214  35.086  31.102  1.00  0.00     0.002 A 
ATOM     97  C   UNL A   1      45.551  35.959  28.939  1.00  0.00     0.091 A 
ATOM     98  F   UNL A   1      44.275  34.582  27.468  1.00  0.00    -0.205 F 
ATOM     99  C   UNL A   1      46.186  36.129  30.180  1.00  0.00     0.022 A 
BRANCH  97 100
ATOM    100  S   UNL A   1      45.630  37.317  27.765  1.00  0.00     0.127 S 
ATOM    101  O   UNL A   1      44.215  37.599  27.537  1.00  0.00    -0.237 OA
ATOM    102  O   UNL A   1      46.343  38.349  28.519  1.00  0.00    -0.237 OA
ATOM    103  O   UNL A   1      46.367  36.799  26.620  1.00  0.00    -0.744 OA
ENDBRANCH  97 100
ENDBRANCH  70  93
ENDBRANCH  44  45
ENDBRANCH  37  39
ENDBRANCH  36  37
ENDBRANCH  35  36
ENDBRANCH  34  35
ENDBRANCH   1  34
TORSDOF 27
ENDMDL
MODEL 2
REMARK VINA RESULT:     -10.8      0.848      7.508
REMARK SMILES CCCC[C@@H](Sc1nc(OCCC2CCCCC2)cc(OCCC2CCCCC2)n1)C(=O)OCCOC(=O)c1ccc(-c2c3nc(c(-c4cccc(S(=O)(=O)[O-])c4F)c4ccc([nH]4)c(-c4cccc(S(=O)(=O)[O-])c4F)c4nc(c(-c5cccc(S(=O)(=O)[O-])c5F)c5ccc2[nH]5)C=C4)C=C3)cc1
REMARK SMILES IDX 33 1 31 2 32 3 5 4 4 5 3 6 2 7 1 8 6 9 7 10 8 11 30 12 9 13
REMARK SMILES IDX 20 14 19 15 10 16 11 17 12 18 13 19 14 20 18 21 15 22 17 23
REMARK SMILES IDX 16 24 21 25 22 26 23 27 24 28 25 29 29 30 26 31 28 32 27 33
REMARK SMILES IDX 34 34 35 35 36 36 37 37 38 38 39 39 40 40 101 41 41 42
REMARK SMILES IDX 100 43 42 44 43 45 44 46 94 47 45 48 99 49 93 50 95 51 46 52
REMARK SMILES IDX 98 53 92 54 91 55 47 57 79 58 59 59 78 60 60 61 63 62 77 63
REMARK SMILES IDX 96 64 61 65 62 66 76 68 97 69 64 70 48 71 49 72 57 73 50 74
REMARK SMILES IDX 52 75 58 76 51 77 53 78 54 79 55 80 56 81 80 82 81 83 89 84
REMARK SMILES IDX 82 85 84 86 90 87 83 88 85 89 86 90 87 91 88 92 65 93 66 94
REMARK SMILES IDX 74 95 67 96 69 97 75 98 68 99 70 100 71 101 72 102 73 103
REMARK H PARENT 95 56 63 67
REMARK Flexibility Score: inf
ROOT
ATOM      1  O   UNL A   1      35.397  21.292  24.251  1.00  0.00    -0.461 OA
ENDROOT
BRANCH   1   2
ATOM      2  C   UNL A   1      34.180  20.848  24.679  1.00  0.00     0.319 C 
ATOM      3  O   UNL A   1      33.942  19.693  25.011  1.00  0.00    -0.251 OA
BRANCH   2   4
ATOM      4  C   UNL A   1      33.112  21.943  24.638  1.00  0.00     0.164 C 
BRANCH   4   5
ATOM      5  C   UNL A   1      33.499  23.128  25.554  1.00  0.00     0.027 C 
BRANCH   5   6
ATOM      6  C   UNL A   1      32.443  23.709  26.508  1.00  0.00     0.001 C 
BRANCH   6   7
ATOM      7  C   UNL A   1      31.096  22.978  26.560  1.00  0.00    -0.003 C 
ATOM      8  C   UNL A   1      29.923  23.926  26.764  1.00  0.00     0.004 C 
ENDBRANCH   6   7
ENDBRANCH   5   6
ENDBRANCH   4   5
BRANCH   4   9
ATOM      9  S   UNL A   1      32.929  22.336  22.852  1.00  0.00    -0.071 SA
BRANCH   9  10
ATOM     10  C   UNL A   1      32.388  24.012  22.957  1.00  0.00     0.195 A 
ATOM     11  N   UNL A   1      31.108  24.244  23.285  1.00  0.00    -0.187 NA
ATOM     12  N   UNL A   1      33.238  24.926  22.487  1.00  0.00    -0.187 NA
ATOM     13  C   UNL A   1      30.640  25.472  23.020  1.00  0.00     0.221 A 
ATOM     14  C   UNL A   1      32.738  26.125  22.222  1.00  0.00     0.221 A 
ATOM     15  C   UNL A   1      31.411  26.405  22.381  1.00  0.00     0.136 A 
BRANCH  13  16
ATOM     16  O   UNL A   1      29.370  25.700  23.481  1.00  0.00    -0.477 OA
BRANCH  16  17
ATOM     17  C   UNL A   1      29.041  26.963  24.063  1.00  0.00     0.231 C 
BRANCH  17  18
ATOM     18  C   UNL A   1      27.753  27.638  23.539  1.00  0.00     0.045 C 
BRANCH  18  19
ATOM     19  C   UNL A   1      27.925  28.960  22.768  1.00  0.00    -0.008 C 
ATOM     20  C   UNL A   1      27.405  30.174  23.558  1.00  0.00     0.004 C 
ATOM     21  C   UNL A   1      29.387  29.211  22.369  1.00  0.00     0.004 C 
ATOM     22  C   UNL A   1      27.538  31.464  22.741  1.00  0.00     0.000 C 
ATOM     23  C   UNL A   1      29.509  30.465  21.506  1.00  0.00     0.000 C 
ATOM     24  C   UNL A   1      28.960  31.688  22.232  1.00  0.00     0.000 C 
ENDBRANCH  18  19
ENDBRANCH  17  18
ENDBRANCH  16  17
ENDBRANCH  13  16
BRANCH  14  25
ATOM     25  O   UNL A   1      33.613  27.002  21.636  1.00  0.00    -0.477 OA
BRANCH  25  26
ATOM     26  C   UNL A   1      34.262  27.906  22.541  1.00  0.00     0.231 C 
BRANCH  26  27
ATOM     27  C   UNL A   1      33.279  29.003  22.996  1.00  0.00     0.045 C 
BRANCH  27  28
ATOM     28  C   UNL A   1      33.182  29.127  24.524  1.00  0.00    -0.008 C 
ATOM     29  C   UNL A   1      31.773  29.467  25.024  1.00  0.00     0.004 C 
ATOM     30  C   UNL A   1      33.621  27.870  25.287  1.00  0.00     0.004 C 
ATOM     31  C   UNL A   1      31.906  29.979  26.458  1.00  0.00     0.000 C 
ATOM     32  C   UNL A   1      33.699  28.178  26.790  1.00  0.00     0.000 C 
ATOM     33  C   UNL A   1      32.453  28.872  27.357  1.00  0.00     0.000 C 
ENDBRANCH  27  28
ENDBRANCH  26  27
ENDBRANCH  25  26
ENDBRANCH  14  25
ENDBRANCH   9  10
ENDBRANCH   4   9
ENDBRANCH   2   4
ENDBRANCH   1   2
BRANCH   1  34
ATOM     34  C   UNL A   1      36.531  20.493  24.632  1.00  0.00     0.274 C 
BRANCH  34  35
ATOM     35  C   UNL A   1      37.243  21.069  25.859  1.00  0.00     0.275 C 
BRANCH  35  36
ATOM     36  O   UNL A   1      38.388  21.856  25.484  1.00  0.00    -0.458 OA
BRANCH  36  37
ATOM     37  C   UNL A   1      39.483  21.669  26.255  1.00  0.00     0.338 C 
ATOM     38  O   UNL A   1      40.154  20.655  26.349  1.00  0.00    -0.246 OA
BRANCH  37  39
ATOM     39  C   UNL A   1      39.861  22.924  26.921  1.00  0.00     0.060 A 
ATOM     40  C   UNL A   1      39.285  24.112  26.468  1.00  0.00     0.016 A 
ATOM     41  C   UNL A   1      40.888  22.950  27.864  1.00  0.00     0.016 A 
ATOM     42  C   UNL A   1      39.768  25.340  26.904  1.00  0.00     0.010 A 
ATOM     43  C   UNL A   1      41.361  24.186  28.320  1.00  0.00     0.010 A 
ATOM     44  C   UNL A   1      40.830  25.386  27.812  1.00  0.00    -0.014 A 
BRANCH  44  45
ATOM     45  C   UNL A   1      41.443  26.694  28.150  1.00  0.00     0.031 A 
ATOM     46  C   UNL A   1      40.609  27.757  28.811  1.00  0.00     0.074 A 
ATOM     47  C   UNL A   1      42.743  26.919  27.885  1.00  0.00     0.049 A 
ATOM     48  N   UNL A   1      40.940  28.978  29.144  1.00  0.00    -0.248 NA
ATOM     49  C   UNL A   1      39.218  27.401  29.137  1.00  0.00     0.031 C 
ATOM     50  C   UNL A   1      43.655  25.961  27.259  1.00  0.00     0.029 A 
ATOM     51  N   UNL A   1      43.517  28.031  28.097  1.00  0.00    -0.354 N 
ATOM     52  C   UNL A   1      39.791  29.551  29.673  1.00  0.00     0.074 A 
ATOM     53  C   UNL A   1      38.751  28.547  29.617  1.00  0.00     0.031 C 
ATOM     54  C   UNL A   1      44.862  26.532  27.124  1.00  0.00     0.029 A 
ATOM     55  C   UNL A   1      44.802  27.902  27.625  1.00  0.00     0.049 A 
ATOM     56  H   UNL A   1      43.185  28.843  28.542  1.00  0.00     0.167 HD
ATOM     57  C   UNL A   1      39.619  30.797  30.178  1.00  0.00     0.034 A 
ATOM     58  C   UNL A   1      45.811  28.794  27.588  1.00  0.00     0.034 A 
ATOM     59  C   UNL A   1      40.667  31.778  30.281  1.00  0.00     0.049 A 
ATOM     60  C   UNL A   1      45.597  30.166  28.170  1.00  0.00     0.074 A 
ATOM     61  C   UNL A   1      40.603  33.053  30.814  1.00  0.00     0.029 A 
ATOM     62  N   UNL A   1      41.970  31.591  29.847  1.00  0.00    -0.354 N 
ATOM     63  N   UNL A   1      44.531  30.659  28.753  1.00  0.00    -0.248 NA
ATOM     64  C   UNL A   1      46.736  31.094  28.117  1.00  0.00     0.031 C 
ATOM     65  C   UNL A   1      41.869  33.639  30.698  1.00  0.00     0.029 A 
ATOM     66  C   UNL A   1      42.722  32.725  30.100  1.00  0.00     0.049 A 
ATOM     67  H   UNL A   1      42.311  30.771  29.421  1.00  0.00     0.167 HD
ATOM     68  C   UNL A   1      44.878  31.943  29.159  1.00  0.00     0.074 A 
ATOM     69  C   UNL A   1      46.263  32.140  28.780  1.00  0.00     0.031 C 
ATOM     70  C   UNL A   1      44.115  32.884  29.769  1.00  0.00     0.034 A 
BRANCH  57  71
ATOM     71  C   UNL A   1      38.252  31.158  30.692  1.00  0.00     0.023 A 
ATOM     72  C   UNL A   1      37.924  30.894  32.038  1.00  0.00     0.012 A 
ATOM     73  C   UNL A   1      37.310  31.797  29.864  1.00  0.00     0.148 A 
ATOM     74  C   UNL A   1      36.671  31.237  32.543  1.00  0.00     0.002 A 
ATOM     75  C   UNL A   1      36.075  32.168  30.385  1.00  0.00     0.091 A 
ATOM     76  F   UNL A   1      37.629  32.015  28.580  1.00  0.00    -0.205 F 
ATOM     77  C   UNL A   1      35.751  31.882  31.721  1.00  0.00     0.022 A 
BRANCH  75  78
ATOM     78  S   UNL A   1      34.853  33.065  29.420  1.00  0.00     0.127 S 
ATOM     79  O   UNL A   1      34.179  31.979  28.713  1.00  0.00    -0.237 OA
ATOM     80  O   UNL A   1      34.048  33.709  30.460  1.00  0.00    -0.237 OA
ATOM     81  O   UNL A   1      35.607  33.989  28.584  1.00  0.00    -0.744 OA
ENDBRANCH  75  78
ENDBRANCH  57  71
BRANCH  58  82
ATOM     82  C   UNL A   1      47.129  28.398  27.020  1.00  0.00     0.023 A 
ATOM     83  C   UNL A   1      48.231  28.239  27.881  1.00  0.00     0.012 A 
ATOM     84  C   UNL A   1      47.290  28.149  25.644  1.00  0.00     0.148 A 
ATOM     85  C   UNL A   1      49.477  27.861  27.378  1.00  0.00     0.002 A 
ATOM     86  C   UNL A   1      48.520  27.722  25.157  1.00  0.00     0.091 A 
ATOM     87  F   UNL A   1      46.235  28.329  24.836  1.00  0.00    -0.205 F 
ATOM     88  C   UNL A   1      49.618  27.591  26.020  1.00  0.00     0.022 A 
BRANCH  86  89
ATOM     89  S   UNL A   1      48.751  27.231  23.444  1.00  0.00     0.127 S 
ATOM     90  O   UNL A   1      50.198  27.049  23.377  1.00  0.00    -0.237 OA
ATOM     91  O   UNL A   1      47.971  25.995  23.371  1.00  0.00    -0.237 OA
ATOM     92  O   UNL A   1      48.207  28.326  22.652  1.00  0.00    -0.744 OA
ENDBRANCH  86  89
ENDBRANCH  58  82
BRANCH  70  93
ATOM     93  C   UNL A   1      44.764  34.204  30.088  1.00  0.00     0.023 A 
ATOM     94  C   UNL A   1      45.460  34.359  31.303  1.00  0.00     0.012 A 
ATOM     95  C   UNL A   1      44.738  35.267  29.165  1.00  0.00     0.148 A 
ATOM     96  C   UNL A   1      46.092  35.564  31.609  1.00  0.00     0.002 A 
ATOM     97  C   UNL A   1      45.406  36.451  29.459  1.00  0.00     0.091 A 
ATOM     98  F   UNL A   1      44.051  35.112  28.024  1.00  0.00    -0.205 F 
ATOM     99  C   UNL A   1      46.075  36.605  30.683  1.00  0.00     0.022 A 
BRANCH  97 100
ATOM    100  S   UNL A   1      45.501  37.802  28.277  1.00  0.00     0.127 S 
ATOM    101  O   UNL A   1      46.532  37.326  27.359  1.00  0.00    -0.237 OA
ATOM    102  O   UNL A   1      44.150  37.830  27.715  1.00  0.00    -0.237 OA
ATOM    103  O   UNL A   1      45.845  38.981  29.062  1.00  0.00    -0.744 OA
ENDBRANCH  97 100
ENDBRANCH  70  93
ENDBRANCH  44  45
ENDBRANCH  37  39
ENDBRANCH  36  37
ENDBRANCH  35  36
ENDBRANCH  34  35
ENDBRANCH   1  34
TORSDOF 27
ENDMDL
MODEL 3
REMARK VINA RESULT:     -10.6      2.519      4.875
REMARK SMILES CCCC[C@@H](Sc1nc(OCCC2CCCCC2)cc(OCCC2CCCCC2)n1)C(=O)OCCOC(=O)c1ccc(-c2c3nc(c(-c4cccc(S(=O)(=O)[O-])c4F)c4ccc([nH]4)c(-c4cccc(S(=O)(=O)[O-])c4F)c4nc(c(-c5cccc(S(=O)(=O)[O-])c5F)c5ccc2[nH]5)C=C4)C=C3)cc1
REMARK SMILES IDX 33 1 31 2 32 3 5 4 4 5 3 6 2 7 1 8 6 9 7 10 8 11 30 12 9 13
REMARK SMILES IDX 20 14 19 15 10 16 11 17 12 18 13 19 14 20 18 21 15 22 17 23
REMARK SMILES IDX 16 24 21 25 22 26 23 27 24 28 25 29 29 30 26 31 28 32 27 33
REMARK SMILES IDX 34 34 35 35 36 36 37 37 38 38 39 39 40 40 101 41 41 42
REMARK SMILES IDX 100 43 42 44 43 45 44 46 94 47 45 48 99 49 93 50 95 51 46 52
REMARK SMILES IDX 98 53 92 54 91 55 47 57 79 58 59 59 78 60 60 61 63 62 77 63
REMARK SMILES IDX 96 64 61 65 62 66 76 68 97 69 64 70 48 71 49 72 57 73 50 74
REMARK SMILES IDX 52 75 58 76 51 77 53 78 54 79 55 80 56 81 80 82 81 83 89 84
REMARK SMILES IDX 82 85 84 86 90 87 83 88 85 89 86 90 87 91 88 92 65 93 66 94
REMARK SMILES IDX 74 95 67 96 69 97 75 98 68 99 70 100 71 101 72 102 73 103
REMARK H PARENT 95 56 63 67
REMARK Flexibility Score: inf
ROOT
ATOM      1  O   UNL A   1      37.978  21.977  26.115  1.00  0.00    -0.461 OA
ENDROOT
BRANCH   1   2
ATOM      2  C   UNL A   1      36.957  21.410  25.409  1.00  0.00     0.319 C 
ATOM      3  O   UNL A   1      36.981  20.276  24.947  1.00  0.00    -0.251 OA
BRANCH   2   4
ATOM      4  C   UNL A   1      35.789  22.375  25.197  1.00  0.00     0.164 C 
BRANCH   4   5
ATOM      5  C   UNL A   1      35.500  23.187  26.482  1.00  0.00     0.027 C 
BRANCH   5   6
ATOM      6  C   UNL A   1      34.362  22.733  27.411  1.00  0.00     0.001 C 
BRANCH   6   7
ATOM      7  C   UNL A   1      33.004  22.474  26.749  1.00  0.00    -0.003 C 
ATOM      8  C   UNL A   1      32.112  23.707  26.739  1.00  0.00     0.004 C 
ENDBRANCH   6   7
ENDBRANCH   5   6
ENDBRANCH   4   5
BRANCH   4   9
ATOM      9  S   UNL A   1      36.269  23.357  23.719  1.00  0.00    -0.071 SA
BRANCH   9  10
ATOM     10  C   UNL A   1      34.678  23.668  23.022  1.00  0.00     0.195 A 
ATOM     11  N   UNL A   1      34.384  24.923  22.652  1.00  0.00    -0.187 NA
ATOM     12  N   UNL A   1      33.800  22.668  23.116  1.00  0.00    -0.187 NA
ATOM     13  C   UNL A   1      33.086  25.197  22.461  1.00  0.00     0.221 A 
ATOM     14  C   UNL A   1      32.523  22.978  22.936  1.00  0.00     0.221 A 
ATOM     15  C   UNL A   1      32.117  24.261  22.706  1.00  0.00     0.136 A 
BRANCH  13  16
ATOM     16  O   UNL A   1      32.844  26.453  21.968  1.00  0.00    -0.477 OA
BRANCH  16  17
ATOM     17  C   UNL A   1      33.672  27.546  22.369  1.00  0.00     0.231 C 
BRANCH  17  18
ATOM     18  C   UNL A   1      33.032  28.564  23.339  1.00  0.00     0.045 C 
BRANCH  18  19
ATOM     19  C   UNL A   1      32.856  28.116  24.802  1.00  0.00    -0.008 C 
ATOM     20  C   UNL A   1      33.362  29.169  25.805  1.00  0.00     0.004 C 
ATOM     21  C   UNL A   1      31.395  27.773  25.131  1.00  0.00     0.004 C 
ATOM     22  C   UNL A   1      33.226  28.670  27.247  1.00  0.00     0.000 C 
ATOM     23  C   UNL A   1      31.271  27.221  26.549  1.00  0.00     0.000 C 
ATOM     24  C   UNL A   1      31.806  28.213  27.575  1.00  0.00     0.000 C 
ENDBRANCH  18  19
ENDBRANCH  17  18
ENDBRANCH  16  17
ENDBRANCH  13  16
BRANCH  14  25
ATOM     25  O   UNL A   1      31.641  21.951  23.151  1.00  0.00    -0.477 OA
BRANCH  25  26
ATOM     26  C   UNL A   1      32.157  20.864  23.932  1.00  0.00     0.231 C 
BRANCH  26  27
ATOM     27  C   UNL A   1      32.171  19.567  23.098  1.00  0.00     0.045 C 
BRANCH  27  28
ATOM     28  C   UNL A   1      32.926  18.419  23.785  1.00  0.00    -0.008 C 
ATOM     29  C   UNL A   1      32.112  17.717  24.878  1.00  0.00     0.004 C 
ATOM     30  C   UNL A   1      33.405  17.320  22.828  1.00  0.00     0.004 C 
ATOM     31  C   UNL A   1      33.092  16.928  25.745  1.00  0.00     0.000 C 
ATOM     32  C   UNL A   1      34.332  16.349  23.577  1.00  0.00     0.000 C 
ATOM     33  C   UNL A   1      33.766  15.841  24.910  1.00  0.00     0.000 C 
ENDBRANCH  27  28
ENDBRANCH  26  27
ENDBRANCH  25  26
ENDBRANCH  14  25
ENDBRANCH   9  10
ENDBRANCH   4   9
ENDBRANCH   2   4
ENDBRANCH   1   2
BRANCH   1  34
ATOM     34  C   UNL A   1      39.308  21.642  25.682  1.00  0.00     0.274 C 
BRANCH  34  35
ATOM     35  C   UNL A   1      39.753  20.281  26.221  1.00  0.00     0.275 C 
BRANCH  35  36
ATOM     36  O   UNL A   1      40.739  19.671  25.368  1.00  0.00    -0.458 OA
BRANCH  36  37
ATOM     37  C   UNL A   1      41.921  19.401  25.967  1.00  0.00     0.338 C 
ATOM     38  O   UNL A   1      42.396  18.300  26.195  1.00  0.00    -0.246 OA
BRANCH  37  39
ATOM     39  C   UNL A   1      42.659  20.644  26.231  1.00  0.00     0.060 A 
ATOM     40  C   UNL A   1      42.734  21.101  27.547  1.00  0.00     0.016 A 
ATOM     41  C   UNL A   1      43.127  21.432  25.180  1.00  0.00     0.016 A 
ATOM     42  C   UNL A   1      43.221  22.373  27.823  1.00  0.00     0.010 A 
ATOM     43  C   UNL A   1      43.637  22.705  25.459  1.00  0.00     0.010 A 
ATOM     44  C   UNL A   1      43.649  23.197  26.777  1.00  0.00    -0.014 A 
BRANCH  44  45
ATOM     45  C   UNL A   1      44.016  24.605  27.063  1.00  0.00     0.031 A 
ATOM     46  C   UNL A   1      45.431  25.065  26.840  1.00  0.00     0.074 A 
ATOM     47  C   UNL A   1      43.082  25.471  27.498  1.00  0.00     0.049 A 
ATOM     48  N   UNL A   1      45.964  26.236  27.070  1.00  0.00    -0.248 NA
ATOM     49  C   UNL A   1      46.370  24.074  26.287  1.00  0.00     0.031 C 
ATOM     50  C   UNL A   1      41.676  25.145  27.739  1.00  0.00     0.029 A 
ATOM     51  N   UNL A   1      43.181  26.798  27.828  1.00  0.00    -0.354 N 
ATOM     52  C   UNL A   1      47.308  26.113  26.739  1.00  0.00     0.074 A 
ATOM     53  C   UNL A   1      47.510  24.752  26.291  1.00  0.00     0.031 C 
ATOM     54  C   UNL A   1      41.046  26.240  28.193  1.00  0.00     0.029 A 
ATOM     55  C   UNL A   1      42.008  27.334  28.303  1.00  0.00     0.049 A 
ATOM     56  H   UNL A   1      44.013  27.317  27.736  1.00  0.00     0.167 HD
ATOM     57  C   UNL A   1      48.283  27.053  26.785  1.00  0.00     0.034 A 
ATOM     58  C   UNL A   1      41.743  28.563  28.787  1.00  0.00     0.034 A 
ATOM     59  C   UNL A   1      48.068  28.419  27.181  1.00  0.00     0.049 A 
ATOM     60  C   UNL A   1      42.841  29.593  28.812  1.00  0.00     0.074 A 
ATOM     61  C   UNL A   1      48.983  29.457  27.222  1.00  0.00     0.029 A 
ATOM     62  N   UNL A   1      46.854  28.941  27.599  1.00  0.00    -0.354 N 
ATOM     63  N   UNL A   1      44.083  29.486  28.405  1.00  0.00    -0.248 NA
ATOM     64  C   UNL A   1      42.493  30.921  29.335  1.00  0.00     0.031 C 
ATOM     65  C   UNL A   1      48.320  30.605  27.671  1.00  0.00     0.029 A 
ATOM     66  C   UNL A   1      46.992  30.285  27.900  1.00  0.00     0.049 A 
ATOM     67  H   UNL A   1      46.015  28.429  27.672  1.00  0.00     0.167 HD
ATOM     68  C   UNL A   1      44.656  30.737  28.597  1.00  0.00     0.074 A 
ATOM     69  C   UNL A   1      43.617  31.594  29.130  1.00  0.00     0.031 C 
ATOM     70  C   UNL A   1      45.933  31.137  28.374  1.00  0.00     0.034 A 
BRANCH  57  71
ATOM     71  C   UNL A   1      49.667  26.641  26.362  1.00  0.00     0.023 A 
ATOM     72  C   UNL A   1      50.429  25.802  27.199  1.00  0.00     0.012 A 
ATOM     73  C   UNL A   1      50.196  27.044  25.120  1.00  0.00     0.148 A 
ATOM     74  C   UNL A   1      51.706  25.391  26.820  1.00  0.00     0.002 A 
ATOM     75  C   UNL A   1      51.455  26.600  24.733  1.00  0.00     0.091 A 
ATOM     76  F   UNL A   1      49.468  27.864  24.349  1.00  0.00    -0.205 F 
ATOM     77  C   UNL A   1      52.215  25.782  25.584  1.00  0.00     0.022 A 
BRANCH  75  78
ATOM     78  S   UNL A   1      52.164  26.995  23.130  1.00  0.00     0.127 S 
ATOM     79  O   UNL A   1      53.284  26.059  23.064  1.00  0.00    -0.237 OA
ATOM     80  O   UNL A   1      51.061  26.692  22.218  1.00  0.00    -0.237 OA
ATOM     81  O   UNL A   1      52.525  28.406  23.192  1.00  0.00    -0.744 OA
ENDBRANCH  75  78
ENDBRANCH  57  71
BRANCH  58  82
ATOM     82  C   UNL A   1      40.365  28.900  29.240  1.00  0.00     0.023 A 
ATOM     83  C   UNL A   1      39.418  29.345  28.299  1.00  0.00     0.012 A 
ATOM     84  C   UNL A   1      39.980  28.752  30.586  1.00  0.00     0.148 A 
ATOM     85  C   UNL A   1      38.117  29.660  28.693  1.00  0.00     0.002 A 
ATOM     86  C   UNL A   1      38.668  29.018  30.963  1.00  0.00     0.091 A 
ATOM     87  F   UNL A   1      40.902  28.350  31.473  1.00  0.00    -0.205 F 
ATOM     88  C   UNL A   1      37.739  29.485  30.022  1.00  0.00     0.022 A 
BRANCH  86  89
ATOM     89  S   UNL A   1      38.069  28.695  32.627  1.00  0.00     0.127 S 
ATOM     90  O   UNL A   1      38.207  27.244  32.718  1.00  0.00    -0.237 OA
ATOM     91  O   UNL A   1      39.013  29.456  33.446  1.00  0.00    -0.237 OA
ATOM     92  O   UNL A   1      36.707  29.211  32.653  1.00  0.00    -0.744 OA
ENDBRANCH  86  89
ENDBRANCH  58  82
BRANCH  70  93
ATOM     93  C   UNL A   1      46.275  32.571  28.685  1.00  0.00     0.023 A 
ATOM     94  C   UNL A   1      46.770  32.903  29.962  1.00  0.00     0.012 A 
ATOM     95  C   UNL A   1      46.165  33.573  27.703  1.00  0.00     0.148 A 
ATOM     96  C   UNL A   1      47.120  34.219  30.265  1.00  0.00     0.002 A 
ATOM     97  C   UNL A   1      46.554  34.874  28.000  1.00  0.00     0.091 A 
ATOM     98  F   UNL A   1      45.669  33.244  26.501  1.00  0.00    -0.205 F 
ATOM     99  C   UNL A   1      47.023  35.201  29.282  1.00  0.00     0.022 A 
BRANCH  97 100
ATOM    100  S   UNL A   1      46.540  36.173  26.757  1.00  0.00     0.127 S 
ATOM    101  O   UNL A   1      46.950  35.446  25.559  1.00  0.00    -0.237 OA
ATOM    102  O   UNL A   1      45.140  36.602  26.761  1.00  0.00    -0.237 OA
ATOM    103  O   UNL A   1      47.474  37.182  27.239  1.00  0.00    -0.744 OA
ENDBRANCH  97 100
ENDBRANCH  70  93
ENDBRANCH  44  45
ENDBRANCH  37  39
ENDBRANCH  36  37
ENDBRANCH  35  36
ENDBRANCH  34  35
ENDBRANCH   1  34
TORSDOF 27
ENDMDL
