MODEL 1
REMARK VINA RESULT:     -11.8      0.000      0.000
REMARK SMILES O=C(Cc1ccccc1Nc1c(F)cccc1C(F)(F)F)OCCOC(=O)c1ccc(-c2c3nc(c(-c4cccc(S(=O)(=O)[O-])c4F)c4ccc([nH]4)c(-c4cccc(S(=O)(=O)[O-])c4F)c4nc(c(-c5cccc(S(=O)(=O)[O-])c5F)c5ccc2[nH]5)C=C4)C=C3)cc1
REMARK SMILES IDX 23 1 22 2 2 3 1 4 3 5 4 6 5 7 9 8 6 9 8 10 7 11 10 12 11 14
REMARK SMILES IDX 12 15 17 16 13 17 14 18 16 19 15 20 18 21 19 22 20 23 21 24
REMARK SMILES IDX 24 25 25 26 26 27 27 28 28 29 29 30 90 31 30 32 89 33 31 34
REMARK SMILES IDX 32 35 33 36 83 37 34 38 88 39 82 40 84 41 35 42 87 43 81 44
REMARK SMILES IDX 80 45 36 47 68 48 48 49 67 50 49 51 52 52 66 53 85 54 50 55
REMARK SMILES IDX 51 56 65 58 86 59 53 60 37 61 38 62 46 63 39 64 41 65 47 66
REMARK SMILES IDX 40 67 42 68 43 69 44 70 45 71 69 72 70 73 78 74 71 75 73 76
REMARK SMILES IDX 79 77 72 78 74 79 75 80 76 81 77 82 54 83 55 84 63 85 56 86
REMARK SMILES IDX 58 87 64 88 57 89 59 90 60 91 61 92 62 93
REMARK H PARENT 10 13 84 46 52 57
REMARK Flexibility Score: inf
ROOT
ATOM      1  C   UNL A   1      36.920  22.617  23.491  1.00  0.00     0.274 C 
ENDROOT
BRANCH   1   2
ATOM      2  O   UNL A   1      35.647  22.962  22.902  1.00  0.00    -0.462 OA
BRANCH   2   3
ATOM      3  C   UNL A   1      34.864  23.997  23.290  1.00  0.00     0.310 C 
ATOM      4  O   UNL A   1      34.086  24.510  22.484  1.00  0.00    -0.252 OA
BRANCH   3   5
ATOM      5  C   UNL A   1      34.957  24.500  24.708  1.00  0.00     0.160 C 
BRANCH   5   6
ATOM      6  C   UNL A   1      33.813  24.156  25.634  1.00  0.00    -0.013 A 
ATOM      7  C   UNL A   1      33.913  23.050  26.499  1.00  0.00     0.006 A 
ATOM      8  C   UNL A   1      32.601  24.888  25.577  1.00  0.00     0.042 A 
ATOM      9  C   UNL A   1      32.847  22.684  27.316  1.00  0.00     0.000 A 
ATOM     10  C   UNL A   1      31.534  24.480  26.388  1.00  0.00     0.026 A 
ATOM     11  C   UNL A   1      31.655  23.394  27.256  1.00  0.00     0.002 A 
BRANCH   8  12
ATOM     12  N   UNL A   1      32.488  26.016  24.731  1.00  0.00    -0.352 N 
ATOM     13  H   UNL A   1      32.670  25.838  23.780  1.00  0.00     0.167 HD
BRANCH  12  14
ATOM     14  C   UNL A   1      32.156  27.360  25.026  1.00  0.00     0.087 A 
ATOM     15  C   UNL A   1      32.990  28.034  25.944  1.00  0.00     0.147 A 
ATOM     16  C   UNL A   1      31.109  28.084  24.431  1.00  0.00     0.082 A 
ATOM     17  F   UNL A   1      33.950  27.338  26.574  1.00  0.00    -0.205 F 
ATOM     18  C   UNL A   1      32.859  29.389  26.220  1.00  0.00     0.041 A 
ATOM     19  C   UNL A   1      31.003  29.471  24.695  1.00  0.00     0.015 A 
ATOM     20  C   UNL A   1      31.873  30.119  25.574  1.00  0.00     0.004 A 
BRANCH  16  21
ATOM     21  C   UNL A   1      30.052  27.459  23.555  1.00  0.00     0.418 C 
ATOM     22  F   UNL A   1      28.930  28.246  23.477  1.00  0.00    -0.166 F 
ATOM     23  F   UNL A   1      30.446  27.301  22.261  1.00  0.00    -0.166 F 
ATOM     24  F   UNL A   1      29.581  26.250  23.972  1.00  0.00    -0.166 F 
ENDBRANCH  16  21
ENDBRANCH  12  14
ENDBRANCH   8  12
ENDBRANCH   5   6
ENDBRANCH   3   5
ENDBRANCH   2   3
ENDBRANCH   1   2
BRANCH   1  25
ATOM     25  C   UNL A   1      36.788  21.417  24.433  1.00  0.00     0.275 C 
BRANCH  25  26
ATOM     26  O   UNL A   1      37.271  21.759  25.745  1.00  0.00    -0.458 OA
BRANCH  26  27
ATOM     27  C   UNL A   1      38.577  21.487  25.986  1.00  0.00     0.338 C 
ATOM     28  O   UNL A   1      39.189  20.493  25.635  1.00  0.00    -0.246 OA
BRANCH  27  29
ATOM     29  C   UNL A   1      39.221  22.687  26.575  1.00  0.00     0.060 A 
ATOM     30  C   UNL A   1      38.648  23.935  26.302  1.00  0.00     0.016 A 
ATOM     31  C   UNL A   1      40.334  22.599  27.420  1.00  0.00     0.016 A 
ATOM     32  C   UNL A   1      39.206  25.095  26.841  1.00  0.00     0.010 A 
ATOM     33  C   UNL A   1      40.891  23.764  27.960  1.00  0.00     0.010 A 
ATOM     34  C   UNL A   1      40.349  25.021  27.651  1.00  0.00    -0.014 A 
BRANCH  34  35
ATOM     35  C   UNL A   1      41.028  26.273  28.066  1.00  0.00     0.031 A 
ATOM     36  C   UNL A   1      42.459  26.504  27.661  1.00  0.00     0.074 A 
ATOM     37  C   UNL A   1      40.376  27.215  28.774  1.00  0.00     0.049 A 
ATOM     38  N   UNL A   1      43.199  27.571  27.813  1.00  0.00    -0.248 NA
ATOM     39  C   UNL A   1      43.148  25.382  27.002  1.00  0.00     0.031 C 
ATOM     40  C   UNL A   1      39.008  27.102  29.276  1.00  0.00     0.029 A 
ATOM     41  N   UNL A   1      40.791  28.451  29.202  1.00  0.00    -0.354 N 
ATOM     42  C   UNL A   1      44.433  27.259  27.258  1.00  0.00     0.074 A 
ATOM     43  C   UNL A   1      44.359  25.885  26.808  1.00  0.00     0.031 C 
ATOM     44  C   UNL A   1      38.703  28.217  29.962  1.00  0.00     0.029 A 
ATOM     45  C   UNL A   1      39.848  29.126  29.940  1.00  0.00     0.049 A 
ATOM     46  H   UNL A   1      41.681  28.821  28.999  1.00  0.00     0.167 HD
ATOM     47  C   UNL A   1      45.522  28.049  27.102  1.00  0.00     0.034 A 
ATOM     48  C   UNL A   1      39.901  30.340  30.525  1.00  0.00     0.034 A 
ATOM     49  C   UNL A   1      45.606  29.414  27.546  1.00  0.00     0.049 A 
ATOM     50  C   UNL A   1      41.122  31.205  30.334  1.00  0.00     0.074 A 
ATOM     51  C   UNL A   1      46.657  30.304  27.401  1.00  0.00     0.029 A 
ATOM     52  N   UNL A   1      44.607  30.086  28.232  1.00  0.00    -0.354 N 
ATOM     53  N   UNL A   1      42.217  30.955  29.657  1.00  0.00    -0.248 NA
ATOM     54  C   UNL A   1      41.091  32.543  30.946  1.00  0.00     0.031 C 
ATOM     55  C   UNL A   1      46.297  31.511  28.013  1.00  0.00     0.029 A 
ATOM     56  C   UNL A   1      45.017  31.377  28.523  1.00  0.00     0.049 A 
ATOM     57  H   UNL A   1      43.735  29.702  28.478  1.00  0.00     0.167 HD
ATOM     58  C   UNL A   1      42.988  32.110  29.735  1.00  0.00     0.074 A 
ATOM     59  C   UNL A   1      42.222  33.073  30.498  1.00  0.00     0.031 C 
ATOM     60  C   UNL A   1      44.228  32.347  29.238  1.00  0.00     0.034 A 
BRANCH  47  61
ATOM     61  C   UNL A   1      46.694  27.469  26.357  1.00  0.00     0.023 A 
ATOM     62  C   UNL A   1      46.765  27.636  24.959  1.00  0.00     0.012 A 
ATOM     63  C   UNL A   1      47.740  26.812  27.031  1.00  0.00     0.148 A 
ATOM     64  C   UNL A   1      47.847  27.134  24.237  1.00  0.00     0.002 A 
ATOM     65  C   UNL A   1      48.835  26.347  26.310  1.00  0.00     0.091 A 
ATOM     66  F   UNL A   1      47.641  26.643  28.357  1.00  0.00    -0.205 F 
ATOM     67  C   UNL A   1      48.886  26.500  24.914  1.00  0.00     0.022 A 
BRANCH  65  68
ATOM     68  S   UNL A   1      50.253  25.573  27.093  1.00  0.00     0.127 S 
ATOM     69  O   UNL A   1      51.184  25.461  25.972  1.00  0.00    -0.237 OA
ATOM     70  O   UNL A   1      50.628  26.565  28.101  1.00  0.00    -0.237 OA
ATOM     71  O   UNL A   1      49.772  24.310  27.635  1.00  0.00    -0.744 OA
ENDBRANCH  65  68
ENDBRANCH  47  61
BRANCH  48  72
ATOM     72  C   UNL A   1      38.733  30.843  31.301  1.00  0.00     0.023 A 
ATOM     73  C   UNL A   1      38.722  30.722  32.705  1.00  0.00     0.012 A 
ATOM     74  C   UNL A   1      37.633  31.439  30.655  1.00  0.00     0.148 A 
ATOM     75  C   UNL A   1      37.620  31.149  33.447  1.00  0.00     0.002 A 
ATOM     76  C   UNL A   1      36.561  31.910  31.405  1.00  0.00     0.091 A 
ATOM     77  F   UNL A   1      37.651  31.526  29.317  1.00  0.00    -0.205 F 
ATOM     78  C   UNL A   1      36.545  31.751  32.798  1.00  0.00     0.022 A 
BRANCH  76  79
ATOM     79  S   UNL A   1      35.191  32.802  30.659  1.00  0.00     0.127 S 
ATOM     80  O   UNL A   1      35.849  34.013  30.177  1.00  0.00    -0.237 OA
ATOM     81  O   UNL A   1      34.758  31.877  29.610  1.00  0.00    -0.237 OA
ATOM     82  O   UNL A   1      34.220  32.987  31.729  1.00  0.00    -0.744 OA
ENDBRANCH  76  79
ENDBRANCH  48  72
BRANCH  60  83
ATOM     83  C   UNL A   1      44.835  33.705  29.486  1.00  0.00     0.023 A 
ATOM     84  C   UNL A   1      45.668  33.901  30.606  1.00  0.00     0.012 A 
ATOM     85  C   UNL A   1      44.633  34.769  28.583  1.00  0.00     0.148 A 
ATOM     86  C   UNL A   1      46.257  35.142  30.845  1.00  0.00     0.002 A 
ATOM     87  C   UNL A   1      45.261  35.991  28.804  1.00  0.00     0.091 A 
ATOM     88  F   UNL A   1      43.823  34.574  27.533  1.00  0.00    -0.205 F 
ATOM     89  C   UNL A   1      46.063  36.183  29.940  1.00  0.00     0.022 A 
BRANCH  87  90
ATOM     90  S   UNL A   1      45.137  37.352  27.639  1.00  0.00     0.127 S 
ATOM     91  O   UNL A   1      45.939  38.383  28.293  1.00  0.00    -0.237 OA
ATOM     92  O   UNL A   1      45.738  36.789  26.428  1.00  0.00    -0.237 OA
ATOM     93  O   UNL A   1      43.712  37.640  27.520  1.00  0.00    -0.744 OA
ENDBRANCH  87  90
ENDBRANCH  60  83
ENDBRANCH  34  35
ENDBRANCH  27  29
ENDBRANCH  26  27
ENDBRANCH  25  26
ENDBRANCH   1  25
TORSDOF 18
ENDMDL
MODEL 2
REMARK VINA RESULT:     -11.7      1.714      2.201
REMARK SMILES O=C(Cc1ccccc1Nc1c(F)cccc1C(F)(F)F)OCCOC(=O)c1ccc(-c2c3nc(c(-c4cccc(S(=O)(=O)[O-])c4F)c4ccc([nH]4)c(-c4cccc(S(=O)(=O)[O-])c4F)c4nc(c(-c5cccc(S(=O)(=O)[O-])c5F)c5ccc2[nH]5)C=C4)C=C3)cc1
REMARK SMILES IDX 23 1 22 2 2 3 1 4 3 5 4 6 5 7 9 8 6 9 8 10 7 11 10 12 11 14
REMARK SMILES IDX 12 15 17 16 13 17 14 18 16 19 15 20 18 21 19 22 20 23 21 24
REMARK SMILES IDX 24 25 25 26 26 27 27 28 28 29 29 30 90 31 30 32 89 33 31 34
REMARK SMILES IDX 32 35 33 36 83 37 34 38 88 39 82 40 84 41 35 42 87 43 81 44
REMARK SMILES IDX 80 45 36 47 68 48 48 49 67 50 49 51 52 52 66 53 85 54 50 55
REMARK SMILES IDX 51 56 65 58 86 59 53 60 37 61 38 62 46 63 39 64 41 65 47 66
REMARK SMILES IDX 40 67 42 68 43 69 44 70 45 71 69 72 70 73 78 74 71 75 73 76
REMARK SMILES IDX 79 77 72 78 74 79 75 80 76 81 77 82 54 83 55 84 63 85 56 86
REMARK SMILES IDX 58 87 64 88 57 89 59 90 60 91 61 92 62 93
REMARK H PARENT 10 13 84 46 52 57
REMARK Flexibility Score: inf
ROOT
ATOM      1  C   UNL A   1      36.270  20.319  24.998  1.00  0.00     0.274 C 
ENDROOT
BRANCH   1   2
ATOM      2  O   UNL A   1      35.539  21.209  25.870  1.00  0.00    -0.462 OA
BRANCH   2   3
ATOM      3  C   UNL A   1      34.792  22.262  25.461  1.00  0.00     0.310 C 
ATOM      4  O   UNL A   1      34.477  22.364  24.275  1.00  0.00    -0.252 OA
BRANCH   3   5
ATOM      5  C   UNL A   1      34.354  23.291  26.473  1.00  0.00     0.160 C 
BRANCH   5   6
ATOM      6  C   UNL A   1      32.882  23.636  26.507  1.00  0.00    -0.013 A 
ATOM      7  C   UNL A   1      31.923  22.618  26.667  1.00  0.00     0.006 A 
ATOM      8  C   UNL A   1      32.454  24.968  26.292  1.00  0.00     0.042 A 
ATOM      9  C   UNL A   1      30.562  22.910  26.641  1.00  0.00     0.000 A 
ATOM     10  C   UNL A   1      31.079  25.230  26.242  1.00  0.00     0.026 A 
ATOM     11  C   UNL A   1      30.139  24.215  26.422  1.00  0.00     0.002 A 
BRANCH   8  12
ATOM     12  N   UNL A   1      33.403  26.010  26.152  1.00  0.00    -0.352 N 
ATOM     13  H   UNL A   1      34.158  25.966  26.782  1.00  0.00     0.167 HD
BRANCH  12  14
ATOM     14  C   UNL A   1      33.444  27.104  25.257  1.00  0.00     0.087 A 
ATOM     15  C   UNL A   1      33.775  26.816  23.915  1.00  0.00     0.147 A 
ATOM     16  C   UNL A   1      33.120  28.431  25.586  1.00  0.00     0.082 A 
ATOM     17  F   UNL A   1      34.155  25.568  23.599  1.00  0.00    -0.205 F 
ATOM     18  C   UNL A   1      33.720  27.771  22.908  1.00  0.00     0.041 A 
ATOM     19  C   UNL A   1      33.037  29.391  24.548  1.00  0.00     0.015 A 
ATOM     20  C   UNL A   1      33.326  29.063  23.222  1.00  0.00     0.004 A 
BRANCH  16  21
ATOM     21  C   UNL A   1      32.897  28.912  26.998  1.00  0.00     0.418 C 
ATOM     22  F   UNL A   1      34.082  29.188  27.632  1.00  0.00    -0.166 F 
ATOM     23  F   UNL A   1      32.196  30.079  27.067  1.00  0.00    -0.166 F 
ATOM     24  F   UNL A   1      32.274  28.030  27.829  1.00  0.00    -0.166 F 
ENDBRANCH  16  21
ENDBRANCH  12  14
ENDBRANCH   8  12
ENDBRANCH   5   6
ENDBRANCH   3   5
ENDBRANCH   2   3
ENDBRANCH   1   2
BRANCH   1  25
ATOM     25  C   UNL A   1      37.693  20.827  24.755  1.00  0.00     0.275 C 
BRANCH  25  26
ATOM     26  O   UNL A   1      38.105  21.690  25.831  1.00  0.00    -0.458 OA
BRANCH  26  27
ATOM     27  C   UNL A   1      39.369  21.509  26.286  1.00  0.00     0.338 C 
ATOM     28  O   UNL A   1      40.069  20.526  26.114  1.00  0.00    -0.246 OA
BRANCH  27  29
ATOM     29  C   UNL A   1      39.863  22.783  26.864  1.00  0.00     0.060 A 
ATOM     30  C   UNL A   1      39.260  23.971  26.434  1.00  0.00     0.016 A 
ATOM     31  C   UNL A   1      40.860  22.821  27.846  1.00  0.00     0.016 A 
ATOM     32  C   UNL A   1      39.678  25.197  26.954  1.00  0.00     0.010 A 
ATOM     33  C   UNL A   1      41.277  24.051  28.368  1.00  0.00     0.010 A 
ATOM     34  C   UNL A   1      40.709  25.249  27.904  1.00  0.00    -0.014 A 
BRANCH  34  35
ATOM     35  C   UNL A   1      41.257  26.566  28.311  1.00  0.00     0.031 A 
ATOM     36  C   UNL A   1      42.705  26.877  28.040  1.00  0.00     0.074 A 
ATOM     37  C   UNL A   1      40.475  27.494  28.892  1.00  0.00     0.049 A 
ATOM     38  N   UNL A   1      43.354  28.001  28.202  1.00  0.00    -0.248 NA
ATOM     39  C   UNL A   1      43.531  25.774  27.522  1.00  0.00     0.031 C 
ATOM     40  C   UNL A   1      39.072  27.311  29.259  1.00  0.00     0.029 A 
ATOM     41  N   UNL A   1      40.760  28.778  29.285  1.00  0.00    -0.354 N 
ATOM     42  C   UNL A   1      44.657  27.748  27.795  1.00  0.00     0.074 A 
ATOM     43  C   UNL A   1      44.720  26.351  27.422  1.00  0.00     0.031 C 
ATOM     44  C   UNL A   1      38.623  28.436  29.843  1.00  0.00     0.029 A 
ATOM     45  C   UNL A   1      39.703  29.422  29.883  1.00  0.00     0.049 A 
ATOM     46  H   UNL A   1      41.640  29.199  29.152  1.00  0.00     0.167 HD
ATOM     47  C   UNL A   1      45.702  28.605  27.703  1.00  0.00     0.034 A 
ATOM     48  C   UNL A   1      39.614  30.665  30.397  1.00  0.00     0.034 A 
ATOM     49  C   UNL A   1      45.649  29.994  28.072  1.00  0.00     0.049 A 
ATOM     50  C   UNL A   1      40.789  31.604  30.280  1.00  0.00     0.074 A 
ATOM     51  C   UNL A   1      46.649  30.947  27.982  1.00  0.00     0.029 A 
ATOM     52  N   UNL A   1      44.542  30.628  28.613  1.00  0.00    -0.354 N 
ATOM     53  N   UNL A   1      41.963  31.397  29.734  1.00  0.00    -0.248 NA
ATOM     54  C   UNL A   1      40.606  32.966  30.805  1.00  0.00     0.031 C 
ATOM     55  C   UNL A   1      46.148  32.156  28.482  1.00  0.00     0.029 A 
ATOM     56  C   UNL A   1      44.833  31.958  28.866  1.00  0.00     0.049 A 
ATOM     57  H   UNL A   1      43.676  30.196  28.791  1.00  0.00     0.167 HD
ATOM     58  C   UNL A   1      42.644  32.607  29.821  1.00  0.00     0.074 A 
ATOM     59  C   UNL A   1      41.740  33.551  30.443  1.00  0.00     0.031 C 
ATOM     60  C   UNL A   1      43.912  32.905  29.438  1.00  0.00     0.034 A 
BRANCH  47  61
ATOM     61  C   UNL A   1      46.981  28.072  27.118  1.00  0.00     0.023 A 
ATOM     62  C   UNL A   1      48.012  27.661  27.988  1.00  0.00     0.012 A 
ATOM     63  C   UNL A   1      47.148  27.927  25.728  1.00  0.00     0.148 A 
ATOM     64  C   UNL A   1      49.202  27.139  27.484  1.00  0.00     0.002 A 
ATOM     65  C   UNL A   1      48.323  27.369  25.233  1.00  0.00     0.091 A 
ATOM     66  F   UNL A   1      46.166  28.345  24.918  1.00  0.00    -0.205 F 
ATOM     67  C   UNL A   1      49.352  26.983  26.109  1.00  0.00     0.022 A 
BRANCH  65  68
ATOM     68  S   UNL A   1      48.590  27.067  23.484  1.00  0.00     0.127 S 
ATOM     69  O   UNL A   1      50.049  27.066  23.404  1.00  0.00    -0.237 OA
ATOM     70  O   UNL A   1      47.967  25.756  23.298  1.00  0.00    -0.237 OA
ATOM     71  O   UNL A   1      47.927  28.158  22.783  1.00  0.00    -0.744 OA
ENDBRANCH  65  68
ENDBRANCH  47  61
BRANCH  48  72
ATOM     72  C   UNL A   1      38.340  31.124  31.020  1.00  0.00     0.023 A 
ATOM     73  C   UNL A   1      38.119  30.913  32.395  1.00  0.00     0.012 A 
ATOM     74  C   UNL A   1      37.347  31.765  30.255  1.00  0.00     0.148 A 
ATOM     75  C   UNL A   1      36.916  31.298  32.989  1.00  0.00     0.002 A 
ATOM     76  C   UNL A   1      36.172  32.193  30.863  1.00  0.00     0.091 A 
ATOM     77  F   UNL A   1      37.565  31.937  28.943  1.00  0.00    -0.205 F 
ATOM     78  C   UNL A   1      35.948  31.945  32.226  1.00  0.00     0.022 A 
BRANCH  76  79
ATOM     79  S   UNL A   1      34.926  33.138  29.979  1.00  0.00     0.127 S 
ATOM     80  O   UNL A   1      35.737  34.154  29.314  1.00  0.00    -0.237 OA
ATOM     81  O   UNL A   1      34.351  32.128  29.089  1.00  0.00    -0.237 OA
ATOM     82  O   UNL A   1      34.009  33.623  31.002  1.00  0.00    -0.744 OA
ENDBRANCH  76  79
ENDBRANCH  48  72
BRANCH  60  83
ATOM     83  C   UNL A   1      44.399  34.315  29.665  1.00  0.00     0.023 A 
ATOM     84  C   UNL A   1      44.958  34.665  30.910  1.00  0.00     0.012 A 
ATOM     85  C   UNL A   1      44.360  35.274  28.633  1.00  0.00     0.148 A 
ATOM     86  C   UNL A   1      45.435  35.956  31.138  1.00  0.00     0.002 A 
ATOM     87  C   UNL A   1      44.879  36.546  28.853  1.00  0.00     0.091 A 
ATOM     88  F   UNL A   1      43.807  34.933  27.460  1.00  0.00    -0.205 F 
ATOM     89  C   UNL A   1      45.405  36.893  30.107  1.00  0.00     0.022 A 
BRANCH  87  90
ATOM     90  S   UNL A   1      44.962  37.781  27.551  1.00  0.00     0.127 S 
ATOM     91  O   UNL A   1      43.550  37.967  27.223  1.00  0.00    -0.237 OA
ATOM     92  O   UNL A   1      45.584  38.918  28.232  1.00  0.00    -0.237 OA
ATOM     93  O   UNL A   1      45.783  37.192  26.500  1.00  0.00    -0.744 OA
ENDBRANCH  87  90
ENDBRANCH  60  83
ENDBRANCH  34  35
ENDBRANCH  27  29
ENDBRANCH  26  27
ENDBRANCH  25  26
ENDBRANCH   1  25
TORSDOF 18
ENDMDL
MODEL 3
REMARK VINA RESULT:     -11.7      4.772     10.019
REMARK SMILES O=C(Cc1ccccc1Nc1c(F)cccc1C(F)(F)F)OCCOC(=O)c1ccc(-c2c3nc(c(-c4cccc(S(=O)(=O)[O-])c4F)c4ccc([nH]4)c(-c4cccc(S(=O)(=O)[O-])c4F)c4nc(c(-c5cccc(S(=O)(=O)[O-])c5F)c5ccc2[nH]5)C=C4)C=C3)cc1
REMARK SMILES IDX 23 1 22 2 2 3 1 4 3 5 4 6 5 7 9 8 6 9 8 10 7 11 10 12 11 14
REMARK SMILES IDX 12 15 17 16 13 17 14 18 16 19 15 20 18 21 19 22 20 23 21 24
REMARK SMILES IDX 24 25 25 26 26 27 27 28 28 29 29 30 90 31 30 32 89 33 31 34
REMARK SMILES IDX 32 35 33 36 83 37 34 38 88 39 82 40 84 41 35 42 87 43 81 44
REMARK SMILES IDX 80 45 36 47 68 48 48 49 67 50 49 51 52 52 66 53 85 54 50 55
REMARK SMILES IDX 51 56 65 58 86 59 53 60 37 61 38 62 46 63 39 64 41 65 47 66
REMARK SMILES IDX 40 67 42 68 43 69 44 70 45 71 69 72 70 73 78 74 71 75 73 76
REMARK SMILES IDX 79 77 72 78 74 79 75 80 76 81 77 82 54 83 55 84 63 85 56 86
REMARK SMILES IDX 58 87 64 88 57 89 59 90 60 91 61 92 62 93
REMARK H PARENT 10 13 84 46 52 57
REMARK Flexibility Score: inf
ROOT
ATOM      1  C   UNL A   1      31.777  29.151  25.391  1.00  0.00     0.274 C 
ENDROOT
BRANCH   1   2
ATOM      2  O   UNL A   1      31.437  28.169  26.394  1.00  0.00    -0.462 OA
BRANCH   2   3
ATOM      3  C   UNL A   1      31.434  26.828  26.203  1.00  0.00     0.310 C 
ATOM      4  O   UNL A   1      30.394  26.190  26.370  1.00  0.00    -0.252 OA
BRANCH   3   5
ATOM      5  C   UNL A   1      32.708  26.141  25.781  1.00  0.00     0.160 C 
BRANCH   5   6
ATOM      6  C   UNL A   1      32.826  25.748  24.326  1.00  0.00    -0.013 A 
ATOM      7  C   UNL A   1      32.056  26.411  23.352  1.00  0.00     0.006 A 
ATOM      8  C   UNL A   1      33.641  24.655  23.944  1.00  0.00     0.042 A 
ATOM      9  C   UNL A   1      32.108  26.022  22.016  1.00  0.00     0.000 A 
ATOM     10  C   UNL A   1      33.652  24.266  22.597  1.00  0.00     0.026 A 
ATOM     11  C   UNL A   1      32.900  24.946  21.639  1.00  0.00     0.002 A 
BRANCH   8  12
ATOM     12  N   UNL A   1      34.440  23.989  24.904  1.00  0.00    -0.352 N 
ATOM     13  H   UNL A   1      34.553  24.474  25.753  1.00  0.00     0.167 HD
BRANCH  12  14
ATOM     14  C   UNL A   1      35.103  22.741  24.845  1.00  0.00     0.087 A 
ATOM     15  C   UNL A   1      36.513  22.772  24.795  1.00  0.00     0.147 A 
ATOM     16  C   UNL A   1      34.472  21.487  24.897  1.00  0.00     0.082 A 
ATOM     17  F   UNL A   1      37.128  23.959  24.674  1.00  0.00    -0.205 F 
ATOM     18  C   UNL A   1      37.291  21.623  24.870  1.00  0.00     0.041 A 
ATOM     19  C   UNL A   1      35.273  20.323  25.004  1.00  0.00     0.015 A 
ATOM     20  C   UNL A   1      36.667  20.391  24.998  1.00  0.00     0.004 A 
BRANCH  16  21
ATOM     21  C   UNL A   1      32.978  21.296  24.799  1.00  0.00     0.418 C 
ATOM     22  F   UNL A   1      32.302  22.187  25.594  1.00  0.00    -0.166 F 
ATOM     23  F   UNL A   1      32.487  21.516  23.548  1.00  0.00    -0.166 F 
ATOM     24  F   UNL A   1      32.514  20.078  25.195  1.00  0.00    -0.166 F 
ENDBRANCH  16  21
ENDBRANCH  12  14
ENDBRANCH   8  12
ENDBRANCH   5   6
ENDBRANCH   3   5
ENDBRANCH   2   3
ENDBRANCH   1   2
BRANCH   1  25
ATOM     25  C   UNL A   1      31.683  30.572  25.953  1.00  0.00     0.275 C 
BRANCH  25  26
ATOM     26  O   UNL A   1      32.411  30.667  27.191  1.00  0.00    -0.458 OA
BRANCH  26  27
ATOM     27  C   UNL A   1      33.158  31.786  27.356  1.00  0.00     0.338 C 
ATOM     28  O   UNL A   1      32.774  32.939  27.247  1.00  0.00    -0.246 OA
BRANCH  27  29
ATOM     29  C   UNL A   1      34.487  31.408  27.895  1.00  0.00     0.060 A 
ATOM     30  C   UNL A   1      34.708  30.058  28.197  1.00  0.00     0.016 A 
ATOM     31  C   UNL A   1      35.520  32.338  28.059  1.00  0.00     0.016 A 
ATOM     32  C   UNL A   1      35.944  29.645  28.695  1.00  0.00     0.010 A 
ATOM     33  C   UNL A   1      36.760  31.921  28.558  1.00  0.00     0.010 A 
ATOM     34  C   UNL A   1      36.970  30.578  28.907  1.00  0.00    -0.014 A 
BRANCH  34  35
ATOM     35  C   UNL A   1      38.210  30.150  29.601  1.00  0.00     0.031 A 
ATOM     36  C   UNL A   1      38.490  30.659  30.989  1.00  0.00     0.074 A 
ATOM     37  C   UNL A   1      39.071  29.294  29.020  1.00  0.00     0.049 A 
ATOM     38  N   UNL A   1      39.444  30.321  31.817  1.00  0.00    -0.248 NA
ATOM     39  C   UNL A   1      37.576  31.688  31.512  1.00  0.00     0.031 C 
ATOM     40  C   UNL A   1      38.952  28.762  27.663  1.00  0.00     0.029 A 
ATOM     41  N   UNL A   1      40.227  28.731  29.501  1.00  0.00    -0.354 N 
ATOM     42  C   UNL A   1      39.241  31.082  32.961  1.00  0.00     0.074 A 
ATOM     43  C   UNL A   1      38.100  31.935  32.704  1.00  0.00     0.031 C 
ATOM     44  C   UNL A   1      40.005  27.965  27.414  1.00  0.00     0.029 A 
ATOM     45  C   UNL A   1      40.867  27.921  28.594  1.00  0.00     0.049 A 
ATOM     46  H   UNL A   1      40.565  28.893  30.412  1.00  0.00     0.167 HD
ATOM     47  C   UNL A   1      39.917  31.053  34.135  1.00  0.00     0.034 A 
ATOM     48  C   UNL A   1      42.014  27.221  28.706  1.00  0.00     0.034 A 
ATOM     49  C   UNL A   1      41.051  30.211  34.398  1.00  0.00     0.049 A 
ATOM     50  C   UNL A   1      42.748  27.199  30.023  1.00  0.00     0.074 A 
ATOM     51  C   UNL A   1      41.779  30.089  35.570  1.00  0.00     0.029 A 
ATOM     52  N   UNL A   1      41.633  29.354  33.477  1.00  0.00    -0.354 N 
ATOM     53  N   UNL A   1      42.442  27.794  31.151  1.00  0.00    -0.248 NA
ATOM     54  C   UNL A   1      43.958  26.366  30.097  1.00  0.00     0.031 C 
ATOM     55  C   UNL A   1      42.811  29.167  35.351  1.00  0.00     0.029 A 
ATOM     56  C   UNL A   1      42.714  28.704  34.050  1.00  0.00     0.049 A 
ATOM     57  H   UNL A   1      41.324  29.228  32.552  1.00  0.00     0.167 HD
ATOM     58  C   UNL A   1      43.400  27.384  32.073  1.00  0.00     0.074 A 
ATOM     59  C   UNL A   1      44.278  26.464  31.381  1.00  0.00     0.031 C 
ATOM     60  C   UNL A   1      43.552  27.751  33.371  1.00  0.00     0.034 A 
BRANCH  47  61
ATOM     61  C   UNL A   1      39.398  31.920  35.249  1.00  0.00     0.023 A 
ATOM     62  C   UNL A   1      38.452  31.384  36.148  1.00  0.00     0.012 A 
ATOM     63  C   UNL A   1      39.874  33.230  35.444  1.00  0.00     0.148 A 
ATOM     64  C   UNL A   1      37.966  32.147  37.208  1.00  0.00     0.002 A 
ATOM     65  C   UNL A   1      39.413  33.973  36.526  1.00  0.00     0.091 A 
ATOM     66  F   UNL A   1      40.754  33.728  34.565  1.00  0.00    -0.205 F 
ATOM     67  C   UNL A   1      38.455  33.436  37.403  1.00  0.00     0.022 A 
BRANCH  65  68
ATOM     68  S   UNL A   1      40.025  35.618  36.902  1.00  0.00     0.127 S 
ATOM     69  O   UNL A   1      39.331  35.913  38.153  1.00  0.00    -0.237 OA
ATOM     70  O   UNL A   1      41.464  35.388  37.042  1.00  0.00    -0.237 OA
ATOM     71  O   UNL A   1      39.653  36.453  35.768  1.00  0.00    -0.744 OA
ENDBRANCH  65  68
ENDBRANCH  47  61
BRANCH  48  72
ATOM     72  C   UNL A   1      42.515  26.424  27.550  1.00  0.00     0.023 A 
ATOM     73  C   UNL A   1      43.338  27.036  26.584  1.00  0.00     0.012 A 
ATOM     74  C   UNL A   1      42.177  25.065  27.402  1.00  0.00     0.148 A 
ATOM     75  C   UNL A   1      43.783  26.320  25.472  1.00  0.00     0.002 A 
ATOM     76  C   UNL A   1      42.667  24.343  26.320  1.00  0.00     0.091 A 
ATOM     77  F   UNL A   1      41.375  24.506  28.319  1.00  0.00    -0.205 F 
ATOM     78  C   UNL A   1      43.456  24.972  25.345  1.00  0.00     0.022 A 
BRANCH  76  79
ATOM     79  S   UNL A   1      42.389  22.577  26.145  1.00  0.00     0.127 S 
ATOM     80  O   UNL A   1      43.028  22.052  27.349  1.00  0.00    -0.237 OA
ATOM     81  O   UNL A   1      40.928  22.496  26.136  1.00  0.00    -0.237 OA
ATOM     82  O   UNL A   1      43.015  22.209  24.881  1.00  0.00    -0.744 OA
ENDBRANCH  76  79
ENDBRANCH  48  72
BRANCH  60  83
ATOM     83  C   UNL A   1      44.701  27.147  34.139  1.00  0.00     0.023 A 
ATOM     84  C   UNL A   1      45.959  27.782  34.122  1.00  0.00     0.012 A 
ATOM     85  C   UNL A   1      44.524  25.990  34.924  1.00  0.00     0.148 A 
ATOM     86  C   UNL A   1      47.031  27.256  34.841  1.00  0.00     0.002 A 
ATOM     87  C   UNL A   1      45.587  25.497  35.676  1.00  0.00     0.091 A 
ATOM     88  F   UNL A   1      43.328  25.385  34.916  1.00  0.00    -0.205 F 
ATOM     89  C   UNL A   1      46.843  26.120  35.626  1.00  0.00     0.022 A 
BRANCH  87  90
ATOM     90  S   UNL A   1      45.402  24.093  36.782  1.00  0.00     0.127 S 
ATOM     91  O   UNL A   1      46.751  23.962  37.328  1.00  0.00    -0.237 OA
ATOM     92  O   UNL A   1      44.402  24.573  37.738  1.00  0.00    -0.237 OA
ATOM     93  O   UNL A   1      44.948  22.989  35.946  1.00  0.00    -0.744 OA
ENDBRANCH  87  90
ENDBRANCH  60  83
ENDBRANCH  34  35
ENDBRANCH  27  29
ENDBRANCH  26  27
ENDBRANCH  25  26
ENDBRANCH   1  25
TORSDOF 18
ENDMDL
