MODEL 1
REMARK VINA RESULT:     -10.8      0.000      0.000
REMARK SMILES C#CC[C@@H](C(=O)OCCOC(=O)c1ccc(-c2c3nc(c(-c4cccc(S(=O)(=O)[O-])c4F)c4ccc([nH]4)c(-c4cccc(S(=O)(=O)[O-])c4F)c4nc(c(-c5cccc(S(=O)(=O)[O-])c5F)c5ccc2[nH]5)C=C4)C=C3)cc1)[C@H]1CCS(=O)(=O)C1
REMARK SMILES IDX 9 1 8 2 7 3 5 4 6 5 4 6 3 7 2 8 1 9 76 10 77 11 82 12 78 13
REMARK SMILES IDX 79 14 80 15 81 16 10 17 11 18 12 19 13 20 14 21 75 22 15 23
REMARK SMILES IDX 74 24 16 25 17 26 18 27 68 28 19 29 73 30 67 31 69 32 20 33
REMARK SMILES IDX 72 34 66 35 65 36 21 38 53 39 33 40 52 41 34 42 37 43 51 44
REMARK SMILES IDX 70 45 35 46 36 47 50 49 71 50 38 51 22 52 23 53 31 54 24 55
REMARK SMILES IDX 26 56 32 57 25 58 27 59 28 60 29 61 30 62 54 63 55 64 63 65
REMARK SMILES IDX 56 66 58 67 64 68 57 69 59 70 60 71 61 72 62 73 39 74 40 75
REMARK SMILES IDX 48 76 41 77 43 78 49 79 42 80 44 81 45 82 46 83 47 84
REMARK H PARENT 69 37 37 48
REMARK Flexibility Score: inf
ROOT
ATOM      1  C   UNL A   1      31.481  29.974  25.661  1.00  0.00     0.275 C 
ENDROOT
BRANCH   1   2
ATOM      2  C   UNL A   1      32.191  29.324  24.475  1.00  0.00     0.274 C 
BRANCH   2   3
ATOM      3  O   UNL A   1      32.965  28.198  24.935  1.00  0.00    -0.462 OA
BRANCH   3   4
ATOM      4  C   UNL A   1      33.455  27.285  24.058  1.00  0.00     0.310 C 
ATOM      5  O   UNL A   1      33.825  27.551  22.924  1.00  0.00    -0.252 OA
BRANCH   4   6
ATOM      6  C   UNL A   1      33.382  25.850  24.621  1.00  0.00     0.115 C 
BRANCH   6   7
ATOM      7  C   UNL A   1      33.048  25.840  26.126  1.00  0.00     0.105 C 
BRANCH   7   8
ATOM      8  C   UNL A   1      31.933  24.828  26.333  1.00  0.00    -0.106 C 
ATOM      9  C   UNL A   1      30.977  23.958  26.509  1.00  0.00     0.004 C 
ENDBRANCH   7   8
ENDBRANCH   6   7
BRANCH   6  10
ATOM     10  C   UNL A   1      34.614  24.957  24.374  1.00  0.00     0.020 C 
ATOM     11  C   UNL A   1      35.377  24.536  25.641  1.00  0.00     0.022 C 
ATOM     12  C   UNL A   1      34.337  23.655  23.630  1.00  0.00     0.141 C 
ATOM     13  C   UNL A   1      36.519  23.650  25.145  1.00  0.00     0.137 C 
ATOM     14  S   UNL A   1      35.816  22.673  23.829  1.00  0.00     0.150 S 
ATOM     15  O   UNL A   1      36.631  22.841  22.642  1.00  0.00    -0.229 OA
ATOM     16  O   UNL A   1      35.457  21.384  24.367  1.00  0.00    -0.229 OA
ENDBRANCH   6  10
ENDBRANCH   4   6
ENDBRANCH   3   4
ENDBRANCH   2   3
ENDBRANCH   1   2
BRANCH   1  17
ATOM     17  O   UNL A   1      32.368  29.976  26.791  1.00  0.00    -0.458 OA
BRANCH  17  18
ATOM     18  C   UNL A   1      32.930  31.167  27.099  1.00  0.00     0.338 C 
ATOM     19  O   UNL A   1      32.367  32.239  27.251  1.00  0.00    -0.246 OA
BRANCH  18  20
ATOM     20  C   UNL A   1      34.353  30.965  27.412  1.00  0.00     0.060 A 
ATOM     21  C   UNL A   1      34.775  29.662  27.611  1.00  0.00     0.016 A 
ATOM     22  C   UNL A   1      35.195  32.026  27.741  1.00  0.00     0.016 A 
ATOM     23  C   UNL A   1      35.952  29.430  28.314  1.00  0.00     0.010 A 
ATOM     24  C   UNL A   1      36.457  31.765  28.308  1.00  0.00     0.010 A 
ATOM     25  C   UNL A   1      36.831  30.460  28.677  1.00  0.00    -0.014 A 
BRANCH  25  26
ATOM     26  C   UNL A   1      38.065  30.153  29.488  1.00  0.00     0.031 A 
ATOM     27  C   UNL A   1      39.208  29.348  28.899  1.00  0.00     0.074 A 
ATOM     28  C   UNL A   1      38.234  30.656  30.734  1.00  0.00     0.049 A 
ATOM     29  N   UNL A   1      40.235  28.801  29.505  1.00  0.00    -0.248 NA
ATOM     30  C   UNL A   1      39.193  29.114  27.447  1.00  0.00     0.031 C 
ATOM     31  C   UNL A   1      37.287  31.517  31.442  1.00  0.00     0.029 A 
ATOM     32  N   UNL A   1      39.285  30.547  31.618  1.00  0.00    -0.354 N 
ATOM     33  C   UNL A   1      40.919  28.076  28.534  1.00  0.00     0.074 A 
ATOM     34  C   UNL A   1      40.211  28.278  27.289  1.00  0.00     0.031 C 
ATOM     35  C   UNL A   1      37.844  31.962  32.574  1.00  0.00     0.029 A 
ATOM     36  C   UNL A   1      39.092  31.249  32.788  1.00  0.00     0.049 A 
ATOM     37  H   UNL A   1      40.095  30.019  31.433  1.00  0.00     0.167 HD
ATOM     38  C   UNL A   1      42.026  27.303  28.671  1.00  0.00     0.034 A 
ATOM     39  C   UNL A   1      39.771  31.260  33.952  1.00  0.00     0.034 A 
ATOM     40  C   UNL A   1      42.784  27.183  29.891  1.00  0.00     0.049 A 
ATOM     41  C   UNL A   1      40.963  30.364  34.100  1.00  0.00     0.074 A 
ATOM     42  C   UNL A   1      43.905  26.407  30.135  1.00  0.00     0.029 A 
ATOM     43  N   UNL A   1      42.517  27.873  31.064  1.00  0.00    -0.354 N 
ATOM     44  N   UNL A   1      41.541  29.605  33.204  1.00  0.00    -0.248 NA
ATOM     45  C   UNL A   1      41.582  30.303  35.432  1.00  0.00     0.031 C 
ATOM     46  C   UNL A   1      44.292  26.599  31.466  1.00  0.00     0.029 A 
ATOM     47  C   UNL A   1      43.442  27.531  32.037  1.00  0.00     0.049 A 
ATOM     48  H   UNL A   1      41.778  28.512  31.186  1.00  0.00     0.167 HD
ATOM     49  C   UNL A   1      42.597  28.983  33.855  1.00  0.00     0.074 A 
ATOM     50  C   UNL A   1      42.601  29.482  35.215  1.00  0.00     0.031 C 
ATOM     51  C   UNL A   1      43.468  28.063  33.375  1.00  0.00     0.034 A 
BRANCH  38  52
ATOM     52  C   UNL A   1      42.464  26.481  27.483  1.00  0.00     0.023 A 
ATOM     53  C   UNL A   1      43.305  27.026  26.494  1.00  0.00     0.012 A 
ATOM     54  C   UNL A   1      42.069  25.130  27.381  1.00  0.00     0.148 A 
ATOM     55  C   UNL A   1      43.710  26.254  25.403  1.00  0.00     0.002 A 
ATOM     56  C   UNL A   1      42.514  24.354  26.318  1.00  0.00     0.091 A 
ATOM     57  F   UNL A   1      41.258  24.630  28.325  1.00  0.00    -0.205 F 
ATOM     58  C   UNL A   1      43.323  24.917  25.320  1.00  0.00     0.022 A 
BRANCH  56  59
ATOM     59  S   UNL A   1      42.133  22.604  26.169  1.00  0.00     0.127 S 
ATOM     60  O   UNL A   1      42.771  22.270  24.897  1.00  0.00    -0.237 OA
ATOM     61  O   UNL A   1      42.794  22.042  27.348  1.00  0.00    -0.237 OA
ATOM     62  O   UNL A   1      40.680  22.503  26.182  1.00  0.00    -0.744 OA
ENDBRANCH  56  59
ENDBRANCH  38  52
BRANCH  39  63
ATOM     63  C   UNL A   1      39.273  32.078  35.101  1.00  0.00     0.023 A 
ATOM     64  C   UNL A   1      38.361  31.523  36.019  1.00  0.00     0.012 A 
ATOM     65  C   UNL A   1      39.727  33.398  35.302  1.00  0.00     0.148 A 
ATOM     66  C   UNL A   1      37.902  32.273  37.104  1.00  0.00     0.002 A 
ATOM     67  C   UNL A   1      39.334  34.105  36.429  1.00  0.00     0.091 A 
ATOM     68  F   UNL A   1      40.560  33.931  34.397  1.00  0.00    -0.205 F 
ATOM     69  C   UNL A   1      38.404  33.555  37.321  1.00  0.00     0.022 A 
BRANCH  67  70
ATOM     70  S   UNL A   1      40.068  35.686  36.868  1.00  0.00     0.127 S 
ATOM     71  O   UNL A   1      39.641  36.533  35.759  1.00  0.00    -0.237 OA
ATOM     72  O   UNL A   1      39.423  35.975  38.150  1.00  0.00    -0.237 OA
ATOM     73  O   UNL A   1      41.502  35.442  36.964  1.00  0.00    -0.744 OA
ENDBRANCH  67  70
ENDBRANCH  39  63
BRANCH  51  74
ATOM     74  C   UNL A   1      44.533  27.565  34.314  1.00  0.00     0.023 A 
ATOM     75  C   UNL A   1      45.759  28.251  34.422  1.00  0.00     0.012 A 
ATOM     76  C   UNL A   1      44.296  26.441  35.129  1.00  0.00     0.148 A 
ATOM     77  C   UNL A   1      46.746  27.805  35.299  1.00  0.00     0.002 A 
ATOM     78  C   UNL A   1      45.261  26.033  36.039  1.00  0.00     0.091 A 
ATOM     79  F   UNL A   1      43.131  25.790  34.996  1.00  0.00    -0.205 F 
ATOM     80  C   UNL A   1      46.493  26.705  36.115  1.00  0.00     0.022 A 
BRANCH  78  81
ATOM     81  S   UNL A   1      44.991  24.687  37.197  1.00  0.00     0.127 S 
ATOM     82  O   UNL A   1      43.759  25.110  37.862  1.00  0.00    -0.237 OA
ATOM     83  O   UNL A   1      44.840  23.538  36.304  1.00  0.00    -0.237 OA
ATOM     84  O   UNL A   1      46.173  24.643  38.047  1.00  0.00    -0.744 OA
ENDBRANCH  78  81
ENDBRANCH  51  74
ENDBRANCH  25  26
ENDBRANCH  18  20
ENDBRANCH  17  18
ENDBRANCH   1  17
TORSDOF 17
ENDMDL
MODEL 2
REMARK VINA RESULT:     -10.7      1.445      2.075
REMARK SMILES C#CC[C@@H](C(=O)OCCOC(=O)c1ccc(-c2c3nc(c(-c4cccc(S(=O)(=O)[O-])c4F)c4ccc([nH]4)c(-c4cccc(S(=O)(=O)[O-])c4F)c4nc(c(-c5cccc(S(=O)(=O)[O-])c5F)c5ccc2[nH]5)C=C4)C=C3)cc1)[C@H]1CCS(=O)(=O)C1
REMARK SMILES IDX 9 1 8 2 7 3 5 4 6 5 4 6 3 7 2 8 1 9 76 10 77 11 82 12 78 13
REMARK SMILES IDX 79 14 80 15 81 16 10 17 11 18 12 19 13 20 14 21 75 22 15 23
REMARK SMILES IDX 74 24 16 25 17 26 18 27 68 28 19 29 73 30 67 31 69 32 20 33
REMARK SMILES IDX 72 34 66 35 65 36 21 38 53 39 33 40 52 41 34 42 37 43 51 44
REMARK SMILES IDX 70 45 35 46 36 47 50 49 71 50 38 51 22 52 23 53 31 54 24 55
REMARK SMILES IDX 26 56 32 57 25 58 27 59 28 60 29 61 30 62 54 63 55 64 63 65
REMARK SMILES IDX 56 66 58 67 64 68 57 69 59 70 60 71 61 72 62 73 39 74 40 75
REMARK SMILES IDX 48 76 41 77 43 78 49 79 42 80 44 81 45 82 46 83 47 84
REMARK H PARENT 69 37 37 48
REMARK Flexibility Score: inf
ROOT
ATOM      1  C   UNL A   1      31.766  29.787  25.477  1.00  0.00     0.275 C 
ENDROOT
BRANCH   1   2
ATOM      2  C   UNL A   1      32.681  28.937  24.597  1.00  0.00     0.274 C 
BRANCH   2   3
ATOM      3  O   UNL A   1      32.161  27.595  24.517  1.00  0.00    -0.462 OA
BRANCH   3   4
ATOM      4  C   UNL A   1      31.833  27.045  23.320  1.00  0.00     0.310 C 
ATOM      5  O   UNL A   1      32.422  27.276  22.273  1.00  0.00    -0.252 OA
BRANCH   4   6
ATOM      6  C   UNL A   1      30.555  26.186  23.412  1.00  0.00     0.115 C 
BRANCH   6   7
ATOM      7  C   UNL A   1      29.344  27.008  23.899  1.00  0.00     0.105 C 
BRANCH   7   8
ATOM      8  C   UNL A   1      29.324  28.298  23.094  1.00  0.00    -0.106 C 
ATOM      9  C   UNL A   1      29.306  29.405  22.405  1.00  0.00     0.004 C 
ENDBRANCH   7   8
ENDBRANCH   6   7
BRANCH   6  10
ATOM     10  C   UNL A   1      30.657  24.899  24.255  1.00  0.00     0.020 C 
ATOM     11  C   UNL A   1      32.033  24.212  24.228  1.00  0.00     0.022 C 
ATOM     12  C   UNL A   1      30.325  25.059  25.734  1.00  0.00     0.141 C 
ATOM     13  C   UNL A   1      31.891  22.996  25.143  1.00  0.00     0.137 C 
ATOM     14  S   UNL A   1      30.893  23.554  26.511  1.00  0.00     0.150 S 
ATOM     15  O   UNL A   1      29.758  22.663  26.649  1.00  0.00    -0.229 OA
ATOM     16  O   UNL A   1      31.772  23.891  27.603  1.00  0.00    -0.229 OA
ENDBRANCH   6  10
ENDBRANCH   4   6
ENDBRANCH   3   4
ENDBRANCH   2   3
ENDBRANCH   1   2
BRANCH   1  17
ATOM     17  O   UNL A   1      32.341  29.882  26.791  1.00  0.00    -0.458 OA
BRANCH  17  18
ATOM     18  C   UNL A   1      32.903  31.071  27.106  1.00  0.00     0.338 C 
ATOM     19  O   UNL A   1      32.341  32.143  27.258  1.00  0.00    -0.246 OA
BRANCH  18  20
ATOM     20  C   UNL A   1      34.323  30.865  27.427  1.00  0.00     0.060 A 
ATOM     21  C   UNL A   1      34.739  29.561  27.637  1.00  0.00     0.016 A 
ATOM     22  C   UNL A   1      35.168  31.925  27.752  1.00  0.00     0.016 A 
ATOM     23  C   UNL A   1      35.912  29.330  28.347  1.00  0.00     0.010 A 
ATOM     24  C   UNL A   1      36.427  31.663  28.326  1.00  0.00     0.010 A 
ATOM     25  C   UNL A   1      36.794  30.359  28.707  1.00  0.00    -0.014 A 
BRANCH  25  26
ATOM     26  C   UNL A   1      38.023  30.053  29.525  1.00  0.00     0.031 A 
ATOM     27  C   UNL A   1      39.173  29.256  28.941  1.00  0.00     0.074 A 
ATOM     28  C   UNL A   1      38.181  30.550  30.775  1.00  0.00     0.049 A 
ATOM     29  N   UNL A   1      40.198  28.710  29.552  1.00  0.00    -0.248 NA
ATOM     30  C   UNL A   1      39.171  29.029  27.487  1.00  0.00     0.031 C 
ATOM     31  C   UNL A   1      37.224  31.403  31.480  1.00  0.00     0.029 A 
ATOM     32  N   UNL A   1      39.225  30.441  31.667  1.00  0.00    -0.354 N 
ATOM     33  C   UNL A   1      40.892  27.993  28.582  1.00  0.00     0.074 A 
ATOM     34  C   UNL A   1      40.194  28.198  27.333  1.00  0.00     0.031 C 
ATOM     35  C   UNL A   1      37.770  31.844  32.619  1.00  0.00     0.029 A 
ATOM     36  C   UNL A   1      39.020  31.136  32.839  1.00  0.00     0.049 A 
ATOM     37  H   UNL A   1      40.039  29.917  31.485  1.00  0.00     0.167 HD
ATOM     38  C   UNL A   1      42.002  27.224  28.724  1.00  0.00     0.034 A 
ATOM     39  C   UNL A   1      39.690  31.144  34.008  1.00  0.00     0.034 A 
ATOM     40  C   UNL A   1      42.752  27.101  29.948  1.00  0.00     0.049 A 
ATOM     41  C   UNL A   1      40.885  30.251  34.160  1.00  0.00     0.074 A 
ATOM     42  C   UNL A   1      43.874  26.328  30.197  1.00  0.00     0.029 A 
ATOM     43  N   UNL A   1      42.473  27.783  31.123  1.00  0.00    -0.354 N 
ATOM     44  N   UNL A   1      41.472  29.500  33.264  1.00  0.00    -0.248 NA
ATOM     45  C   UNL A   1      41.494  30.186  35.496  1.00  0.00     0.031 C 
ATOM     46  C   UNL A   1      44.249  26.515  31.532  1.00  0.00     0.029 A 
ATOM     47  C   UNL A   1      43.391  27.440  32.101  1.00  0.00     0.049 A 
ATOM     48  H   UNL A   1      41.730  28.419  31.243  1.00  0.00     0.167 HD
ATOM     49  C   UNL A   1      42.527  28.879  33.920  1.00  0.00     0.074 A 
ATOM     50  C   UNL A   1      42.518  29.371  35.283  1.00  0.00     0.031 C 
ATOM     51  C   UNL A   1      43.405  27.965  33.442  1.00  0.00     0.034 A 
BRANCH  38  52
ATOM     52  C   UNL A   1      42.453  26.410  27.535  1.00  0.00     0.023 A 
ATOM     53  C   UNL A   1      43.288  26.968  26.548  1.00  0.00     0.012 A 
ATOM     54  C   UNL A   1      42.075  25.055  27.429  1.00  0.00     0.148 A 
ATOM     55  C   UNL A   1      43.705  26.204  25.456  1.00  0.00     0.002 A 
ATOM     56  C   UNL A   1      42.532  24.287  26.365  1.00  0.00     0.091 A 
ATOM     57  F   UNL A   1      41.269  24.542  28.371  1.00  0.00    -0.205 F 
ATOM     58  C   UNL A   1      43.335  24.862  25.369  1.00  0.00     0.022 A 
BRANCH  56  59
ATOM     59  S   UNL A   1      42.173  22.532  26.212  1.00  0.00     0.127 S 
ATOM     60  O   UNL A   1      42.721  22.008  27.462  1.00  0.00    -0.237 OA
ATOM     61  O   UNL A   1      40.712  22.521  26.136  1.00  0.00    -0.237 OA
ATOM     62  O   UNL A   1      42.848  22.086  25.000  1.00  0.00    -0.744 OA
ENDBRANCH  56  59
ENDBRANCH  38  52
BRANCH  39  63
ATOM     63  C   UNL A   1      39.180  31.953  35.157  1.00  0.00     0.023 A 
ATOM     64  C   UNL A   1      38.257  31.392  36.060  1.00  0.00     0.012 A 
ATOM     65  C   UNL A   1      39.633  33.271  35.374  1.00  0.00     0.148 A 
ATOM     66  C   UNL A   1      37.787  32.134  37.146  1.00  0.00     0.002 A 
ATOM     67  C   UNL A   1      39.228  33.970  36.502  1.00  0.00     0.091 A 
ATOM     68  F   UNL A   1      40.476  33.810  34.482  1.00  0.00    -0.205 F 
ATOM     69  C   UNL A   1      38.287  33.414  37.379  1.00  0.00     0.022 A 
BRANCH  67  70
ATOM     70  S   UNL A   1      39.958  35.546  36.961  1.00  0.00     0.127 S 
ATOM     71  O   UNL A   1      39.283  35.833  38.223  1.00  0.00    -0.237 OA
ATOM     72  O   UNL A   1      41.375  35.201  37.083  1.00  0.00    -0.237 OA
ATOM     73  O   UNL A   1      39.658  36.455  35.861  1.00  0.00    -0.744 OA
ENDBRANCH  67  70
ENDBRANCH  39  63
BRANCH  51  74
ATOM     74  C   UNL A   1      44.464  27.466  34.387  1.00  0.00     0.023 A 
ATOM     75  C   UNL A   1      45.653  28.202  34.569  1.00  0.00     0.012 A 
ATOM     76  C   UNL A   1      44.258  26.290  35.133  1.00  0.00     0.148 A 
ATOM     77  C   UNL A   1      46.634  27.755  35.453  1.00  0.00     0.002 A 
ATOM     78  C   UNL A   1      45.215  25.879  36.050  1.00  0.00     0.091 A 
ATOM     79  F   UNL A   1      43.131  25.594  34.929  1.00  0.00    -0.205 F 
ATOM     80  C   UNL A   1      46.411  26.601  36.201  1.00  0.00     0.022 A 
BRANCH  78  81
ATOM     81  S   UNL A   1      44.976  24.461  37.126  1.00  0.00     0.127 S 
ATOM     82  O   UNL A   1      43.789  24.857  37.882  1.00  0.00    -0.237 OA
ATOM     83  O   UNL A   1      44.756  23.379  36.166  1.00  0.00    -0.237 OA
ATOM     84  O   UNL A   1      46.199  24.337  37.908  1.00  0.00    -0.744 OA
ENDBRANCH  78  81
ENDBRANCH  51  74
ENDBRANCH  25  26
ENDBRANCH  18  20
ENDBRANCH  17  18
ENDBRANCH   1  17
TORSDOF 17
ENDMDL
MODEL 3
REMARK VINA RESULT:     -10.6      2.207      3.213
REMARK SMILES C#CC[C@@H](C(=O)OCCOC(=O)c1ccc(-c2c3nc(c(-c4cccc(S(=O)(=O)[O-])c4F)c4ccc([nH]4)c(-c4cccc(S(=O)(=O)[O-])c4F)c4nc(c(-c5cccc(S(=O)(=O)[O-])c5F)c5ccc2[nH]5)C=C4)C=C3)cc1)[C@H]1CCS(=O)(=O)C1
REMARK SMILES IDX 9 1 8 2 7 3 5 4 6 5 4 6 3 7 2 8 1 9 76 10 77 11 82 12 78 13
REMARK SMILES IDX 79 14 80 15 81 16 10 17 11 18 12 19 13 20 14 21 75 22 15 23
REMARK SMILES IDX 74 24 16 25 17 26 18 27 68 28 19 29 73 30 67 31 69 32 20 33
REMARK SMILES IDX 72 34 66 35 65 36 21 38 53 39 33 40 52 41 34 42 37 43 51 44
REMARK SMILES IDX 70 45 35 46 36 47 50 49 71 50 38 51 22 52 23 53 31 54 24 55
REMARK SMILES IDX 26 56 32 57 25 58 27 59 28 60 29 61 30 62 54 63 55 64 63 65
REMARK SMILES IDX 56 66 58 67 64 68 57 69 59 70 60 71 61 72 62 73 39 74 40 75
REMARK SMILES IDX 48 76 41 77 43 78 49 79 42 80 44 81 45 82 46 83 47 84
REMARK H PARENT 69 37 37 48
REMARK Flexibility Score: inf
ROOT
ATOM      1  C   UNL A   1      32.296  30.048  25.830  1.00  0.00     0.275 C 
ENDROOT
BRANCH   1   2
ATOM      2  C   UNL A   1      33.070  28.992  25.044  1.00  0.00     0.274 C 
BRANCH   2   3
ATOM      3  O   UNL A   1      32.997  29.289  23.635  1.00  0.00    -0.462 OA
BRANCH   3   4
ATOM      4  C   UNL A   1      33.043  28.297  22.710  1.00  0.00     0.310 C 
ATOM      5  O   UNL A   1      33.907  28.196  21.851  1.00  0.00    -0.252 OA
BRANCH   4   6
ATOM      6  C   UNL A   1      31.808  27.375  22.795  1.00  0.00     0.115 C 
BRANCH   6   7
ATOM      7  C   UNL A   1      31.980  26.104  21.940  1.00  0.00     0.105 C 
BRANCH   7   8
ATOM      8  C   UNL A   1      31.381  24.949  22.725  1.00  0.00    -0.106 C 
ATOM      9  C   UNL A   1      30.866  23.957  23.397  1.00  0.00     0.004 C 
ENDBRANCH   7   8
ENDBRANCH   6   7
BRANCH   6  10
ATOM     10  C   UNL A   1      30.449  28.023  22.463  1.00  0.00     0.020 C 
ATOM     11  C   UNL A   1      29.355  27.820  23.525  1.00  0.00     0.022 C 
ATOM     12  C   UNL A   1      30.486  29.527  22.217  1.00  0.00     0.141 C 
ATOM     13  C   UNL A   1      28.133  28.564  22.988  1.00  0.00     0.137 C 
ATOM     14  S   UNL A   1      28.779  30.052  22.248  1.00  0.00     0.150 S 
ATOM     15  O   UNL A   1      28.307  30.132  20.880  1.00  0.00    -0.229 OA
ATOM     16  O   UNL A   1      28.635  31.127  23.199  1.00  0.00    -0.229 OA
ENDBRANCH   6  10
ENDBRANCH   4   6
ENDBRANCH   3   4
ENDBRANCH   2   3
ENDBRANCH   1   2
BRANCH   1  17
ATOM     17  O   UNL A   1      32.867  30.163  27.143  1.00  0.00    -0.458 OA
BRANCH  17  18
ATOM     18  C   UNL A   1      33.520  31.318  27.405  1.00  0.00     0.338 C 
ATOM     19  O   UNL A   1      33.036  32.426  27.563  1.00  0.00    -0.246 OA
BRANCH  18  20
ATOM     20  C   UNL A   1      34.939  31.025  27.660  1.00  0.00     0.060 A 
ATOM     21  C   UNL A   1      35.281  29.700  27.868  1.00  0.00     0.016 A 
ATOM     22  C   UNL A   1      35.864  32.032  27.928  1.00  0.00     0.016 A 
ATOM     23  C   UNL A   1      36.470  29.402  28.523  1.00  0.00     0.010 A 
ATOM     24  C   UNL A   1      37.130  31.696  28.443  1.00  0.00     0.010 A 
ATOM     25  C   UNL A   1      37.432  30.376  28.825  1.00  0.00    -0.014 A 
BRANCH  25  26
ATOM     26  C   UNL A   1      38.678  30.001  29.586  1.00  0.00     0.031 A 
ATOM     27  C   UNL A   1      39.723  29.086  28.977  1.00  0.00     0.074 A 
ATOM     28  C   UNL A   1      38.950  30.534  30.801  1.00  0.00     0.049 A 
ATOM     29  N   UNL A   1      40.734  28.482  29.554  1.00  0.00    -0.248 NA
ATOM     30  C   UNL A   1      39.615  28.801  27.537  1.00  0.00     0.031 C 
ATOM     31  C   UNL A   1      38.111  31.493  31.519  1.00  0.00     0.029 A 
ATOM     32  N   UNL A   1      40.033  30.374  31.638  1.00  0.00    -0.354 N 
ATOM     33  C   UNL A   1      41.308  27.668  28.581  1.00  0.00     0.074 A 
ATOM     34  C   UNL A   1      40.556  27.881  27.364  1.00  0.00     0.031 C 
ATOM     35  C   UNL A   1      38.758  31.933  32.604  1.00  0.00     0.029 A 
ATOM     36  C   UNL A   1      39.957  31.131  32.786  1.00  0.00     0.049 A 
ATOM     37  H   UNL A   1      40.790  29.776  31.435  1.00  0.00     0.167 HD
ATOM     38  C   UNL A   1      42.357  26.815  28.695  1.00  0.00     0.034 A 
ATOM     39  C   UNL A   1      40.693  31.131  33.915  1.00  0.00     0.034 A 
ATOM     40  C   UNL A   1      43.166  26.680  29.881  1.00  0.00     0.049 A 
ATOM     41  C   UNL A   1      41.817  30.147  34.041  1.00  0.00     0.074 A 
ATOM     42  C   UNL A   1      44.233  25.825  30.102  1.00  0.00     0.029 A 
ATOM     43  N   UNL A   1      43.014  27.431  31.036  1.00  0.00    -0.354 N 
ATOM     44  N   UNL A   1      42.287  29.312  33.149  1.00  0.00    -0.248 NA
ATOM     45  C   UNL A   1      42.497  30.086  35.342  1.00  0.00     0.031 C 
ATOM     46  C   UNL A   1      44.702  26.035  31.403  1.00  0.00     0.029 A 
ATOM     47  C   UNL A   1      43.958  27.052  31.976  1.00  0.00     0.049 A 
ATOM     48  H   UNL A   1      42.334  28.131  31.169  1.00  0.00     0.167 HD
ATOM     49  C   UNL A   1      43.324  28.633  33.773  1.00  0.00     0.074 A 
ATOM     50  C   UNL A   1      43.437  29.179  35.110  1.00  0.00     0.031 C 
ATOM     51  C   UNL A   1      44.095  27.629  33.289  1.00  0.00     0.034 A 
BRANCH  38  52
ATOM     52  C   UNL A   1      42.669  25.917  27.522  1.00  0.00     0.023 A 
ATOM     53  C   UNL A   1      43.515  26.349  26.483  1.00  0.00     0.012 A 
ATOM     54  C   UNL A   1      42.145  24.608  27.483  1.00  0.00     0.148 A 
ATOM     55  C   UNL A   1      43.802  25.508  25.405  1.00  0.00     0.002 A 
ATOM     56  C   UNL A   1      42.472  23.759  26.433  1.00  0.00     0.091 A 
ATOM     57  F   UNL A   1      41.331  24.217  28.474  1.00  0.00    -0.205 F 
ATOM     58  C   UNL A   1      43.289  24.211  25.385  1.00  0.00     0.022 A 
BRANCH  56  59
ATOM     59  S   UNL A   1      41.924  22.049  26.360  1.00  0.00     0.127 S 
ATOM     60  O   UNL A   1      42.676  21.547  25.212  1.00  0.00    -0.237 OA
ATOM     61  O   UNL A   1      42.369  21.528  27.653  1.00  0.00    -0.237 OA
ATOM     62  O   UNL A   1      40.479  22.094  26.188  1.00  0.00    -0.744 OA
ENDBRANCH  56  59
ENDBRANCH  38  52
BRANCH  39  63
ATOM     63  C   UNL A   1      40.320  32.026  35.052  1.00  0.00     0.023 A 
ATOM     64  C   UNL A   1      40.934  33.286  35.189  1.00  0.00     0.012 A 
ATOM     65  C   UNL A   1      39.333  31.642  35.984  1.00  0.00     0.148 A 
ATOM     66  C   UNL A   1      40.580  34.136  36.239  1.00  0.00     0.002 A 
ATOM     67  C   UNL A   1      38.925  32.527  36.972  1.00  0.00     0.091 A 
ATOM     68  F   UNL A   1      38.788  30.423  35.870  1.00  0.00    -0.205 F 
ATOM     69  C   UNL A   1      39.562  33.767  37.117  1.00  0.00     0.022 A 
BRANCH  67  70
ATOM     70  S   UNL A   1      37.509  32.195  38.025  1.00  0.00     0.127 S 
ATOM     71  O   UNL A   1      36.459  32.969  37.369  1.00  0.00    -0.237 OA
ATOM     72  O   UNL A   1      37.373  30.743  37.904  1.00  0.00    -0.237 OA
ATOM     73  O   UNL A   1      37.892  32.649  39.356  1.00  0.00    -0.744 OA
ENDBRANCH  67  70
ENDBRANCH  39  63
BRANCH  51  74
ATOM     74  C   UNL A   1      45.164  27.082  34.195  1.00  0.00     0.023 A 
ATOM     75  C   UNL A   1      46.456  27.643  34.184  1.00  0.00     0.012 A 
ATOM     76  C   UNL A   1      44.871  26.040  35.097  1.00  0.00     0.148 A 
ATOM     77  C   UNL A   1      47.450  27.152  35.030  1.00  0.00     0.002 A 
ATOM     78  C   UNL A   1      45.849  25.591  35.973  1.00  0.00     0.091 A 
ATOM     79  F   UNL A   1      43.641  25.505  35.076  1.00  0.00    -0.205 F 
ATOM     80  C   UNL A   1      47.143  26.135  35.931  1.00  0.00     0.022 A 
BRANCH  78  81
ATOM     81  S   UNL A   1      45.523  24.353  37.232  1.00  0.00     0.127 S 
ATOM     82  O   UNL A   1      44.278  24.846  37.820  1.00  0.00    -0.237 OA
ATOM     83  O   UNL A   1      45.382  23.133  36.437  1.00  0.00    -0.237 OA
ATOM     84  O   UNL A   1      46.678  24.367  38.120  1.00  0.00    -0.744 OA
ENDBRANCH  78  81
ENDBRANCH  51  74
ENDBRANCH  25  26
ENDBRANCH  18  20
ENDBRANCH  17  18
ENDBRANCH   1  17
TORSDOF 17
ENDMDL
