MODEL 1
REMARK VINA RESULT:     -12.7      0.000      0.000
REMARK SMILES O=C(COc1ccccc1/C=C1\C(=O)Nc2ccccc21)OCCOC(=O)c1ccc(-c2c3nc(c(-c4cccc(S(=O)(=O)[O-])c4F)c4ccc([nH]4)c(-c4cccc(S(=O)(=O)[O-])c4F)c4nc(c(-c5cccc(S(=O)(=O)[O-])c5F)c5ccc2[nH]5)C=C4)C=C3)cc1
REMARK SMILES IDX 23 1 22 2 2 3 1 4 3 5 4 6 5 7 6 8 10 9 7 10 9 11 8 12 11 13
REMARK SMILES IDX 12 14 13 15 21 16 14 17 15 18 16 19 20 20 17 22 19 23 18 24
REMARK SMILES IDX 24 25 25 26 26 27 27 28 28 29 29 30 90 31 30 32 89 33 31 34
REMARK SMILES IDX 32 35 33 36 83 37 34 38 88 39 82 40 84 41 35 42 87 43 81 44
REMARK SMILES IDX 80 45 36 47 68 48 48 49 67 50 49 51 52 52 66 53 85 54 50 55
REMARK SMILES IDX 51 56 65 58 86 59 53 60 37 61 38 62 46 63 39 64 41 65 47 66
REMARK SMILES IDX 40 67 42 68 43 69 44 70 45 71 69 72 70 73 78 74 71 75 73 76
REMARK SMILES IDX 79 77 72 78 74 79 75 80 76 81 77 82 54 83 55 84 63 85 56 86
REMARK SMILES IDX 58 87 64 88 57 89 59 90 60 91 61 92 62 93
REMARK H PARENT 15 21 84 46 52 57
REMARK Flexibility Score: inf
ROOT
ATOM      1  C   UNL A   1      36.172  20.766  24.928  1.00  0.00     0.274 C 
ENDROOT
BRANCH   1   2
ATOM      2  O   UNL A   1      36.264  22.209  24.901  1.00  0.00    -0.460 OA
BRANCH   2   3
ATOM      3  C   UNL A   1      36.019  22.963  23.798  1.00  0.00     0.344 C 
ATOM      4  O   UNL A   1      36.668  22.777  22.770  1.00  0.00    -0.248 OA
BRANCH   3   5
ATOM      5  C   UNL A   1      34.886  23.972  23.846  1.00  0.00     0.352 C 
BRANCH   5   6
ATOM      6  O   UNL A   1      34.213  23.917  22.593  1.00  0.00    -0.481 OA
BRANCH   6   7
ATOM      7  C   UNL A   1      32.876  24.206  22.684  1.00  0.00     0.127 A 
ATOM      8  C   UNL A   1      32.512  25.543  22.491  1.00  0.00     0.047 A 
ATOM      9  C   UNL A   1      31.953  23.236  23.133  1.00  0.00     0.017 A 
ATOM     10  C   UNL A   1      31.216  25.951  22.784  1.00  0.00     0.004 A 
ATOM     11  C   UNL A   1      30.697  23.705  23.525  1.00  0.00     0.012 A 
ATOM     12  C   UNL A   1      30.322  25.040  23.333  1.00  0.00     0.001 A 
BRANCH   9  13
ATOM     13  C   UNL A   1      32.338  21.803  23.173  1.00  0.00     0.026 C 
ATOM     14  C   UNL A   1      32.564  20.970  24.207  1.00  0.00     0.050 C 
ATOM     15  C   UNL A   1      32.670  21.240  25.694  1.00  0.00     0.256 C 
ATOM     16  C   UNL A   1      32.716  19.504  24.054  1.00  0.00     0.011 A 
ATOM     17  O   UNL A   1      32.574  22.281  26.311  1.00  0.00    -0.269 OA
ATOM     18  N   UNL A   1      32.949  20.012  26.272  1.00  0.00    -0.321 N 
ATOM     19  C   UNL A   1      32.953  18.994  25.333  1.00  0.00     0.049 A 
ATOM     20  C   UNL A   1      32.571  18.630  22.989  1.00  0.00     0.011 A 
ATOM     21  H   UNL A   1      33.122  19.880  27.232  1.00  0.00     0.170 HD
ATOM     22  C   UNL A   1      33.100  17.645  25.595  1.00  0.00     0.027 A 
ATOM     23  C   UNL A   1      32.690  17.254  23.232  1.00  0.00     0.001 A 
ATOM     24  C   UNL A   1      32.963  16.766  24.522  1.00  0.00     0.002 A 
ENDBRANCH   9  13
ENDBRANCH   6   7
ENDBRANCH   5   6
ENDBRANCH   3   5
ENDBRANCH   2   3
ENDBRANCH   1   2
BRANCH   1  25
ATOM     25  C   UNL A   1      37.570  20.156  25.003  1.00  0.00     0.275 C 
BRANCH  25  26
ATOM     26  O   UNL A   1      38.528  21.211  25.199  1.00  0.00    -0.458 OA
BRANCH  26  27
ATOM     27  C   UNL A   1      39.484  20.969  26.130  1.00  0.00     0.338 C 
ATOM     28  O   UNL A   1      40.024  19.903  26.365  1.00  0.00    -0.246 OA
BRANCH  27  29
ATOM     29  C   UNL A   1      39.918  22.264  26.695  1.00  0.00     0.060 A 
ATOM     30  C   UNL A   1      39.317  23.432  26.214  1.00  0.00     0.016 A 
ATOM     31  C   UNL A   1      40.900  22.329  27.690  1.00  0.00     0.016 A 
ATOM     32  C   UNL A   1      39.720  24.673  26.703  1.00  0.00     0.010 A 
ATOM     33  C   UNL A   1      41.309  23.574  28.172  1.00  0.00     0.010 A 
ATOM     34  C   UNL A   1      40.742  24.751  27.659  1.00  0.00    -0.014 A 
BRANCH  34  35
ATOM     35  C   UNL A   1      41.325  26.070  27.997  1.00  0.00     0.031 A 
ATOM     36  C   UNL A   1      42.744  26.356  27.592  1.00  0.00     0.074 A 
ATOM     37  C   UNL A   1      40.608  26.999  28.653  1.00  0.00     0.049 A 
ATOM     38  N   UNL A   1      43.434  27.459  27.722  1.00  0.00    -0.248 NA
ATOM     39  C   UNL A   1      43.484  25.252  26.958  1.00  0.00     0.031 C 
ATOM     40  C   UNL A   1      39.237  26.829  29.132  1.00  0.00     0.029 A 
ATOM     41  N   UNL A   1      40.949  28.268  29.047  1.00  0.00    -0.354 N 
ATOM     42  C   UNL A   1      44.683  27.188  27.178  1.00  0.00     0.074 A 
ATOM     43  C   UNL A   1      44.670  25.806  26.751  1.00  0.00     0.031 C 
ATOM     44  C   UNL A   1      38.864  27.945  29.784  1.00  0.00     0.029 A 
ATOM     45  C   UNL A   1      39.965  28.906  29.762  1.00  0.00     0.049 A 
ATOM     46  H   UNL A   1      41.817  28.682  28.836  1.00  0.00     0.167 HD
ATOM     47  C   UNL A   1      45.735  28.023  27.016  1.00  0.00     0.034 A 
ATOM     48  C   UNL A   1      39.957  30.129  30.330  1.00  0.00     0.034 A 
ATOM     49  C   UNL A   1      45.754  29.395  27.443  1.00  0.00     0.049 A 
ATOM     50  C   UNL A   1      41.146  31.037  30.144  1.00  0.00     0.074 A 
ATOM     51  C   UNL A   1      46.767  30.326  27.300  1.00  0.00     0.029 A 
ATOM     52  N   UNL A   1      44.717  30.029  28.105  1.00  0.00    -0.354 N 
ATOM     53  N   UNL A   1      42.259  30.820  29.484  1.00  0.00    -0.248 NA
ATOM     54  C   UNL A   1      41.057  32.379  30.740  1.00  0.00     0.031 C 
ATOM     55  C   UNL A   1      46.343  31.525  27.887  1.00  0.00     0.029 A 
ATOM     56  C   UNL A   1      45.063  31.340  28.384  1.00  0.00     0.049 A 
ATOM     57  H   UNL A   1      43.858  29.609  28.343  1.00  0.00     0.167 HD
ATOM     58  C   UNL A   1      42.987  32.004  29.560  1.00  0.00     0.074 A 
ATOM     59  C   UNL A   1      42.175  32.944  30.305  1.00  0.00     0.031 C 
ATOM     60  C   UNL A   1      44.223  32.282  29.078  1.00  0.00     0.034 A 
BRANCH  47  61
ATOM     61  C   UNL A   1      46.935  27.482  26.288  1.00  0.00     0.023 A 
ATOM     62  C   UNL A   1      47.040  27.695  24.897  1.00  0.00     0.012 A 
ATOM     63  C   UNL A   1      47.966  26.808  26.966  1.00  0.00     0.148 A 
ATOM     64  C   UNL A   1      48.144  27.225  24.189  1.00  0.00     0.002 A 
ATOM     65  C   UNL A   1      49.080  26.371  26.258  1.00  0.00     0.091 A 
ATOM     66  F   UNL A   1      47.831  26.590  28.282  1.00  0.00    -0.205 F 
ATOM     67  C   UNL A   1      49.167  26.572  24.870  1.00  0.00     0.022 A 
BRANCH  65  68
ATOM     68  S   UNL A   1      50.478  25.573  27.053  1.00  0.00     0.127 S 
ATOM     69  O   UNL A   1      51.362  25.325  25.914  1.00  0.00    -0.237 OA
ATOM     70  O   UNL A   1      50.946  26.610  27.974  1.00  0.00    -0.237 OA
ATOM     71  O   UNL A   1      49.944  24.383  27.702  1.00  0.00    -0.744 OA
ENDBRANCH  65  68
ENDBRANCH  47  61
BRANCH  48  72
ATOM     72  C   UNL A   1      38.758  30.592  31.082  1.00  0.00     0.023 A 
ATOM     73  C   UNL A   1      38.688  30.388  32.474  1.00  0.00     0.012 A 
ATOM     74  C   UNL A   1      37.691  31.236  30.429  1.00  0.00     0.148 A 
ATOM     75  C   UNL A   1      37.561  30.787  33.195  1.00  0.00     0.002 A 
ATOM     76  C   UNL A   1      36.593  31.676  31.160  1.00  0.00     0.091 A 
ATOM     77  F   UNL A   1      37.764  31.400  29.099  1.00  0.00    -0.205 F 
ATOM     78  C   UNL A   1      36.519  31.438  32.541  1.00  0.00     0.022 A 
BRANCH  76  79
ATOM     79  S   UNL A   1      35.271  32.631  30.408  1.00  0.00     0.127 S 
ATOM     80  O   UNL A   1      34.335  32.776  31.519  1.00  0.00    -0.237 OA
ATOM     81  O   UNL A   1      35.960  33.861  30.018  1.00  0.00    -0.237 OA
ATOM     82  O   UNL A   1      34.810  31.828  29.283  1.00  0.00    -0.744 OA
ENDBRANCH  76  79
ENDBRANCH  48  72
BRANCH  60  83
ATOM     83  C   UNL A   1      44.777  33.662  29.327  1.00  0.00     0.023 A 
ATOM     84  C   UNL A   1      45.470  33.924  30.525  1.00  0.00     0.012 A 
ATOM     85  C   UNL A   1      44.669  34.677  28.356  1.00  0.00     0.148 A 
ATOM     86  C   UNL A   1      46.018  35.183  30.768  1.00  0.00     0.002 A 
ATOM     87  C   UNL A   1      45.254  35.916  28.587  1.00  0.00     0.091 A 
ATOM     88  F   UNL A   1      43.987  34.420  27.230  1.00  0.00    -0.205 F 
ATOM     89  C   UNL A   1      45.920  36.175  29.795  1.00  0.00     0.022 A 
BRANCH  87  90
ATOM     90  S   UNL A   1      45.248  37.215  27.344  1.00  0.00     0.127 S 
ATOM     91  O   UNL A   1      45.892  38.316  28.056  1.00  0.00    -0.237 OA
ATOM     92  O   UNL A   1      46.052  36.632  26.269  1.00  0.00    -0.237 OA
ATOM     93  O   UNL A   1      43.847  37.417  26.998  1.00  0.00    -0.744 OA
ENDBRANCH  87  90
ENDBRANCH  60  83
ENDBRANCH  34  35
ENDBRANCH  27  29
ENDBRANCH  26  27
ENDBRANCH  25  26
ENDBRANCH   1  25
TORSDOF 17
ENDMDL
MODEL 2
REMARK VINA RESULT:     -12.6      5.064     10.552
REMARK SMILES O=C(COc1ccccc1/C=C1\C(=O)Nc2ccccc21)OCCOC(=O)c1ccc(-c2c3nc(c(-c4cccc(S(=O)(=O)[O-])c4F)c4ccc([nH]4)c(-c4cccc(S(=O)(=O)[O-])c4F)c4nc(c(-c5cccc(S(=O)(=O)[O-])c5F)c5ccc2[nH]5)C=C4)C=C3)cc1
REMARK SMILES IDX 23 1 22 2 2 3 1 4 3 5 4 6 5 7 6 8 10 9 7 10 9 11 8 12 11 13
REMARK SMILES IDX 12 14 13 15 21 16 14 17 15 18 16 19 20 20 17 22 19 23 18 24
REMARK SMILES IDX 24 25 25 26 26 27 27 28 28 29 29 30 90 31 30 32 89 33 31 34
REMARK SMILES IDX 32 35 33 36 83 37 34 38 88 39 82 40 84 41 35 42 87 43 81 44
REMARK SMILES IDX 80 45 36 47 68 48 48 49 67 50 49 51 52 52 66 53 85 54 50 55
REMARK SMILES IDX 51 56 65 58 86 59 53 60 37 61 38 62 46 63 39 64 41 65 47 66
REMARK SMILES IDX 40 67 42 68 43 69 44 70 45 71 69 72 70 73 78 74 71 75 73 76
REMARK SMILES IDX 79 77 72 78 74 79 75 80 76 81 77 82 54 83 55 84 63 85 56 86
REMARK SMILES IDX 58 87 64 88 57 89 59 90 60 91 61 92 62 93
REMARK H PARENT 15 21 84 46 52 57
REMARK Flexibility Score: inf
ROOT
ATOM      1  C   UNL A   1      31.666  29.930  25.636  1.00  0.00     0.274 C 
ENDROOT
BRANCH   1   2
ATOM      2  O   UNL A   1      32.418  29.027  26.479  1.00  0.00    -0.460 OA
BRANCH   2   3
ATOM      3  C   UNL A   1      31.891  27.921  27.066  1.00  0.00     0.344 C 
ATOM      4  O   UNL A   1      31.096  28.040  27.996  1.00  0.00    -0.248 OA
BRANCH   3   5
ATOM      5  C   UNL A   1      32.245  26.560  26.498  1.00  0.00     0.352 C 
BRANCH   5   6
ATOM      6  O   UNL A   1      31.104  25.723  26.652  1.00  0.00    -0.481 OA
BRANCH   6   7
ATOM      7  C   UNL A   1      31.034  24.727  25.713  1.00  0.00     0.127 A 
ATOM      8  C   UNL A   1      31.588  23.492  26.070  1.00  0.00     0.047 A 
ATOM      9  C   UNL A   1      30.593  24.997  24.399  1.00  0.00     0.017 A 
ATOM     10  C   UNL A   1      31.755  22.508  25.103  1.00  0.00     0.004 A 
ATOM     11  C   UNL A   1      30.881  24.029  23.433  1.00  0.00     0.012 A 
ATOM     12  C   UNL A   1      31.433  22.790  23.781  1.00  0.00     0.001 A 
BRANCH   9  13
ATOM     13  C   UNL A   1      29.869  26.257  24.100  1.00  0.00     0.026 C 
ATOM     14  C   UNL A   1      30.210  27.326  23.354  1.00  0.00     0.050 C 
ATOM     15  C   UNL A   1      31.522  27.696  22.692  1.00  0.00     0.256 C 
ATOM     16  C   UNL A   1      29.257  28.398  22.983  1.00  0.00     0.011 A 
ATOM     17  O   UNL A   1      32.584  27.110  22.675  1.00  0.00    -0.269 OA
ATOM     18  N   UNL A   1      31.297  28.924  22.090  1.00  0.00    -0.321 N 
ATOM     19  C   UNL A   1      29.980  29.329  22.232  1.00  0.00     0.049 A 
ATOM     20  C   UNL A   1      27.891  28.567  23.144  1.00  0.00     0.011 A 
ATOM     21  H   UNL A   1      31.987  29.443  21.619  1.00  0.00     0.170 HD
ATOM     22  C   UNL A   1      29.409  30.453  21.667  1.00  0.00     0.027 A 
ATOM     23  C   UNL A   1      27.282  29.686  22.559  1.00  0.00     0.001 A 
ATOM     24  C   UNL A   1      28.036  30.627  21.836  1.00  0.00     0.002 A 
ENDBRANCH   9  13
ENDBRANCH   6   7
ENDBRANCH   5   6
ENDBRANCH   3   5
ENDBRANCH   2   3
ENDBRANCH   1   2
BRANCH   1  25
ATOM     25  C   UNL A   1      31.733  31.347  26.199  1.00  0.00     0.275 C 
BRANCH  25  26
ATOM     26  O   UNL A   1      32.508  31.330  27.411  1.00  0.00    -0.458 OA
BRANCH  26  27
ATOM     27  C   UNL A   1      33.361  32.371  27.576  1.00  0.00     0.338 C 
ATOM     28  O   UNL A   1      33.089  33.557  27.516  1.00  0.00    -0.246 OA
BRANCH  27  29
ATOM     29  C   UNL A   1      34.658  31.837  28.039  1.00  0.00     0.060 A 
ATOM     30  C   UNL A   1      34.748  30.471  28.328  1.00  0.00     0.016 A 
ATOM     31  C   UNL A   1      35.775  32.668  28.183  1.00  0.00     0.016 A 
ATOM     32  C   UNL A   1      35.949  29.937  28.793  1.00  0.00     0.010 A 
ATOM     33  C   UNL A   1      36.974  32.133  28.659  1.00  0.00     0.010 A 
ATOM     34  C   UNL A   1      37.056  30.772  28.994  1.00  0.00    -0.014 A 
BRANCH  34  35
ATOM     35  C   UNL A   1      38.244  30.249  29.707  1.00  0.00     0.031 A 
ATOM     36  C   UNL A   1      38.520  30.736  31.102  1.00  0.00     0.074 A 
ATOM     37  C   UNL A   1      39.065  29.357  29.126  1.00  0.00     0.049 A 
ATOM     38  N   UNL A   1      39.457  30.366  31.935  1.00  0.00    -0.248 NA
ATOM     39  C   UNL A   1      37.622  31.778  31.627  1.00  0.00     0.031 C 
ATOM     40  C   UNL A   1      38.927  28.836  27.767  1.00  0.00     0.029 A 
ATOM     41  N   UNL A   1      40.196  28.747  29.609  1.00  0.00    -0.354 N 
ATOM     42  C   UNL A   1      39.256  31.120  33.085  1.00  0.00     0.074 A 
ATOM     43  C   UNL A   1      38.133  31.995  32.830  1.00  0.00     0.031 C 
ATOM     44  C   UNL A   1      39.954  28.007  27.514  1.00  0.00     0.029 A 
ATOM     45  C   UNL A   1      40.816  27.933  28.692  1.00  0.00     0.049 A 
ATOM     46  H   UNL A   1      40.530  28.880  30.525  1.00  0.00     0.167 HD
ATOM     47  C   UNL A   1      39.924  31.066  34.261  1.00  0.00     0.034 A 
ATOM     48  C   UNL A   1      41.949  27.211  28.798  1.00  0.00     0.034 A 
ATOM     49  C   UNL A   1      41.043  30.202  34.518  1.00  0.00     0.049 A 
ATOM     50  C   UNL A   1      42.682  27.174  30.116  1.00  0.00     0.074 A 
ATOM     51  C   UNL A   1      41.769  30.059  35.686  1.00  0.00     0.029 A 
ATOM     52  N   UNL A   1      41.605  29.342  33.589  1.00  0.00    -0.354 N 
ATOM     53  N   UNL A   1      42.383  27.770  31.246  1.00  0.00    -0.248 NA
ATOM     54  C   UNL A   1      43.880  26.324  30.187  1.00  0.00     0.031 C 
ATOM     55  C   UNL A   1      42.779  29.116  35.460  1.00  0.00     0.029 A 
ATOM     56  C   UNL A   1      42.673  28.666  34.153  1.00  0.00     0.049 A 
ATOM     57  H   UNL A   1      41.291  29.228  32.663  1.00  0.00     0.167 HD
ATOM     58  C   UNL A   1      43.337  27.345  32.166  1.00  0.00     0.074 A 
ATOM     59  C   UNL A   1      44.204  26.418  31.469  1.00  0.00     0.031 C 
ATOM     60  C   UNL A   1      43.495  27.705  33.464  1.00  0.00     0.034 A 
BRANCH  47  61
ATOM     61  C   UNL A   1      39.413  31.930  35.381  1.00  0.00     0.023 A 
ATOM     62  C   UNL A   1      38.479  31.387  36.288  1.00  0.00     0.012 A 
ATOM     63  C   UNL A   1      39.875  33.245  35.566  1.00  0.00     0.148 A 
ATOM     64  C   UNL A   1      37.995  32.149  37.349  1.00  0.00     0.002 A 
ATOM     65  C   UNL A   1      39.412  33.988  36.645  1.00  0.00     0.091 A 
ATOM     66  F   UNL A   1      40.739  33.751  34.675  1.00  0.00    -0.205 F 
ATOM     67  C   UNL A   1      38.468  33.444  37.533  1.00  0.00     0.022 A 
BRANCH  65  68
ATOM     68  S   UNL A   1      40.004  35.645  37.004  1.00  0.00     0.127 S 
ATOM     69  O   UNL A   1      39.271  35.961  38.230  1.00  0.00    -0.237 OA
ATOM     70  O   UNL A   1      41.439  35.428  37.190  1.00  0.00    -0.237 OA
ATOM     71  O   UNL A   1      39.659  36.453  35.842  1.00  0.00    -0.744 OA
ENDBRANCH  65  68
ENDBRANCH  47  61
BRANCH  48  72
ATOM     72  C   UNL A   1      42.434  26.412  27.638  1.00  0.00     0.023 A 
ATOM     73  C   UNL A   1      43.280  27.012  26.686  1.00  0.00     0.012 A 
ATOM     74  C   UNL A   1      42.065  25.064  27.476  1.00  0.00     0.148 A 
ATOM     75  C   UNL A   1      43.722  26.292  25.575  1.00  0.00     0.002 A 
ATOM     76  C   UNL A   1      42.550  24.338  26.393  1.00  0.00     0.091 A 
ATOM     77  F   UNL A   1      41.239  24.516  28.379  1.00  0.00    -0.205 F 
ATOM     78  C   UNL A   1      43.365  24.954  25.433  1.00  0.00     0.022 A 
BRANCH  76  79
ATOM     79  S   UNL A   1      42.233  22.579  26.211  1.00  0.00     0.127 S 
ATOM     80  O   UNL A   1      42.976  22.263  24.995  1.00  0.00    -0.237 OA
ATOM     81  O   UNL A   1      42.805  22.032  27.442  1.00  0.00    -0.237 OA
ATOM     82  O   UNL A   1      40.783  22.456  26.126  1.00  0.00    -0.744 OA
ENDBRANCH  76  79
ENDBRANCH  48  72
BRANCH  60  83
ATOM     83  C   UNL A   1      44.641  27.090  34.226  1.00  0.00     0.023 A 
ATOM     84  C   UNL A   1      45.848  27.805  34.357  1.00  0.00     0.012 A 
ATOM     85  C   UNL A   1      44.506  25.841  34.863  1.00  0.00     0.148 A 
ATOM     86  C   UNL A   1      46.913  27.273  35.082  1.00  0.00     0.002 A 
ATOM     87  C   UNL A   1      45.558  25.336  35.619  1.00  0.00     0.091 A 
ATOM     88  F   UNL A   1      43.360  25.162  34.710  1.00  0.00    -0.205 F 
ATOM     89  C   UNL A   1      46.766  26.044  35.721  1.00  0.00     0.022 A 
BRANCH  87  90
ATOM     90  S   UNL A   1      45.410  23.802  36.546  1.00  0.00     0.127 S 
ATOM     91  O   UNL A   1      46.741  23.678  37.134  1.00  0.00    -0.237 OA
ATOM     92  O   UNL A   1      44.347  24.110  37.504  1.00  0.00    -0.237 OA
ATOM     93  O   UNL A   1      45.052  22.787  35.564  1.00  0.00    -0.744 OA
ENDBRANCH  87  90
ENDBRANCH  60  83
ENDBRANCH  34  35
ENDBRANCH  27  29
ENDBRANCH  26  27
ENDBRANCH  25  26
ENDBRANCH   1  25
TORSDOF 17
ENDMDL
MODEL 3
REMARK VINA RESULT:     -12.5      1.276      1.601
REMARK SMILES O=C(COc1ccccc1/C=C1\C(=O)Nc2ccccc21)OCCOC(=O)c1ccc(-c2c3nc(c(-c4cccc(S(=O)(=O)[O-])c4F)c4ccc([nH]4)c(-c4cccc(S(=O)(=O)[O-])c4F)c4nc(c(-c5cccc(S(=O)(=O)[O-])c5F)c5ccc2[nH]5)C=C4)C=C3)cc1
REMARK SMILES IDX 23 1 22 2 2 3 1 4 3 5 4 6 5 7 6 8 10 9 7 10 9 11 8 12 11 13
REMARK SMILES IDX 12 14 13 15 21 16 14 17 15 18 16 19 20 20 17 22 19 23 18 24
REMARK SMILES IDX 24 25 25 26 26 27 27 28 28 29 29 30 90 31 30 32 89 33 31 34
REMARK SMILES IDX 32 35 33 36 83 37 34 38 88 39 82 40 84 41 35 42 87 43 81 44
REMARK SMILES IDX 80 45 36 47 68 48 48 49 67 50 49 51 52 52 66 53 85 54 50 55
REMARK SMILES IDX 51 56 65 58 86 59 53 60 37 61 38 62 46 63 39 64 41 65 47 66
REMARK SMILES IDX 40 67 42 68 43 69 44 70 45 71 69 72 70 73 78 74 71 75 73 76
REMARK SMILES IDX 79 77 72 78 74 79 75 80 76 81 77 82 54 83 55 84 63 85 56 86
REMARK SMILES IDX 58 87 64 88 57 89 59 90 60 91 61 92 62 93
REMARK H PARENT 15 21 84 46 52 57
REMARK Flexibility Score: inf
ROOT
ATOM      1  C   UNL A   1      36.360  20.782  24.825  1.00  0.00     0.274 C 
ENDROOT
BRANCH   1   2
ATOM      2  O   UNL A   1      35.972  22.175  24.867  1.00  0.00    -0.460 OA
BRANCH   2   3
ATOM      3  C   UNL A   1      35.924  22.981  23.775  1.00  0.00     0.344 C 
ATOM      4  O   UNL A   1      36.653  22.754  22.811  1.00  0.00    -0.248 OA
BRANCH   3   5
ATOM      5  C   UNL A   1      34.905  24.104  23.747  1.00  0.00     0.352 C 
BRANCH   5   6
ATOM      6  O   UNL A   1      34.181  23.994  22.527  1.00  0.00    -0.481 OA
BRANCH   6   7
ATOM      7  C   UNL A   1      32.847  24.279  22.661  1.00  0.00     0.127 A 
ATOM      8  C   UNL A   1      32.473  25.617  22.488  1.00  0.00     0.047 A 
ATOM      9  C   UNL A   1      31.940  23.304  23.132  1.00  0.00     0.017 A 
ATOM     10  C   UNL A   1      31.187  26.020  22.825  1.00  0.00     0.004 A 
ATOM     11  C   UNL A   1      30.695  23.767  23.566  1.00  0.00     0.012 A 
ATOM     12  C   UNL A   1      30.311  25.103  23.395  1.00  0.00     0.001 A 
BRANCH   9  13
ATOM     13  C   UNL A   1      32.329  21.872  23.150  1.00  0.00     0.026 C 
ATOM     14  C   UNL A   1      32.575  21.029  24.171  1.00  0.00     0.050 C 
ATOM     15  C   UNL A   1      32.708  21.284  25.660  1.00  0.00     0.256 C 
ATOM     16  C   UNL A   1      32.728  19.565  24.001  1.00  0.00     0.011 A 
ATOM     17  O   UNL A   1      32.620  22.318  26.289  1.00  0.00    -0.269 OA
ATOM     18  N   UNL A   1      33.000  20.051  26.220  1.00  0.00    -0.321 N 
ATOM     19  C   UNL A   1      32.990  19.042  25.270  1.00  0.00     0.049 A 
ATOM     20  C   UNL A   1      32.567  18.701  22.930  1.00  0.00     0.011 A 
ATOM     21  H   UNL A   1      33.190  19.909  27.175  1.00  0.00     0.170 HD
ATOM     22  C   UNL A   1      33.145  17.692  25.516  1.00  0.00     0.027 A 
ATOM     23  C   UNL A   1      32.694  17.323  23.156  1.00  0.00     0.001 A 
ATOM     24  C   UNL A   1      32.991  16.823  24.436  1.00  0.00     0.002 A 
ENDBRANCH   9  13
ENDBRANCH   6   7
ENDBRANCH   5   6
ENDBRANCH   3   5
ENDBRANCH   2   3
ENDBRANCH   1   2
BRANCH   1  25
ATOM     25  C   UNL A   1      37.873  20.658  24.984  1.00  0.00     0.275 C 
BRANCH  25  26
ATOM     26  O   UNL A   1      38.301  21.516  26.056  1.00  0.00    -0.458 OA
BRANCH  26  27
ATOM     27  C   UNL A   1      39.619  21.455  26.366  1.00  0.00     0.338 C 
ATOM     28  O   UNL A   1      40.398  20.562  26.084  1.00  0.00    -0.246 OA
BRANCH  27  29
ATOM     29  C   UNL A   1      40.019  22.754  26.945  1.00  0.00     0.060 A 
ATOM     30  C   UNL A   1      39.321  23.900  26.548  1.00  0.00     0.016 A 
ATOM     31  C   UNL A   1      41.064  22.845  27.871  1.00  0.00     0.016 A 
ATOM     32  C   UNL A   1      39.688  25.146  27.053  1.00  0.00     0.010 A 
ATOM     33  C   UNL A   1      41.437  24.096  28.368  1.00  0.00     0.010 A 
ATOM     34  C   UNL A   1      40.770  25.254  27.938  1.00  0.00    -0.014 A 
BRANCH  34  35
ATOM     35  C   UNL A   1      41.301  26.593  28.281  1.00  0.00     0.031 A 
ATOM     36  C   UNL A   1      42.732  26.909  27.945  1.00  0.00     0.074 A 
ATOM     37  C   UNL A   1      40.526  27.514  28.881  1.00  0.00     0.049 A 
ATOM     38  N   UNL A   1      43.385  28.032  28.090  1.00  0.00    -0.248 NA
ATOM     39  C   UNL A   1      43.532  25.814  27.371  1.00  0.00     0.031 C 
ATOM     40  C   UNL A   1      39.137  27.317  29.290  1.00  0.00     0.029 A 
ATOM     41  N   UNL A   1      40.814  28.799  29.268  1.00  0.00    -0.354 N 
ATOM     42  C   UNL A   1      44.667  27.784  27.616  1.00  0.00     0.074 A 
ATOM     43  C   UNL A   1      44.712  26.395  27.216  1.00  0.00     0.031 C 
ATOM     44  C   UNL A   1      38.702  28.433  29.901  1.00  0.00     0.029 A 
ATOM     45  C   UNL A   1      39.778  29.423  29.918  1.00  0.00     0.049 A 
ATOM     46  H   UNL A   1      41.681  29.231  29.095  1.00  0.00     0.167 HD
ATOM     47  C   UNL A   1      45.706  28.643  27.495  1.00  0.00     0.034 A 
ATOM     48  C   UNL A   1      39.710  30.654  30.463  1.00  0.00     0.034 A 
ATOM     49  C   UNL A   1      45.668  30.023  27.896  1.00  0.00     0.049 A 
ATOM     50  C   UNL A   1      40.884  31.591  30.322  1.00  0.00     0.074 A 
ATOM     51  C   UNL A   1      46.662  30.978  27.789  1.00  0.00     0.029 A 
ATOM     52  N   UNL A   1      44.581  30.641  28.491  1.00  0.00    -0.354 N 
ATOM     53  N   UNL A   1      42.035  31.391  29.725  1.00  0.00    -0.248 NA
ATOM     54  C   UNL A   1      40.730  32.940  30.887  1.00  0.00     0.031 C 
ATOM     55  C   UNL A   1      46.178  32.175  28.330  1.00  0.00     0.029 A 
ATOM     56  C   UNL A   1      44.878  31.965  28.763  1.00  0.00     0.049 A 
ATOM     57  H   UNL A   1      43.722  30.203  28.692  1.00  0.00     0.167 HD
ATOM     58  C   UNL A   1      42.727  32.595  29.817  1.00  0.00     0.074 A 
ATOM     59  C   UNL A   1      41.854  33.526  30.501  1.00  0.00     0.031 C 
ATOM     60  C   UNL A   1      43.980  32.897  29.395  1.00  0.00     0.034 A 
BRANCH  47  61
ATOM     61  C   UNL A   1      46.955  28.121  26.840  1.00  0.00     0.023 A 
ATOM     62  C   UNL A   1      47.999  27.635  27.654  1.00  0.00     0.012 A 
ATOM     63  C   UNL A   1      47.086  28.070  25.440  1.00  0.00     0.148 A 
ATOM     64  C   UNL A   1      49.165  27.126  27.085  1.00  0.00     0.002 A 
ATOM     65  C   UNL A   1      48.238  27.532  24.880  1.00  0.00     0.091 A 
ATOM     66  F   UNL A   1      46.094  28.565  24.686  1.00  0.00    -0.205 F 
ATOM     67  C   UNL A   1      49.281  27.067  25.700  1.00  0.00     0.022 A 
BRANCH  65  68
ATOM     68  S   UNL A   1      48.459  27.355  23.106  1.00  0.00     0.127 S 
ATOM     69  O   UNL A   1      49.847  27.787  22.938  1.00  0.00    -0.237 OA
ATOM     70  O   UNL A   1      48.238  25.923  22.907  1.00  0.00    -0.237 OA
ATOM     71  O   UNL A   1      47.457  28.215  22.491  1.00  0.00    -0.744 OA
ENDBRANCH  65  68
ENDBRANCH  47  61
BRANCH  48  72
ATOM     72  C   UNL A   1      38.462  31.099  31.142  1.00  0.00     0.023 A 
ATOM     73  C   UNL A   1      38.323  30.916  32.532  1.00  0.00     0.012 A 
ATOM     74  C   UNL A   1      37.415  31.705  30.422  1.00  0.00     0.148 A 
ATOM     75  C   UNL A   1      37.150  31.298  33.185  1.00  0.00     0.002 A 
ATOM     76  C   UNL A   1      36.270  32.129  31.088  1.00  0.00     0.091 A 
ATOM     77  F   UNL A   1      37.554  31.850  29.096  1.00  0.00    -0.205 F 
ATOM     78  C   UNL A   1      36.128  31.911  32.466  1.00  0.00     0.022 A 
BRANCH  76  79
ATOM     79  S   UNL A   1      34.966  33.037  30.250  1.00  0.00     0.127 S 
ATOM     80  O   UNL A   1      34.440  32.031  29.332  1.00  0.00    -0.237 OA
ATOM     81  O   UNL A   1      34.074  33.389  31.355  1.00  0.00    -0.237 OA
ATOM     82  O   UNL A   1      35.628  34.181  29.635  1.00  0.00    -0.744 OA
ENDBRANCH  76  79
ENDBRANCH  48  72
BRANCH  60  83
ATOM     83  C   UNL A   1      44.485  34.295  29.646  1.00  0.00     0.023 A 
ATOM     84  C   UNL A   1      45.114  34.594  30.871  1.00  0.00     0.012 A 
ATOM     85  C   UNL A   1      44.396  35.291  28.654  1.00  0.00     0.148 A 
ATOM     86  C   UNL A   1      45.617  35.870  31.118  1.00  0.00     0.002 A 
ATOM     87  C   UNL A   1      44.937  36.550  28.892  1.00  0.00     0.091 A 
ATOM     88  F   UNL A   1      43.775  34.998  27.503  1.00  0.00    -0.205 F 
ATOM     89  C   UNL A   1      45.539  36.845  30.125  1.00  0.00     0.022 A 
BRANCH  87  90
ATOM     90  S   UNL A   1      44.956  37.829  27.628  1.00  0.00     0.127 S 
ATOM     91  O   UNL A   1      43.538  37.940  27.294  1.00  0.00    -0.237 OA
ATOM     92  O   UNL A   1      45.504  38.979  28.347  1.00  0.00    -0.237 OA
ATOM     93  O   UNL A   1      45.819  37.319  26.571  1.00  0.00    -0.744 OA
ENDBRANCH  87  90
ENDBRANCH  60  83
ENDBRANCH  34  35
ENDBRANCH  27  29
ENDBRANCH  26  27
ENDBRANCH  25  26
ENDBRANCH   1  25
TORSDOF 17
ENDMDL
