MODEL 1
REMARK VINA RESULT:     -12.7      0.000      0.000
REMARK SMILES CCN1C(=O)c2ccccc2[S@@](=O)c2ccc(C(=O)OCCOC(=O)c3ccc(-c4c5nc(c(-c6cccc(S(=O)(=O)[O-])c6F)c6ccc([nH]6)c(-c6cccc(S(=O)(=O)[O-])c6F)c6nc(c(-c7cccc(S(=O)(=O)[O-])c7F)c7ccc4[nH]7)C=C6)C=C5)cc3)cc21
REMARK SMILES IDX 22 1 21 2 20 3 18 4 19 5 17 6 3 7 4 8 90 9 5 10 6 11 14 12
REMARK SMILES IDX 89 13 7 14 11 15 12 16 15 17 8 18 10 19 13 20 16 21 9 22
REMARK SMILES IDX 2 23 1 24 23 25 24 26 25 27 26 28 27 29 88 30 28 31 87 32
REMARK SMILES IDX 29 33 30 34 31 35 81 36 32 37 86 38 80 39 82 40 33 41 85 42
REMARK SMILES IDX 79 43 78 44 34 46 66 47 46 48 65 49 47 50 50 51 64 52 83 53
REMARK SMILES IDX 48 54 49 55 63 57 84 58 51 59 35 60 36 61 44 62 37 63 39 64
REMARK SMILES IDX 45 65 38 66 40 67 41 68 42 69 43 70 67 71 68 72 76 73 69 74
REMARK SMILES IDX 71 75 77 76 70 77 72 78 73 79 74 80 75 81 52 82 53 83 61 84
REMARK SMILES IDX 54 85 56 86 62 87 55 88 57 89 58 90 59 91 60 92
REMARK H PARENT 82 45 50 56
REMARK Flexibility Score: inf
ROOT
ATOM      1  C   UNL A   1      35.884  21.048  25.364  1.00  0.00     0.275 C 
ENDROOT
BRANCH   1   2
ATOM      2  C   UNL A   1      35.186  21.805  26.497  1.00  0.00     0.275 C 
BRANCH   2   3
ATOM      3  O   UNL A   1      33.772  21.518  26.530  1.00  0.00    -0.458 OA
BRANCH   3   4
ATOM      4  C   UNL A   1      32.997  22.466  27.118  1.00  0.00     0.338 C 
ATOM      5  O   UNL A   1      32.770  22.577  28.308  1.00  0.00    -0.246 OA
BRANCH   4   6
ATOM      6  C   UNL A   1      32.472  23.423  26.113  1.00  0.00     0.062 A 
ATOM      7  N   UNL A   1      33.137  26.993  25.083  1.00  0.00    -0.307 N 
ATOM      8  C   UNL A   1      33.023  27.931  24.050  1.00  0.00     0.259 C 
ATOM      9  C   UNL A   1      32.570  25.653  25.040  1.00  0.00     0.061 A 
ATOM     10  O   UNL A   1      33.931  28.678  23.688  1.00  0.00    -0.269 OA
ATOM     11  C   UNL A   1      31.651  28.294  23.657  1.00  0.00     0.056 A 
ATOM     12  C   UNL A   1      31.763  25.129  23.997  1.00  0.00     0.068 A 
ATOM     13  C   UNL A   1      32.907  24.752  26.088  1.00  0.00     0.043 A 
ATOM     14  C   UNL A   1      31.208  29.582  23.986  1.00  0.00     0.015 A 
ATOM     15  C   UNL A   1      30.808  27.402  23.016  1.00  0.00     0.057 A 
ATOM     16  S   UNL A   1      31.420  25.861  22.383  1.00  0.00     0.088 S 
ATOM     17  C   UNL A   1      31.263  23.816  24.077  1.00  0.00     0.021 A 
ATOM     18  C   UNL A   1      29.894  29.956  23.718  1.00  0.00     0.001 A 
ATOM     19  C   UNL A   1      29.481  27.773  22.765  1.00  0.00     0.019 A 
ATOM     20  O   UNL A   1      32.766  26.152  21.796  1.00  0.00    -0.249 OA
ATOM     21  C   UNL A   1      31.637  22.967  25.104  1.00  0.00     0.017 A 
ATOM     22  C   UNL A   1      29.023  29.044  23.124  1.00  0.00     0.001 A 
BRANCH   7  23
ATOM     23  C   UNL A   1      34.011  27.358  26.213  1.00  0.00     0.122 C 
ATOM     24  C   UNL A   1      33.472  28.378  27.214  1.00  0.00     0.028 C 
ENDBRANCH   7  23
ENDBRANCH   4   6
ENDBRANCH   3   4
ENDBRANCH   2   3
ENDBRANCH   1   2
BRANCH   1  25
ATOM     25  O   UNL A   1      37.095  21.713  24.970  1.00  0.00    -0.458 OA
BRANCH  25  26
ATOM     26  C   UNL A   1      38.222  21.264  25.566  1.00  0.00     0.338 C 
ATOM     27  O   UNL A   1      38.652  20.122  25.580  1.00  0.00    -0.246 OA
BRANCH  26  28
ATOM     28  C   UNL A   1      38.949  22.406  26.129  1.00  0.00     0.060 A 
ATOM     29  C   UNL A   1      40.110  22.244  26.871  1.00  0.00     0.016 A 
ATOM     30  C   UNL A   1      38.496  23.681  25.812  1.00  0.00     0.016 A 
ATOM     31  C   UNL A   1      40.784  23.386  27.323  1.00  0.00     0.010 A 
ATOM     32  C   UNL A   1      39.248  24.804  26.124  1.00  0.00     0.010 A 
ATOM     33  C   UNL A   1      40.373  24.680  26.939  1.00  0.00    -0.014 A 
BRANCH  33  34
ATOM     34  C   UNL A   1      41.078  25.902  27.414  1.00  0.00     0.031 A 
ATOM     35  C   UNL A   1      42.502  26.189  26.989  1.00  0.00     0.074 A 
ATOM     36  C   UNL A   1      40.449  26.745  28.258  1.00  0.00     0.049 A 
ATOM     37  N   UNL A   1      43.255  27.218  27.285  1.00  0.00    -0.248 NA
ATOM     38  C   UNL A   1      43.191  25.182  26.158  1.00  0.00     0.031 C 
ATOM     39  C   UNL A   1      39.122  26.527  28.839  1.00  0.00     0.029 A 
ATOM     40  N   UNL A   1      40.837  27.958  28.768  1.00  0.00    -0.354 N 
ATOM     41  C   UNL A   1      44.499  26.962  26.718  1.00  0.00     0.074 A 
ATOM     42  C   UNL A   1      44.425  25.659  26.103  1.00  0.00     0.031 C 
ATOM     43  C   UNL A   1      38.778  27.600  29.567  1.00  0.00     0.029 A 
ATOM     44  C   UNL A   1      39.871  28.566  29.536  1.00  0.00     0.049 A 
ATOM     45  H   UNL A   1      41.722  28.356  28.600  1.00  0.00     0.167 HD
ATOM     46  C   UNL A   1      45.590  27.759  26.662  1.00  0.00     0.034 A 
ATOM     47  C   UNL A   1      39.856  29.775  30.132  1.00  0.00     0.034 A 
ATOM     48  C   UNL A   1      45.631  29.094  27.184  1.00  0.00     0.049 A 
ATOM     49  C   UNL A   1      41.043  30.680  29.979  1.00  0.00     0.074 A 
ATOM     50  C   UNL A   1      46.649  30.024  27.078  1.00  0.00     0.029 A 
ATOM     51  N   UNL A   1      44.607  29.693  27.897  1.00  0.00    -0.354 N 
ATOM     52  N   UNL A   1      42.155  30.469  29.319  1.00  0.00    -0.248 NA
ATOM     53  C   UNL A   1      40.967  31.997  30.629  1.00  0.00     0.031 C 
ATOM     54  C   UNL A   1      46.242  31.187  27.735  1.00  0.00     0.029 A 
ATOM     55  C   UNL A   1      44.967  30.981  28.239  1.00  0.00     0.049 A 
ATOM     56  H   UNL A   1      43.750  29.264  28.126  1.00  0.00     0.167 HD
ATOM     57  C   UNL A   1      42.908  31.627  29.461  1.00  0.00     0.074 A 
ATOM     58  C   UNL A   1      42.117  32.546  30.253  1.00  0.00     0.031 C 
ATOM     59  C   UNL A   1      44.149  31.896  28.991  1.00  0.00     0.034 A 
BRANCH  46  60
ATOM     60  C   UNL A   1      46.803  27.258  25.925  1.00  0.00     0.023 A 
ATOM     61  C   UNL A   1      47.629  26.291  26.537  1.00  0.00     0.012 A 
ATOM     62  C   UNL A   1      47.069  27.657  24.601  1.00  0.00     0.148 A 
ATOM     63  C   UNL A   1      48.707  25.740  25.849  1.00  0.00     0.002 A 
ATOM     64  C   UNL A   1      48.126  27.078  23.908  1.00  0.00     0.091 A 
ATOM     65  F   UNL A   1      46.277  28.585  24.044  1.00  0.00    -0.205 F 
ATOM     66  C   UNL A   1      48.949  26.124  24.533  1.00  0.00     0.022 A 
BRANCH  64  67
ATOM     67  S   UNL A   1      48.492  27.453  22.191  1.00  0.00     0.127 S 
ATOM     68  O   UNL A   1      49.731  28.220  22.313  1.00  0.00    -0.237 OA
ATOM     69  O   UNL A   1      48.655  26.118  21.615  1.00  0.00    -0.237 OA
ATOM     70  O   UNL A   1      47.350  28.203  21.688  1.00  0.00    -0.744 OA
ENDBRANCH  64  67
ENDBRANCH  46  60
BRANCH  47  71
ATOM     71  C   UNL A   1      38.625  30.215  30.844  1.00  0.00     0.023 A 
ATOM     72  C   UNL A   1      38.512  29.981  32.227  1.00  0.00     0.012 A 
ATOM     73  C   UNL A   1      37.621  30.944  30.181  1.00  0.00     0.148 A 
ATOM     74  C   UNL A   1      37.414  30.464  32.940  1.00  0.00     0.002 A 
ATOM     75  C   UNL A   1      36.550  31.456  30.903  1.00  0.00     0.091 A 
ATOM     76  F   UNL A   1      37.756  31.153  28.865  1.00  0.00    -0.205 F 
ATOM     77  C   UNL A   1      36.439  31.209  32.281  1.00  0.00     0.022 A 
BRANCH  75  78
ATOM     78  S   UNL A   1      35.304  32.519  30.165  1.00  0.00     0.127 S 
ATOM     79  O   UNL A   1      34.405  32.751  31.293  1.00  0.00    -0.237 OA
ATOM     80  O   UNL A   1      36.101  33.678  29.765  1.00  0.00    -0.237 OA
ATOM     81  O   UNL A   1      34.738  31.761  29.059  1.00  0.00    -0.744 OA
ENDBRANCH  75  78
ENDBRANCH  47  71
BRANCH  59  82
ATOM     82  C   UNL A   1      44.750  33.236  29.305  1.00  0.00     0.023 A 
ATOM     83  C   UNL A   1      45.545  33.379  30.457  1.00  0.00     0.012 A 
ATOM     84  C   UNL A   1      44.649  34.297  28.385  1.00  0.00     0.148 A 
ATOM     85  C   UNL A   1      46.231  34.567  30.694  1.00  0.00     0.002 A 
ATOM     86  C   UNL A   1      45.364  35.467  28.610  1.00  0.00     0.091 A 
ATOM     87  F   UNL A   1      43.882  34.130  27.298  1.00  0.00    -0.205 F 
ATOM     88  C   UNL A   1      46.151  35.605  29.766  1.00  0.00     0.022 A 
BRANCH  86  89
ATOM     89  S   UNL A   1      45.387  36.827  27.439  1.00  0.00     0.127 S 
ATOM     90  O   UNL A   1      46.174  37.827  28.161  1.00  0.00    -0.237 OA
ATOM     91  O   UNL A   1      46.065  36.232  26.288  1.00  0.00    -0.237 OA
ATOM     92  O   UNL A   1      43.994  37.188  27.209  1.00  0.00    -0.744 OA
ENDBRANCH  86  89
ENDBRANCH  59  82
ENDBRANCH  33  34
ENDBRANCH  26  28
ENDBRANCH  25  26
ENDBRANCH   1  25
TORSDOF 15
ENDMDL
MODEL 2
REMARK VINA RESULT:     -12.5      5.127     10.297
REMARK SMILES CCN1C(=O)c2ccccc2[S@@](=O)c2ccc(C(=O)OCCOC(=O)c3ccc(-c4c5nc(c(-c6cccc(S(=O)(=O)[O-])c6F)c6ccc([nH]6)c(-c6cccc(S(=O)(=O)[O-])c6F)c6nc(c(-c7cccc(S(=O)(=O)[O-])c7F)c7ccc4[nH]7)C=C6)C=C5)cc3)cc21
REMARK SMILES IDX 22 1 21 2 20 3 18 4 19 5 17 6 3 7 4 8 90 9 5 10 6 11 14 12
REMARK SMILES IDX 89 13 7 14 11 15 12 16 15 17 8 18 10 19 13 20 16 21 9 22
REMARK SMILES IDX 2 23 1 24 23 25 24 26 25 27 26 28 27 29 88 30 28 31 87 32
REMARK SMILES IDX 29 33 30 34 31 35 81 36 32 37 86 38 80 39 82 40 33 41 85 42
REMARK SMILES IDX 79 43 78 44 34 46 66 47 46 48 65 49 47 50 50 51 64 52 83 53
REMARK SMILES IDX 48 54 49 55 63 57 84 58 51 59 35 60 36 61 44 62 37 63 39 64
REMARK SMILES IDX 45 65 38 66 40 67 41 68 42 69 43 70 67 71 68 72 76 73 69 74
REMARK SMILES IDX 71 75 77 76 70 77 72 78 73 79 74 80 75 81 52 82 53 83 61 84
REMARK SMILES IDX 54 85 56 86 62 87 55 88 57 89 58 90 59 91 60 92
REMARK H PARENT 82 45 50 56
REMARK Flexibility Score: inf
ROOT
ATOM      1  C   UNL A   1      32.277  30.064  25.015  1.00  0.00     0.275 C 
ENDROOT
BRANCH   1   2
ATOM      2  C   UNL A   1      33.061  28.884  24.437  1.00  0.00     0.275 C 
BRANCH   2   3
ATOM      3  O   UNL A   1      32.493  28.435  23.188  1.00  0.00    -0.458 OA
BRANCH   3   4
ATOM      4  C   UNL A   1      33.207  27.487  22.529  1.00  0.00     0.338 C 
ATOM      5  O   UNL A   1      34.031  27.681  21.655  1.00  0.00    -0.246 OA
BRANCH   4   6
ATOM      6  C   UNL A   1      32.895  26.131  23.045  1.00  0.00     0.062 A 
ATOM      7  N   UNL A   1      34.557  23.566  25.259  1.00  0.00    -0.307 N 
ATOM      8  C   UNL A   1      34.350  22.458  26.089  1.00  0.00     0.259 C 
ATOM      9  C   UNL A   1      33.519  24.193  24.454  1.00  0.00     0.061 A 
ATOM     10  O   UNL A   1      34.847  22.323  27.206  1.00  0.00    -0.269 OA
ATOM     11  C   UNL A   1      33.833  21.246  25.429  1.00  0.00     0.056 A 
ATOM     12  C   UNL A   1      32.182  23.736  24.327  1.00  0.00     0.068 A 
ATOM     13  C   UNL A   1      33.833  25.411  23.791  1.00  0.00     0.043 A 
ATOM     14  C   UNL A   1      34.709  20.159  25.304  1.00  0.00     0.015 A 
ATOM     15  C   UNL A   1      32.548  21.176  24.920  1.00  0.00     0.057 A 
ATOM     16  S   UNL A   1      31.355  22.441  25.274  1.00  0.00     0.088 S 
ATOM     17  C   UNL A   1      31.271  24.425  23.505  1.00  0.00     0.021 A 
ATOM     18  C   UNL A   1      34.308  19.018  24.615  1.00  0.00     0.001 A 
ATOM     19  C   UNL A   1      32.152  20.035  24.210  1.00  0.00     0.019 A 
ATOM     20  O   UNL A   1      31.557  22.821  26.709  1.00  0.00    -0.249 OA
ATOM     21  C   UNL A   1      31.614  25.621  22.898  1.00  0.00     0.017 A 
ATOM     22  C   UNL A   1      33.035  18.963  24.051  1.00  0.00     0.001 A 
BRANCH   7  23
ATOM     23  C   UNL A   1      35.882  24.208  25.333  1.00  0.00     0.122 C 
ATOM     24  C   UNL A   1      37.062  23.449  24.728  1.00  0.00     0.028 C 
ENDBRANCH   7  23
ENDBRANCH   4   6
ENDBRANCH   3   4
ENDBRANCH   2   3
ENDBRANCH   1   2
BRANCH   1  25
ATOM     25  O   UNL A   1      32.381  30.099  26.449  1.00  0.00    -0.458 OA
BRANCH  25  26
ATOM     26  C   UNL A   1      32.844  31.257  26.967  1.00  0.00     0.338 C 
ATOM     27  O   UNL A   1      32.271  32.334  27.015  1.00  0.00    -0.246 OA
BRANCH  26  28
ATOM     28  C   UNL A   1      34.148  31.011  27.592  1.00  0.00     0.060 A 
ATOM     29  C   UNL A   1      35.013  32.045  27.920  1.00  0.00     0.016 A 
ATOM     30  C   UNL A   1      34.459  29.704  27.945  1.00  0.00     0.016 A 
ATOM     31  C   UNL A   1      36.214  31.737  28.572  1.00  0.00     0.010 A 
ATOM     32  C   UNL A   1      35.568  29.420  28.728  1.00  0.00     0.010 A 
ATOM     33  C   UNL A   1      36.497  30.422  29.002  1.00  0.00    -0.014 A 
BRANCH  33  34
ATOM     34  C   UNL A   1      37.770  30.080  29.694  1.00  0.00     0.031 A 
ATOM     35  C   UNL A   1      38.046  30.575  31.098  1.00  0.00     0.074 A 
ATOM     36  C   UNL A   1      38.700  29.347  29.048  1.00  0.00     0.049 A 
ATOM     37  N   UNL A   1      39.088  30.347  31.857  1.00  0.00    -0.248 NA
ATOM     38  C   UNL A   1      37.052  31.468  31.723  1.00  0.00     0.031 C 
ATOM     39  C   UNL A   1      38.612  28.908  27.653  1.00  0.00     0.029 A 
ATOM     40  N   UNL A   1      39.897  28.834  29.480  1.00  0.00    -0.354 N 
ATOM     41  C   UNL A   1      38.892  31.094  33.014  1.00  0.00     0.074 A 
ATOM     42  C   UNL A   1      37.660  31.826  32.844  1.00  0.00     0.031 C 
ATOM     43  C   UNL A   1      39.671  28.135  27.367  1.00  0.00     0.029 A 
ATOM     44  C   UNL A   1      40.531  28.053  28.543  1.00  0.00     0.049 A 
ATOM     45  H   UNL A   1      40.266  29.008  30.376  1.00  0.00     0.167 HD
ATOM     46  C   UNL A   1      39.636  31.129  34.143  1.00  0.00     0.034 A 
ATOM     47  C   UNL A   1      41.667  27.333  28.624  1.00  0.00     0.034 A 
ATOM     48  C   UNL A   1      40.805  30.325  34.353  1.00  0.00     0.049 A 
ATOM     49  C   UNL A   1      42.429  27.313  29.916  1.00  0.00     0.074 A 
ATOM     50  C   UNL A   1      41.565  30.201  35.502  1.00  0.00     0.029 A 
ATOM     51  N   UNL A   1      41.374  29.498  33.399  1.00  0.00    -0.354 N 
ATOM     52  N   UNL A   1      42.147  27.920  31.043  1.00  0.00    -0.248 NA
ATOM     53  C   UNL A   1      43.649  26.494  29.961  1.00  0.00     0.031 C 
ATOM     54  C   UNL A   1      42.601  29.302  35.240  1.00  0.00     0.029 A 
ATOM     55  C   UNL A   1      42.478  28.860  33.932  1.00  0.00     0.049 A 
ATOM     56  H   UNL A   1      41.043  29.383  32.479  1.00  0.00     0.167 HD
ATOM     57  C   UNL A   1      43.144  27.548  31.935  1.00  0.00     0.074 A 
ATOM     58  C   UNL A   1      44.028  26.647  31.225  1.00  0.00     0.031 C 
ATOM     59  C   UNL A   1      43.319  27.934  33.222  1.00  0.00     0.034 A 
BRANCH  46  60
ATOM     60  C   UNL A   1      39.163  31.986  35.285  1.00  0.00     0.023 A 
ATOM     61  C   UNL A   1      39.310  33.387  35.200  1.00  0.00     0.012 A 
ATOM     62  C   UNL A   1      38.484  31.426  36.384  1.00  0.00     0.148 A 
ATOM     63  C   UNL A   1      38.801  34.215  36.198  1.00  0.00     0.002 A 
ATOM     64  C   UNL A   1      37.950  32.262  37.359  1.00  0.00     0.091 A 
ATOM     65  F   UNL A   1      38.366  30.092  36.449  1.00  0.00    -0.205 F 
ATOM     66  C   UNL A   1      38.113  33.655  37.270  1.00  0.00     0.022 A 
BRANCH  64  67
ATOM     67  S   UNL A   1      36.992  31.652  38.751  1.00  0.00     0.127 S 
ATOM     68  O   UNL A   1      37.919  31.865  39.863  1.00  0.00    -0.237 OA
ATOM     69  O   UNL A   1      35.835  32.547  38.741  1.00  0.00    -0.237 OA
ATOM     70  O   UNL A   1      36.693  30.258  38.457  1.00  0.00    -0.744 OA
ENDBRANCH  64  67
ENDBRANCH  46  60
BRANCH  47  71
ATOM     71  C   UNL A   1      42.083  26.503  27.461  1.00  0.00     0.023 A 
ATOM     72  C   UNL A   1      42.877  27.081  26.453  1.00  0.00     0.012 A 
ATOM     73  C   UNL A   1      41.779  25.130  27.400  1.00  0.00     0.148 A 
ATOM     74  C   UNL A   1      43.359  26.305  25.398  1.00  0.00     0.002 A 
ATOM     75  C   UNL A   1      42.295  24.354  26.369  1.00  0.00     0.091 A 
ATOM     76  F   UNL A   1      41.023  24.606  28.374  1.00  0.00    -0.205 F 
ATOM     77  C   UNL A   1      43.078  24.942  25.361  1.00  0.00     0.022 A 
BRANCH  75  78
ATOM     78  S   UNL A   1      42.079  22.573  26.295  1.00  0.00     0.127 S 
ATOM     79  O   UNL A   1      40.627  22.452  26.191  1.00  0.00    -0.237 OA
ATOM     80  O   UNL A   1      42.814  22.235  25.075  1.00  0.00    -0.237 OA
ATOM     81  O   UNL A   1      42.666  22.050  27.520  1.00  0.00    -0.744 OA
ENDBRANCH  75  78
ENDBRANCH  47  71
BRANCH  59  82
ATOM     82  C   UNL A   1      44.503  27.391  33.969  1.00  0.00     0.023 A 
ATOM     83  C   UNL A   1      45.704  28.125  33.979  1.00  0.00     0.012 A 
ATOM     84  C   UNL A   1      44.376  26.243  34.774  1.00  0.00     0.148 A 
ATOM     85  C   UNL A   1      46.769  27.720  34.780  1.00  0.00     0.002 A 
ATOM     86  C   UNL A   1      45.430  25.864  35.596  1.00  0.00     0.091 A 
ATOM     87  F   UNL A   1      43.221  25.565  34.740  1.00  0.00    -0.205 F 
ATOM     88  C   UNL A   1      46.628  26.599  35.597  1.00  0.00     0.022 A 
BRANCH  86  89
ATOM     89  S   UNL A   1      45.318  24.484  36.738  1.00  0.00     0.127 S 
ATOM     90  O   UNL A   1      44.167  24.867  37.555  1.00  0.00    -0.237 OA
ATOM     91  O   UNL A   1      45.080  23.357  35.837  1.00  0.00    -0.237 OA
ATOM     92  O   UNL A   1      46.591  24.440  37.446  1.00  0.00    -0.744 OA
ENDBRANCH  86  89
ENDBRANCH  59  82
ENDBRANCH  33  34
ENDBRANCH  26  28
ENDBRANCH  25  26
ENDBRANCH   1  25
TORSDOF 15
ENDMDL
MODEL 3
REMARK VINA RESULT:     -12.5      1.166      1.820
REMARK SMILES CCN1C(=O)c2ccccc2[S@@](=O)c2ccc(C(=O)OCCOC(=O)c3ccc(-c4c5nc(c(-c6cccc(S(=O)(=O)[O-])c6F)c6ccc([nH]6)c(-c6cccc(S(=O)(=O)[O-])c6F)c6nc(c(-c7cccc(S(=O)(=O)[O-])c7F)c7ccc4[nH]7)C=C6)C=C5)cc3)cc21
REMARK SMILES IDX 22 1 21 2 20 3 18 4 19 5 17 6 3 7 4 8 90 9 5 10 6 11 14 12
REMARK SMILES IDX 89 13 7 14 11 15 12 16 15 17 8 18 10 19 13 20 16 21 9 22
REMARK SMILES IDX 2 23 1 24 23 25 24 26 25 27 26 28 27 29 88 30 28 31 87 32
REMARK SMILES IDX 29 33 30 34 31 35 81 36 32 37 86 38 80 39 82 40 33 41 85 42
REMARK SMILES IDX 79 43 78 44 34 46 66 47 46 48 65 49 47 50 50 51 64 52 83 53
REMARK SMILES IDX 48 54 49 55 63 57 84 58 51 59 35 60 36 61 44 62 37 63 39 64
REMARK SMILES IDX 45 65 38 66 40 67 41 68 42 69 43 70 67 71 68 72 76 73 69 74
REMARK SMILES IDX 71 75 77 76 70 77 72 78 73 79 74 80 75 81 52 82 53 83 61 84
REMARK SMILES IDX 54 85 56 86 62 87 55 88 57 89 58 90 59 91 60 92
REMARK H PARENT 82 45 50 56
REMARK Flexibility Score: inf
ROOT
ATOM      1  C   UNL A   1      36.247  20.716  25.026  1.00  0.00     0.275 C 
ENDROOT
BRANCH   1   2
ATOM      2  C   UNL A   1      34.948  21.450  24.684  1.00  0.00     0.275 C 
BRANCH   2   3
ATOM      3  O   UNL A   1      33.847  20.529  24.529  1.00  0.00    -0.458 OA
BRANCH   3   4
ATOM      4  C   UNL A   1      32.790  20.996  23.815  1.00  0.00     0.338 C 
ATOM      5  O   UNL A   1      32.252  20.441  22.876  1.00  0.00    -0.246 OA
BRANCH   4   6
ATOM      6  C   UNL A   1      32.311  22.291  24.359  1.00  0.00     0.062 A 
ATOM      7  N   UNL A   1      32.272  25.904  23.266  1.00  0.00    -0.307 N 
ATOM      8  C   UNL A   1      31.647  27.146  23.428  1.00  0.00     0.259 C 
ATOM      9  C   UNL A   1      31.984  24.729  24.077  1.00  0.00     0.061 A 
ATOM     10  O   UNL A   1      31.291  27.870  22.499  1.00  0.00    -0.269 OA
ATOM     11  C   UNL A   1      31.782  27.767  24.756  1.00  0.00     0.056 A 
ATOM     12  C   UNL A   1      31.100  24.686  25.185  1.00  0.00     0.068 A 
ATOM     13  C   UNL A   1      32.571  23.492  23.692  1.00  0.00     0.043 A 
ATOM     14  C   UNL A   1      32.596  28.904  24.855  1.00  0.00     0.015 A 
ATOM     15  C   UNL A   1      31.162  27.246  25.879  1.00  0.00     0.057 A 
ATOM     16  S   UNL A   1      29.947  25.960  25.738  1.00  0.00     0.088 S 
ATOM     17  C   UNL A   1      30.913  23.488  25.899  1.00  0.00     0.021 A 
ATOM     18  C   UNL A   1      32.832  29.486  26.097  1.00  0.00     0.001 A 
ATOM     19  C   UNL A   1      31.416  27.821  27.131  1.00  0.00     0.019 A 
ATOM     20  O   UNL A   1      29.125  26.289  24.530  1.00  0.00    -0.249 OA
ATOM     21  C   UNL A   1      31.487  22.301  25.473  1.00  0.00     0.017 A 
ATOM     22  C   UNL A   1      32.256  28.933  27.240  1.00  0.00     0.001 A 
BRANCH   7  23
ATOM     23  C   UNL A   1      33.169  25.761  22.105  1.00  0.00     0.122 C 
ATOM     24  C   UNL A   1      32.519  25.504  20.747  1.00  0.00     0.028 C 
ENDBRANCH   7  23
ENDBRANCH   4   6
ENDBRANCH   3   4
ENDBRANCH   2   3
ENDBRANCH   1   2
BRANCH   1  25
ATOM     25  O   UNL A   1      37.062  21.499  25.914  1.00  0.00    -0.458 OA
BRANCH  25  26
ATOM     26  C   UNL A   1      38.389  21.250  25.851  1.00  0.00     0.338 C 
ATOM     27  O   UNL A   1      38.942  20.278  25.363  1.00  0.00    -0.246 OA
BRANCH  26  28
ATOM     28  C   UNL A   1      39.115  22.411  26.376  1.00  0.00     0.060 A 
ATOM     29  C   UNL A   1      40.350  22.286  26.996  1.00  0.00     0.016 A 
ATOM     30  C   UNL A   1      38.576  23.670  26.144  1.00  0.00     0.016 A 
ATOM     31  C   UNL A   1      41.013  23.446  27.416  1.00  0.00     0.010 A 
ATOM     32  C   UNL A   1      39.303  24.819  26.416  1.00  0.00     0.010 A 
ATOM     33  C   UNL A   1      40.507  24.729  27.114  1.00  0.00    -0.014 A 
BRANCH  33  34
ATOM     34  C   UNL A   1      41.199  25.970  27.555  1.00  0.00     0.031 A 
ATOM     35  C   UNL A   1      42.618  26.264  27.116  1.00  0.00     0.074 A 
ATOM     36  C   UNL A   1      40.565  26.826  28.382  1.00  0.00     0.049 A 
ATOM     37  N   UNL A   1      43.359  27.310  27.384  1.00  0.00    -0.248 NA
ATOM     38  C   UNL A   1      43.315  25.247  26.305  1.00  0.00     0.031 C 
ATOM     39  C   UNL A   1      39.243  26.605  28.976  1.00  0.00     0.029 A 
ATOM     40  N   UNL A   1      40.940  28.056  28.861  1.00  0.00    -0.354 N 
ATOM     41  C   UNL A   1      44.604  27.055  26.816  1.00  0.00     0.074 A 
ATOM     42  C   UNL A   1      44.543  25.737  26.233  1.00  0.00     0.031 C 
ATOM     43  C   UNL A   1      38.889  27.691  29.679  1.00  0.00     0.029 A 
ATOM     44  C   UNL A   1      39.971  28.670  29.619  1.00  0.00     0.049 A 
ATOM     45  H   UNL A   1      41.819  28.460  28.679  1.00  0.00     0.167 HD
ATOM     46  C   UNL A   1      45.685  27.864  26.735  1.00  0.00     0.034 A 
ATOM     47  C   UNL A   1      39.943  29.892  30.186  1.00  0.00     0.034 A 
ATOM     48  C   UNL A   1      45.712  29.211  27.224  1.00  0.00     0.049 A 
ATOM     49  C   UNL A   1      41.118  30.808  30.005  1.00  0.00     0.074 A 
ATOM     50  C   UNL A   1      46.718  30.151  27.091  1.00  0.00     0.029 A 
ATOM     51  N   UNL A   1      44.683  29.815  27.928  1.00  0.00    -0.354 N 
ATOM     52  N   UNL A   1      42.230  30.594  29.345  1.00  0.00    -0.248 NA
ATOM     53  C   UNL A   1      41.029  32.139  30.623  1.00  0.00     0.031 C 
ATOM     54  C   UNL A   1      46.299  31.324  27.722  1.00  0.00     0.029 A 
ATOM     55  C   UNL A   1      45.029  31.116  28.238  1.00  0.00     0.049 A 
ATOM     56  H   UNL A   1      43.834  29.381  28.172  1.00  0.00     0.167 HD
ATOM     57  C   UNL A   1      42.968  31.765  29.455  1.00  0.00     0.074 A 
ATOM     58  C   UNL A   1      42.170  32.693  30.229  1.00  0.00     0.031 C 
ATOM     59  C   UNL A   1      44.204  32.038  28.972  1.00  0.00     0.034 A 
BRANCH  46  60
ATOM     60  C   UNL A   1      46.900  27.360  26.004  1.00  0.00     0.023 A 
ATOM     61  C   UNL A   1      47.753  26.436  26.644  1.00  0.00     0.012 A 
ATOM     62  C   UNL A   1      47.142  27.713  24.662  1.00  0.00     0.148 A 
ATOM     63  C   UNL A   1      48.835  25.881  25.964  1.00  0.00     0.002 A 
ATOM     64  C   UNL A   1      48.205  27.129  23.980  1.00  0.00     0.091 A 
ATOM     65  F   UNL A   1      46.325  28.601  24.079  1.00  0.00    -0.205 F 
ATOM     66  C   UNL A   1      49.054  26.219  24.632  1.00  0.00     0.022 A 
BRANCH  64  67
ATOM     67  S   UNL A   1      48.543  27.445  22.245  1.00  0.00     0.127 S 
ATOM     68  O   UNL A   1      49.807  28.177  22.320  1.00  0.00    -0.237 OA
ATOM     69  O   UNL A   1      48.654  26.090  21.705  1.00  0.00    -0.237 OA
ATOM     70  O   UNL A   1      47.413  28.216  21.746  1.00  0.00    -0.744 OA
ENDBRANCH  64  67
ENDBRANCH  46  60
BRANCH  47  71
ATOM     71  C   UNL A   1      38.711  30.335  30.894  1.00  0.00     0.023 A 
ATOM     72  C   UNL A   1      38.627  30.177  32.290  1.00  0.00     0.012 A 
ATOM     73  C   UNL A   1      37.673  30.993  30.208  1.00  0.00     0.148 A 
ATOM     74  C   UNL A   1      37.525  30.665  32.993  1.00  0.00     0.002 A 
ATOM     75  C   UNL A   1      36.598  31.512  30.919  1.00  0.00     0.091 A 
ATOM     76  F   UNL A   1      37.781  31.131  28.880  1.00  0.00    -0.205 F 
ATOM     77  C   UNL A   1      36.517  31.341  32.311  1.00  0.00     0.022 A 
BRANCH  75  78
ATOM     78  S   UNL A   1      35.307  32.492  30.145  1.00  0.00     0.127 S 
ATOM     79  O   UNL A   1      34.389  32.710  31.260  1.00  0.00    -0.237 OA
ATOM     80  O   UNL A   1      36.050  33.678  29.718  1.00  0.00    -0.237 OA
ATOM     81  O   UNL A   1      34.788  31.678  29.056  1.00  0.00    -0.744 OA
ENDBRANCH  75  78
ENDBRANCH  47  71
BRANCH  59  82
ATOM     82  C   UNL A   1      44.789  33.392  29.250  1.00  0.00     0.023 A 
ATOM     83  C   UNL A   1      45.543  33.587  30.422  1.00  0.00     0.012 A 
ATOM     84  C   UNL A   1      44.718  34.414  28.284  1.00  0.00     0.148 A 
ATOM     85  C   UNL A   1      46.218  34.787  30.633  1.00  0.00     0.002 A 
ATOM     86  C   UNL A   1      45.421  35.595  28.484  1.00  0.00     0.091 A 
ATOM     87  F   UNL A   1      43.990  34.198  27.179  1.00  0.00    -0.205 F 
ATOM     88  C   UNL A   1      46.167  35.785  29.660  1.00  0.00     0.022 A 
BRANCH  86  89
ATOM     89  S   UNL A   1      45.481  36.906  27.260  1.00  0.00     0.127 S 
ATOM     90  O   UNL A   1      46.118  36.229  26.131  1.00  0.00    -0.237 OA
ATOM     91  O   UNL A   1      44.064  37.213  27.067  1.00  0.00    -0.237 OA
ATOM     92  O   UNL A   1      46.263  37.982  27.855  1.00  0.00    -0.744 OA
ENDBRANCH  86  89
ENDBRANCH  59  82
ENDBRANCH  33  34
ENDBRANCH  26  28
ENDBRANCH  25  26
ENDBRANCH   1  25
TORSDOF 15
ENDMDL
