MODEL 1
REMARK VINA RESULT:     -11.3      0.000      0.000
REMARK SMILES CN(C)C(=O)CSc1ccc(C(=O)OCCOC(=O)c2ccc(-c3c4nc(c(-c5cccc(S(=O)(=O)[O-])c5F)c5ccc([nH]5)c(-c5cccc(S(=O)(=O)[O-])c5F)c5nc(c(-c6cccc(S(=O)(=O)[O-])c6F)c6ccc3[nH]6)C=C5)C=C4)cc2)cc1
REMARK SMILES IDX 15 1 14 2 12 3 13 4 11 5 8 6 9 7 84 8 10 9 83 10 7 11 6 12
REMARK SMILES IDX 4 13 1 14 2 15 3 16 5 17 16 18 17 19 18 20 19 21 20 22 21 23
REMARK SMILES IDX 82 24 22 25 81 26 23 27 24 28 25 29 75 30 26 31 80 32 74 33
REMARK SMILES IDX 76 34 27 35 79 36 73 37 72 38 28 40 60 41 40 42 59 43 41 44
REMARK SMILES IDX 44 45 58 46 77 47 42 48 43 49 57 51 78 52 45 53 29 54 30 55
REMARK SMILES IDX 38 56 31 57 33 58 39 59 32 60 34 61 35 62 36 63 37 64 61 65
REMARK SMILES IDX 62 66 70 67 63 68 65 69 71 70 64 71 66 72 67 73 68 74 69 75
REMARK SMILES IDX 46 76 47 77 55 78 48 79 50 80 56 81 49 82 51 83 52 84 53 85
REMARK SMILES IDX 54 86
REMARK H PARENT 76 39 44 50
REMARK Flexibility Score: inf
ROOT
ATOM      1  C   UNL A   1      34.972  21.090  25.377  1.00  0.00     0.275 C 
ENDROOT
BRANCH   1   2
ATOM      2  O   UNL A   1      34.014  21.045  24.295  1.00  0.00    -0.458 OA
BRANCH   2   3
ATOM      3  C   UNL A   1      32.716  21.076  24.681  1.00  0.00     0.338 C 
ATOM      4  O   UNL A   1      32.079  20.153  25.156  1.00  0.00    -0.246 OA
BRANCH   3   5
ATOM      5  C   UNL A   1      32.135  22.428  24.529  1.00  0.00     0.060 A 
ATOM      6  C   UNL A   1      30.734  24.881  24.512  1.00  0.00     0.008 A 
ATOM      7  C   UNL A   1      31.434  24.475  25.637  1.00  0.00     0.016 A 
ATOM      8  C   UNL A   1      30.825  24.081  23.355  1.00  0.00     0.016 A 
ATOM      9  C   UNL A   1      32.077  23.243  25.657  1.00  0.00     0.017 A 
ATOM     10  C   UNL A   1      31.537  22.867  23.352  1.00  0.00     0.017 A 
BRANCH   6  11
ATOM     11  S   UNL A   1      29.666  26.312  24.477  1.00  0.00    -0.116 SA
BRANCH  11  12
ATOM     12  C   UNL A   1      30.489  27.522  23.367  1.00  0.00     0.175 C 
BRANCH  12  13
ATOM     13  C   UNL A   1      30.355  28.993  23.754  1.00  0.00     0.232 C 
ATOM     14  C   UNL A   1      29.230  31.142  23.719  1.00  0.00     0.146 C 
ATOM     15  N   UNL A   1      29.299  29.755  23.280  1.00  0.00    -0.348 N 
ATOM     16  C   UNL A   1      28.244  29.269  22.414  1.00  0.00     0.146 C 
ATOM     17  O   UNL A   1      31.239  29.512  24.445  1.00  0.00    -0.274 OA
ENDBRANCH  12  13
ENDBRANCH  11  12
ENDBRANCH   6  11
ENDBRANCH   3   5
ENDBRANCH   2   3
ENDBRANCH   1   2
BRANCH   1  18
ATOM     18  C   UNL A   1      36.332  20.527  24.960  1.00  0.00     0.275 C 
BRANCH  18  19
ATOM     19  O   UNL A   1      37.351  21.543  24.997  1.00  0.00    -0.458 OA
BRANCH  19  20
ATOM     20  C   UNL A   1      38.483  21.188  25.643  1.00  0.00     0.338 C 
ATOM     21  O   UNL A   1      39.066  20.117  25.573  1.00  0.00    -0.246 OA
BRANCH  20  22
ATOM     22  C   UNL A   1      39.016  22.314  26.422  1.00  0.00     0.060 A 
ATOM     23  C   UNL A   1      38.501  23.576  26.173  1.00  0.00     0.016 A 
ATOM     24  C   UNL A   1      40.166  22.172  27.193  1.00  0.00     0.016 A 
ATOM     25  C   UNL A   1      39.243  24.707  26.499  1.00  0.00     0.010 A 
ATOM     26  C   UNL A   1      40.805  23.318  27.689  1.00  0.00     0.010 A 
ATOM     27  C   UNL A   1      40.391  24.604  27.295  1.00  0.00    -0.014 A 
BRANCH  27  28
ATOM     28  C   UNL A   1      41.134  25.834  27.717  1.00  0.00     0.031 A 
ATOM     29  C   UNL A   1      40.458  26.904  28.545  1.00  0.00     0.074 A 
ATOM     30  C   UNL A   1      42.419  26.010  27.339  1.00  0.00     0.049 A 
ATOM     31  N   UNL A   1      40.879  28.109  28.843  1.00  0.00    -0.248 NA
ATOM     32  C   UNL A   1      39.126  26.593  29.090  1.00  0.00     0.031 C 
ATOM     33  C   UNL A   1      43.209  25.064  26.545  1.00  0.00     0.029 A 
ATOM     34  N   UNL A   1      43.289  27.050  27.558  1.00  0.00    -0.354 N 
ATOM     35  C   UNL A   1      39.839  28.723  29.533  1.00  0.00     0.074 A 
ATOM     36  C   UNL A   1      38.765  27.756  29.614  1.00  0.00     0.031 C 
ATOM     37  C   UNL A   1      44.446  25.544  26.376  1.00  0.00     0.029 A 
ATOM     38  C   UNL A   1      44.511  26.881  26.946  1.00  0.00     0.049 A 
ATOM     39  H   UNL A   1      43.061  27.841  28.100  1.00  0.00     0.167 HD
ATOM     40  C   UNL A   1      39.783  29.973  30.056  1.00  0.00     0.034 A 
ATOM     41  C   UNL A   1      45.554  27.720  26.797  1.00  0.00     0.034 A 
ATOM     42  C   UNL A   1      40.881  30.905  30.034  1.00  0.00     0.049 A 
ATOM     43  C   UNL A   1      45.465  29.099  27.380  1.00  0.00     0.074 A 
ATOM     44  C   UNL A   1      40.943  32.174  30.586  1.00  0.00     0.029 A 
ATOM     45  N   UNL A   1      42.109  30.673  29.433  1.00  0.00    -0.354 N 
ATOM     46  N   UNL A   1      44.492  29.641  28.069  1.00  0.00    -0.248 NA
ATOM     47  C   UNL A   1      46.624  29.979  27.177  1.00  0.00     0.031 C 
ATOM     48  C   UNL A   1      42.194  32.721  30.288  1.00  0.00     0.029 A 
ATOM     49  C   UNL A   1      42.929  31.779  29.587  1.00  0.00     0.049 A 
ATOM     50  H   UNL A   1      42.360  29.845  28.965  1.00  0.00     0.167 HD
ATOM     51  C   UNL A   1      44.929  30.915  28.405  1.00  0.00     0.074 A 
ATOM     52  C   UNL A   1      46.267  31.053  27.866  1.00  0.00     0.031 C 
ATOM     53  C   UNL A   1      44.275  31.889  29.084  1.00  0.00     0.034 A 
BRANCH  40  54
ATOM     54  C   UNL A   1      38.493  30.414  30.705  1.00  0.00     0.023 A 
ATOM     55  C   UNL A   1      38.268  30.173  32.076  1.00  0.00     0.012 A 
ATOM     56  C   UNL A   1      37.526  31.127  29.965  1.00  0.00     0.148 A 
ATOM     57  C   UNL A   1      37.088  30.595  32.688  1.00  0.00     0.002 A 
ATOM     58  C   UNL A   1      36.373  31.586  30.595  1.00  0.00     0.091 A 
ATOM     59  F   UNL A   1      37.746  31.337  28.660  1.00  0.00    -0.205 F 
ATOM     60  C   UNL A   1      36.147  31.309  31.952  1.00  0.00     0.022 A 
BRANCH  58  61
ATOM     61  S   UNL A   1      35.140  32.587  29.754  1.00  0.00     0.127 S 
ATOM     62  O   UNL A   1      34.639  31.653  28.745  1.00  0.00    -0.237 OA
ATOM     63  O   UNL A   1      34.196  32.882  30.831  1.00  0.00    -0.237 OA
ATOM     64  O   UNL A   1      35.849  33.747  29.232  1.00  0.00    -0.744 OA
ENDBRANCH  58  61
ENDBRANCH  40  54
BRANCH  41  65
ATOM     65  C   UNL A   1      46.766  27.272  26.052  1.00  0.00     0.023 A 
ATOM     66  C   UNL A   1      46.879  27.551  24.677  1.00  0.00     0.012 A 
ATOM     67  C   UNL A   1      47.824  26.610  26.708  1.00  0.00     0.148 A 
ATOM     68  C   UNL A   1      48.010  27.157  23.963  1.00  0.00     0.002 A 
ATOM     69  C   UNL A   1      48.976  26.278  26.005  1.00  0.00     0.091 A 
ATOM     70  F   UNL A   1      47.693  26.340  28.014  1.00  0.00    -0.205 F 
ATOM     71  C   UNL A   1      49.063  26.534  24.628  1.00  0.00     0.022 A 
BRANCH  69  72
ATOM     72  S   UNL A   1      50.436  25.607  26.808  1.00  0.00     0.127 S 
ATOM     73  O   UNL A   1      51.333  25.402  25.673  1.00  0.00    -0.237 OA
ATOM     74  O   UNL A   1      50.815  26.697  27.705  1.00  0.00    -0.237 OA
ATOM     75  O   UNL A   1      49.992  24.397  27.488  1.00  0.00    -0.744 OA
ENDBRANCH  69  72
ENDBRANCH  41  65
BRANCH  53  76
ATOM     76  C   UNL A   1      45.012  33.181  29.322  1.00  0.00     0.023 A 
ATOM     77  C   UNL A   1      45.833  33.324  30.459  1.00  0.00     0.012 A 
ATOM     78  C   UNL A   1      44.933  34.231  28.388  1.00  0.00     0.148 A 
ATOM     79  C   UNL A   1      46.534  34.507  30.680  1.00  0.00     0.002 A 
ATOM     80  C   UNL A   1      45.676  35.388  28.588  1.00  0.00     0.091 A 
ATOM     81  F   UNL A   1      44.131  34.083  27.324  1.00  0.00    -0.205 F 
ATOM     82  C   UNL A   1      46.466  35.533  29.741  1.00  0.00     0.022 A 
BRANCH  80  83
ATOM     83  S   UNL A   1      45.726  36.721  27.387  1.00  0.00     0.127 S 
ATOM     84  O   UNL A   1      46.778  37.577  27.934  1.00  0.00    -0.237 OA
ATOM     85  O   UNL A   1      46.091  36.016  26.158  1.00  0.00    -0.237 OA
ATOM     86  O   UNL A   1      44.392  37.305  27.375  1.00  0.00    -0.744 OA
ENDBRANCH  80  83
ENDBRANCH  53  76
ENDBRANCH  27  28
ENDBRANCH  20  22
ENDBRANCH  19  20
ENDBRANCH  18  19
ENDBRANCH   1  18
TORSDOF 17
ENDMDL
MODEL 2
REMARK VINA RESULT:     -11.2      1.657      1.964
REMARK SMILES CN(C)C(=O)CSc1ccc(C(=O)OCCOC(=O)c2ccc(-c3c4nc(c(-c5cccc(S(=O)(=O)[O-])c5F)c5ccc([nH]5)c(-c5cccc(S(=O)(=O)[O-])c5F)c5nc(c(-c6cccc(S(=O)(=O)[O-])c6F)c6ccc3[nH]6)C=C5)C=C4)cc2)cc1
REMARK SMILES IDX 15 1 14 2 12 3 13 4 11 5 8 6 9 7 84 8 10 9 83 10 7 11 6 12
REMARK SMILES IDX 4 13 1 14 2 15 3 16 5 17 16 18 17 19 18 20 19 21 20 22 21 23
REMARK SMILES IDX 82 24 22 25 81 26 23 27 24 28 25 29 75 30 26 31 80 32 74 33
REMARK SMILES IDX 76 34 27 35 79 36 73 37 72 38 28 40 60 41 40 42 59 43 41 44
REMARK SMILES IDX 44 45 58 46 77 47 42 48 43 49 57 51 78 52 45 53 29 54 30 55
REMARK SMILES IDX 38 56 31 57 33 58 39 59 32 60 34 61 35 62 36 63 37 64 61 65
REMARK SMILES IDX 62 66 70 67 63 68 65 69 71 70 64 71 66 72 67 73 68 74 69 75
REMARK SMILES IDX 46 76 47 77 55 78 48 79 50 80 56 81 49 82 51 83 52 84 53 85
REMARK SMILES IDX 54 86
REMARK H PARENT 76 39 44 50
REMARK Flexibility Score: inf
ROOT
ATOM      1  C   UNL A   1      35.242  21.503  24.784  1.00  0.00     0.275 C 
ENDROOT
BRANCH   1   2
ATOM      2  O   UNL A   1      35.035  22.660  25.626  1.00  0.00    -0.458 OA
BRANCH   2   3
ATOM      3  C   UNL A   1      33.754  22.854  26.024  1.00  0.00     0.338 C 
ATOM      4  O   UNL A   1      33.068  22.075  26.661  1.00  0.00    -0.246 OA
BRANCH   3   5
ATOM      5  C   UNL A   1      33.266  24.200  25.654  1.00  0.00     0.060 A 
ATOM      6  C   UNL A   1      32.677  26.916  25.145  1.00  0.00     0.008 A 
ATOM      7  C   UNL A   1      33.751  26.298  24.525  1.00  0.00     0.016 A 
ATOM      8  C   UNL A   1      31.839  26.123  25.955  1.00  0.00     0.016 A 
ATOM      9  C   UNL A   1      34.068  24.978  24.821  1.00  0.00     0.017 A 
ATOM     10  C   UNL A   1      32.117  24.765  26.197  1.00  0.00     0.017 A 
BRANCH   6  11
ATOM     11  S   UNL A   1      32.347  28.668  25.036  1.00  0.00    -0.116 SA
BRANCH  11  12
ATOM     12  C   UNL A   1      31.773  28.961  23.316  1.00  0.00     0.175 C 
BRANCH  12  13
ATOM     13  C   UNL A   1      30.350  28.513  22.993  1.00  0.00     0.232 C 
ATOM     14  C   UNL A   1      27.956  28.875  22.826  1.00  0.00     0.146 C 
ATOM     15  N   UNL A   1      29.278  29.371  23.184  1.00  0.00    -0.348 N 
ATOM     16  C   UNL A   1      29.378  30.731  23.675  1.00  0.00     0.146 C 
ATOM     17  O   UNL A   1      30.160  27.350  22.621  1.00  0.00    -0.274 OA
ENDBRANCH  12  13
ENDBRANCH  11  12
ENDBRANCH   6  11
ENDBRANCH   3   5
ENDBRANCH   2   3
ENDBRANCH   1   2
BRANCH   1  18
ATOM     18  C   UNL A   1      36.478  20.706  25.203  1.00  0.00     0.275 C 
BRANCH  18  19
ATOM     19  O   UNL A   1      37.687  21.444  24.945  1.00  0.00    -0.458 OA
BRANCH  19  20
ATOM     20  C   UNL A   1      38.745  21.083  25.703  1.00  0.00     0.338 C 
ATOM     21  O   UNL A   1      39.286  19.988  25.740  1.00  0.00    -0.246 OA
BRANCH  20  22
ATOM     22  C   UNL A   1      39.259  22.229  26.465  1.00  0.00     0.060 A 
ATOM     23  C   UNL A   1      38.740  23.482  26.180  1.00  0.00     0.016 A 
ATOM     24  C   UNL A   1      40.398  22.112  27.257  1.00  0.00     0.016 A 
ATOM     25  C   UNL A   1      39.470  24.624  26.492  1.00  0.00     0.010 A 
ATOM     26  C   UNL A   1      41.022  23.272  27.737  1.00  0.00     0.010 A 
ATOM     27  C   UNL A   1      40.606  24.547  27.308  1.00  0.00    -0.014 A 
BRANCH  27  28
ATOM     28  C   UNL A   1      41.334  25.791  27.714  1.00  0.00     0.031 A 
ATOM     29  C   UNL A   1      40.652  26.856  28.542  1.00  0.00     0.074 A 
ATOM     30  C   UNL A   1      42.612  25.984  27.320  1.00  0.00     0.049 A 
ATOM     31  N   UNL A   1      41.058  28.069  28.828  1.00  0.00    -0.248 NA
ATOM     32  C   UNL A   1      39.331  26.527  29.104  1.00  0.00     0.031 C 
ATOM     33  C   UNL A   1      43.408  25.045  26.523  1.00  0.00     0.029 A 
ATOM     34  N   UNL A   1      43.469  27.039  27.523  1.00  0.00    -0.354 N 
ATOM     35  C   UNL A   1      40.016  28.671  29.525  1.00  0.00     0.074 A 
ATOM     36  C   UNL A   1      38.957  27.689  29.624  1.00  0.00     0.031 C 
ATOM     37  C   UNL A   1      44.635  25.543  26.338  1.00  0.00     0.029 A 
ATOM     38  C   UNL A   1      44.687  26.884  26.898  1.00  0.00     0.049 A 
ATOM     39  H   UNL A   1      43.235  27.829  28.062  1.00  0.00     0.167 HD
ATOM     40  C   UNL A   1      39.946  29.924  30.041  1.00  0.00     0.034 A 
ATOM     41  C   UNL A   1      45.714  27.738  26.732  1.00  0.00     0.034 A 
ATOM     42  C   UNL A   1      41.030  30.872  30.001  1.00  0.00     0.049 A 
ATOM     43  C   UNL A   1      45.612  29.119  27.307  1.00  0.00     0.074 A 
ATOM     44  C   UNL A   1      41.078  32.145  30.545  1.00  0.00     0.029 A 
ATOM     45  N   UNL A   1      42.254  30.655  29.387  1.00  0.00    -0.354 N 
ATOM     46  N   UNL A   1      44.637  29.650  28.004  1.00  0.00    -0.248 NA
ATOM     47  C   UNL A   1      46.754  30.015  27.085  1.00  0.00     0.031 C 
ATOM     48  C   UNL A   1      42.318  32.710  30.229  1.00  0.00     0.029 A 
ATOM     49  C   UNL A   1      43.059  31.775  29.525  1.00  0.00     0.049 A 
ATOM     50  H   UNL A   1      42.514  29.828  28.923  1.00  0.00     0.167 HD
ATOM     51  C   UNL A   1      45.059  30.933  28.327  1.00  0.00     0.074 A 
ATOM     52  C   UNL A   1      46.388  31.088  27.772  1.00  0.00     0.031 C 
ATOM     53  C   UNL A   1      44.397  31.902  29.007  1.00  0.00     0.034 A 
BRANCH  40  54
ATOM     54  C   UNL A   1      38.657  30.349  30.702  1.00  0.00     0.023 A 
ATOM     55  C   UNL A   1      38.456  30.125  32.079  1.00  0.00     0.012 A 
ATOM     56  C   UNL A   1      37.666  31.032  29.966  1.00  0.00     0.148 A 
ATOM     57  C   UNL A   1      37.277  30.532  32.702  1.00  0.00     0.002 A 
ATOM     58  C   UNL A   1      36.514  31.478  30.604  1.00  0.00     0.091 A 
ATOM     59  F   UNL A   1      37.864  31.227  28.654  1.00  0.00    -0.205 F 
ATOM     60  C   UNL A   1      36.312  31.217  31.969  1.00  0.00     0.022 A 
BRANCH  58  61
ATOM     61  S   UNL A   1      35.249  32.442  29.766  1.00  0.00     0.127 S 
ATOM     62  O   UNL A   1      34.312  32.711  30.857  1.00  0.00    -0.237 OA
ATOM     63  O   UNL A   1      36.003  33.610  29.311  1.00  0.00    -0.237 OA
ATOM     64  O   UNL A   1      34.737  31.595  28.699  1.00  0.00    -0.744 OA
ENDBRANCH  58  61
ENDBRANCH  40  54
BRANCH  41  65
ATOM     65  C   UNL A   1      46.926  27.303  25.976  1.00  0.00     0.023 A 
ATOM     66  C   UNL A   1      47.854  26.441  26.589  1.00  0.00     0.012 A 
ATOM     67  C   UNL A   1      47.138  27.706  24.642  1.00  0.00     0.148 A 
ATOM     68  C   UNL A   1      48.985  26.008  25.897  1.00  0.00     0.002 A 
ATOM     69  C   UNL A   1      48.232  27.218  23.937  1.00  0.00     0.091 A 
ATOM     70  F   UNL A   1      46.250  28.538  24.079  1.00  0.00    -0.205 F 
ATOM     71  C   UNL A   1      49.167  26.385  24.568  1.00  0.00     0.022 A 
BRANCH  69  72
ATOM     72  S   UNL A   1      48.467  27.533  22.183  1.00  0.00     0.127 S 
ATOM     73  O   UNL A   1      47.206  28.176  21.824  1.00  0.00    -0.237 OA
ATOM     74  O   UNL A   1      49.631  28.419  22.190  1.00  0.00    -0.237 OA
ATOM     75  O   UNL A   1      48.708  26.231  21.577  1.00  0.00    -0.744 OA
ENDBRANCH  69  72
ENDBRANCH  41  65
BRANCH  53  76
ATOM     76  C   UNL A   1      45.118  33.206  29.229  1.00  0.00     0.023 A 
ATOM     77  C   UNL A   1      45.968  33.361  30.342  1.00  0.00     0.012 A 
ATOM     78  C   UNL A   1      44.993  34.257  28.301  1.00  0.00     0.148 A 
ATOM     79  C   UNL A   1      46.653  34.556  30.548  1.00  0.00     0.002 A 
ATOM     80  C   UNL A   1      45.720  35.427  28.484  1.00  0.00     0.091 A 
ATOM     81  F   UNL A   1      44.164  34.098  27.259  1.00  0.00    -0.205 F 
ATOM     82  C   UNL A   1      46.539  35.584  29.614  1.00  0.00     0.022 A 
BRANCH  80  83
ATOM     83  S   UNL A   1      45.712  36.765  27.286  1.00  0.00     0.127 S 
ATOM     84  O   UNL A   1      46.381  37.833  28.026  1.00  0.00    -0.237 OA
ATOM     85  O   UNL A   1      46.496  36.201  26.187  1.00  0.00    -0.237 OA
ATOM     86  O   UNL A   1      44.313  37.011  26.965  1.00  0.00    -0.744 OA
ENDBRANCH  80  83
ENDBRANCH  53  76
ENDBRANCH  27  28
ENDBRANCH  20  22
ENDBRANCH  19  20
ENDBRANCH  18  19
ENDBRANCH   1  18
TORSDOF 17
ENDMDL
MODEL 3
REMARK VINA RESULT:     -11.1      1.360      8.162
REMARK SMILES CN(C)C(=O)CSc1ccc(C(=O)OCCOC(=O)c2ccc(-c3c4nc(c(-c5cccc(S(=O)(=O)[O-])c5F)c5ccc([nH]5)c(-c5cccc(S(=O)(=O)[O-])c5F)c5nc(c(-c6cccc(S(=O)(=O)[O-])c6F)c6ccc3[nH]6)C=C5)C=C4)cc2)cc1
REMARK SMILES IDX 15 1 14 2 12 3 13 4 11 5 8 6 9 7 84 8 10 9 83 10 7 11 6 12
REMARK SMILES IDX 4 13 1 14 2 15 3 16 5 17 16 18 17 19 18 20 19 21 20 22 21 23
REMARK SMILES IDX 82 24 22 25 81 26 23 27 24 28 25 29 75 30 26 31 80 32 74 33
REMARK SMILES IDX 76 34 27 35 79 36 73 37 72 38 28 40 60 41 40 42 59 43 41 44
REMARK SMILES IDX 44 45 58 46 77 47 42 48 43 49 57 51 78 52 45 53 29 54 30 55
REMARK SMILES IDX 38 56 31 57 33 58 39 59 32 60 34 61 35 62 36 63 37 64 61 65
REMARK SMILES IDX 62 66 70 67 63 68 65 69 71 70 64 71 66 72 67 73 68 74 69 75
REMARK SMILES IDX 46 76 47 77 55 78 48 79 50 80 56 81 49 82 51 83 52 84 53 85
REMARK SMILES IDX 54 86
REMARK H PARENT 76 39 44 50
REMARK Flexibility Score: inf
ROOT
ATOM      1  C   UNL A   1      35.491  20.691  25.185  1.00  0.00     0.275 C 
ENDROOT
BRANCH   1   2
ATOM      2  O   UNL A   1      35.510  21.932  25.928  1.00  0.00    -0.458 OA
BRANCH   2   3
ATOM      3  C   UNL A   1      34.416  22.154  26.696  1.00  0.00     0.338 C 
ATOM      4  O   UNL A   1      34.023  21.460  27.616  1.00  0.00    -0.246 OA
BRANCH   3   5
ATOM      5  C   UNL A   1      33.748  23.424  26.337  1.00  0.00     0.060 A 
ATOM      6  C   UNL A   1      32.733  26.029  25.927  1.00  0.00     0.008 A 
ATOM      7  C   UNL A   1      34.009  25.693  25.504  1.00  0.00     0.016 A 
ATOM      8  C   UNL A   1      31.932  25.007  26.476  1.00  0.00     0.016 A 
ATOM      9  C   UNL A   1      34.522  24.426  25.756  1.00  0.00     0.017 A 
ATOM     10  C   UNL A   1      32.426  23.703  26.665  1.00  0.00     0.017 A 
BRANCH   6  11
ATOM     11  S   UNL A   1      32.086  27.693  25.888  1.00  0.00    -0.116 SA
BRANCH  11  12
ATOM     12  C   UNL A   1      31.196  27.844  24.288  1.00  0.00     0.175 C 
BRANCH  12  13
ATOM     13  C   UNL A   1      31.473  26.753  23.255  1.00  0.00     0.232 C 
ATOM     14  C   UNL A   1      32.763  25.758  21.457  1.00  0.00     0.146 C 
ATOM     15  N   UNL A   1      32.553  26.855  22.393  1.00  0.00    -0.348 N 
ATOM     16  C   UNL A   1      33.506  27.947  22.376  1.00  0.00     0.146 C 
ATOM     17  O   UNL A   1      30.682  25.809  23.156  1.00  0.00    -0.274 OA
ENDBRANCH  12  13
ENDBRANCH  11  12
ENDBRANCH   6  11
ENDBRANCH   3   5
ENDBRANCH   2   3
ENDBRANCH   1   2
BRANCH   1  18
ATOM     18  C   UNL A   1      36.895  20.112  25.004  1.00  0.00     0.275 C 
BRANCH  18  19
ATOM     19  O   UNL A   1      37.891  21.151  25.000  1.00  0.00    -0.458 OA
BRANCH  19  20
ATOM     20  C   UNL A   1      38.924  20.950  25.848  1.00  0.00     0.338 C 
ATOM     21  O   UNL A   1      39.520  19.903  26.047  1.00  0.00    -0.246 OA
BRANCH  20  22
ATOM     22  C   UNL A   1      39.331  22.210  26.485  1.00  0.00     0.060 A 
ATOM     23  C   UNL A   1      38.660  23.367  26.120  1.00  0.00     0.016 A 
ATOM     24  C   UNL A   1      40.505  22.292  27.227  1.00  0.00     0.016 A 
ATOM     25  C   UNL A   1      39.265  24.607  26.299  1.00  0.00     0.010 A 
ATOM     26  C   UNL A   1      41.009  23.553  27.577  1.00  0.00     0.010 A 
ATOM     27  C   UNL A   1      40.433  24.730  27.062  1.00  0.00    -0.014 A 
BRANCH  27  28
ATOM     28  C   UNL A   1      41.028  26.078  27.326  1.00  0.00     0.031 A 
ATOM     29  C   UNL A   1      42.418  26.423  26.841  1.00  0.00     0.074 A 
ATOM     30  C   UNL A   1      40.330  26.998  28.027  1.00  0.00     0.049 A 
ATOM     31  N   UNL A   1      43.162  27.462  27.133  1.00  0.00    -0.248 NA
ATOM     32  C   UNL A   1      43.068  25.469  25.928  1.00  0.00     0.031 C 
ATOM     33  C   UNL A   1      38.975  26.816  28.556  1.00  0.00     0.029 A 
ATOM     34  N   UNL A   1      40.663  28.269  28.430  1.00  0.00    -0.354 N 
ATOM     35  C   UNL A   1      44.389  27.245  26.513  1.00  0.00     0.074 A 
ATOM     36  C   UNL A   1      44.289  25.977  25.823  1.00  0.00     0.031 C 
ATOM     37  C   UNL A   1      38.581  27.935  29.175  1.00  0.00     0.029 A 
ATOM     38  C   UNL A   1      39.691  28.875  29.194  1.00  0.00     0.049 A 
ATOM     39  H   UNL A   1      41.515  28.704  28.196  1.00  0.00     0.167 HD
ATOM     40  C   UNL A   1      45.494  28.031  26.511  1.00  0.00     0.034 A 
ATOM     41  C   UNL A   1      39.697  30.029  29.888  1.00  0.00     0.034 A 
ATOM     42  C   UNL A   1      45.563  29.326  27.140  1.00  0.00     0.049 A 
ATOM     43  C   UNL A   1      40.933  30.877  29.875  1.00  0.00     0.074 A 
ATOM     44  C   UNL A   1      46.618  30.223  27.147  1.00  0.00     0.029 A 
ATOM     45  N   UNL A   1      44.540  29.910  27.871  1.00  0.00    -0.354 N 
ATOM     46  N   UNL A   1      42.063  30.677  29.243  1.00  0.00    -0.248 NA
ATOM     47  C   UNL A   1      40.893  32.118  30.660  1.00  0.00     0.031 C 
ATOM     48  C   UNL A   1      46.245  31.333  27.911  1.00  0.00     0.029 A 
ATOM     49  C   UNL A   1      44.943  31.147  28.346  1.00  0.00     0.049 A 
ATOM     50  H   UNL A   1      43.657  29.505  28.029  1.00  0.00     0.167 HD
ATOM     51  C   UNL A   1      42.859  31.777  29.531  1.00  0.00     0.074 A 
ATOM     52  C   UNL A   1      42.071  32.654  30.374  1.00  0.00     0.031 C 
ATOM     53  C   UNL A   1      44.135  32.031  29.147  1.00  0.00     0.034 A 
BRANCH  40  54
ATOM     54  C   UNL A   1      46.727  27.522  25.803  1.00  0.00     0.023 A 
ATOM     55  C   UNL A   1      46.910  27.771  24.428  1.00  0.00     0.012 A 
ATOM     56  C   UNL A   1      47.737  26.847  26.520  1.00  0.00     0.148 A 
ATOM     57  C   UNL A   1      48.055  27.321  23.770  1.00  0.00     0.002 A 
ATOM     58  C   UNL A   1      48.897  26.444  25.867  1.00  0.00     0.091 A 
ATOM     59  F   UNL A   1      47.544  26.605  27.824  1.00  0.00    -0.205 F 
ATOM     60  C   UNL A   1      49.052  26.668  24.490  1.00  0.00     0.022 A 
BRANCH  58  61
ATOM     61  S   UNL A   1      50.276  25.670  26.724  1.00  0.00     0.127 S 
ATOM     62  O   UNL A   1      50.599  26.678  27.733  1.00  0.00    -0.237 OA
ATOM     63  O   UNL A   1      49.663  24.452  27.254  1.00  0.00    -0.237 OA
ATOM     64  O   UNL A   1      51.302  25.446  25.716  1.00  0.00    -0.744 OA
ENDBRANCH  58  61
ENDBRANCH  40  54
BRANCH  41  65
ATOM     65  C   UNL A   1      38.488  30.436  30.661  1.00  0.00     0.023 A 
ATOM     66  C   UNL A   1      38.400  30.121  32.030  1.00  0.00     0.012 A 
ATOM     67  C   UNL A   1      37.447  31.170  30.057  1.00  0.00     0.148 A 
ATOM     68  C   UNL A   1      37.287  30.506  32.777  1.00  0.00     0.002 A 
ATOM     69  C   UNL A   1      36.372  31.607  30.822  1.00  0.00     0.091 A 
ATOM     70  F   UNL A   1      37.540  31.449  28.749  1.00  0.00    -0.205 F 
ATOM     71  C   UNL A   1      36.281  31.260  32.178  1.00  0.00     0.022 A 
BRANCH  69  72
ATOM     72  S   UNL A   1      35.106  32.703  30.170  1.00  0.00     0.127 S 
ATOM     73  O   UNL A   1      34.247  32.893  31.336  1.00  0.00    -0.237 OA
ATOM     74  O   UNL A   1      35.891  33.875  29.785  1.00  0.00    -0.237 OA
ATOM     75  O   UNL A   1      34.505  31.990  29.051  1.00  0.00    -0.744 OA
ENDBRANCH  69  72
ENDBRANCH  41  65
BRANCH  53  76
ATOM     76  C   UNL A   1      44.747  33.331  29.598  1.00  0.00     0.023 A 
ATOM     77  C   UNL A   1      45.505  33.378  30.784  1.00  0.00     0.012 A 
ATOM     78  C   UNL A   1      44.613  34.493  28.814  1.00  0.00     0.148 A 
ATOM     79  C   UNL A   1      46.091  34.572  31.203  1.00  0.00     0.002 A 
ATOM     80  C   UNL A   1      45.244  35.666  29.210  1.00  0.00     0.091 A 
ATOM     81  F   UNL A   1      43.871  34.432  27.699  1.00  0.00    -0.205 F 
ATOM     82  C   UNL A   1      45.971  35.711  30.410  1.00  0.00     0.022 A 
BRANCH  80  83
ATOM     83  S   UNL A   1      45.225  37.156  28.207  1.00  0.00     0.127 S 
ATOM     84  O   UNL A   1      43.805  37.502  28.213  1.00  0.00    -0.237 OA
ATOM     85  O   UNL A   1      46.076  38.060  28.981  1.00  0.00    -0.237 OA
ATOM     86  O   UNL A   1      45.769  36.777  26.910  1.00  0.00    -0.744 OA
ENDBRANCH  80  83
ENDBRANCH  53  76
ENDBRANCH  27  28
ENDBRANCH  20  22
ENDBRANCH  19  20
ENDBRANCH  18  19
ENDBRANCH   1  18
TORSDOF 17
ENDMDL
