MODEL 1
REMARK VINA RESULT:     -12.3      0.000      0.000
REMARK SMILES Cc1ccc(C(C)(C)C)c(OCC(=O)c2nc(C)c(C(=O)OCCOC(=O)c3ccc(-c4c5nc(c(-c6cccc(S(=O)(=O)[O-])c6F)c6ccc([nH]6)c(-c6cccc(S(=O)(=O)[O-])c6F)c6nc(c(-c7cccc(S(=O)(=O)[O-])c7F)c7ccc4[nH]7)C=C6)C=C5)cc3)s2)c1
REMARK SMILES IDX 23 1 22 2 20 3 21 4 19 5 15 6 16 7 91 8 17 9 18 10 13 11
REMARK SMILES IDX 14 12 12 13 11 14 10 15 1 16 2 17 3 18 92 19 4 20 5 21 6 22
REMARK SMILES IDX 7 23 8 24 9 25 24 26 25 27 26 28 27 29 28 30 29 31 90 32
REMARK SMILES IDX 30 33 89 34 31 35 32 36 33 37 83 38 34 39 88 40 82 41 84 42
REMARK SMILES IDX 35 43 87 44 81 45 80 46 36 48 68 49 48 50 67 51 49 52 52 53
REMARK SMILES IDX 66 54 85 55 50 56 51 57 65 59 86 60 53 61 37 62 38 63 46 64
REMARK SMILES IDX 39 65 41 66 47 67 40 68 42 69 43 70 44 71 45 72 69 73 70 74
REMARK SMILES IDX 78 75 71 76 73 77 79 78 72 79 74 80 75 81 76 82 77 83 54 84
REMARK SMILES IDX 55 85 63 86 56 87 58 88 64 89 57 90 59 91 60 92 61 93 62 94
REMARK H PARENT 84 47 52 58
REMARK Flexibility Score: inf
ROOT
ATOM      1  C   UNL A   1      36.910  20.875  25.317  1.00  0.00     0.275 C 
ENDROOT
BRANCH   1   2
ATOM      2  O   UNL A   1      36.056  21.628  24.458  1.00  0.00    -0.458 OA
BRANCH   2   3
ATOM      3  C   UNL A   1      34.714  21.556  24.678  1.00  0.00     0.350 C 
ATOM      4  O   UNL A   1      34.191  20.824  25.495  1.00  0.00    -0.245 OA
BRANCH   3   5
ATOM      5  C   UNL A   1      34.056  22.462  23.767  1.00  0.00     0.136 A 
ATOM      6  C   UNL A   1      33.331  24.419  22.520  1.00  0.00     0.164 A 
ATOM      7  N   UNL A   1      32.558  23.384  22.246  1.00  0.00    -0.237 NA
ATOM      8  S   UNL A   1      34.647  24.061  23.562  1.00  0.00    -0.103 S 
ATOM      9  C   UNL A   1      32.938  22.270  22.974  1.00  0.00     0.064 A 
ATOM     10  C   UNL A   1      32.156  21.016  22.786  1.00  0.00     0.068 C 
BRANCH   6  11
ATOM     11  C   UNL A   1      33.141  25.709  21.856  1.00  0.00     0.228 C 
ATOM     12  O   UNL A   1      33.191  25.833  20.623  1.00  0.00    -0.288 OA
BRANCH  11  13
ATOM     13  C   UNL A   1      33.002  26.991  22.695  1.00  0.00     0.313 C 
BRANCH  13  14
ATOM     14  O   UNL A   1      31.914  27.138  23.585  1.00  0.00    -0.485 OA
BRANCH  14  15
ATOM     15  C   UNL A   1      31.949  28.132  24.531  1.00  0.00     0.123 A 
ATOM     16  C   UNL A   1      34.035  29.173  27.580  1.00  0.00     0.044 C 
ATOM     17  C   UNL A   1      32.994  29.177  26.500  1.00  0.00    -0.047 A 
ATOM     18  C   UNL A   1      32.198  30.295  26.311  1.00  0.00     0.004 A 
ATOM     19  C   UNL A   1      32.873  28.111  25.600  1.00  0.00     0.050 A 
ATOM     20  C   UNL A   1      31.261  30.318  25.277  1.00  0.00     0.008 A 
ATOM     21  C   UNL A   1      31.081  29.241  24.372  1.00  0.00    -0.000 A 
BRANCH  21  22
ATOM     22  C   UNL A   1      29.972  29.404  23.300  1.00  0.00    -0.010 C 
ATOM     23  C   UNL A   1      30.637  29.641  21.918  1.00  0.00     0.016 C 
ATOM     24  C   UNL A   1      29.098  28.138  23.169  1.00  0.00     0.016 C 
ATOM     25  C   UNL A   1      28.991  30.575  23.518  1.00  0.00     0.016 C 
ENDBRANCH  21  22
ENDBRANCH  14  15
ENDBRANCH  13  14
ENDBRANCH  11  13
ENDBRANCH   6  11
ENDBRANCH   3   5
ENDBRANCH   2   3
ENDBRANCH   1   2
BRANCH   1  26
ATOM     26  C   UNL A   1      38.374  21.337  25.457  1.00  0.00     0.275 C 
BRANCH  26  27
ATOM     27  O   UNL A   1      38.708  22.540  26.203  1.00  0.00    -0.458 OA
BRANCH  27  28
ATOM     28  C   UNL A   1      39.895  22.999  26.685  1.00  0.00     0.338 C 
ATOM     29  O   UNL A   1      40.914  22.324  26.627  1.00  0.00    -0.246 OA
BRANCH  28  30
ATOM     30  C   UNL A   1      39.933  24.374  27.195  1.00  0.00     0.060 A 
ATOM     31  C   UNL A   1      40.435  25.418  26.401  1.00  0.00     0.016 A 
ATOM     32  C   UNL A   1      39.397  24.630  28.443  1.00  0.00     0.016 A 
ATOM     33  C   UNL A   1      40.332  26.742  26.837  1.00  0.00     0.010 A 
ATOM     34  C   UNL A   1      39.134  25.928  28.789  1.00  0.00     0.010 A 
ATOM     35  C   UNL A   1      39.687  26.986  28.042  1.00  0.00    -0.014 A 
BRANCH  35  36
ATOM     36  C   UNL A   1      39.799  28.215  28.818  1.00  0.00     0.031 A 
ATOM     37  C   UNL A   1      38.969  29.410  28.656  1.00  0.00     0.074 A 
ATOM     38  C   UNL A   1      40.602  28.066  29.897  1.00  0.00     0.049 A 
ATOM     39  N   UNL A   1      39.243  30.516  29.259  1.00  0.00    -0.248 NA
ATOM     40  C   UNL A   1      37.792  29.499  27.805  1.00  0.00     0.031 C 
ATOM     41  C   UNL A   1      40.582  28.741  31.177  1.00  0.00     0.029 A 
ATOM     42  N   UNL A   1      41.682  27.182  29.995  1.00  0.00    -0.354 N 
ATOM     43  C   UNL A   1      38.142  31.329  29.149  1.00  0.00     0.074 A 
ATOM     44  C   UNL A   1      37.347  30.727  28.106  1.00  0.00     0.031 C 
ATOM     45  C   UNL A   1      41.698  28.410  31.852  1.00  0.00     0.029 A 
ATOM     46  C   UNL A   1      42.572  27.690  30.936  1.00  0.00     0.049 A 
ATOM     47  H   UNL A   1      41.792  26.345  29.486  1.00  0.00     0.167 HD
ATOM     48  C   UNL A   1      37.976  32.307  30.083  1.00  0.00     0.034 A 
ATOM     49  C   UNL A   1      43.870  27.990  30.630  1.00  0.00     0.034 A 
ATOM     50  C   UNL A   1      39.176  32.419  30.938  1.00  0.00     0.049 A 
ATOM     51  C   UNL A   1      44.126  29.482  30.797  1.00  0.00     0.074 A 
ATOM     52  C   UNL A   1      39.443  32.022  32.237  1.00  0.00     0.029 A 
ATOM     53  N   UNL A   1      40.405  32.758  30.373  1.00  0.00    -0.354 N 
ATOM     54  N   UNL A   1      43.219  30.354  31.136  1.00  0.00    -0.248 NA
ATOM     55  C   UNL A   1      45.409  30.112  30.498  1.00  0.00     0.031 C 
ATOM     56  C   UNL A   1      40.856  32.015  32.410  1.00  0.00     0.029 A 
ATOM     57  C   UNL A   1      41.450  32.466  31.242  1.00  0.00     0.049 A 
ATOM     58  H   UNL A   1      40.519  33.152  29.478  1.00  0.00     0.167 HD
ATOM     59  C   UNL A   1      43.679  31.616  30.880  1.00  0.00     0.074 A 
ATOM     60  C   UNL A   1      45.090  31.414  30.592  1.00  0.00     0.031 C 
ATOM     61  C   UNL A   1      42.840  32.699  30.835  1.00  0.00     0.034 A 
BRANCH  48  62
ATOM     62  C   UNL A   1      36.677  33.030  30.422  1.00  0.00     0.023 A 
ATOM     63  C   UNL A   1      36.263  32.992  31.775  1.00  0.00     0.012 A 
ATOM     64  C   UNL A   1      35.771  33.647  29.522  1.00  0.00     0.148 A 
ATOM     65  C   UNL A   1      35.029  33.497  32.206  1.00  0.00     0.002 A 
ATOM     66  C   UNL A   1      34.564  34.208  29.962  1.00  0.00     0.091 A 
ATOM     67  F   UNL A   1      36.009  33.631  28.210  1.00  0.00    -0.205 F 
ATOM     68  C   UNL A   1      34.182  34.118  31.301  1.00  0.00     0.022 A 
BRANCH  66  69
ATOM     69  S   UNL A   1      33.435  35.074  28.851  1.00  0.00     0.127 S 
ATOM     70  O   UNL A   1      32.562  35.780  29.790  1.00  0.00    -0.237 OA
ATOM     71  O   UNL A   1      34.338  35.941  28.094  1.00  0.00    -0.237 OA
ATOM     72  O   UNL A   1      32.779  34.047  28.051  1.00  0.00    -0.744 OA
ENDBRANCH  66  69
ENDBRANCH  48  62
BRANCH  49  73
ATOM     73  C   UNL A   1      44.398  27.189  29.467  1.00  0.00     0.023 A 
ATOM     74  C   UNL A   1      44.366  25.772  29.548  1.00  0.00     0.012 A 
ATOM     75  C   UNL A   1      44.391  27.784  28.200  1.00  0.00     0.148 A 
ATOM     76  C   UNL A   1      44.125  24.998  28.407  1.00  0.00     0.002 A 
ATOM     77  C   UNL A   1      44.080  27.020  27.088  1.00  0.00     0.091 A 
ATOM     78  F   UNL A   1      44.569  29.105  28.088  1.00  0.00    -0.205 F 
ATOM     79  C   UNL A   1      43.920  25.632  27.185  1.00  0.00     0.022 A 
BRANCH  77  80
ATOM     80  S   UNL A   1      43.655  27.895  25.583  1.00  0.00     0.127 S 
ATOM     81  O   UNL A   1      44.967  28.252  25.053  1.00  0.00    -0.237 OA
ATOM     82  O   UNL A   1      42.961  26.900  24.780  1.00  0.00    -0.237 OA
ATOM     83  O   UNL A   1      42.849  28.985  26.125  1.00  0.00    -0.744 OA
ENDBRANCH  77  80
ENDBRANCH  49  73
BRANCH  61  84
ATOM     84  C   UNL A   1      43.256  34.091  30.402  1.00  0.00     0.023 A 
ATOM     85  C   UNL A   1      43.556  35.118  31.316  1.00  0.00     0.012 A 
ATOM     86  C   UNL A   1      43.466  34.382  29.030  1.00  0.00     0.148 A 
ATOM     87  C   UNL A   1      43.942  36.396  30.895  1.00  0.00     0.002 A 
ATOM     88  C   UNL A   1      43.971  35.615  28.625  1.00  0.00     0.091 A 
ATOM     89  F   UNL A   1      43.151  33.473  28.095  1.00  0.00    -0.205 F 
ATOM     90  C   UNL A   1      44.167  36.640  29.549  1.00  0.00     0.022 A 
BRANCH  88  91
ATOM     91  S   UNL A   1      44.521  35.863  26.933  1.00  0.00     0.127 S 
ATOM     92  O   UNL A   1      45.101  37.202  26.990  1.00  0.00    -0.237 OA
ATOM     93  O   UNL A   1      45.498  34.786  26.753  1.00  0.00    -0.237 OA
ATOM     94  O   UNL A   1      43.319  35.713  26.122  1.00  0.00    -0.744 OA
ENDBRANCH  88  91
ENDBRANCH  61  84
ENDBRANCH  35  36
ENDBRANCH  28  30
ENDBRANCH  27  28
ENDBRANCH  26  27
ENDBRANCH   1  26
TORSDOF 19
ENDMDL
MODEL 2
REMARK VINA RESULT:     -12.2      4.462     10.121
REMARK SMILES Cc1ccc(C(C)(C)C)c(OCC(=O)c2nc(C)c(C(=O)OCCOC(=O)c3ccc(-c4c5nc(c(-c6cccc(S(=O)(=O)[O-])c6F)c6ccc([nH]6)c(-c6cccc(S(=O)(=O)[O-])c6F)c6nc(c(-c7cccc(S(=O)(=O)[O-])c7F)c7ccc4[nH]7)C=C6)C=C5)cc3)s2)c1
REMARK SMILES IDX 23 1 22 2 20 3 21 4 19 5 15 6 16 7 91 8 17 9 18 10 13 11
REMARK SMILES IDX 14 12 12 13 11 14 10 15 1 16 2 17 3 18 92 19 4 20 5 21 6 22
REMARK SMILES IDX 7 23 8 24 9 25 24 26 25 27 26 28 27 29 28 30 29 31 90 32
REMARK SMILES IDX 30 33 89 34 31 35 32 36 33 37 83 38 34 39 88 40 82 41 84 42
REMARK SMILES IDX 35 43 87 44 81 45 80 46 36 48 68 49 48 50 67 51 49 52 52 53
REMARK SMILES IDX 66 54 85 55 50 56 51 57 65 59 86 60 53 61 37 62 38 63 46 64
REMARK SMILES IDX 39 65 41 66 47 67 40 68 42 69 43 70 44 71 45 72 69 73 70 74
REMARK SMILES IDX 78 75 71 76 73 77 79 78 72 79 74 80 75 81 76 82 77 83 54 84
REMARK SMILES IDX 55 85 63 86 56 87 58 88 64 89 57 90 59 91 60 92 61 93 62 94
REMARK H PARENT 84 47 52 58
REMARK Flexibility Score: inf
ROOT
ATOM      1  C   UNL A   1      32.800  36.045  29.951  1.00  0.00     0.275 C 
ENDROOT
BRANCH   1   2
ATOM      2  O   UNL A   1      33.125  34.756  29.435  1.00  0.00    -0.458 OA
BRANCH   2   3
ATOM      3  C   UNL A   1      34.114  34.678  28.503  1.00  0.00     0.350 C 
ATOM      4  O   UNL A   1      34.779  35.623  28.126  1.00  0.00    -0.245 OA
BRANCH   3   5
ATOM      5  C   UNL A   1      34.198  33.312  28.042  1.00  0.00     0.136 A 
ATOM      6  C   UNL A   1      33.697  31.069  27.249  1.00  0.00     0.164 A 
ATOM      7  N   UNL A   1      34.978  31.178  27.550  1.00  0.00    -0.237 NA
ATOM      8  S   UNL A   1      32.810  32.531  27.399  1.00  0.00    -0.103 S 
ATOM      9  C   UNL A   1      35.273  32.440  28.035  1.00  0.00     0.064 A 
ATOM     10  C   UNL A   1      36.681  32.722  28.430  1.00  0.00     0.068 C 
BRANCH   6  11
ATOM     11  C   UNL A   1      33.146  29.832  26.696  1.00  0.00     0.228 C 
ATOM     12  O   UNL A   1      33.799  28.778  26.654  1.00  0.00    -0.288 OA
BRANCH  11  13
ATOM     13  C   UNL A   1      31.765  29.841  26.018  1.00  0.00     0.313 C 
BRANCH  13  14
ATOM     14  O   UNL A   1      31.636  29.427  24.674  1.00  0.00    -0.485 OA
BRANCH  14  15
ATOM     15  C   UNL A   1      30.903  28.303  24.383  1.00  0.00     0.123 A 
ATOM     16  C   UNL A   1      30.834  24.569  25.266  1.00  0.00     0.044 C 
ATOM     17  C   UNL A   1      30.467  25.898  24.677  1.00  0.00    -0.047 A 
ATOM     18  C   UNL A   1      29.260  26.051  24.014  1.00  0.00     0.004 A 
ATOM     19  C   UNL A   1      31.272  27.028  24.868  1.00  0.00     0.050 A 
ATOM     20  C   UNL A   1      28.896  27.299  23.504  1.00  0.00     0.008 A 
ATOM     21  C   UNL A   1      29.705  28.456  23.643  1.00  0.00    -0.000 A 
BRANCH  21  22
ATOM     22  C   UNL A   1      29.179  29.760  22.989  1.00  0.00    -0.010 C 
ATOM     23  C   UNL A   1      30.034  30.075  21.733  1.00  0.00     0.016 C 
ATOM     24  C   UNL A   1      27.716  29.627  22.517  1.00  0.00     0.016 C 
ATOM     25  C   UNL A   1      29.225  31.023  23.875  1.00  0.00     0.016 C 
ENDBRANCH  21  22
ENDBRANCH  14  15
ENDBRANCH  13  14
ENDBRANCH  11  13
ENDBRANCH   6  11
ENDBRANCH   3   5
ENDBRANCH   2   3
ENDBRANCH   1   2
BRANCH   1  26
ATOM     26  C   UNL A   1      32.139  36.114  31.342  1.00  0.00     0.275 C 
BRANCH  26  27
ATOM     27  O   UNL A   1      32.830  35.619  32.522  1.00  0.00    -0.458 OA
BRANCH  27  28
ATOM     28  C   UNL A   1      34.063  35.898  33.024  1.00  0.00     0.338 C 
ATOM     29  O   UNL A   1      34.303  36.960  33.582  1.00  0.00    -0.246 OA
BRANCH  28  30
ATOM     30  C   UNL A   1      35.077  34.839  32.958  1.00  0.00     0.060 A 
ATOM     31  C   UNL A   1      35.066  33.779  33.879  1.00  0.00     0.016 A 
ATOM     32  C   UNL A   1      35.996  34.869  31.926  1.00  0.00     0.016 A 
ATOM     33  C   UNL A   1      35.943  32.702  33.719  1.00  0.00     0.010 A 
ATOM     34  C   UNL A   1      36.725  33.740  31.665  1.00  0.00     0.010 A 
ATOM     35  C   UNL A   1      36.778  32.697  32.610  1.00  0.00    -0.014 A 
BRANCH  35  36
ATOM     36  C   UNL A   1      37.977  31.880  32.467  1.00  0.00     0.031 A 
ATOM     37  C   UNL A   1      38.061  30.598  31.765  1.00  0.00     0.074 A 
ATOM     38  C   UNL A   1      39.095  32.542  32.846  1.00  0.00     0.049 A 
ATOM     39  N   UNL A   1      39.111  29.853  31.832  1.00  0.00    -0.248 NA
ATOM     40  C   UNL A   1      36.999  30.019  30.956  1.00  0.00     0.031 C 
ATOM     41  C   UNL A   1      40.462  32.398  32.396  1.00  0.00     0.029 A 
ATOM     42  N   UNL A   1      39.157  33.553  33.810  1.00  0.00    -0.354 N 
ATOM     43  C   UNL A   1      39.002  28.898  30.850  1.00  0.00     0.074 A 
ATOM     44  C   UNL A   1      37.615  28.939  30.455  1.00  0.00     0.031 C 
ATOM     45  C   UNL A   1      41.257  33.124  33.204  1.00  0.00     0.029 A 
ATOM     46  C   UNL A   1      40.449  33.576  34.329  1.00  0.00     0.049 A 
ATOM     47  H   UNL A   1      38.417  34.146  34.076  1.00  0.00     0.167 HD
ATOM     48  C   UNL A   1      40.149  28.327  30.389  1.00  0.00     0.034 A 
ATOM     49  C   UNL A   1      40.708  33.386  35.658  1.00  0.00     0.034 A 
ATOM     50  C   UNL A   1      41.303  28.727  31.221  1.00  0.00     0.049 A 
ATOM     51  C   UNL A   1      41.532  32.123  35.865  1.00  0.00     0.074 A 
ATOM     52  C   UNL A   1      42.344  29.615  31.017  1.00  0.00     0.029 A 
ATOM     53  N   UNL A   1      41.333  28.395  32.576  1.00  0.00    -0.354 N 
ATOM     54  N   UNL A   1      41.894  31.312  34.912  1.00  0.00    -0.248 NA
ATOM     55  C   UNL A   1      41.925  31.632  37.183  1.00  0.00     0.031 C 
ATOM     56  C   UNL A   1      42.929  29.903  32.283  1.00  0.00     0.029 A 
ATOM     57  C   UNL A   1      42.288  29.147  33.250  1.00  0.00     0.049 A 
ATOM     58  H   UNL A   1      40.757  27.718  32.998  1.00  0.00     0.167 HD
ATOM     59  C   UNL A   1      42.324  30.132  35.453  1.00  0.00     0.074 A 
ATOM     60  C   UNL A   1      42.433  30.426  36.873  1.00  0.00     0.031 C 
ATOM     61  C   UNL A   1      42.462  28.995  34.699  1.00  0.00     0.034 A 
BRANCH  48  62
ATOM     62  C   UNL A   1      40.330  27.592  29.064  1.00  0.00     0.023 A 
ATOM     63  C   UNL A   1      39.576  26.407  28.887  1.00  0.00     0.012 A 
ATOM     64  C   UNL A   1      41.249  27.894  28.028  1.00  0.00     0.148 A 
ATOM     65  C   UNL A   1      39.738  25.563  27.780  1.00  0.00     0.002 A 
ATOM     66  C   UNL A   1      41.369  27.083  26.891  1.00  0.00     0.091 A 
ATOM     67  F   UNL A   1      42.091  28.921  28.151  1.00  0.00    -0.205 F 
ATOM     68  C   UNL A   1      40.627  25.906  26.774  1.00  0.00     0.022 A 
BRANCH  66  69
ATOM     69  S   UNL A   1      42.468  27.491  25.518  1.00  0.00     0.127 S 
ATOM     70  O   UNL A   1      42.281  26.348  24.624  1.00  0.00    -0.237 OA
ATOM     71  O   UNL A   1      41.904  28.748  25.024  1.00  0.00    -0.237 OA
ATOM     72  O   UNL A   1      43.804  27.618  26.088  1.00  0.00    -0.744 OA
ENDBRANCH  66  69
ENDBRANCH  48  62
BRANCH  49  73
ATOM     73  C   UNL A   1      39.547  33.767  36.541  1.00  0.00     0.023 A 
ATOM     74  C   UNL A   1      38.698  32.739  37.028  1.00  0.00     0.012 A 
ATOM     75  C   UNL A   1      39.639  34.957  37.272  1.00  0.00     0.148 A 
ATOM     76  C   UNL A   1      38.131  32.829  38.305  1.00  0.00     0.002 A 
ATOM     77  C   UNL A   1      39.137  35.009  38.561  1.00  0.00     0.091 A 
ATOM     78  F   UNL A   1      40.313  35.996  36.764  1.00  0.00    -0.205 F 
ATOM     79  C   UNL A   1      38.404  33.941  39.096  1.00  0.00     0.022 A 
BRANCH  77  80
ATOM     80  S   UNL A   1      39.661  36.376  39.594  1.00  0.00     0.127 S 
ATOM     81  O   UNL A   1      41.112  36.225  39.592  1.00  0.00    -0.237 OA
ATOM     82  O   UNL A   1      39.203  37.556  38.876  1.00  0.00    -0.237 OA
ATOM     83  O   UNL A   1      38.969  36.052  40.838  1.00  0.00    -0.744 OA
ENDBRANCH  77  80
ENDBRANCH  49  73
BRANCH  61  84
ATOM     84  C   UNL A   1      42.779  27.623  35.263  1.00  0.00     0.023 A 
ATOM     85  C   UNL A   1      41.917  26.941  36.141  1.00  0.00     0.012 A 
ATOM     86  C   UNL A   1      43.931  26.919  34.831  1.00  0.00     0.148 A 
ATOM     87  C   UNL A   1      42.227  25.673  36.648  1.00  0.00     0.002 A 
ATOM     88  C   UNL A   1      44.170  25.610  35.239  1.00  0.00     0.091 A 
ATOM     89  F   UNL A   1      44.828  27.523  34.037  1.00  0.00    -0.205 F 
ATOM     90  C   UNL A   1      43.345  24.999  36.183  1.00  0.00     0.022 A 
BRANCH  88  91
ATOM     91  S   UNL A   1      45.452  24.629  34.451  1.00  0.00     0.127 S 
ATOM     92  O   UNL A   1      45.109  24.753  33.036  1.00  0.00    -0.237 OA
ATOM     93  O   UNL A   1      46.678  25.331  34.842  1.00  0.00    -0.237 OA
ATOM     94  O   UNL A   1      45.319  23.300  35.034  1.00  0.00    -0.744 OA
ENDBRANCH  88  91
ENDBRANCH  61  84
ENDBRANCH  35  36
ENDBRANCH  28  30
ENDBRANCH  27  28
ENDBRANCH  26  27
ENDBRANCH   1  26
TORSDOF 19
ENDMDL
MODEL 3
REMARK VINA RESULT:     -12.1      1.875      2.788
REMARK SMILES Cc1ccc(C(C)(C)C)c(OCC(=O)c2nc(C)c(C(=O)OCCOC(=O)c3ccc(-c4c5nc(c(-c6cccc(S(=O)(=O)[O-])c6F)c6ccc([nH]6)c(-c6cccc(S(=O)(=O)[O-])c6F)c6nc(c(-c7cccc(S(=O)(=O)[O-])c7F)c7ccc4[nH]7)C=C6)C=C5)cc3)s2)c1
REMARK SMILES IDX 23 1 22 2 20 3 21 4 19 5 15 6 16 7 91 8 17 9 18 10 13 11
REMARK SMILES IDX 14 12 12 13 11 14 10 15 1 16 2 17 3 18 92 19 4 20 5 21 6 22
REMARK SMILES IDX 7 23 8 24 9 25 24 26 25 27 26 28 27 29 28 30 29 31 90 32
REMARK SMILES IDX 30 33 89 34 31 35 32 36 33 37 83 38 34 39 88 40 82 41 84 42
REMARK SMILES IDX 35 43 87 44 81 45 80 46 36 48 68 49 48 50 67 51 49 52 52 53
REMARK SMILES IDX 66 54 85 55 50 56 51 57 65 59 86 60 53 61 37 62 38 63 46 64
REMARK SMILES IDX 39 65 41 66 47 67 40 68 42 69 43 70 44 71 45 72 69 73 70 74
REMARK SMILES IDX 78 75 71 76 73 77 79 78 72 79 74 80 75 81 76 82 77 83 54 84
REMARK SMILES IDX 55 85 63 86 56 87 58 88 64 89 57 90 59 91 60 92 61 93 62 94
REMARK H PARENT 84 47 52 58
REMARK Flexibility Score: inf
ROOT
ATOM      1  C   UNL A   1      37.226  22.115  24.674  1.00  0.00     0.275 C 
ENDROOT
BRANCH   1   2
ATOM      2  O   UNL A   1      35.821  22.107  24.435  1.00  0.00    -0.458 OA
BRANCH   2   3
ATOM      3  C   UNL A   1      35.106  21.042  24.892  1.00  0.00     0.350 C 
ATOM      4  O   UNL A   1      35.555  19.921  25.026  1.00  0.00    -0.245 OA
BRANCH   3   5
ATOM      5  C   UNL A   1      33.754  21.478  25.150  1.00  0.00     0.136 A 
ATOM      6  C   UNL A   1      31.773  22.588  26.018  1.00  0.00     0.164 A 
ATOM      7  N   UNL A   1      31.433  21.607  25.202  1.00  0.00    -0.237 NA
ATOM      8  S   UNL A   1      33.464  22.853  26.137  1.00  0.00    -0.103 S 
ATOM      9  C   UNL A   1      32.551  20.943  24.725  1.00  0.00     0.064 A 
ATOM     10  C   UNL A   1      32.336  19.799  23.796  1.00  0.00     0.068 C 
BRANCH   6  11
ATOM     11  C   UNL A   1      30.764  23.450  26.634  1.00  0.00     0.228 C 
ATOM     12  O   UNL A   1      30.087  23.086  27.607  1.00  0.00    -0.288 OA
BRANCH  11  13
ATOM     13  C   UNL A   1      30.420  24.807  25.995  1.00  0.00     0.313 C 
BRANCH  13  14
ATOM     14  O   UNL A   1      30.881  25.111  24.695  1.00  0.00    -0.485 OA
BRANCH  14  15
ATOM     15  C   UNL A   1      30.615  26.348  24.159  1.00  0.00     0.123 A 
ATOM     16  C   UNL A   1      27.602  28.455  23.061  1.00  0.00     0.044 C 
ATOM     17  C   UNL A   1      29.009  28.035  23.363  1.00  0.00    -0.047 A 
ATOM     18  C   UNL A   1      30.034  28.967  23.317  1.00  0.00     0.004 A 
ATOM     19  C   UNL A   1      29.306  26.737  23.798  1.00  0.00     0.050 A 
ATOM     20  C   UNL A   1      31.338  28.588  23.644  1.00  0.00     0.008 A 
ATOM     21  C   UNL A   1      31.682  27.273  24.048  1.00  0.00    -0.000 A 
BRANCH  21  22
ATOM     22  C   UNL A   1      33.181  27.001  24.341  1.00  0.00    -0.010 C 
ATOM     23  C   UNL A   1      33.639  25.764  23.522  1.00  0.00     0.016 C 
ATOM     24  C   UNL A   1      34.081  28.181  23.918  1.00  0.00     0.016 C 
ATOM     25  C   UNL A   1      33.536  26.704  25.813  1.00  0.00     0.016 C 
ENDBRANCH  21  22
ENDBRANCH  14  15
ENDBRANCH  13  14
ENDBRANCH  11  13
ENDBRANCH   6  11
ENDBRANCH   3   5
ENDBRANCH   2   3
ENDBRANCH   1   2
BRANCH   1  26
ATOM     26  C   UNL A   1      37.768  23.089  25.738  1.00  0.00     0.275 C 
BRANCH  26  27
ATOM     27  O   UNL A   1      38.953  22.761  26.516  1.00  0.00    -0.458 OA
BRANCH  27  28
ATOM     28  C   UNL A   1      40.154  23.388  26.631  1.00  0.00     0.338 C 
ATOM     29  O   UNL A   1      41.189  22.867  26.237  1.00  0.00    -0.246 OA
BRANCH  28  30
ATOM     30  C   UNL A   1      40.157  24.756  27.161  1.00  0.00     0.060 A 
ATOM     31  C   UNL A   1      40.719  25.810  26.421  1.00  0.00     0.016 A 
ATOM     32  C   UNL A   1      39.529  24.997  28.368  1.00  0.00     0.016 A 
ATOM     33  C   UNL A   1      40.586  27.128  26.866  1.00  0.00     0.010 A 
ATOM     34  C   UNL A   1      39.242  26.292  28.711  1.00  0.00     0.010 A 
ATOM     35  C   UNL A   1      39.852  27.358  28.022  1.00  0.00    -0.014 A 
BRANCH  35  36
ATOM     36  C   UNL A   1      39.908  28.576  28.821  1.00  0.00     0.031 A 
ATOM     37  C   UNL A   1      39.017  29.730  28.688  1.00  0.00     0.074 A 
ATOM     38  C   UNL A   1      40.727  28.447  29.891  1.00  0.00     0.049 A 
ATOM     39  N   UNL A   1      39.239  30.836  29.311  1.00  0.00    -0.248 NA
ATOM     40  C   UNL A   1      37.830  29.774  27.847  1.00  0.00     0.031 C 
ATOM     41  C   UNL A   1      40.682  29.096  31.184  1.00  0.00     0.029 A 
ATOM     42  N   UNL A   1      41.851  27.618  29.963  1.00  0.00    -0.354 N 
ATOM     43  C   UNL A   1      38.097  31.594  29.224  1.00  0.00     0.074 A 
ATOM     44  C   UNL A   1      37.325  30.972  28.175  1.00  0.00     0.031 C 
ATOM     45  C   UNL A   1      41.819  28.810  31.844  1.00  0.00     0.029 A 
ATOM     46  C   UNL A   1      42.722  28.153  30.908  1.00  0.00     0.049 A 
ATOM     47  H   UNL A   1      42.000  26.798  29.438  1.00  0.00     0.167 HD
ATOM     48  C   UNL A   1      37.889  32.544  30.177  1.00  0.00     0.034 A 
ATOM     49  C   UNL A   1      44.000  28.526  30.598  1.00  0.00     0.034 A 
ATOM     50  C   UNL A   1      39.089  32.702  31.026  1.00  0.00     0.049 A 
ATOM     51  C   UNL A   1      44.181  30.025  30.792  1.00  0.00     0.074 A 
ATOM     52  C   UNL A   1      39.387  32.295  32.315  1.00  0.00     0.029 A 
ATOM     53  N   UNL A   1      40.295  33.113  30.458  1.00  0.00    -0.354 N 
ATOM     54  N   UNL A   1      43.234  30.842  31.154  1.00  0.00    -0.248 NA
ATOM     55  C   UNL A   1      45.428  30.725  30.495  1.00  0.00     0.031 C 
ATOM     56  C   UNL A   1      40.800  32.356  32.478  1.00  0.00     0.029 A 
ATOM     57  C   UNL A   1      41.360  32.859  31.314  1.00  0.00     0.049 A 
ATOM     58  H   UNL A   1      40.381  33.530  29.571  1.00  0.00     0.167 HD
ATOM     59  C   UNL A   1      43.626  32.131  30.919  1.00  0.00     0.074 A 
ATOM     60  C   UNL A   1      45.044  32.007  30.618  1.00  0.00     0.031 C 
ATOM     61  C   UNL A   1      42.733  33.170  30.902  1.00  0.00     0.034 A 
BRANCH  48  62
ATOM     62  C   UNL A   1      36.557  33.193  30.540  1.00  0.00     0.023 A 
ATOM     63  C   UNL A   1      36.092  32.992  31.862  1.00  0.00     0.012 A 
ATOM     64  C   UNL A   1      35.672  33.887  29.677  1.00  0.00     0.148 A 
ATOM     65  C   UNL A   1      34.828  33.416  32.294  1.00  0.00     0.002 A 
ATOM     66  C   UNL A   1      34.432  34.366  30.126  1.00  0.00     0.091 A 
ATOM     67  F   UNL A   1      35.961  34.026  28.383  1.00  0.00    -0.205 F 
ATOM     68  C   UNL A   1      34.001  34.115  31.429  1.00  0.00     0.022 A 
BRANCH  66  69
ATOM     69  S   UNL A   1      33.324  35.326  29.073  1.00  0.00     0.127 S 
ATOM     70  O   UNL A   1      34.263  36.146  28.306  1.00  0.00    -0.237 OA
ATOM     71  O   UNL A   1      32.648  34.288  28.293  1.00  0.00    -0.237 OA
ATOM     72  O   UNL A   1      32.448  36.068  29.970  1.00  0.00    -0.744 OA
ENDBRANCH  66  69
ENDBRANCH  48  62
BRANCH  49  73
ATOM     73  C   UNL A   1      44.558  27.774  29.416  1.00  0.00     0.023 A 
ATOM     74  C   UNL A   1      44.162  28.168  28.112  1.00  0.00     0.012 A 
ATOM     75  C   UNL A   1      45.788  27.123  29.571  1.00  0.00     0.148 A 
ATOM     76  C   UNL A   1      45.062  28.098  27.042  1.00  0.00     0.002 A 
ATOM     77  C   UNL A   1      46.697  27.123  28.527  1.00  0.00     0.091 A 
ATOM     78  F   UNL A   1      46.121  26.609  30.761  1.00  0.00    -0.205 F 
ATOM     79  C   UNL A   1      46.354  27.631  27.267  1.00  0.00     0.022 A 
BRANCH  77  80
ATOM     80  S   UNL A   1      48.390  26.678  28.911  1.00  0.00     0.127 S 
ATOM     81  O   UNL A   1      48.530  27.153  30.284  1.00  0.00    -0.237 OA
ATOM     82  O   UNL A   1      48.408  25.227  28.799  1.00  0.00    -0.237 OA
ATOM     83  O   UNL A   1      49.105  27.427  27.882  1.00  0.00    -0.744 OA
ENDBRANCH  77  80
ENDBRANCH  49  73
BRANCH  61  84
ATOM     84  C   UNL A   1      43.074  34.590  30.492  1.00  0.00     0.023 A 
ATOM     85  C   UNL A   1      43.453  35.582  31.416  1.00  0.00     0.012 A 
ATOM     86  C   UNL A   1      43.128  34.947  29.121  1.00  0.00     0.148 A 
ATOM     87  C   UNL A   1      43.767  36.886  31.017  1.00  0.00     0.002 A 
ATOM     88  C   UNL A   1      43.563  36.208  28.722  1.00  0.00     0.091 A 
ATOM     89  F   UNL A   1      42.730  34.074  28.184  1.00  0.00    -0.205 F 
ATOM     90  C   UNL A   1      43.840  37.196  29.668  1.00  0.00     0.022 A 
BRANCH  88  91
ATOM     91  S   UNL A   1      43.922  36.545  26.994  1.00  0.00     0.127 S 
ATOM     92  O   UNL A   1      42.591  36.511  26.391  1.00  0.00    -0.237 OA
ATOM     93  O   UNL A   1      44.530  37.877  27.048  1.00  0.00    -0.237 OA
ATOM     94  O   UNL A   1      44.841  35.489  26.590  1.00  0.00    -0.744 OA
ENDBRANCH  88  91
ENDBRANCH  61  84
ENDBRANCH  35  36
ENDBRANCH  28  30
ENDBRANCH  27  28
ENDBRANCH  26  27
ENDBRANCH   1  26
TORSDOF 19
ENDMDL
