MODEL 1
REMARK VINA RESULT:     -11.7      0.000      0.000
REMARK SMILES NS(=O)(=O)c1ccc(-n2nc(C(=O)OCCOC(=O)c3ccc(-c4c5nc(c(-c6cccc(S(=O)(=O)[O-])c6F)c6ccc([nH]6)c(-c6cccc(S(=O)(=O)[O-])c6F)c6nc(c(-c7cccc(S(=O)(=O)[O-])c7F)c7ccc4[nH]7)C=C6)C=C5)cc3)cc2-c2ccc(Cl)s2)cc1
REMARK SMILES IDX 15 1 14 2 12 3 13 4 11 5 9 6 10 7 84 8 83 9 8 10 5 11 6 12
REMARK SMILES IDX 92 13 7 14 91 15 2 16 3 17 4 18 1 19 85 22 86 23 90 24 87 25
REMARK SMILES IDX 88 26 89 27 16 28 17 29 18 30 19 31 20 32 21 33 82 34 22 35
REMARK SMILES IDX 81 36 23 37 24 38 25 39 75 40 26 41 80 42 74 43 76 44 27 45
REMARK SMILES IDX 79 46 73 47 72 48 28 50 60 51 40 52 59 53 41 54 44 55 58 56
REMARK SMILES IDX 77 57 42 58 43 59 57 61 78 62 45 63 29 64 30 65 38 66 31 67
REMARK SMILES IDX 33 68 39 69 32 70 34 71 35 72 36 73 37 74 61 75 62 76 70 77
REMARK SMILES IDX 63 78 65 79 71 80 64 81 66 82 67 83 68 84 69 85 46 86 47 87
REMARK SMILES IDX 55 88 48 89 50 90 56 91 49 92 51 93 52 94 53 95 54 96
REMARK H PARENT 1 20 1 21 76 49 44 60
REMARK Flexibility Score: inf
ROOT
ATOM      1  C   UNL A   1      37.925  21.805  25.021  1.00  0.00     0.275 C 
ENDROOT
BRANCH   1   2
ATOM      2  O   UNL A   1      36.660  21.683  24.342  1.00  0.00    -0.457 OA
BRANCH   2   3
ATOM      3  C   UNL A   1      36.348  22.662  23.428  1.00  0.00     0.358 C 
ATOM      4  O   UNL A   1      37.074  22.982  22.493  1.00  0.00    -0.244 OA
BRANCH   3   5
ATOM      5  C   UNL A   1      35.021  23.247  23.692  1.00  0.00     0.171 A 
ATOM      6  N   UNL A   1      33.323  24.557  23.616  1.00  0.00    -0.231 N 
ATOM      7  N   UNL A   1      34.536  24.334  23.051  1.00  0.00    -0.160 NA
ATOM      8  C   UNL A   1      33.033  23.641  24.612  1.00  0.00     0.085 A 
ATOM      9  C   UNL A   1      34.078  22.750  24.624  1.00  0.00     0.068 A 
BRANCH   6  10
ATOM     10  C   UNL A   1      32.585  25.724  23.305  1.00  0.00     0.065 A 
ATOM     11  C   UNL A   1      30.919  27.928  22.991  1.00  0.00     0.082 A 
ATOM     12  C   UNL A   1      32.029  28.014  23.838  1.00  0.00     0.024 A 
ATOM     13  C   UNL A   1      30.651  26.751  22.280  1.00  0.00     0.024 A 
ATOM     14  C   UNL A   1      32.859  26.908  24.003  1.00  0.00     0.030 A 
ATOM     15  C   UNL A   1      31.504  25.646  22.419  1.00  0.00     0.030 A 
BRANCH  11  16
ATOM     16  S   UNL A   1      29.869  29.348  22.890  1.00  0.00     0.238 S 
ATOM     17  O   UNL A   1      30.196  30.235  23.977  1.00  0.00    -0.207 OA
ATOM     18  O   UNL A   1      28.515  28.889  22.650  1.00  0.00    -0.207 OA
BRANCH  16  19
ATOM     19  N   UNL A   1      30.324  30.139  21.486  1.00  0.00    -0.225 NA
ATOM     20  H   UNL A   1      29.501  30.549  21.044  1.00  0.00     0.137 HD
ATOM     21  H   UNL A   1      30.759  29.474  20.846  1.00  0.00     0.137 HD
ENDBRANCH  16  19
ENDBRANCH  11  16
ENDBRANCH   6  10
BRANCH   8  22
ATOM     22  C   UNL A   1      31.878  23.644  25.457  1.00  0.00     0.054 A 
ATOM     23  C   UNL A   1      31.289  24.769  26.005  1.00  0.00     0.024 A 
ATOM     24  S   UNL A   1      31.060  22.214  25.927  1.00  0.00    -0.122 S 
ATOM     25  C   UNL A   1      30.118  24.454  26.751  1.00  0.00     0.033 A 
ATOM     26  C   UNL A   1      29.893  23.103  26.766  1.00  0.00     0.094 A 
ATOM     27  Cl  UNL A   1      28.587  22.293  27.532  1.00  0.00    -0.072 Cl
ENDBRANCH   8  22
ENDBRANCH   3   5
ENDBRANCH   2   3
ENDBRANCH   1   2
BRANCH   1  28
ATOM     28  C   UNL A   1      38.553  20.443  25.285  1.00  0.00     0.275 C 
BRANCH  28  29
ATOM     29  O   UNL A   1      39.527  20.557  26.312  1.00  0.00    -0.458 OA
BRANCH  29  30
ATOM     30  C   UNL A   1      40.735  20.020  26.030  1.00  0.00     0.338 C 
ATOM     31  O   UNL A   1      40.952  18.900  25.596  1.00  0.00    -0.246 OA
BRANCH  30  32
ATOM     32  C   UNL A   1      41.775  20.929  26.517  1.00  0.00     0.060 A 
ATOM     33  C   UNL A   1      42.072  20.838  27.878  1.00  0.00     0.016 A 
ATOM     34  C   UNL A   1      42.079  22.063  25.750  1.00  0.00     0.016 A 
ATOM     35  C   UNL A   1      42.394  21.999  28.537  1.00  0.00     0.010 A 
ATOM     36  C   UNL A   1      42.373  23.224  26.410  1.00  0.00     0.010 A 
ATOM     37  C   UNL A   1      42.417  23.186  27.801  1.00  0.00    -0.014 A 
BRANCH  37  38
ATOM     38  C   UNL A   1      42.537  24.425  28.525  1.00  0.00     0.031 A 
ATOM     39  C   UNL A   1      41.431  25.354  28.225  1.00  0.00     0.074 A 
ATOM     40  C   UNL A   1      43.496  24.602  29.452  1.00  0.00     0.049 A 
ATOM     41  N   UNL A   1      41.490  26.475  27.587  1.00  0.00    -0.248 NA
ATOM     42  C   UNL A   1      40.063  24.872  28.483  1.00  0.00     0.031 C 
ATOM     43  C   UNL A   1      44.409  23.603  30.018  1.00  0.00     0.029 A 
ATOM     44  N   UNL A   1      43.737  25.699  30.212  1.00  0.00    -0.354 N 
ATOM     45  C   UNL A   1      40.183  26.948  27.588  1.00  0.00     0.074 A 
ATOM     46  C   UNL A   1      39.338  25.832  27.912  1.00  0.00     0.031 C 
ATOM     47  C   UNL A   1      44.884  24.064  31.198  1.00  0.00     0.029 A 
ATOM     48  C   UNL A   1      44.401  25.419  31.400  1.00  0.00     0.049 A 
ATOM     49  H   UNL A   1      43.466  26.608  29.947  1.00  0.00     0.167 HD
ATOM     50  C   UNL A   1      39.917  28.281  27.633  1.00  0.00     0.034 A 
ATOM     51  C   UNL A   1      44.409  26.208  32.504  1.00  0.00     0.034 A 
ATOM     52  C   UNL A   1      41.067  29.066  27.268  1.00  0.00     0.049 A 
ATOM     53  C   UNL A   1      43.997  27.571  32.075  1.00  0.00     0.074 A 
ATOM     54  C   UNL A   1      41.882  29.135  26.155  1.00  0.00     0.029 A 
ATOM     55  N   UNL A   1      41.773  29.653  28.290  1.00  0.00    -0.354 N 
ATOM     56  N   UNL A   1      44.701  28.313  31.264  1.00  0.00    -0.248 NA
ATOM     57  C   UNL A   1      42.583  27.905  32.159  1.00  0.00     0.031 C 
ATOM     58  C   UNL A   1      43.197  29.309  26.676  1.00  0.00     0.029 A 
ATOM     59  C   UNL A   1      43.101  29.398  28.067  1.00  0.00     0.049 A 
ATOM     60  H   UNL A   1      41.395  30.163  29.044  1.00  0.00     0.167 HD
ATOM     61  C   UNL A   1      43.764  28.888  30.415  1.00  0.00     0.074 A 
ATOM     62  C   UNL A   1      42.474  28.675  31.071  1.00  0.00     0.031 C 
ATOM     63  C   UNL A   1      44.072  29.209  29.122  1.00  0.00     0.034 A 
BRANCH  50  64
ATOM     64  C   UNL A   1      38.750  28.873  28.381  1.00  0.00     0.023 A 
ATOM     65  C   UNL A   1      37.847  29.665  27.643  1.00  0.00     0.012 A 
ATOM     66  C   UNL A   1      38.642  28.921  29.793  1.00  0.00     0.148 A 
ATOM     67  C   UNL A   1      36.917  30.495  28.277  1.00  0.00     0.002 A 
ATOM     68  C   UNL A   1      37.660  29.679  30.415  1.00  0.00     0.091 A 
ATOM     69  F   UNL A   1      39.575  28.354  30.561  1.00  0.00    -0.205 F 
ATOM     70  C   UNL A   1      36.816  30.494  29.664  1.00  0.00     0.022 A 
BRANCH  68  71
ATOM     71  S   UNL A   1      37.463  29.668  32.202  1.00  0.00     0.127 S 
ATOM     72  O   UNL A   1      37.427  28.235  32.480  1.00  0.00    -0.237 OA
ATOM     73  O   UNL A   1      38.676  30.357  32.641  1.00  0.00    -0.237 OA
ATOM     74  O   UNL A   1      36.233  30.406  32.461  1.00  0.00    -0.744 OA
ENDBRANCH  68  71
ENDBRANCH  50  64
BRANCH  51  75
ATOM     75  C   UNL A   1      44.377  25.779  33.925  1.00  0.00     0.023 A 
ATOM     76  C   UNL A   1      43.375  24.897  34.373  1.00  0.00     0.012 A 
ATOM     77  C   UNL A   1      45.470  26.030  34.786  1.00  0.00     0.148 A 
ATOM     78  C   UNL A   1      43.464  24.281  35.629  1.00  0.00     0.002 A 
ATOM     79  C   UNL A   1      45.545  25.434  36.041  1.00  0.00     0.091 A 
ATOM     80  F   UNL A   1      46.487  26.779  34.341  1.00  0.00    -0.205 F 
ATOM     81  C   UNL A   1      44.548  24.547  36.463  1.00  0.00     0.022 A 
BRANCH  79  82
ATOM     82  S   UNL A   1      46.918  25.739  37.161  1.00  0.00     0.127 S 
ATOM     83  O   UNL A   1      46.710  24.712  38.183  1.00  0.00    -0.237 OA
ATOM     84  O   UNL A   1      48.073  25.518  36.297  1.00  0.00    -0.237 OA
ATOM     85  O   UNL A   1      46.741  27.103  37.646  1.00  0.00    -0.744 OA
ENDBRANCH  79  82
ENDBRANCH  51  75
BRANCH  63  86
ATOM     86  C   UNL A   1      45.514  29.100  28.683  1.00  0.00     0.023 A 
ATOM     87  C   UNL A   1      46.459  30.115  28.947  1.00  0.00     0.012 A 
ATOM     88  C   UNL A   1      45.967  27.871  28.176  1.00  0.00     0.148 A 
ATOM     89  C   UNL A   1      47.819  29.917  28.693  1.00  0.00     0.002 A 
ATOM     90  C   UNL A   1      47.325  27.660  27.967  1.00  0.00     0.091 A 
ATOM     91  F   UNL A   1      45.060  26.910  27.943  1.00  0.00    -0.205 F 
ATOM     92  C   UNL A   1      48.254  28.683  28.214  1.00  0.00     0.022 A 
BRANCH  90  93
ATOM     93  S   UNL A   1      47.964  26.058  27.476  1.00  0.00     0.127 S 
ATOM     94  O   UNL A   1      47.405  25.905  26.134  1.00  0.00    -0.237 OA
ATOM     95  O   UNL A   1      49.411  26.272  27.516  1.00  0.00    -0.237 OA
ATOM     96  O   UNL A   1      47.475  25.108  28.469  1.00  0.00    -0.744 OA
ENDBRANCH  90  93
ENDBRANCH  63  86
ENDBRANCH  37  38
ENDBRANCH  30  32
ENDBRANCH  29  30
ENDBRANCH  28  29
ENDBRANCH   1  28
TORSDOF 18
ENDMDL
MODEL 2
REMARK VINA RESULT:     -11.7      3.163      8.082
REMARK SMILES NS(=O)(=O)c1ccc(-n2nc(C(=O)OCCOC(=O)c3ccc(-c4c5nc(c(-c6cccc(S(=O)(=O)[O-])c6F)c6ccc([nH]6)c(-c6cccc(S(=O)(=O)[O-])c6F)c6nc(c(-c7cccc(S(=O)(=O)[O-])c7F)c7ccc4[nH]7)C=C6)C=C5)cc3)cc2-c2ccc(Cl)s2)cc1
REMARK SMILES IDX 15 1 14 2 12 3 13 4 11 5 9 6 10 7 84 8 83 9 8 10 5 11 6 12
REMARK SMILES IDX 92 13 7 14 91 15 2 16 3 17 4 18 1 19 85 22 86 23 90 24 87 25
REMARK SMILES IDX 88 26 89 27 16 28 17 29 18 30 19 31 20 32 21 33 82 34 22 35
REMARK SMILES IDX 81 36 23 37 24 38 25 39 75 40 26 41 80 42 74 43 76 44 27 45
REMARK SMILES IDX 79 46 73 47 72 48 28 50 60 51 40 52 59 53 41 54 44 55 58 56
REMARK SMILES IDX 77 57 42 58 43 59 57 61 78 62 45 63 29 64 30 65 38 66 31 67
REMARK SMILES IDX 33 68 39 69 32 70 34 71 35 72 36 73 37 74 61 75 62 76 70 77
REMARK SMILES IDX 63 78 65 79 71 80 64 81 66 82 67 83 68 84 69 85 46 86 47 87
REMARK SMILES IDX 55 88 48 89 50 90 56 91 49 92 51 93 52 94 53 95 54 96
REMARK H PARENT 1 20 1 21 76 49 44 60
REMARK Flexibility Score: inf
ROOT
ATOM      1  C   UNL A   1      34.630  32.109  27.993  1.00  0.00     0.275 C 
ENDROOT
BRANCH   1   2
ATOM      2  O   UNL A   1      34.215  30.796  27.570  1.00  0.00    -0.457 OA
BRANCH   2   3
ATOM      3  C   UNL A   1      33.002  30.703  26.929  1.00  0.00     0.358 C 
ATOM      4  O   UNL A   1      32.173  31.605  26.901  1.00  0.00    -0.244 OA
BRANCH   3   5
ATOM      5  C   UNL A   1      32.843  29.402  26.253  1.00  0.00     0.171 A 
ATOM      6  N   UNL A   1      32.905  27.294  25.857  1.00  0.00    -0.231 N 
ATOM      7  N   UNL A   1      33.159  28.216  26.819  1.00  0.00    -0.160 NA
ATOM      8  C   UNL A   1      32.445  27.872  24.686  1.00  0.00     0.085 A 
ATOM      9  C   UNL A   1      32.331  29.216  24.947  1.00  0.00     0.068 A 
BRANCH   6  10
ATOM     10  C   UNL A   1      33.274  25.940  26.039  1.00  0.00     0.065 A 
ATOM     11  C   UNL A   1      33.907  23.233  26.032  1.00  0.00     0.082 A 
ATOM     12  C   UNL A   1      34.872  24.170  25.649  1.00  0.00     0.024 A 
ATOM     13  C   UNL A   1      32.632  23.645  26.442  1.00  0.00     0.024 A 
ATOM     14  C   UNL A   1      34.553  25.526  25.644  1.00  0.00     0.030 A 
ATOM     15  C   UNL A   1      32.319  25.012  26.468  1.00  0.00     0.030 A 
BRANCH  11  16
ATOM     16  S   UNL A   1      34.360  21.525  25.942  1.00  0.00     0.238 S 
ATOM     17  O   UNL A   1      35.776  21.417  26.184  1.00  0.00    -0.207 OA
ATOM     18  O   UNL A   1      33.732  20.955  24.767  1.00  0.00    -0.207 OA
BRANCH  16  19
ATOM     19  N   UNL A   1      33.605  20.795  27.247  1.00  0.00    -0.225 NA
ATOM     20  H   UNL A   1      32.730  20.370  26.940  1.00  0.00     0.137 HD
ATOM     21  H   UNL A   1      33.410  21.495  27.962  1.00  0.00     0.137 HD
ENDBRANCH  16  19
ENDBRANCH  11  16
ENDBRANCH   6  10
BRANCH   8  22
ATOM     22  C   UNL A   1      32.164  27.193  23.459  1.00  0.00     0.054 A 
ATOM     23  C   UNL A   1      30.919  26.748  23.056  1.00  0.00     0.024 A 
ATOM     24  S   UNL A   1      33.371  26.814  22.303  1.00  0.00    -0.122 S 
ATOM     25  C   UNL A   1      30.950  26.162  21.759  1.00  0.00     0.033 A 
ATOM     26  C   UNL A   1      32.223  26.156  21.252  1.00  0.00     0.094 A 
ATOM     27  Cl  UNL A   1      32.708  25.561  19.717  1.00  0.00    -0.072 Cl
ENDBRANCH   8  22
ENDBRANCH   3   5
ENDBRANCH   2   3
ENDBRANCH   1   2
BRANCH   1  28
ATOM     28  C   UNL A   1      34.341  32.339  29.471  1.00  0.00     0.275 C 
BRANCH  28  29
ATOM     29  O   UNL A   1      35.552  32.632  30.154  1.00  0.00    -0.458 OA
BRANCH  29  30
ATOM     30  C   UNL A   1      36.172  31.574  30.720  1.00  0.00     0.338 C 
ATOM     31  O   UNL A   1      35.967  31.119  31.834  1.00  0.00    -0.246 OA
BRANCH  30  32
ATOM     32  C   UNL A   1      37.284  31.168  29.858  1.00  0.00     0.060 A 
ATOM     33  C   UNL A   1      37.238  29.855  29.386  1.00  0.00     0.016 A 
ATOM     34  C   UNL A   1      38.471  31.913  29.909  1.00  0.00     0.016 A 
ATOM     35  C   UNL A   1      38.430  29.186  29.255  1.00  0.00     0.010 A 
ATOM     36  C   UNL A   1      39.657  31.239  29.805  1.00  0.00     0.010 A 
ATOM     37  C   UNL A   1      39.605  29.866  29.586  1.00  0.00    -0.014 A 
BRANCH  37  38
ATOM     38  C   UNL A   1      40.825  29.105  29.659  1.00  0.00     0.031 A 
ATOM     39  C   UNL A   1      41.211  28.804  31.051  1.00  0.00     0.074 A 
ATOM     40  C   UNL A   1      41.426  28.640  28.549  1.00  0.00     0.049 A 
ATOM     41  N   UNL A   1      42.222  29.263  31.709  1.00  0.00    -0.248 NA
ATOM     42  C   UNL A   1      40.232  28.071  31.873  1.00  0.00     0.031 C 
ATOM     43  C   UNL A   1      40.913  28.630  27.174  1.00  0.00     0.029 A 
ATOM     44  N   UNL A   1      42.568  27.914  28.453  1.00  0.00    -0.354 N 
ATOM     45  C   UNL A   1      42.127  28.666  32.961  1.00  0.00     0.074 A 
ATOM     46  C   UNL A   1      40.785  28.167  33.081  1.00  0.00     0.031 C 
ATOM     47  C   UNL A   1      41.592  27.701  26.462  1.00  0.00     0.029 A 
ATOM     48  C   UNL A   1      42.646  27.150  27.296  1.00  0.00     0.049 A 
ATOM     49  H   UNL A   1      43.273  27.927  29.139  1.00  0.00     0.167 HD
ATOM     50  C   UNL A   1      43.239  28.348  33.675  1.00  0.00     0.034 A 
ATOM     51  C   UNL A   1      43.432  26.057  27.124  1.00  0.00     0.034 A 
ATOM     52  C   UNL A   1      44.399  29.051  33.195  1.00  0.00     0.049 A 
ATOM     53  C   UNL A   1      44.487  26.103  28.172  1.00  0.00     0.074 A 
ATOM     54  C   UNL A   1      44.729  30.382  33.030  1.00  0.00     0.029 A 
ATOM     55  N   UNL A   1      45.278  28.344  32.409  1.00  0.00    -0.354 N 
ATOM     56  N   UNL A   1      45.403  27.031  28.229  1.00  0.00    -0.248 NA
ATOM     57  C   UNL A   1      44.226  25.404  29.422  1.00  0.00     0.031 C 
ATOM     58  C   UNL A   1      45.448  30.430  31.799  1.00  0.00     0.029 A 
ATOM     59  C   UNL A   1      45.569  29.124  31.320  1.00  0.00     0.049 A 
ATOM     60  H   UNL A   1      45.633  27.444  32.595  1.00  0.00     0.167 HD
ATOM     61  C   UNL A   1      45.502  27.340  29.581  1.00  0.00     0.074 A 
ATOM     62  C   UNL A   1      44.824  26.244  30.273  1.00  0.00     0.031 C 
ATOM     63  C   UNL A   1      45.847  28.594  30.003  1.00  0.00     0.034 A 
BRANCH  50  64
ATOM     64  C   UNL A   1      43.350  27.118  34.540  1.00  0.00     0.023 A 
ATOM     65  C   UNL A   1      43.343  27.310  35.937  1.00  0.00     0.012 A 
ATOM     66  C   UNL A   1      43.730  25.837  34.069  1.00  0.00     0.148 A 
ATOM     67  C   UNL A   1      43.737  26.296  36.814  1.00  0.00     0.002 A 
ATOM     68  C   UNL A   1      44.035  24.808  34.948  1.00  0.00     0.091 A 
ATOM     69  F   UNL A   1      43.945  25.633  32.767  1.00  0.00    -0.205 F 
ATOM     70  C   UNL A   1      44.073  25.040  36.322  1.00  0.00     0.022 A 
BRANCH  68  71
ATOM     71  S   UNL A   1      44.426  23.157  34.354  1.00  0.00     0.127 S 
ATOM     72  O   UNL A   1      44.188  22.355  35.551  1.00  0.00    -0.237 OA
ATOM     73  O   UNL A   1      43.444  22.984  33.284  1.00  0.00    -0.237 OA
ATOM     74  O   UNL A   1      45.805  23.228  33.890  1.00  0.00    -0.744 OA
ENDBRANCH  68  71
ENDBRANCH  50  64
BRANCH  51  75
ATOM     75  C   UNL A   1      43.107  24.815  26.379  1.00  0.00     0.023 A 
ATOM     76  C   UNL A   1      43.991  24.329  25.396  1.00  0.00     0.012 A 
ATOM     77  C   UNL A   1      42.057  23.966  26.801  1.00  0.00     0.148 A 
ATOM     78  C   UNL A   1      43.840  23.042  24.861  1.00  0.00     0.002 A 
ATOM     79  C   UNL A   1      41.897  22.697  26.253  1.00  0.00     0.091 A 
ATOM     80  F   UNL A   1      41.270  24.362  27.810  1.00  0.00    -0.205 F 
ATOM     81  C   UNL A   1      42.795  22.226  25.289  1.00  0.00     0.022 A 
BRANCH  79  82
ATOM     82  S   UNL A   1      40.569  21.598  26.764  1.00  0.00     0.127 S 
ATOM     83  O   UNL A   1      40.775  21.526  28.211  1.00  0.00    -0.237 OA
ATOM     84  O   UNL A   1      39.382  22.340  26.350  1.00  0.00    -0.237 OA
ATOM     85  O   UNL A   1      40.804  20.339  26.067  1.00  0.00    -0.744 OA
ENDBRANCH  79  82
ENDBRANCH  51  75
BRANCH  63  86
ATOM     86  C   UNL A   1      46.305  29.596  28.970  1.00  0.00     0.023 A 
ATOM     87  C   UNL A   1      47.618  29.596  28.452  1.00  0.00     0.012 A 
ATOM     88  C   UNL A   1      45.341  30.420  28.365  1.00  0.00     0.148 A 
ATOM     89  C   UNL A   1      47.967  30.412  27.371  1.00  0.00     0.002 A 
ATOM     90  C   UNL A   1      45.679  31.196  27.262  1.00  0.00     0.091 A 
ATOM     91  F   UNL A   1      44.093  30.399  28.858  1.00  0.00    -0.205 F 
ATOM     92  C   UNL A   1      46.993  31.203  26.769  1.00  0.00     0.022 A 
BRANCH  90  93
ATOM     93  S   UNL A   1      44.447  32.136  26.360  1.00  0.00     0.127 S 
ATOM     94  O   UNL A   1      44.068  33.157  27.336  1.00  0.00    -0.237 OA
ATOM     95  O   UNL A   1      45.209  32.637  25.216  1.00  0.00    -0.237 OA
ATOM     96  O   UNL A   1      43.396  31.189  26.007  1.00  0.00    -0.744 OA
ENDBRANCH  90  93
ENDBRANCH  63  86
ENDBRANCH  37  38
ENDBRANCH  30  32
ENDBRANCH  29  30
ENDBRANCH  28  29
ENDBRANCH   1  28
TORSDOF 18
ENDMDL
MODEL 3
REMARK VINA RESULT:     -11.5      3.421      7.201
REMARK SMILES NS(=O)(=O)c1ccc(-n2nc(C(=O)OCCOC(=O)c3ccc(-c4c5nc(c(-c6cccc(S(=O)(=O)[O-])c6F)c6ccc([nH]6)c(-c6cccc(S(=O)(=O)[O-])c6F)c6nc(c(-c7cccc(S(=O)(=O)[O-])c7F)c7ccc4[nH]7)C=C6)C=C5)cc3)cc2-c2ccc(Cl)s2)cc1
REMARK SMILES IDX 15 1 14 2 12 3 13 4 11 5 9 6 10 7 84 8 83 9 8 10 5 11 6 12
REMARK SMILES IDX 92 13 7 14 91 15 2 16 3 17 4 18 1 19 85 22 86 23 90 24 87 25
REMARK SMILES IDX 88 26 89 27 16 28 17 29 18 30 19 31 20 32 21 33 82 34 22 35
REMARK SMILES IDX 81 36 23 37 24 38 25 39 75 40 26 41 80 42 74 43 76 44 27 45
REMARK SMILES IDX 79 46 73 47 72 48 28 50 60 51 40 52 59 53 41 54 44 55 58 56
REMARK SMILES IDX 77 57 42 58 43 59 57 61 78 62 45 63 29 64 30 65 38 66 31 67
REMARK SMILES IDX 33 68 39 69 32 70 34 71 35 72 36 73 37 74 61 75 62 76 70 77
REMARK SMILES IDX 63 78 65 79 71 80 64 81 66 82 67 83 68 84 69 85 46 86 47 87
REMARK SMILES IDX 55 88 48 89 50 90 56 91 49 92 51 93 52 94 53 95 54 96
REMARK H PARENT 1 20 1 21 76 49 44 60
REMARK Flexibility Score: inf
ROOT
ATOM      1  C   UNL A   1      36.208  22.528  25.758  1.00  0.00     0.275 C 
ENDROOT
BRANCH   1   2
ATOM      2  O   UNL A   1      35.713  23.224  24.598  1.00  0.00    -0.457 OA
BRANCH   2   3
ATOM      3  C   UNL A   1      34.382  23.054  24.293  1.00  0.00     0.358 C 
ATOM      4  O   UNL A   1      33.906  22.009  23.864  1.00  0.00    -0.244 OA
BRANCH   3   5
ATOM      5  C   UNL A   1      33.601  24.271  24.582  1.00  0.00     0.171 A 
ATOM      6  N   UNL A   1      32.110  25.809  24.457  1.00  0.00    -0.231 N 
ATOM      7  N   UNL A   1      32.482  24.624  23.912  1.00  0.00    -0.160 NA
ATOM      8  C   UNL A   1      32.978  26.222  25.453  1.00  0.00     0.085 A 
ATOM      9  C   UNL A   1      33.899  25.213  25.595  1.00  0.00     0.068 A 
BRANCH   6  10
ATOM     10  C   UNL A   1      31.058  26.567  23.890  1.00  0.00     0.065 A 
ATOM     11  C   UNL A   1      29.018  28.275  23.083  1.00  0.00     0.082 A 
ATOM     12  C   UNL A   1      30.345  28.583  22.765  1.00  0.00     0.024 A 
ATOM     13  C   UNL A   1      28.703  27.102  23.782  1.00  0.00     0.024 A 
ATOM     14  C   UNL A   1      31.368  27.732  23.176  1.00  0.00     0.030 A 
ATOM     15  C   UNL A   1      29.729  26.228  24.170  1.00  0.00     0.030 A 
BRANCH  11  16
ATOM     16  S   UNL A   1      27.779  29.439  22.593  1.00  0.00     0.238 S 
ATOM     17  O   UNL A   1      26.499  28.962  23.053  1.00  0.00    -0.207 OA
ATOM     18  O   UNL A   1      28.017  29.793  21.209  1.00  0.00    -0.207 OA
BRANCH  16  19
ATOM     19  N   UNL A   1      28.103  30.829  23.469  1.00  0.00    -0.225 NA
ATOM     20  H   UNL A   1      28.469  30.576  24.387  1.00  0.00     0.137 HD
ATOM     21  H   UNL A   1      27.245  31.368  23.581  1.00  0.00     0.137 HD
ENDBRANCH  16  19
ENDBRANCH  11  16
ENDBRANCH   6  10
BRANCH   8  22
ATOM     22  C   UNL A   1      32.920  27.460  26.168  1.00  0.00     0.054 A 
ATOM     23  C   UNL A   1      31.910  27.839  27.033  1.00  0.00     0.024 A 
ATOM     24  S   UNL A   1      34.119  28.676  26.030  1.00  0.00    -0.122 S 
ATOM     25  C   UNL A   1      32.165  29.102  27.639  1.00  0.00     0.033 A 
ATOM     26  C   UNL A   1      33.338  29.640  27.179  1.00  0.00     0.094 A 
ATOM     27  Cl  UNL A   1      34.032  31.136  27.656  1.00  0.00    -0.072 Cl
ENDBRANCH   8  22
ENDBRANCH   3   5
ENDBRANCH   2   3
ENDBRANCH   1   2
BRANCH   1  28
ATOM     28  C   UNL A   1      37.707  22.271  25.660  1.00  0.00     0.275 C 
BRANCH  28  29
ATOM     29  O   UNL A   1      38.399  23.133  26.552  1.00  0.00    -0.458 OA
BRANCH  29  30
ATOM     30  C   UNL A   1      39.663  22.764  26.854  1.00  0.00     0.338 C 
ATOM     31  O   UNL A   1      40.031  21.662  27.230  1.00  0.00    -0.246 OA
BRANCH  30  32
ATOM     32  C   UNL A   1      40.511  23.958  26.851  1.00  0.00     0.060 A 
ATOM     33  C   UNL A   1      41.608  23.925  27.715  1.00  0.00     0.016 A 
ATOM     34  C   UNL A   1      39.973  25.155  26.356  1.00  0.00     0.016 A 
ATOM     35  C   UNL A   1      41.971  25.100  28.324  1.00  0.00     0.010 A 
ATOM     36  C   UNL A   1      40.317  26.321  26.983  1.00  0.00     0.010 A 
ATOM     37  C   UNL A   1      41.232  26.249  28.028  1.00  0.00    -0.014 A 
BRANCH  37  38
ATOM     38  C   UNL A   1      41.470  27.425  28.825  1.00  0.00     0.031 A 
ATOM     39  C   UNL A   1      42.674  28.158  28.388  1.00  0.00     0.074 A 
ATOM     40  C   UNL A   1      40.589  27.827  29.758  1.00  0.00     0.049 A 
ATOM     41  N   UNL A   1      43.790  28.296  29.022  1.00  0.00    -0.248 NA
ATOM     42  C   UNL A   1      42.711  28.610  26.987  1.00  0.00     0.031 C 
ATOM     43  C   UNL A   1      39.232  27.325  30.004  1.00  0.00     0.029 A 
ATOM     44  N   UNL A   1      40.669  28.903  30.580  1.00  0.00    -0.354 N 
ATOM     45  C   UNL A   1      44.578  29.072  28.180  1.00  0.00     0.074 A 
ATOM     46  C   UNL A   1      43.975  29.014  26.878  1.00  0.00     0.031 C 
ATOM     47  C   UNL A   1      38.539  28.260  30.693  1.00  0.00     0.029 A 
ATOM     48  C   UNL A   1      39.433  29.355  31.027  1.00  0.00     0.049 A 
ATOM     49  H   UNL A   1      41.521  29.323  30.836  1.00  0.00     0.167 HD
ATOM     50  C   UNL A   1      45.484  29.955  28.680  1.00  0.00     0.034 A 
ATOM     51  C   UNL A   1      39.173  30.600  31.499  1.00  0.00     0.034 A 
ATOM     52  C   UNL A   1      45.793  29.679  30.058  1.00  0.00     0.049 A 
ATOM     53  C   UNL A   1      40.475  31.210  31.877  1.00  0.00     0.074 A 
ATOM     54  C   UNL A   1      46.288  28.586  30.742  1.00  0.00     0.029 A 
ATOM     55  N   UNL A   1      45.198  30.478  31.005  1.00  0.00    -0.354 N 
ATOM     56  N   UNL A   1      41.229  30.758  32.842  1.00  0.00    -0.248 NA
ATOM     57  C   UNL A   1      41.160  32.011  30.872  1.00  0.00     0.031 C 
ATOM     58  C   UNL A   1      45.547  28.550  31.960  1.00  0.00     0.029 A 
ATOM     59  C   UNL A   1      44.691  29.654  31.975  1.00  0.00     0.049 A 
ATOM     60  H   UNL A   1      45.147  31.462  30.989  1.00  0.00     0.167 HD
ATOM     61  C   UNL A   1      42.521  30.825  32.336  1.00  0.00     0.074 A 
ATOM     62  C   UNL A   1      42.426  31.690  31.160  1.00  0.00     0.031 C 
ATOM     63  C   UNL A   1      43.487  29.940  32.725  1.00  0.00     0.034 A 
BRANCH  50  64
ATOM     64  C   UNL A   1      45.784  31.289  28.045  1.00  0.00     0.023 A 
ATOM     65  C   UNL A   1      47.137  31.682  27.983  1.00  0.00     0.012 A 
ATOM     66  C   UNL A   1      44.813  32.280  27.761  1.00  0.00     0.148 A 
ATOM     67  C   UNL A   1      47.501  33.001  27.698  1.00  0.00     0.002 A 
ATOM     68  C   UNL A   1      45.182  33.566  27.392  1.00  0.00     0.091 A 
ATOM     69  F   UNL A   1      43.518  32.040  27.983  1.00  0.00    -0.205 F 
ATOM     70  C   UNL A   1      46.524  33.942  27.391  1.00  0.00     0.022 A 
BRANCH  68  71
ATOM     71  S   UNL A   1      43.953  34.798  26.941  1.00  0.00     0.127 S 
ATOM     72  O   UNL A   1      43.387  34.211  25.730  1.00  0.00    -0.237 OA
ATOM     73  O   UNL A   1      43.073  34.785  28.109  1.00  0.00    -0.237 OA
ATOM     74  O   UNL A   1      44.695  36.041  26.769  1.00  0.00    -0.744 OA
ENDBRANCH  68  71
ENDBRANCH  50  64
BRANCH  51  75
ATOM     75  C   UNL A   1      37.947  31.411  31.289  1.00  0.00     0.023 A 
ATOM     76  C   UNL A   1      37.110  31.152  30.186  1.00  0.00     0.012 A 
ATOM     77  C   UNL A   1      37.459  32.270  32.301  1.00  0.00     0.148 A 
ATOM     78  C   UNL A   1      35.832  31.721  30.100  1.00  0.00     0.002 A 
ATOM     79  C   UNL A   1      36.198  32.850  32.203  1.00  0.00     0.091 A 
ATOM     80  F   UNL A   1      38.190  32.446  33.409  1.00  0.00    -0.205 F 
ATOM     81  C   UNL A   1      35.375  32.568  31.107  1.00  0.00     0.022 A 
BRANCH  79  82
ATOM     82  S   UNL A   1      35.554  33.951  33.469  1.00  0.00     0.127 S 
ATOM     83  O   UNL A   1      36.561  35.014  33.488  1.00  0.00    -0.237 OA
ATOM     84  O   UNL A   1      34.264  34.339  32.908  1.00  0.00    -0.237 OA
ATOM     85  O   UNL A   1      35.501  33.162  34.694  1.00  0.00    -0.744 OA
ENDBRANCH  79  82
ENDBRANCH  51  75
BRANCH  63  86
ATOM     86  C   UNL A   1      43.176  28.995  33.861  1.00  0.00     0.023 A 
ATOM     87  C   UNL A   1      42.423  27.816  33.675  1.00  0.00     0.012 A 
ATOM     88  C   UNL A   1      43.820  29.197  35.093  1.00  0.00     0.148 A 
ATOM     89  C   UNL A   1      42.300  26.870  34.698  1.00  0.00     0.002 A 
ATOM     90  C   UNL A   1      43.734  28.235  36.093  1.00  0.00     0.091 A 
ATOM     91  F   UNL A   1      44.544  30.316  35.252  1.00  0.00    -0.205 F 
ATOM     92  C   UNL A   1      42.967  27.074  35.903  1.00  0.00     0.022 A 
BRANCH  90  93
ATOM     93  S   UNL A   1      44.670  28.373  37.616  1.00  0.00     0.127 S 
ATOM     94  O   UNL A   1      44.265  29.690  38.104  1.00  0.00    -0.237 OA
ATOM     95  O   UNL A   1      44.161  27.247  38.400  1.00  0.00    -0.237 OA
ATOM     96  O   UNL A   1      46.073  28.250  37.239  1.00  0.00    -0.744 OA
ENDBRANCH  90  93
ENDBRANCH  63  86
ENDBRANCH  37  38
ENDBRANCH  30  32
ENDBRANCH  29  30
ENDBRANCH  28  29
ENDBRANCH   1  28
TORSDOF 18
ENDMDL
