MODEL 1
REMARK VINA RESULT:     -12.2      0.000      0.000
REMARK SMILES CCOc1ccccc1NC(=O)[C@H]1[C@@H]2C=C[C@@H]([C@@H]3C[C@H]23)[C@@H]1C(=O)OCCOC(=O)c1ccc(-c2c3nc(c(-c4cccc(S(=O)(=O)[O-])c4F)c4ccc([nH]4)c(-c4cccc(S(=O)(=O)[O-])c4F)c4nc(c(-c5cccc(S(=O)(=O)[O-])c5F)c5ccc2[nH]5)C=C4)C=C3)cc1
REMARK SMILES IDX 25 1 24 2 22 3 23 4 21 5 13 6 14 7 15 8 20 9 17 10 16 11
REMARK SMILES IDX 18 12 19 13 11 14 10 15 12 17 9 18 4 19 5 20 6 21 8 22 7 23
REMARK SMILES IDX 3 24 2 25 1 26 26 27 27 28 28 29 29 30 30 31 31 32 92 33
REMARK SMILES IDX 32 34 91 35 33 36 34 37 35 38 85 39 36 40 90 41 84 42 86 43
REMARK SMILES IDX 37 44 89 45 83 46 82 47 38 49 70 50 50 51 69 52 51 53 54 54
REMARK SMILES IDX 68 55 87 56 52 57 53 58 67 60 88 61 55 62 39 63 40 64 48 65
REMARK SMILES IDX 41 66 43 67 49 68 42 69 44 70 45 71 46 72 47 73 71 74 72 75
REMARK SMILES IDX 80 76 73 77 75 78 81 79 74 80 76 81 77 82 78 83 79 84 56 85
REMARK SMILES IDX 57 86 65 87 58 88 60 89 66 90 59 91 61 92 62 93 63 94 64 95
REMARK H PARENT 10 16 86 48 54 59
REMARK Flexibility Score: inf
ROOT
ATOM      1  C   UNL A   1      34.888  21.167  24.611  1.00  0.00     0.274 C 
ENDROOT
BRANCH   1   2
ATOM      2  O   UNL A   1      33.984  21.268  25.731  1.00  0.00    -0.462 OA
BRANCH   2   3
ATOM      3  C   UNL A   1      33.670  22.529  26.134  1.00  0.00     0.310 C 
ATOM      4  O   UNL A   1      33.889  22.953  27.263  1.00  0.00    -0.252 OA
BRANCH   3   5
ATOM      5  C   UNL A   1      32.927  23.351  25.090  1.00  0.00     0.119 C 
ATOM      6  C   UNL A   1      32.882  24.870  25.455  1.00  0.00     0.101 C 
ATOM      7  C   UNL A   1      31.364  25.293  25.432  1.00  0.00     0.028 C 
ATOM      8  C   UNL A   1      30.645  24.384  26.438  1.00  0.00    -0.026 C 
ATOM      9  C   UNL A   1      30.737  25.020  24.043  1.00  0.00     0.001 C 
ATOM     10  C   UNL A   1      31.493  22.782  24.864  1.00  0.00     0.030 C 
ATOM     11  C   UNL A   1      30.699  23.075  26.131  1.00  0.00    -0.026 C 
ATOM     12  C   UNL A   1      30.800  23.535  23.720  1.00  0.00     0.001 C 
ATOM     13  C   UNL A   1      31.434  24.532  22.789  1.00  0.00     0.009 C 
BRANCH   6  14
ATOM     14  C   UNL A   1      33.665  25.851  24.581  1.00  0.00     0.229 C 
ATOM     15  N   UNL A   1      33.739  27.190  24.760  1.00  0.00    -0.323 N 
ATOM     16  H   UNL A   1      34.472  27.579  24.229  1.00  0.00     0.170 HD
ATOM     17  O   UNL A   1      34.317  25.421  23.617  1.00  0.00    -0.274 OA
BRANCH  15  18
ATOM     18  C   UNL A   1      33.067  28.178  25.491  1.00  0.00     0.083 A 
ATOM     19  C   UNL A   1      32.065  28.892  24.817  1.00  0.00     0.142 A 
ATOM     20  C   UNL A   1      31.507  30.052  25.352  1.00  0.00     0.048 A 
ATOM     21  C   UNL A   1      31.860  30.439  26.638  1.00  0.00     0.004 A 
ATOM     22  C   UNL A   1      33.284  28.477  26.823  1.00  0.00     0.030 A 
ATOM     23  C   UNL A   1      32.703  29.622  27.390  1.00  0.00     0.002 A 
BRANCH  19  24
ATOM     24  O   UNL A   1      31.627  28.441  23.594  1.00  0.00    -0.492 OA
BRANCH  24  25
ATOM     25  C   UNL A   1      30.465  29.191  23.198  1.00  0.00     0.226 C 
ATOM     26  C   UNL A   1      29.298  28.248  22.945  1.00  0.00     0.049 C 
ENDBRANCH  24  25
ENDBRANCH  19  24
ENDBRANCH  15  18
ENDBRANCH   6  14
ENDBRANCH   3   5
ENDBRANCH   2   3
ENDBRANCH   1   2
BRANCH   1  27
ATOM     27  C   UNL A   1      36.239  20.592  25.019  1.00  0.00     0.275 C 
BRANCH  27  28
ATOM     28  O   UNL A   1      37.003  21.605  25.688  1.00  0.00    -0.458 OA
BRANCH  28  29
ATOM     29  C   UNL A   1      38.333  21.376  25.784  1.00  0.00     0.338 C 
ATOM     30  O   UNL A   1      38.947  20.418  25.348  1.00  0.00    -0.246 OA
BRANCH  29  31
ATOM     31  C   UNL A   1      38.989  22.517  26.458  1.00  0.00     0.060 A 
ATOM     32  C   UNL A   1      38.563  23.816  26.199  1.00  0.00     0.016 A 
ATOM     33  C   UNL A   1      40.119  22.313  27.243  1.00  0.00     0.016 A 
ATOM     34  C   UNL A   1      39.309  24.911  26.605  1.00  0.00     0.010 A 
ATOM     35  C   UNL A   1      40.803  23.417  27.763  1.00  0.00     0.010 A 
ATOM     36  C   UNL A   1      40.428  24.729  27.415  1.00  0.00    -0.014 A 
BRANCH  36  37
ATOM     37  C   UNL A   1      41.229  25.902  27.853  1.00  0.00     0.031 A 
ATOM     38  C   UNL A   1      40.590  26.943  28.729  1.00  0.00     0.074 A 
ATOM     39  C   UNL A   1      42.514  26.040  27.466  1.00  0.00     0.049 A 
ATOM     40  N   UNL A   1      40.997  28.153  29.002  1.00  0.00    -0.248 NA
ATOM     41  C   UNL A   1      39.311  26.583  29.367  1.00  0.00     0.031 C 
ATOM     42  C   UNL A   1      43.273  25.076  26.665  1.00  0.00     0.029 A 
ATOM     43  N   UNL A   1      43.410  27.059  27.684  1.00  0.00    -0.354 N 
ATOM     44  C   UNL A   1      39.975  28.736  29.740  1.00  0.00     0.074 A 
ATOM     45  C   UNL A   1      38.947  27.734  29.914  1.00  0.00     0.031 C 
ATOM     46  C   UNL A   1      44.519  25.536  26.478  1.00  0.00     0.029 A 
ATOM     47  C   UNL A   1      44.617  26.873  27.048  1.00  0.00     0.049 A 
ATOM     48  H   UNL A   1      43.208  27.845  28.243  1.00  0.00     0.167 HD
ATOM     49  C   UNL A   1      39.904  29.999  30.219  1.00  0.00     0.034 A 
ATOM     50  C   UNL A   1      45.660  27.707  26.883  1.00  0.00     0.034 A 
ATOM     51  C   UNL A   1      40.980  30.947  30.130  1.00  0.00     0.049 A 
ATOM     52  C   UNL A   1      45.563  29.096  27.452  1.00  0.00     0.074 A 
ATOM     53  C   UNL A   1      41.034  32.237  30.628  1.00  0.00     0.029 A 
ATOM     54  N   UNL A   1      42.201  30.700  29.522  1.00  0.00    -0.354 N 
ATOM     55  N   UNL A   1      44.597  29.633  28.157  1.00  0.00    -0.248 NA
ATOM     56  C   UNL A   1      46.697  29.994  27.198  1.00  0.00     0.031 C 
ATOM     57  C   UNL A   1      42.288  32.771  30.313  1.00  0.00     0.029 A 
ATOM     58  C   UNL A   1      43.016  31.811  29.630  1.00  0.00     0.049 A 
ATOM     59  H   UNL A   1      42.450  29.857  29.077  1.00  0.00     0.167 HD
ATOM     60  C   UNL A   1      45.011  30.926  28.443  1.00  0.00     0.074 A 
ATOM     61  C   UNL A   1      46.332  31.081  27.867  1.00  0.00     0.031 C 
ATOM     62  C   UNL A   1      44.349  31.913  29.096  1.00  0.00     0.034 A 
BRANCH  49  63
ATOM     63  C   UNL A   1      38.627  30.435  30.883  1.00  0.00     0.023 A 
ATOM     64  C   UNL A   1      38.432  30.215  32.259  1.00  0.00     0.012 A 
ATOM     65  C   UNL A   1      37.651  31.136  30.146  1.00  0.00     0.148 A 
ATOM     66  C   UNL A   1      37.275  30.672  32.891  1.00  0.00     0.002 A 
ATOM     67  C   UNL A   1      36.519  31.622  30.790  1.00  0.00     0.091 A 
ATOM     68  F   UNL A   1      37.847  31.311  28.832  1.00  0.00    -0.205 F 
ATOM     69  C   UNL A   1      36.327  31.384  32.161  1.00  0.00     0.022 A 
BRANCH  67  70
ATOM     70  S   UNL A   1      35.277  32.613  29.952  1.00  0.00     0.127 S 
ATOM     71  O   UNL A   1      34.285  32.800  31.010  1.00  0.00    -0.237 OA
ATOM     72  O   UNL A   1      36.029  33.817  29.602  1.00  0.00    -0.237 OA
ATOM     73  O   UNL A   1      34.829  31.822  28.814  1.00  0.00    -0.744 OA
ENDBRANCH  67  70
ENDBRANCH  49  63
BRANCH  50  74
ATOM     74  C   UNL A   1      46.871  27.262  26.134  1.00  0.00     0.023 A 
ATOM     75  C   UNL A   1      46.984  27.558  24.762  1.00  0.00     0.012 A 
ATOM     76  C   UNL A   1      47.925  26.578  26.773  1.00  0.00     0.148 A 
ATOM     77  C   UNL A   1      48.110  27.162  24.038  1.00  0.00     0.002 A 
ATOM     78  C   UNL A   1      49.072  26.246  26.062  1.00  0.00     0.091 A 
ATOM     79  F   UNL A   1      47.794  26.270  28.073  1.00  0.00    -0.205 F 
ATOM     80  C   UNL A   1      49.161  26.521  24.690  1.00  0.00     0.022 A 
BRANCH  78  81
ATOM     81  S   UNL A   1      50.520  25.571  26.885  1.00  0.00     0.127 S 
ATOM     82  O   UNL A   1      51.431  25.355  25.766  1.00  0.00    -0.237 OA
ATOM     83  O   UNL A   1      50.902  26.655  27.791  1.00  0.00    -0.237 OA
ATOM     84  O   UNL A   1      50.038  24.375  27.566  1.00  0.00    -0.744 OA
ENDBRANCH  78  81
ENDBRANCH  50  74
BRANCH  62  85
ATOM     85  C   UNL A   1      45.054  33.232  29.240  1.00  0.00     0.023 A 
ATOM     86  C   UNL A   1      45.899  33.449  30.346  1.00  0.00     0.012 A 
ATOM     87  C   UNL A   1      44.931  34.227  28.253  1.00  0.00     0.148 A 
ATOM     88  C   UNL A   1      46.588  34.651  30.483  1.00  0.00     0.002 A 
ATOM     89  C   UNL A   1      45.655  35.407  28.374  1.00  0.00     0.091 A 
ATOM     90  F   UNL A   1      44.102  34.009  27.221  1.00  0.00    -0.205 F 
ATOM     91  C   UNL A   1      46.475  35.625  29.492  1.00  0.00     0.022 A 
BRANCH  89  92
ATOM     92  S   UNL A   1      45.632  36.669  27.098  1.00  0.00     0.127 S 
ATOM     93  O   UNL A   1      46.510  37.689  27.670  1.00  0.00    -0.237 OA
ATOM     94  O   UNL A   1      46.189  35.963  25.944  1.00  0.00    -0.237 OA
ATOM     95  O   UNL A   1      44.234  37.052  26.946  1.00  0.00    -0.744 OA
ENDBRANCH  89  92
ENDBRANCH  62  85
ENDBRANCH  36  37
ENDBRANCH  29  31
ENDBRANCH  28  29
ENDBRANCH  27  28
ENDBRANCH   1  27
TORSDOF 18
ENDMDL
MODEL 2
REMARK VINA RESULT:     -12.1      4.952      9.908
REMARK SMILES CCOc1ccccc1NC(=O)[C@H]1[C@@H]2C=C[C@@H]([C@@H]3C[C@H]23)[C@@H]1C(=O)OCCOC(=O)c1ccc(-c2c3nc(c(-c4cccc(S(=O)(=O)[O-])c4F)c4ccc([nH]4)c(-c4cccc(S(=O)(=O)[O-])c4F)c4nc(c(-c5cccc(S(=O)(=O)[O-])c5F)c5ccc2[nH]5)C=C4)C=C3)cc1
REMARK SMILES IDX 25 1 24 2 22 3 23 4 21 5 13 6 14 7 15 8 20 9 17 10 16 11
REMARK SMILES IDX 18 12 19 13 11 14 10 15 12 17 9 18 4 19 5 20 6 21 8 22 7 23
REMARK SMILES IDX 3 24 2 25 1 26 26 27 27 28 28 29 29 30 30 31 31 32 92 33
REMARK SMILES IDX 32 34 91 35 33 36 34 37 35 38 85 39 36 40 90 41 84 42 86 43
REMARK SMILES IDX 37 44 89 45 83 46 82 47 38 49 70 50 50 51 69 52 51 53 54 54
REMARK SMILES IDX 68 55 87 56 52 57 53 58 67 60 88 61 55 62 39 63 40 64 48 65
REMARK SMILES IDX 41 66 43 67 49 68 42 69 44 70 45 71 46 72 47 73 71 74 72 75
REMARK SMILES IDX 80 76 73 77 75 78 81 79 74 80 76 81 77 82 78 83 79 84 56 85
REMARK SMILES IDX 57 86 65 87 58 88 60 89 66 90 59 91 61 92 62 93 63 94 64 95
REMARK H PARENT 10 16 86 48 54 59
REMARK Flexibility Score: inf
ROOT
ATOM      1  C   UNL A   1      32.127  28.538  27.009  1.00  0.00     0.274 C 
ENDROOT
BRANCH   1   2
ATOM      2  O   UNL A   1      32.533  28.075  25.705  1.00  0.00    -0.462 OA
BRANCH   2   3
ATOM      3  C   UNL A   1      31.532  27.688  24.869  1.00  0.00     0.310 C 
ATOM      4  O   UNL A   1      30.679  28.453  24.434  1.00  0.00    -0.252 OA
BRANCH   3   5
ATOM      5  C   UNL A   1      31.497  26.192  24.589  1.00  0.00     0.119 C 
ATOM      6  C   UNL A   1      32.797  25.469  25.073  1.00  0.00     0.101 C 
ATOM      7  C   UNL A   1      33.365  24.686  23.829  1.00  0.00     0.028 C 
ATOM      8  C   UNL A   1      33.601  25.730  22.730  1.00  0.00    -0.026 C 
ATOM      9  C   UNL A   1      32.321  23.682  23.284  1.00  0.00     0.001 C 
ATOM     10  C   UNL A   1      31.233  25.924  23.076  1.00  0.00     0.030 C 
ATOM     11  C   UNL A   1      32.485  26.364  22.326  1.00  0.00    -0.026 C 
ATOM     12  C   UNL A   1      31.072  24.418  22.825  1.00  0.00     0.001 C 
ATOM     13  C   UNL A   1      30.965  23.342  23.872  1.00  0.00     0.009 C 
BRANCH   6  14
ATOM     14  C   UNL A   1      32.690  24.492  26.245  1.00  0.00     0.229 C 
ATOM     15  N   UNL A   1      33.625  23.584  26.610  1.00  0.00    -0.323 N 
ATOM     16  H   UNL A   1      33.446  23.234  27.512  1.00  0.00     0.170 HD
ATOM     17  O   UNL A   1      31.678  24.508  26.961  1.00  0.00    -0.274 OA
BRANCH  15  18
ATOM     18  C   UNL A   1      34.777  23.005  26.063  1.00  0.00     0.083 A 
ATOM     19  C   UNL A   1      34.650  21.705  25.552  1.00  0.00     0.142 A 
ATOM     20  C   UNL A   1      35.765  20.938  25.216  1.00  0.00     0.048 A 
ATOM     21  C   UNL A   1      37.025  21.520  25.270  1.00  0.00     0.004 A 
ATOM     22  C   UNL A   1      36.010  23.621  25.954  1.00  0.00     0.030 A 
ATOM     23  C   UNL A   1      37.140  22.874  25.585  1.00  0.00     0.002 A 
BRANCH  19  24
ATOM     24  O   UNL A   1      33.395  21.170  25.384  1.00  0.00    -0.492 OA
BRANCH  24  25
ATOM     25  C   UNL A   1      33.511  19.767  25.085  1.00  0.00     0.226 C 
ATOM     26  C   UNL A   1      32.548  19.392  23.969  1.00  0.00     0.049 C 
ENDBRANCH  24  25
ENDBRANCH  19  24
ENDBRANCH  15  18
ENDBRANCH   6  14
ENDBRANCH   3   5
ENDBRANCH   2   3
ENDBRANCH   1   2
BRANCH   1  27
ATOM     27  C   UNL A   1      32.010  30.058  27.063  1.00  0.00     0.275 C 
BRANCH  27  28
ATOM     28  O   UNL A   1      33.241  30.644  26.620  1.00  0.00    -0.458 OA
BRANCH  28  29
ATOM     29  C   UNL A   1      33.756  31.611  27.414  1.00  0.00     0.338 C 
ATOM     30  O   UNL A   1      33.200  32.631  27.783  1.00  0.00    -0.246 OA
BRANCH  29  31
ATOM     31  C   UNL A   1      35.114  31.229  27.852  1.00  0.00     0.060 A 
ATOM     32  C   UNL A   1      35.376  29.918  28.241  1.00  0.00     0.016 A 
ATOM     33  C   UNL A   1      36.100  32.197  28.012  1.00  0.00     0.016 A 
ATOM     34  C   UNL A   1      36.552  29.584  28.893  1.00  0.00     0.010 A 
ATOM     35  C   UNL A   1      37.337  31.836  28.554  1.00  0.00     0.010 A 
ATOM     36  C   UNL A   1      37.562  30.533  29.039  1.00  0.00    -0.014 A 
BRANCH  36  37
ATOM     37  C   UNL A   1      38.824  30.176  29.737  1.00  0.00     0.031 A 
ATOM     38  C   UNL A   1      39.782  29.220  29.082  1.00  0.00     0.074 A 
ATOM     39  C   UNL A   1      39.110  30.696  30.949  1.00  0.00     0.049 A 
ATOM     40  N   UNL A   1      40.785  28.570  29.607  1.00  0.00    -0.248 NA
ATOM     41  C   UNL A   1      39.571  28.942  27.650  1.00  0.00     0.031 C 
ATOM     42  C   UNL A   1      38.296  31.678  31.670  1.00  0.00     0.029 A 
ATOM     43  N   UNL A   1      40.163  30.458  31.798  1.00  0.00    -0.354 N 
ATOM     44  C   UNL A   1      41.247  27.722  28.609  1.00  0.00     0.074 A 
ATOM     45  C   UNL A   1      40.447  27.971  27.431  1.00  0.00     0.031 C 
ATOM     46  C   UNL A   1      38.887  31.974  32.837  1.00  0.00     0.029 A 
ATOM     47  C   UNL A   1      40.059  31.125  32.999  1.00  0.00     0.049 A 
ATOM     48  H   UNL A   1      40.919  29.869  31.571  1.00  0.00     0.167 HD
ATOM     49  C   UNL A   1      42.246  26.812  28.679  1.00  0.00     0.034 A 
ATOM     50  C   UNL A   1      40.784  31.018  34.128  1.00  0.00     0.034 A 
ATOM     51  C   UNL A   1      43.101  26.654  29.824  1.00  0.00     0.049 A 
ATOM     52  C   UNL A   1      41.906  30.018  34.166  1.00  0.00     0.074 A 
ATOM     53  C   UNL A   1      44.177  25.799  29.982  1.00  0.00     0.029 A 
ATOM     54  N   UNL A   1      42.991  27.384  30.997  1.00  0.00    -0.354 N 
ATOM     55  N   UNL A   1      42.342  29.230  33.213  1.00  0.00    -0.248 NA
ATOM     56  C   UNL A   1      42.634  29.889  35.436  1.00  0.00     0.031 C 
ATOM     57  C   UNL A   1      44.714  26.008  31.257  1.00  0.00     0.029 A 
ATOM     58  C   UNL A   1      43.978  27.000  31.886  1.00  0.00     0.049 A 
ATOM     59  H   UNL A   1      42.310  28.073  31.171  1.00  0.00     0.167 HD
ATOM     60  C   UNL A   1      43.401  28.521  33.762  1.00  0.00     0.074 A 
ATOM     61  C   UNL A   1      43.566  29.000  35.121  1.00  0.00     0.031 C 
ATOM     62  C   UNL A   1      44.153  27.538  33.209  1.00  0.00     0.034 A 
BRANCH  49  63
ATOM     63  C   UNL A   1      42.475  25.916  27.493  1.00  0.00     0.023 A 
ATOM     64  C   UNL A   1      43.206  26.381  26.384  1.00  0.00     0.012 A 
ATOM     65  C   UNL A   1      42.024  24.581  27.518  1.00  0.00     0.148 A 
ATOM     66  C   UNL A   1      43.472  25.534  25.308  1.00  0.00     0.002 A 
ATOM     67  C   UNL A   1      42.326  23.732  26.460  1.00  0.00     0.091 A 
ATOM     68  F   UNL A   1      41.308  24.168  28.574  1.00  0.00    -0.205 F 
ATOM     69  C   UNL A   1      43.043  24.209  25.351  1.00  0.00     0.022 A 
BRANCH  67  70
ATOM     70  S   UNL A   1      41.882  21.992  26.456  1.00  0.00     0.127 S 
ATOM     71  O   UNL A   1      40.430  22.057  26.295  1.00  0.00    -0.237 OA
ATOM     72  O   UNL A   1      42.604  21.493  25.286  1.00  0.00    -0.237 OA
ATOM     73  O   UNL A   1      42.342  21.454  27.729  1.00  0.00    -0.744 OA
ENDBRANCH  67  70
ENDBRANCH  49  63
BRANCH  50  74
ATOM     74  C   UNL A   1      40.460  31.862  35.315  1.00  0.00     0.023 A 
ATOM     75  C   UNL A   1      41.249  32.994  35.594  1.00  0.00     0.012 A 
ATOM     76  C   UNL A   1      39.361  31.574  36.149  1.00  0.00     0.148 A 
ATOM     77  C   UNL A   1      40.964  33.807  36.693  1.00  0.00     0.002 A 
ATOM     78  C   UNL A   1      39.043  32.425  37.200  1.00  0.00     0.091 A 
ATOM     79  F   UNL A   1      38.635  30.474  35.895  1.00  0.00    -0.205 F 
ATOM     80  C   UNL A   1      39.853  33.533  37.486  1.00  0.00     0.022 A 
BRANCH  78  81
ATOM     81  S   UNL A   1      37.532  32.214  38.150  1.00  0.00     0.127 S 
ATOM     82  O   UNL A   1      37.885  32.835  39.422  1.00  0.00    -0.237 OA
ATOM     83  O   UNL A   1      36.553  32.955  37.354  1.00  0.00    -0.237 OA
ATOM     84  O   UNL A   1      37.304  30.774  38.174  1.00  0.00    -0.744 OA
ENDBRANCH  78  81
ENDBRANCH  50  74
BRANCH  62  85
ATOM     85  C   UNL A   1      45.233  26.938  34.064  1.00  0.00     0.023 A 
ATOM     86  C   UNL A   1      46.516  27.520  34.070  1.00  0.00     0.012 A 
ATOM     87  C   UNL A   1      44.962  25.843  34.905  1.00  0.00     0.148 A 
ATOM     88  C   UNL A   1      47.523  27.001  34.879  1.00  0.00     0.002 A 
ATOM     89  C   UNL A   1      45.960  25.357  35.742  1.00  0.00     0.091 A 
ATOM     90  F   UNL A   1      43.741  25.289  34.866  1.00  0.00    -0.205 F 
ATOM     91  C   UNL A   1      47.243  25.928  35.722  1.00  0.00     0.022 A 
BRANCH  89  92
ATOM     92  S   UNL A   1      45.651  24.039  36.920  1.00  0.00     0.127 S 
ATOM     93  O   UNL A   1      45.134  22.980  36.056  1.00  0.00    -0.237 OA
ATOM     94  O   UNL A   1      46.985  23.784  37.467  1.00  0.00    -0.237 OA
ATOM     95  O   UNL A   1      44.705  24.586  37.885  1.00  0.00    -0.744 OA
ENDBRANCH  89  92
ENDBRANCH  62  85
ENDBRANCH  36  37
ENDBRANCH  29  31
ENDBRANCH  28  29
ENDBRANCH  27  28
ENDBRANCH   1  27
TORSDOF 18
ENDMDL
MODEL 3
REMARK VINA RESULT:     -11.9      4.663      9.431
REMARK SMILES CCOc1ccccc1NC(=O)[C@H]1[C@@H]2C=C[C@@H]([C@@H]3C[C@H]23)[C@@H]1C(=O)OCCOC(=O)c1ccc(-c2c3nc(c(-c4cccc(S(=O)(=O)[O-])c4F)c4ccc([nH]4)c(-c4cccc(S(=O)(=O)[O-])c4F)c4nc(c(-c5cccc(S(=O)(=O)[O-])c5F)c5ccc2[nH]5)C=C4)C=C3)cc1
REMARK SMILES IDX 25 1 24 2 22 3 23 4 21 5 13 6 14 7 15 8 20 9 17 10 16 11
REMARK SMILES IDX 18 12 19 13 11 14 10 15 12 17 9 18 4 19 5 20 6 21 8 22 7 23
REMARK SMILES IDX 3 24 2 25 1 26 26 27 27 28 28 29 29 30 30 31 31 32 92 33
REMARK SMILES IDX 32 34 91 35 33 36 34 37 35 38 85 39 36 40 90 41 84 42 86 43
REMARK SMILES IDX 37 44 89 45 83 46 82 47 38 49 70 50 50 51 69 52 51 53 54 54
REMARK SMILES IDX 68 55 87 56 52 57 53 58 67 60 88 61 55 62 39 63 40 64 48 65
REMARK SMILES IDX 41 66 43 67 49 68 42 69 44 70 45 71 46 72 47 73 71 74 72 75
REMARK SMILES IDX 80 76 73 77 75 78 81 79 74 80 76 81 77 82 78 83 79 84 56 85
REMARK SMILES IDX 57 86 65 87 58 88 60 89 66 90 59 91 61 92 62 93 63 94 64 95
REMARK H PARENT 10 16 86 48 54 59
REMARK Flexibility Score: inf
ROOT
ATOM      1  C   UNL A   1      31.752  27.574  26.970  1.00  0.00     0.274 C 
ENDROOT
BRANCH   1   2
ATOM      2  O   UNL A   1      32.650  26.790  26.158  1.00  0.00    -0.462 OA
BRANCH   2   3
ATOM      3  C   UNL A   1      32.421  25.449  26.139  1.00  0.00     0.310 C 
ATOM      4  O   UNL A   1      31.542  24.902  26.796  1.00  0.00    -0.252 OA
BRANCH   3   5
ATOM      5  C   UNL A   1      33.416  24.658  25.301  1.00  0.00     0.119 C 
ATOM      6  C   UNL A   1      32.722  23.543  24.452  1.00  0.00     0.101 C 
ATOM      7  C   UNL A   1      33.450  22.191  24.804  1.00  0.00     0.028 C 
ATOM      8  C   UNL A   1      33.310  22.004  26.321  1.00  0.00    -0.026 C 
ATOM      9  C   UNL A   1      34.965  22.284  24.497  1.00  0.00     0.001 C 
ATOM     10  C   UNL A   1      34.540  24.062  26.203  1.00  0.00     0.030 C 
ATOM     11  C   UNL A   1      33.893  22.973  27.050  1.00  0.00    -0.026 C 
ATOM     12  C   UNL A   1      35.606  23.378  25.337  1.00  0.00     0.001 C 
ATOM     13  C   UNL A   1      35.710  23.427  23.837  1.00  0.00     0.009 C 
BRANCH   6  14
ATOM     14  C   UNL A   1      32.704  23.695  22.930  1.00  0.00     0.229 C 
ATOM     15  N   UNL A   1      32.890  24.846  22.244  1.00  0.00    -0.323 N 
ATOM     16  H   UNL A   1      33.064  24.667  21.292  1.00  0.00     0.170 HD
ATOM     17  O   UNL A   1      32.518  22.694  22.221  1.00  0.00    -0.274 OA
BRANCH  15  18
ATOM     18  C   UNL A   1      32.905  26.221  22.510  1.00  0.00     0.083 A 
ATOM     19  C   UNL A   1      31.664  26.836  22.733  1.00  0.00     0.142 A 
ATOM     20  C   UNL A   1      31.529  28.224  22.757  1.00  0.00     0.048 A 
ATOM     21  C   UNL A   1      32.669  29.014  22.686  1.00  0.00     0.004 A 
ATOM     22  C   UNL A   1      34.039  27.006  22.606  1.00  0.00     0.030 A 
ATOM     23  C   UNL A   1      33.923  28.404  22.666  1.00  0.00     0.002 A 
BRANCH  19  24
ATOM     24  O   UNL A   1      30.552  26.052  22.926  1.00  0.00    -0.492 OA
BRANCH  24  25
ATOM     25  C   UNL A   1      29.565  26.797  23.661  1.00  0.00     0.226 C 
ATOM     26  C   UNL A   1      29.028  25.958  24.810  1.00  0.00     0.049 C 
ENDBRANCH  24  25
ENDBRANCH  19  24
ENDBRANCH  15  18
ENDBRANCH   6  14
ENDBRANCH   3   5
ENDBRANCH   2   3
ENDBRANCH   1   2
BRANCH   1  27
ATOM     27  C   UNL A   1      31.557  28.979  26.410  1.00  0.00     0.275 C 
BRANCH  27  28
ATOM     28  O   UNL A   1      32.838  29.557  26.125  1.00  0.00    -0.458 OA
BRANCH  28  29
ATOM     29  C   UNL A   1      33.159  30.665  26.834  1.00  0.00     0.338 C 
ATOM     30  O   UNL A   1      32.440  31.621  27.065  1.00  0.00    -0.246 OA
BRANCH  29  31
ATOM     31  C   UNL A   1      34.529  30.535  27.371  1.00  0.00     0.060 A 
ATOM     32  C   UNL A   1      35.085  29.273  27.560  1.00  0.00     0.016 A 
ATOM     33  C   UNL A   1      35.216  31.658  27.821  1.00  0.00     0.016 A 
ATOM     34  C   UNL A   1      36.250  29.104  28.292  1.00  0.00     0.010 A 
ATOM     35  C   UNL A   1      36.456  31.499  28.448  1.00  0.00     0.010 A 
ATOM     36  C   UNL A   1      36.967  30.216  28.727  1.00  0.00    -0.014 A 
BRANCH  36  37
ATOM     37  C   UNL A   1      38.216  30.037  29.511  1.00  0.00     0.031 A 
ATOM     38  C   UNL A   1      39.328  29.200  28.942  1.00  0.00     0.074 A 
ATOM     39  C   UNL A   1      38.356  30.611  30.724  1.00  0.00     0.049 A 
ATOM     40  N   UNL A   1      40.369  28.693  29.545  1.00  0.00    -0.248 NA
ATOM     41  C   UNL A   1      39.247  28.871  27.507  1.00  0.00     0.031 C 
ATOM     42  C   UNL A   1      37.379  31.494  31.368  1.00  0.00     0.029 A 
ATOM     43  N   UNL A   1      39.373  30.526  31.643  1.00  0.00    -0.354 N 
ATOM     44  C   UNL A   1      40.998  27.893  28.599  1.00  0.00     0.074 A 
ATOM     45  C   UNL A   1      40.251  28.017  27.368  1.00  0.00     0.031 C 
ATOM     46  C   UNL A   1      37.851  31.884  32.560  1.00  0.00     0.029 A 
ATOM     47  C   UNL A   1      39.108  31.195  32.817  1.00  0.00     0.049 A 
ATOM     48  H   UNL A   1      40.211  30.034  31.478  1.00  0.00     0.167 HD
ATOM     49  C   UNL A   1      42.097  27.120  28.755  1.00  0.00     0.034 A 
ATOM     50  C   UNL A   1      39.767  31.202  33.991  1.00  0.00     0.034 A 
ATOM     51  C   UNL A   1      42.890  27.094  29.954  1.00  0.00     0.049 A 
ATOM     52  C   UNL A   1      41.002  30.355  34.125  1.00  0.00     0.074 A 
ATOM     53  C   UNL A   1      44.053  26.386  30.201  1.00  0.00     0.029 A 
ATOM     54  N   UNL A   1      42.613  27.825  31.099  1.00  0.00    -0.354 N 
ATOM     55  N   UNL A   1      41.594  29.612  33.222  1.00  0.00    -0.248 NA
ATOM     56  C   UNL A   1      41.656  30.344  35.440  1.00  0.00     0.031 C 
ATOM     57  C   UNL A   1      44.476  26.686  31.500  1.00  0.00     0.029 A 
ATOM     58  C   UNL A   1      43.582  27.587  32.056  1.00  0.00     0.049 A 
ATOM     59  H   UNL A   1      41.841  28.425  31.213  1.00  0.00     0.167 HD
ATOM     60  C   UNL A   1      42.697  29.055  33.853  1.00  0.00     0.074 A 
ATOM     61  C   UNL A   1      42.712  29.576  35.206  1.00  0.00     0.031 C 
ATOM     62  C   UNL A   1      43.602  28.166  33.374  1.00  0.00     0.034 A 
BRANCH  49  63
ATOM     63  C   UNL A   1      42.514  26.240  27.609  1.00  0.00     0.023 A 
ATOM     64  C   UNL A   1      43.445  26.704  26.661  1.00  0.00     0.012 A 
ATOM     65  C   UNL A   1      42.033  24.918  27.522  1.00  0.00     0.148 A 
ATOM     66  C   UNL A   1      43.879  25.868  25.631  1.00  0.00     0.002 A 
ATOM     67  C   UNL A   1      42.500  24.079  26.517  1.00  0.00     0.091 A 
ATOM     68  F   UNL A   1      41.128  24.507  28.422  1.00  0.00    -0.205 F 
ATOM     69  C   UNL A   1      43.417  24.556  25.566  1.00  0.00     0.022 A 
BRANCH  67  70
ATOM     70  S   UNL A   1      42.020  22.353  26.393  1.00  0.00     0.127 S 
ATOM     71  O   UNL A   1      40.567  22.459  26.255  1.00  0.00    -0.237 OA
ATOM     72  O   UNL A   1      42.717  21.927  25.180  1.00  0.00    -0.237 OA
ATOM     73  O   UNL A   1      42.483  21.716  27.617  1.00  0.00    -0.744 OA
ENDBRANCH  67  70
ENDBRANCH  49  63
BRANCH  50  74
ATOM     74  C   UNL A   1      39.263  32.019  35.133  1.00  0.00     0.023 A 
ATOM     75  C   UNL A   1      38.332  31.458  36.028  1.00  0.00     0.012 A 
ATOM     76  C   UNL A   1      39.720  33.333  35.361  1.00  0.00     0.148 A 
ATOM     77  C   UNL A   1      37.851  32.196  37.111  1.00  0.00     0.002 A 
ATOM     78  C   UNL A   1      39.288  34.038  36.478  1.00  0.00     0.091 A 
ATOM     79  F   UNL A   1      40.581  33.873  34.484  1.00  0.00    -0.205 F 
ATOM     80  C   UNL A   1      38.339  33.479  37.345  1.00  0.00     0.022 A 
BRANCH  78  81
ATOM     81  S   UNL A   1      40.008  35.624  36.919  1.00  0.00     0.127 S 
ATOM     82  O   UNL A   1      39.652  36.448  35.769  1.00  0.00    -0.237 OA
ATOM     83  O   UNL A   1      39.303  35.957  38.157  1.00  0.00    -0.237 OA
ATOM     84  O   UNL A   1      41.428  35.351  37.104  1.00  0.00    -0.744 OA
ENDBRANCH  78  81
ENDBRANCH  50  74
BRANCH  62  85
ATOM     85  C   UNL A   1      44.691  27.726  34.308  1.00  0.00     0.023 A 
ATOM     86  C   UNL A   1      45.880  28.477  34.391  1.00  0.00     0.012 A 
ATOM     87  C   UNL A   1      44.514  26.610  35.148  1.00  0.00     0.148 A 
ATOM     88  C   UNL A   1      46.890  28.106  35.275  1.00  0.00     0.002 A 
ATOM     89  C   UNL A   1      45.508  26.270  36.057  1.00  0.00     0.091 A 
ATOM     90  F   UNL A   1      43.385  25.895  35.035  1.00  0.00    -0.205 F 
ATOM     91  C   UNL A   1      46.700  27.011  36.115  1.00  0.00     0.022 A 
BRANCH  89  92
ATOM     92  S   UNL A   1      45.301  24.930  37.234  1.00  0.00     0.127 S 
ATOM     93  O   UNL A   1      46.565  24.979  37.967  1.00  0.00    -0.237 OA
ATOM     94  O   UNL A   1      44.132  25.361  38.002  1.00  0.00    -0.237 OA
ATOM     95  O   UNL A   1      45.081  23.733  36.432  1.00  0.00    -0.744 OA
ENDBRANCH  89  92
ENDBRANCH  62  85
ENDBRANCH  36  37
ENDBRANCH  29  31
ENDBRANCH  28  29
ENDBRANCH  27  28
ENDBRANCH   1  27
TORSDOF 18
ENDMDL
