MODEL 1
REMARK VINA RESULT:     -12.6      0.000      0.000
REMARK SMILES NC(=O)[C@@H]1CCC[N@@H+]1[C@@H](C(=O)OCCOC(=O)c1ccc(-c2c3nc(c(-c4cccc(S(=O)(=O)[O-])c4F)c4ccc([nH]4)c(-c4cccc(S(=O)(=O)[O-])c4F)c4nc(c(-c5cccc(S(=O)(=O)[O-])c5F)c5ccc2[nH]5)C=C4)C=C3)cc1)c1c[nH]c2cc(OCc3ccccc3)ccc12
REMARK SMILES IDX 13 1 12 2 10 3 11 4 9 5 8 6 4 7 5 8 6 9 7 10 2 12 1 13 3 16
REMARK SMILES IDX 81 17 82 18 97 19 83 20 84 21 96 22 85 24 95 25 86 26 87 27
REMARK SMILES IDX 88 28 89 29 90 30 94 31 91 32 93 33 92 34 14 35 15 36 16 37
REMARK SMILES IDX 17 38 18 39 19 40 80 41 20 42 79 43 21 44 22 45 23 46 73 47
REMARK SMILES IDX 24 48 78 49 72 50 74 51 25 52 77 53 71 54 70 55 26 57 58 58
REMARK SMILES IDX 38 59 57 60 39 61 42 62 56 63 75 64 40 65 41 66 55 68 76 69
REMARK SMILES IDX 43 70 27 71 28 72 36 73 29 74 31 75 37 76 30 77 32 78 33 79
REMARK SMILES IDX 34 80 35 81 59 82 60 83 68 84 61 85 63 86 69 87 62 88 64 89
REMARK SMILES IDX 65 90 66 91 67 92 44 93 45 94 53 95 46 96 48 97 54 98 47 99
REMARK SMILES IDX 49 100 50 101 51 102 52 103
REMARK H PARENT 8 11 1 14 1 15 83 23 74 56 42 67
REMARK Flexibility Score: inf
ROOT
ATOM      1  C   UNL A   1      32.354  28.978  25.675  1.00  0.00     0.274 C 
ENDROOT
BRANCH   1   2
ATOM      2  O   UNL A   1      31.328  28.351  26.492  1.00  0.00    -0.457 OA
BRANCH   2   3
ATOM      3  C   UNL A   1      31.053  27.056  26.177  1.00  0.00     0.370 C 
ATOM      4  O   UNL A   1      30.286  26.353  26.836  1.00  0.00    -0.245 OA
BRANCH   3   5
ATOM      5  C   UNL A   1      31.842  26.473  25.008  1.00  0.00     0.329 C 
BRANCH   5   6
ATOM      6  N   UNL A   1      31.109  26.218  23.682  1.00  0.00    -0.309 N 
ATOM      7  C   UNL A   1      31.520  26.890  22.416  1.00  0.00     0.275 C 
ATOM      8  C   UNL A   1      30.835  28.255  22.397  1.00  0.00     0.081 C 
ATOM      9  C   UNL A   1      29.715  28.114  23.420  1.00  0.00     0.068 C 
ATOM     10  C   UNL A   1      29.687  26.624  23.693  1.00  0.00     0.264 C 
ATOM     11  H   UNL A   1      31.342  25.225  23.657  1.00  0.00     0.349 HD
BRANCH   7  12
ATOM     12  C   UNL A   1      32.960  26.840  21.923  1.00  0.00     0.275 C 
ATOM     13  N   UNL A   1      33.611  28.046  21.912  1.00  0.00    -0.365 N 
ATOM     14  H   UNL A   1      34.546  28.099  21.607  1.00  0.00     0.159 HD
ATOM     15  H   UNL A   1      33.144  28.860  22.211  1.00  0.00     0.159 HD
ATOM     16  O   UNL A   1      33.596  25.825  21.656  1.00  0.00    -0.268 OA
ENDBRANCH   7  12
ENDBRANCH   5   6
BRANCH   5  17
ATOM     17  C   UNL A   1      32.976  25.434  25.233  1.00  0.00     0.046 A 
ATOM     18  C   UNL A   1      34.315  25.785  25.060  1.00  0.00     0.094 A 
ATOM     19  C   UNL A   1      33.047  23.994  25.331  1.00  0.00     0.009 A 
ATOM     20  N   UNL A   1      34.921  24.722  24.435  1.00  0.00    -0.361 N 
ATOM     21  C   UNL A   1      34.095  23.630  24.487  1.00  0.00     0.050 A 
ATOM     22  C   UNL A   1      32.389  22.911  25.936  1.00  0.00     0.015 A 
ATOM     23  H   UNL A   1      35.811  24.743  24.016  1.00  0.00     0.166 HD
ATOM     24  C   UNL A   1      34.196  22.361  23.903  1.00  0.00     0.073 A 
ATOM     25  C   UNL A   1      32.666  21.578  25.579  1.00  0.00     0.047 A 
ATOM     26  C   UNL A   1      33.462  21.319  24.479  1.00  0.00     0.121 A 
BRANCH  26  27
ATOM     27  O   UNL A   1      33.628  20.100  23.879  1.00  0.00    -0.489 OA
BRANCH  27  28
ATOM     28  C   UNL A   1      32.574  19.137  23.988  1.00  0.00     0.265 C 
BRANCH  28  29
ATOM     29  C   UNL A   1      33.040  17.786  24.483  1.00  0.00    -0.011 A 
ATOM     30  C   UNL A   1      34.366  17.391  24.247  1.00  0.00     0.007 A 
ATOM     31  C   UNL A   1      32.198  16.922  25.200  1.00  0.00     0.007 A 
ATOM     32  C   UNL A   1      34.830  16.163  24.716  1.00  0.00     0.000 A 
ATOM     33  C   UNL A   1      32.662  15.698  25.665  1.00  0.00     0.000 A 
ATOM     34  C   UNL A   1      33.977  15.325  25.424  1.00  0.00     0.000 A 
ENDBRANCH  28  29
ENDBRANCH  27  28
ENDBRANCH  26  27
ENDBRANCH   5  17
ENDBRANCH   3   5
ENDBRANCH   2   3
ENDBRANCH   1   2
BRANCH   1  35
ATOM     35  C   UNL A   1      32.394  30.479  25.913  1.00  0.00     0.275 C 
BRANCH  35  36
ATOM     36  O   UNL A   1      32.671  30.699  27.308  1.00  0.00    -0.458 OA
BRANCH  36  37
ATOM     37  C   UNL A   1      33.525  31.715  27.545  1.00  0.00     0.338 C 
ATOM     38  O   UNL A   1      33.220  32.892  27.679  1.00  0.00    -0.246 OA
BRANCH  37  39
ATOM     39  C   UNL A   1      34.917  31.254  27.782  1.00  0.00     0.060 A 
ATOM     40  C   UNL A   1      35.182  29.955  28.219  1.00  0.00     0.016 A 
ATOM     41  C   UNL A   1      35.899  32.238  27.922  1.00  0.00     0.016 A 
ATOM     42  C   UNL A   1      36.359  29.674  28.916  1.00  0.00     0.010 A 
ATOM     43  C   UNL A   1      37.119  31.932  28.532  1.00  0.00     0.010 A 
ATOM     44  C   UNL A   1      37.348  30.656  29.067  1.00  0.00    -0.014 A 
BRANCH  44  45
ATOM     45  C   UNL A   1      38.677  30.312  29.634  1.00  0.00     0.031 A 
ATOM     46  C   UNL A   1      39.598  29.308  28.994  1.00  0.00     0.074 A 
ATOM     47  C   UNL A   1      39.022  30.889  30.801  1.00  0.00     0.049 A 
ATOM     48  N   UNL A   1      40.650  28.718  29.503  1.00  0.00    -0.248 NA
ATOM     49  C   UNL A   1      39.315  28.929  27.602  1.00  0.00     0.031 C 
ATOM     50  C   UNL A   1      38.238  31.913  31.495  1.00  0.00     0.029 A 
ATOM     51  N   UNL A   1      40.098  30.675  31.624  1.00  0.00    -0.354 N 
ATOM     52  C   UNL A   1      41.130  27.858  28.520  1.00  0.00     0.074 A 
ATOM     53  C   UNL A   1      40.268  28.029  27.369  1.00  0.00     0.031 C 
ATOM     54  C   UNL A   1      38.843  32.224  32.646  1.00  0.00     0.029 A 
ATOM     55  C   UNL A   1      39.999  31.353  32.815  1.00  0.00     0.049 A 
ATOM     56  H   UNL A   1      40.860  30.098  31.387  1.00  0.00     0.167 HD
ATOM     57  C   UNL A   1      42.191  27.014  28.584  1.00  0.00     0.034 A 
ATOM     58  C   UNL A   1      40.702  31.241  33.956  1.00  0.00     0.034 A 
ATOM     59  C   UNL A   1      43.073  26.908  29.723  1.00  0.00     0.049 A 
ATOM     60  C   UNL A   1      41.839  30.272  34.016  1.00  0.00     0.074 A 
ATOM     61  C   UNL A   1      44.195  26.106  29.870  1.00  0.00     0.029 A 
ATOM     62  N   UNL A   1      42.948  27.629  30.901  1.00  0.00    -0.354 N 
ATOM     63  N   UNL A   1      42.270  29.453  33.090  1.00  0.00    -0.248 NA
ATOM     64  C   UNL A   1      42.605  30.231  35.268  1.00  0.00     0.031 C 
ATOM     65  C   UNL A   1      44.734  26.328  31.140  1.00  0.00     0.029 A 
ATOM     66  C   UNL A   1      43.974  27.296  31.773  1.00  0.00     0.049 A 
ATOM     67  H   UNL A   1      42.236  28.281  31.090  1.00  0.00     0.167 HD
ATOM     68  C   UNL A   1      43.380  28.820  33.632  1.00  0.00     0.074 A 
ATOM     69  C   UNL A   1      43.562  29.366  34.963  1.00  0.00     0.031 C 
ATOM     70  C   UNL A   1      44.169  27.867  33.080  1.00  0.00     0.034 A 
BRANCH  57  71
ATOM     71  C   UNL A   1      42.524  26.138  27.396  1.00  0.00     0.023 A 
ATOM     72  C   UNL A   1      43.454  26.583  26.436  1.00  0.00     0.012 A 
ATOM     73  C   UNL A   1      42.059  24.806  27.334  1.00  0.00     0.148 A 
ATOM     74  C   UNL A   1      43.913  25.721  25.436  1.00  0.00     0.002 A 
ATOM     75  C   UNL A   1      42.548  23.941  26.355  1.00  0.00     0.091 A 
ATOM     76  F   UNL A   1      41.158  24.398  28.239  1.00  0.00    -0.205 F 
ATOM     77  C   UNL A   1      43.473  24.399  25.404  1.00  0.00     0.022 A 
BRANCH  75  78
ATOM     78  S   UNL A   1      42.041  22.217  26.260  1.00  0.00     0.127 S 
ATOM     79  O   UNL A   1      42.748  21.763  25.064  1.00  0.00    -0.237 OA
ATOM     80  O   UNL A   1      42.558  21.664  27.513  1.00  0.00    -0.237 OA
ATOM     81  O   UNL A   1      40.588  22.238  26.163  1.00  0.00    -0.744 OA
ENDBRANCH  75  78
ENDBRANCH  57  71
BRANCH  58  82
ATOM     82  C   UNL A   1      40.316  32.079  35.120  1.00  0.00     0.023 A 
ATOM     83  C   UNL A   1      40.743  33.416  35.184  1.00  0.00     0.012 A 
ATOM     84  C   UNL A   1      39.427  31.586  36.097  1.00  0.00     0.148 A 
ATOM     85  C   UNL A   1      40.293  34.252  36.207  1.00  0.00     0.002 A 
ATOM     86  C   UNL A   1      38.928  32.441  37.069  1.00  0.00     0.091 A 
ATOM     87  F   UNL A   1      39.049  30.302  36.024  1.00  0.00    -0.205 F 
ATOM     88  C   UNL A   1      39.372  33.771  37.135  1.00  0.00     0.022 A 
BRANCH  86  89
ATOM     89  S   UNL A   1      37.608  31.949  38.184  1.00  0.00     0.127 S 
ATOM     90  O   UNL A   1      38.268  32.030  39.484  1.00  0.00    -0.237 OA
ATOM     91  O   UNL A   1      36.601  32.984  37.939  1.00  0.00    -0.237 OA
ATOM     92  O   UNL A   1      37.209  30.617  37.754  1.00  0.00    -0.744 OA
ENDBRANCH  86  89
ENDBRANCH  58  82
BRANCH  70  93
ATOM     93  C   UNL A   1      45.335  27.387  33.900  1.00  0.00     0.023 A 
ATOM     94  C   UNL A   1      46.574  28.054  33.819  1.00  0.00     0.012 A 
ATOM     95  C   UNL A   1      45.198  26.285  34.766  1.00  0.00     0.148 A 
ATOM     96  C   UNL A   1      47.671  27.600  34.550  1.00  0.00     0.002 A 
ATOM     97  C   UNL A   1      46.283  25.869  35.528  1.00  0.00     0.091 A 
ATOM     98  F   UNL A   1      44.018  25.650  34.814  1.00  0.00    -0.205 F 
ATOM     99  C   UNL A   1      47.524  26.514  35.410  1.00  0.00     0.022 A 
BRANCH  97 100
ATOM    100  S   UNL A   1      46.155  24.536  36.725  1.00  0.00     0.127 S 
ATOM    101  O   UNL A   1      47.494  24.533  37.312  1.00  0.00    -0.237 OA
ATOM    102  O   UNL A   1      45.099  25.017  37.617  1.00  0.00    -0.237 OA
ATOM    103  O   UNL A   1      45.800  23.347  35.962  1.00  0.00    -0.744 OA
ENDBRANCH  97 100
ENDBRANCH  70  93
ENDBRANCH  44  45
ENDBRANCH  37  39
ENDBRANCH  36  37
ENDBRANCH  35  36
ENDBRANCH   1  35
TORSDOF 20
ENDMDL
MODEL 2
REMARK VINA RESULT:     -12.5      4.847     10.503
REMARK SMILES NC(=O)[C@@H]1CCC[N@@H+]1[C@@H](C(=O)OCCOC(=O)c1ccc(-c2c3nc(c(-c4cccc(S(=O)(=O)[O-])c4F)c4ccc([nH]4)c(-c4cccc(S(=O)(=O)[O-])c4F)c4nc(c(-c5cccc(S(=O)(=O)[O-])c5F)c5ccc2[nH]5)C=C4)C=C3)cc1)c1c[nH]c2cc(OCc3ccccc3)ccc12
REMARK SMILES IDX 13 1 12 2 10 3 11 4 9 5 8 6 4 7 5 8 6 9 7 10 2 12 1 13 3 16
REMARK SMILES IDX 81 17 82 18 97 19 83 20 84 21 96 22 85 24 95 25 86 26 87 27
REMARK SMILES IDX 88 28 89 29 90 30 94 31 91 32 93 33 92 34 14 35 15 36 16 37
REMARK SMILES IDX 17 38 18 39 19 40 80 41 20 42 79 43 21 44 22 45 23 46 73 47
REMARK SMILES IDX 24 48 78 49 72 50 74 51 25 52 77 53 71 54 70 55 26 57 58 58
REMARK SMILES IDX 38 59 57 60 39 61 42 62 56 63 75 64 40 65 41 66 55 68 76 69
REMARK SMILES IDX 43 70 27 71 28 72 36 73 29 74 31 75 37 76 30 77 32 78 33 79
REMARK SMILES IDX 34 80 35 81 59 82 60 83 68 84 61 85 63 86 69 87 62 88 64 89
REMARK SMILES IDX 65 90 66 91 67 92 44 93 45 94 53 95 46 96 48 97 54 98 47 99
REMARK SMILES IDX 49 100 50 101 51 102 52 103
REMARK H PARENT 8 11 1 14 1 15 83 23 74 56 42 67
REMARK Flexibility Score: inf
ROOT
ATOM      1  C   UNL A   1      36.162  22.052  25.272  1.00  0.00     0.274 C 
ENDROOT
BRANCH   1   2
ATOM      2  O   UNL A   1      35.450  21.782  24.035  1.00  0.00    -0.457 OA
BRANCH   2   3
ATOM      3  C   UNL A   1      34.830  22.859  23.480  1.00  0.00     0.370 C 
ATOM      4  O   UNL A   1      35.149  23.327  22.386  1.00  0.00    -0.245 OA
BRANCH   3   5
ATOM      5  C   UNL A   1      33.775  23.539  24.346  1.00  0.00     0.329 C 
BRANCH   5   6
ATOM      6  N   UNL A   1      32.333  23.008  24.301  1.00  0.00    -0.309 N 
ATOM      7  C   UNL A   1      31.728  22.281  25.452  1.00  0.00     0.275 C 
ATOM      8  C   UNL A   1      32.146  20.818  25.321  1.00  0.00     0.081 C 
ATOM      9  C   UNL A   1      32.585  20.693  23.867  1.00  0.00     0.068 C 
ATOM     10  C   UNL A   1      32.101  21.991  23.252  1.00  0.00     0.264 C 
ATOM     11  H   UNL A   1      31.916  23.933  24.196  1.00  0.00     0.349 HD
BRANCH   7  12
ATOM     12  C   UNL A   1      31.735  22.871  26.856  1.00  0.00     0.275 C 
ATOM     13  N   UNL A   1      32.709  22.382  27.686  1.00  0.00    -0.365 N 
ATOM     14  H   UNL A   1      32.782  22.713  28.610  1.00  0.00     0.159 HD
ATOM     15  H   UNL A   1      33.339  21.699  27.357  1.00  0.00     0.159 HD
ATOM     16  O   UNL A   1      31.038  23.801  27.250  1.00  0.00    -0.268 OA
ENDBRANCH   7  12
ENDBRANCH   5   6
BRANCH   5  17
ATOM     17  C   UNL A   1      33.801  25.072  24.604  1.00  0.00     0.046 A 
ATOM     18  C   UNL A   1      34.402  25.596  25.749  1.00  0.00     0.094 A 
ATOM     19  C   UNL A   1      33.090  26.216  24.079  1.00  0.00     0.009 A 
ATOM     20  N   UNL A   1      33.591  26.614  26.186  1.00  0.00    -0.361 N 
ATOM     21  C   UNL A   1      32.687  26.932  25.206  1.00  0.00     0.050 A 
ATOM     22  C   UNL A   1      32.660  26.764  22.861  1.00  0.00     0.015 A 
ATOM     23  H   UNL A   1      33.650  27.048  27.067  1.00  0.00     0.166 HD
ATOM     24  C   UNL A   1      31.589  27.801  25.202  1.00  0.00     0.073 A 
ATOM     25  C   UNL A   1      31.761  27.845  22.808  1.00  0.00     0.047 A 
ATOM     26  C   UNL A   1      31.130  28.265  23.964  1.00  0.00     0.121 A 
BRANCH  26  27
ATOM     27  O   UNL A   1      30.074  29.133  24.032  1.00  0.00    -0.489 OA
BRANCH  27  28
ATOM     28  C   UNL A   1      29.048  29.037  23.038  1.00  0.00     0.265 C 
BRANCH  28  29
ATOM     29  C   UNL A   1      28.673  30.369  22.429  1.00  0.00    -0.011 A 
ATOM     30  C   UNL A   1      28.697  31.521  23.231  1.00  0.00     0.007 A 
ATOM     31  C   UNL A   1      28.328  30.501  21.075  1.00  0.00     0.007 A 
ATOM     32  C   UNL A   1      28.381  32.765  22.689  1.00  0.00     0.000 A 
ATOM     33  C   UNL A   1      28.013  31.742  20.536  1.00  0.00     0.000 A 
ATOM     34  C   UNL A   1      28.044  32.869  21.345  1.00  0.00     0.000 A 
ENDBRANCH  28  29
ENDBRANCH  27  28
ENDBRANCH  26  27
ENDBRANCH   5  17
ENDBRANCH   3   5
ENDBRANCH   2   3
ENDBRANCH   1   2
BRANCH   1  35
ATOM     35  C   UNL A   1      37.294  21.058  25.475  1.00  0.00     0.275 C 
BRANCH  35  36
ATOM     36  O   UNL A   1      38.533  21.734  25.196  1.00  0.00    -0.458 OA
BRANCH  36  37
ATOM     37  C   UNL A   1      39.467  21.588  26.157  1.00  0.00     0.338 C 
ATOM     38  O   UNL A   1      40.149  20.591  26.348  1.00  0.00    -0.246 OA
BRANCH  37  39
ATOM     39  C   UNL A   1      39.716  22.841  26.915  1.00  0.00     0.060 A 
ATOM     40  C   UNL A   1      39.201  24.063  26.476  1.00  0.00     0.016 A 
ATOM     41  C   UNL A   1      40.766  22.831  27.837  1.00  0.00     0.016 A 
ATOM     42  C   UNL A   1      39.819  25.260  26.847  1.00  0.00     0.010 A 
ATOM     43  C   UNL A   1      41.320  24.034  28.284  1.00  0.00     0.010 A 
ATOM     44  C   UNL A   1      40.876  25.259  27.767  1.00  0.00    -0.014 A 
BRANCH  44  45
ATOM     45  C   UNL A   1      41.409  26.535  28.310  1.00  0.00     0.031 A 
ATOM     46  C   UNL A   1      40.531  27.564  28.971  1.00  0.00     0.074 A 
ATOM     47  C   UNL A   1      42.720  26.785  28.137  1.00  0.00     0.049 A 
ATOM     48  N   UNL A   1      40.800  28.816  29.249  1.00  0.00    -0.248 NA
ATOM     49  C   UNL A   1      39.189  27.135  29.390  1.00  0.00     0.031 C 
ATOM     50  C   UNL A   1      43.683  25.847  27.554  1.00  0.00     0.029 A 
ATOM     51  N   UNL A   1      43.463  27.908  28.399  1.00  0.00    -0.354 N 
ATOM     52  C   UNL A   1      39.650  29.343  29.827  1.00  0.00     0.074 A 
ATOM     53  C   UNL A   1      38.689  28.262  29.889  1.00  0.00     0.031 C 
ATOM     54  C   UNL A   1      44.881  26.436  27.483  1.00  0.00     0.029 A 
ATOM     55  C   UNL A   1      44.747  27.819  27.920  1.00  0.00     0.049 A 
ATOM     56  H   UNL A   1      43.113  28.693  28.880  1.00  0.00     0.167 HD
ATOM     57  C   UNL A   1      39.431  30.611  30.263  1.00  0.00     0.034 A 
ATOM     58  C   UNL A   1      45.699  28.757  27.768  1.00  0.00     0.034 A 
ATOM     59  C   UNL A   1      40.429  31.655  30.246  1.00  0.00     0.049 A 
ATOM     60  C   UNL A   1      45.419  30.156  28.215  1.00  0.00     0.074 A 
ATOM     61  C   UNL A   1      40.313  32.962  30.696  1.00  0.00     0.029 A 
ATOM     62  N   UNL A   1      41.724  31.516  29.771  1.00  0.00    -0.354 N 
ATOM     63  N   UNL A   1      44.324  30.646  28.741  1.00  0.00    -0.248 NA
ATOM     64  C   UNL A   1      46.513  31.125  28.074  1.00  0.00     0.031 C 
ATOM     65  C   UNL A   1      41.529  33.615  30.476  1.00  0.00     0.029 A 
ATOM     66  C   UNL A   1      42.417  32.708  29.925  1.00  0.00     0.049 A 
ATOM     67  H   UNL A   1      42.097  30.693  29.383  1.00  0.00     0.167 HD
ATOM     68  C   UNL A   1      44.605  31.975  29.026  1.00  0.00     0.074 A 
ATOM     69  C   UNL A   1      45.980  32.205  28.629  1.00  0.00     0.031 C 
ATOM     70  C   UNL A   1      43.793  32.920  29.560  1.00  0.00     0.034 A 
BRANCH  57  71
ATOM     71  C   UNL A   1      38.082  30.982  30.839  1.00  0.00     0.023 A 
ATOM     72  C   UNL A   1      37.822  30.770  32.207  1.00  0.00     0.012 A 
ATOM     73  C   UNL A   1      37.149  31.710  30.069  1.00  0.00     0.148 A 
ATOM     74  C   UNL A   1      36.659  31.271  32.796  1.00  0.00     0.002 A 
ATOM     75  C   UNL A   1      36.008  32.238  30.671  1.00  0.00     0.091 A 
ATOM     76  F   UNL A   1      37.395  31.889  28.763  1.00  0.00    -0.205 F 
ATOM     77  C   UNL A   1      35.761  32.016  32.035  1.00  0.00     0.022 A 
BRANCH  75  78
ATOM     78  S   UNL A   1      34.811  33.226  29.759  1.00  0.00     0.127 S 
ATOM     79  O   UNL A   1      33.987  33.769  30.838  1.00  0.00    -0.237 OA
ATOM     80  O   UNL A   1      35.659  34.214  29.090  1.00  0.00    -0.237 OA
ATOM     81  O   UNL A   1      34.139  32.298  28.859  1.00  0.00    -0.744 OA
ENDBRANCH  75  78
ENDBRANCH  57  71
BRANCH  58  82
ATOM     82  C   UNL A   1      46.993  28.369  27.151  1.00  0.00     0.023 A 
ATOM     83  C   UNL A   1      48.097  28.087  27.974  1.00  0.00     0.012 A 
ATOM     84  C   UNL A   1      47.093  28.162  25.760  1.00  0.00     0.148 A 
ATOM     85  C   UNL A   1      49.285  27.608  27.421  1.00  0.00     0.002 A 
ATOM     86  C   UNL A   1      48.252  27.618  25.226  1.00  0.00     0.091 A 
ATOM     87  F   UNL A   1      46.033  28.456  24.995  1.00  0.00    -0.205 F 
ATOM     88  C   UNL A   1      49.355  27.354  26.052  1.00  0.00     0.022 A 
BRANCH  86  89
ATOM     89  S   UNL A   1      48.356  27.095  23.510  1.00  0.00     0.127 S 
ATOM     90  O   UNL A   1      47.666  25.808  23.548  1.00  0.00    -0.237 OA
ATOM     91  O   UNL A   1      47.629  28.163  22.821  1.00  0.00    -0.237 OA
ATOM     92  O   UNL A   1      49.777  27.047  23.201  1.00  0.00    -0.744 OA
ENDBRANCH  86  89
ENDBRANCH  58  82
BRANCH  70  93
ATOM     93  C   UNL A   1      44.390  34.281  29.791  1.00  0.00     0.023 A 
ATOM     94  C   UNL A   1      45.046  34.564  31.006  1.00  0.00     0.012 A 
ATOM     95  C   UNL A   1      44.316  35.275  28.796  1.00  0.00     0.148 A 
ATOM     96  C   UNL A   1      45.577  35.832  31.245  1.00  0.00     0.002 A 
ATOM     97  C   UNL A   1      44.890  36.520  29.023  1.00  0.00     0.091 A 
ATOM     98  F   UNL A   1      43.669  34.994  27.656  1.00  0.00    -0.205 F 
ATOM     99  C   UNL A   1      45.505  36.806  30.251  1.00  0.00     0.022 A 
BRANCH  97 100
ATOM    100  S   UNL A   1      44.921  37.802  27.765  1.00  0.00     0.127 S 
ATOM    101  O   UNL A   1      45.692  37.159  26.702  1.00  0.00    -0.237 OA
ATOM    102  O   UNL A   1      43.500  37.980  27.465  1.00  0.00    -0.237 OA
ATOM    103  O   UNL A   1      45.553  38.957  28.389  1.00  0.00    -0.744 OA
ENDBRANCH  97 100
ENDBRANCH  70  93
ENDBRANCH  44  45
ENDBRANCH  37  39
ENDBRANCH  36  37
ENDBRANCH  35  36
ENDBRANCH   1  35
TORSDOF 20
ENDMDL
MODEL 3
REMARK VINA RESULT:     -12.3      4.898     10.316
REMARK SMILES NC(=O)[C@@H]1CCC[N@@H+]1[C@@H](C(=O)OCCOC(=O)c1ccc(-c2c3nc(c(-c4cccc(S(=O)(=O)[O-])c4F)c4ccc([nH]4)c(-c4cccc(S(=O)(=O)[O-])c4F)c4nc(c(-c5cccc(S(=O)(=O)[O-])c5F)c5ccc2[nH]5)C=C4)C=C3)cc1)c1c[nH]c2cc(OCc3ccccc3)ccc12
REMARK SMILES IDX 13 1 12 2 10 3 11 4 9 5 8 6 4 7 5 8 6 9 7 10 2 12 1 13 3 16
REMARK SMILES IDX 81 17 82 18 97 19 83 20 84 21 96 22 85 24 95 25 86 26 87 27
REMARK SMILES IDX 88 28 89 29 90 30 94 31 91 32 93 33 92 34 14 35 15 36 16 37
REMARK SMILES IDX 17 38 18 39 19 40 80 41 20 42 79 43 21 44 22 45 23 46 73 47
REMARK SMILES IDX 24 48 78 49 72 50 74 51 25 52 77 53 71 54 70 55 26 57 58 58
REMARK SMILES IDX 38 59 57 60 39 61 42 62 56 63 75 64 40 65 41 66 55 68 76 69
REMARK SMILES IDX 43 70 27 71 28 72 36 73 29 74 31 75 37 76 30 77 32 78 33 79
REMARK SMILES IDX 34 80 35 81 59 82 60 83 68 84 61 85 63 86 69 87 62 88 64 89
REMARK SMILES IDX 65 90 66 91 67 92 44 93 45 94 53 95 46 96 48 97 54 98 47 99
REMARK SMILES IDX 49 100 50 101 51 102 52 103
REMARK H PARENT 8 11 1 14 1 15 83 23 74 56 42 67
REMARK Flexibility Score: inf
ROOT
ATOM      1  C   UNL A   1      35.686  21.297  25.268  1.00  0.00     0.274 C 
ENDROOT
BRANCH   1   2
ATOM      2  O   UNL A   1      35.353  21.783  23.940  1.00  0.00    -0.457 OA
BRANCH   2   3
ATOM      3  C   UNL A   1      34.351  22.703  23.898  1.00  0.00     0.370 C 
ATOM      4  O   UNL A   1      34.348  23.658  23.118  1.00  0.00    -0.245 OA
BRANCH   3   5
ATOM      5  C   UNL A   1      33.264  22.553  24.958  1.00  0.00     0.329 C 
BRANCH   5   6
ATOM      6  N   UNL A   1      32.041  21.679  24.638  1.00  0.00    -0.309 N 
ATOM      7  C   UNL A   1      32.179  20.247  24.249  1.00  0.00     0.275 C 
ATOM      8  C   UNL A   1      32.444  20.221  22.745  1.00  0.00     0.081 C 
ATOM      9  C   UNL A   1      31.993  21.598  22.272  1.00  0.00     0.068 C 
ATOM     10  C   UNL A   1      31.255  22.148  23.476  1.00  0.00     0.264 C 
ATOM     11  H   UNL A   1      31.643  21.764  25.574  1.00  0.00     0.349 HD
BRANCH   7  12
ATOM     12  C   UNL A   1      32.974  19.267  25.101  1.00  0.00     0.275 C 
ATOM     13  N   UNL A   1      33.796  18.424  24.399  1.00  0.00    -0.365 N 
ATOM     14  H   UNL A   1      34.345  17.761  24.876  1.00  0.00     0.159 HD
ATOM     15  H   UNL A   1      33.840  18.484  23.417  1.00  0.00     0.159 HD
ATOM     16  O   UNL A   1      33.023  19.251  26.327  1.00  0.00    -0.268 OA
ENDBRANCH   7  12
ENDBRANCH   5   6
BRANCH   5  17
ATOM     17  C   UNL A   1      32.885  23.728  25.902  1.00  0.00     0.046 A 
ATOM     18  C   UNL A   1      31.982  23.543  26.950  1.00  0.00     0.094 A 
ATOM     19  C   UNL A   1      33.010  25.167  25.856  1.00  0.00     0.009 A 
ATOM     20  N   UNL A   1      31.189  24.664  26.986  1.00  0.00    -0.361 N 
ATOM     21  C   UNL A   1      31.750  25.646  26.212  1.00  0.00     0.050 A 
ATOM     22  C   UNL A   1      33.938  26.168  25.529  1.00  0.00     0.015 A 
ATOM     23  H   UNL A   1      30.348  24.748  27.489  1.00  0.00     0.166 HD
ATOM     24  C   UNL A   1      31.281  26.910  25.831  1.00  0.00     0.073 A 
ATOM     25  C   UNL A   1      33.565  27.520  25.412  1.00  0.00     0.047 A 
ATOM     26  C   UNL A   1      32.225  27.861  25.429  1.00  0.00     0.121 A 
BRANCH  26  27
ATOM     27  O   UNL A   1      31.704  29.082  25.098  1.00  0.00    -0.489 OA
BRANCH  27  28
ATOM     28  C   UNL A   1      31.367  29.331  23.729  1.00  0.00     0.265 C 
BRANCH  28  29
ATOM     29  C   UNL A   1      29.923  29.731  23.526  1.00  0.00    -0.011 A 
ATOM     30  C   UNL A   1      29.013  28.782  23.033  1.00  0.00     0.007 A 
ATOM     31  C   UNL A   1      29.452  31.013  23.842  1.00  0.00     0.007 A 
ATOM     32  C   UNL A   1      27.671  29.115  22.862  1.00  0.00     0.000 A 
ATOM     33  C   UNL A   1      28.113  31.344  23.669  1.00  0.00     0.000 A 
ATOM     34  C   UNL A   1      27.228  30.393  23.184  1.00  0.00     0.000 A 
ENDBRANCH  28  29
ENDBRANCH  27  28
ENDBRANCH  26  27
ENDBRANCH   5  17
ENDBRANCH   3   5
ENDBRANCH   2   3
ENDBRANCH   1   2
BRANCH   1  35
ATOM     35  C   UNL A   1      36.849  20.320  25.213  1.00  0.00     0.275 C 
BRANCH  35  36
ATOM     36  O   UNL A   1      38.043  21.070  24.925  1.00  0.00    -0.458 OA
BRANCH  36  37
ATOM     37  C   UNL A   1      39.049  20.855  25.797  1.00  0.00     0.338 C 
ATOM     38  O   UNL A   1      39.690  19.820  25.912  1.00  0.00    -0.246 OA
BRANCH  37  39
ATOM     39  C   UNL A   1      39.431  22.078  26.548  1.00  0.00     0.060 A 
ATOM     40  C   UNL A   1      38.969  23.337  26.159  1.00  0.00     0.016 A 
ATOM     41  C   UNL A   1      40.539  21.986  27.396  1.00  0.00     0.016 A 
ATOM     42  C   UNL A   1      39.688  24.486  26.498  1.00  0.00     0.010 A 
ATOM     43  C   UNL A   1      41.201  23.144  27.816  1.00  0.00     0.010 A 
ATOM     44  C   UNL A   1      40.804  24.403  27.342  1.00  0.00    -0.014 A 
BRANCH  44  45
ATOM     45  C   UNL A   1      41.455  25.633  27.861  1.00  0.00     0.031 A 
ATOM     46  C   UNL A   1      40.702  26.690  28.624  1.00  0.00     0.074 A 
ATOM     47  C   UNL A   1      42.757  25.817  27.569  1.00  0.00     0.049 A 
ATOM     48  N   UNL A   1      41.065  27.917  28.902  1.00  0.00    -0.248 NA
ATOM     49  C   UNL A   1      39.383  26.322  29.159  1.00  0.00     0.031 C 
ATOM     50  C   UNL A   1      43.607  24.845  26.877  1.00  0.00     0.029 A 
ATOM     51  N   UNL A   1      43.582  26.892  27.784  1.00  0.00    -0.354 N 
ATOM     52  C   UNL A   1      40.006  28.490  29.598  1.00  0.00     0.074 A 
ATOM     53  C   UNL A   1      38.995  27.460  29.728  1.00  0.00     0.031 C 
ATOM     54  C   UNL A   1      44.824  25.371  26.706  1.00  0.00     0.029 A 
ATOM     55  C   UNL A   1      44.809  26.747  27.184  1.00  0.00     0.049 A 
ATOM     56  H   UNL A   1      43.323  27.681  28.313  1.00  0.00     0.167 HD
ATOM     57  C   UNL A   1      39.899  29.755  30.080  1.00  0.00     0.034 A 
ATOM     58  C   UNL A   1      45.793  27.637  26.963  1.00  0.00     0.034 A 
ATOM     59  C   UNL A   1      40.948  30.745  29.992  1.00  0.00     0.049 A 
ATOM     60  C   UNL A   1      45.634  29.036  27.464  1.00  0.00     0.074 A 
ATOM     61  C   UNL A   1      40.947  32.043  30.479  1.00  0.00     0.029 A 
ATOM     62  N   UNL A   1      42.183  30.550  29.393  1.00  0.00    -0.354 N 
ATOM     63  N   UNL A   1      44.623  29.570  28.102  1.00  0.00    -0.248 NA
ATOM     64  C   UNL A   1      46.763  29.948  27.241  1.00  0.00     0.031 C 
ATOM     65  C   UNL A   1      42.172  32.636  30.159  1.00  0.00     0.029 A 
ATOM     66  C   UNL A   1      42.953  31.698  29.506  1.00  0.00     0.049 A 
ATOM     67  H   UNL A   1      42.472  29.718  28.954  1.00  0.00     0.167 HD
ATOM     68  C   UNL A   1      45.002  30.874  28.388  1.00  0.00     0.074 A 
ATOM     69  C   UNL A   1      46.345  31.041  27.867  1.00  0.00     0.031 C 
ATOM     70  C   UNL A   1      44.298  31.846  29.017  1.00  0.00     0.034 A 
BRANCH  57  71
ATOM     71  C   UNL A   1      38.633  30.183  30.790  1.00  0.00     0.023 A 
ATOM     72  C   UNL A   1      38.529  30.033  32.187  1.00  0.00     0.012 A 
ATOM     73  C   UNL A   1      37.631  30.900  30.100  1.00  0.00     0.148 A 
ATOM     74  C   UNL A   1      37.451  30.587  32.882  1.00  0.00     0.002 A 
ATOM     75  C   UNL A   1      36.577  31.479  30.805  1.00  0.00     0.091 A 
ATOM     76  F   UNL A   1      37.729  31.018  28.768  1.00  0.00    -0.205 F 
ATOM     77  C   UNL A   1      36.485  31.321  32.197  1.00  0.00     0.022 A 
BRANCH  75  78
ATOM     78  S   UNL A   1      35.302  32.456  29.993  1.00  0.00     0.127 S 
ATOM     79  O   UNL A   1      36.049  33.644  29.585  1.00  0.00    -0.237 OA
ATOM     80  O   UNL A   1      34.895  31.589  28.886  1.00  0.00    -0.237 OA
ATOM     81  O   UNL A   1      34.272  32.674  30.999  1.00  0.00    -0.744 OA
ENDBRANCH  75  78
ENDBRANCH  57  71
BRANCH  58  82
ATOM     82  C   UNL A   1      47.000  27.197  26.217  1.00  0.00     0.023 A 
ATOM     83  C   UNL A   1      47.156  27.567  24.869  1.00  0.00     0.012 A 
ATOM     84  C   UNL A   1      48.046  26.521  26.876  1.00  0.00     0.148 A 
ATOM     85  C   UNL A   1      48.335  27.265  24.187  1.00  0.00     0.002 A 
ATOM     86  C   UNL A   1      49.243  26.288  26.213  1.00  0.00     0.091 A 
ATOM     87  F   UNL A   1      47.866  26.164  28.156  1.00  0.00    -0.205 F 
ATOM     88  C   UNL A   1      49.384  26.646  24.864  1.00  0.00     0.022 A 
BRANCH  86  89
ATOM     89  S   UNL A   1      50.696  25.663  27.064  1.00  0.00     0.127 S 
ATOM     90  O   UNL A   1      50.209  24.393  27.596  1.00  0.00    -0.237 OA
ATOM     91  O   UNL A   1      51.662  25.543  25.971  1.00  0.00    -0.237 OA
ATOM     92  O   UNL A   1      51.038  26.677  28.052  1.00  0.00    -0.744 OA
ENDBRANCH  86  89
ENDBRANCH  58  82
BRANCH  70  93
ATOM     93  C   UNL A   1      44.989  33.167  29.220  1.00  0.00     0.023 A 
ATOM     94  C   UNL A   1      45.736  33.397  30.394  1.00  0.00     0.012 A 
ATOM     95  C   UNL A   1      44.913  34.174  28.239  1.00  0.00     0.148 A 
ATOM     96  C   UNL A   1      46.355  34.628  30.608  1.00  0.00     0.002 A 
ATOM     97  C   UNL A   1      45.574  35.380  28.438  1.00  0.00     0.091 A 
ATOM     98  F   UNL A   1      44.182  33.944  27.139  1.00  0.00    -0.205 F 
ATOM     99  C   UNL A   1      46.280  35.615  29.628  1.00  0.00     0.022 A 
BRANCH  97 100
ATOM    100  S   UNL A   1      45.604  36.671  27.190  1.00  0.00     0.127 S 
ATOM    101  O   UNL A   1      44.183  36.984  27.049  1.00  0.00    -0.237 OA
ATOM    102  O   UNL A   1      46.398  37.715  27.840  1.00  0.00    -0.237 OA
ATOM    103  O   UNL A   1      46.236  36.078  26.018  1.00  0.00    -0.744 OA
ENDBRANCH  97 100
ENDBRANCH  70  93
ENDBRANCH  44  45
ENDBRANCH  37  39
ENDBRANCH  36  37
ENDBRANCH  35  36
ENDBRANCH   1  35
TORSDOF 20
ENDMDL
