MODEL 1
REMARK VINA RESULT:      -9.8      0.000      0.000
REMARK SMILES CCCCc1[nH]ncc1C(=O)OCCOC(=O)c1ccc(-c2c3nc(c(-c4cccc(S(=O)(=O)[O-])c4F)c4ccc([nH]4)c(-c4cccc(S(=O)(=O)[O-])c4F)c4nc(c(-c5cccc(S(=O)(=O)[O-])c5F)c5ccc2[nH]5)C=C4)C=C3)cc1
REMARK SMILES IDX 13 1 12 2 10 3 11 4 9 5 5 6 6 7 7 8 8 10 4 11 3 12 2 13 1 14
REMARK SMILES IDX 14 15 15 16 16 17 17 18 18 19 19 20 80 21 20 22 79 23 21 24
REMARK SMILES IDX 22 25 23 26 73 27 24 28 78 29 72 30 74 31 25 32 77 33 71 34
REMARK SMILES IDX 70 35 26 37 58 38 38 39 57 40 39 41 42 42 56 43 75 44 40 45
REMARK SMILES IDX 41 46 55 48 76 49 43 50 27 51 28 52 36 53 29 54 31 55 37 56
REMARK SMILES IDX 30 57 32 58 33 59 34 60 35 61 59 62 60 63 68 64 61 65 63 66
REMARK SMILES IDX 69 67 62 68 64 69 65 70 66 71 67 72 44 73 45 74 53 75 46 76
REMARK SMILES IDX 48 77 54 78 47 79 49 80 50 81 51 82 52 83
REMARK H PARENT 6 9 74 36 42 47
REMARK Flexibility Score: inf
ROOT
ATOM      1  C   UNL A   1      34.414  34.495  29.202  1.00  0.00     0.275 C 
ENDROOT
BRANCH   1   2
ATOM      2  O   UNL A   1      33.399  34.674  30.210  1.00  0.00    -0.458 OA
BRANCH   2   3
ATOM      3  C   UNL A   1      33.118  35.964  30.568  1.00  0.00     0.341 C 
ATOM      4  O   UNL A   1      32.491  36.750  29.879  1.00  0.00    -0.246 OA
BRANCH   3   5
ATOM      5  C   UNL A   1      33.545  36.283  31.921  1.00  0.00     0.100 A 
ATOM      6  C   UNL A   1      34.109  35.488  32.907  1.00  0.00     0.050 A 
ATOM      7  N   UNL A   1      34.114  36.261  34.041  1.00  0.00    -0.282 N 
ATOM      8  N   UNL A   1      33.820  37.546  33.815  1.00  0.00    -0.183 NA
ATOM      9  H   UNL A   1      34.315  35.904  34.936  1.00  0.00     0.190 HD
ATOM     10  C   UNL A   1      33.488  37.564  32.525  1.00  0.00     0.150 A 
BRANCH   6  11
ATOM     11  C   UNL A   1      34.685  34.115  32.909  1.00  0.00     0.056 C 
BRANCH  11  12
ATOM     12  C   UNL A   1      36.144  34.123  32.418  1.00  0.00     0.006 C 
BRANCH  12  13
ATOM     13  C   UNL A   1      36.635  32.826  31.761  1.00  0.00    -0.003 C 
ATOM     14  C   UNL A   1      35.618  31.698  31.800  1.00  0.00     0.004 C 
ENDBRANCH  12  13
ENDBRANCH  11  12
ENDBRANCH   6  11
ENDBRANCH   3   5
ENDBRANCH   2   3
ENDBRANCH   1   2
BRANCH   1  15
ATOM     15  C   UNL A   1      33.850  33.764  27.982  1.00  0.00     0.275 C 
BRANCH  15  16
ATOM     16  O   UNL A   1      34.796  32.801  27.481  1.00  0.00    -0.458 OA
BRANCH  16  17
ATOM     17  C   UNL A   1      34.602  31.523  27.883  1.00  0.00     0.338 C 
ATOM     18  O   UNL A   1      33.565  30.884  27.842  1.00  0.00    -0.246 OA
BRANCH  17  19
ATOM     19  C   UNL A   1      35.898  30.941  28.264  1.00  0.00     0.060 A 
ATOM     20  C   UNL A   1      35.902  29.622  28.713  1.00  0.00     0.016 A 
ATOM     21  C   UNL A   1      37.074  31.687  28.260  1.00  0.00     0.016 A 
ATOM     22  C   UNL A   1      37.075  29.035  29.174  1.00  0.00     0.010 A 
ATOM     23  C   UNL A   1      38.262  31.092  28.706  1.00  0.00     0.010 A 
ATOM     24  C   UNL A   1      38.268  29.766  29.180  1.00  0.00    -0.014 A 
BRANCH  24  25
ATOM     25  C   UNL A   1      39.501  29.150  29.734  1.00  0.00     0.031 A 
ATOM     26  C   UNL A   1      40.087  29.670  31.018  1.00  0.00     0.074 A 
ATOM     27  C   UNL A   1      40.086  28.117  29.098  1.00  0.00     0.049 A 
ATOM     28  N   UNL A   1      41.199  29.329  31.617  1.00  0.00    -0.248 NA
ATOM     29  C   UNL A   1      39.324  30.716  31.718  1.00  0.00     0.031 C 
ATOM     30  C   UNL A   1      39.601  27.506  27.860  1.00  0.00     0.029 A 
ATOM     31  N   UNL A   1      41.219  27.404  29.400  1.00  0.00    -0.354 N 
ATOM     32  C   UNL A   1      41.299  30.154  32.729  1.00  0.00     0.074 A 
ATOM     33  C   UNL A   1      40.132  31.008  32.729  1.00  0.00     0.031 C 
ATOM     34  C   UNL A   1      40.432  26.511  27.507  1.00  0.00     0.029 A 
ATOM     35  C   UNL A   1      41.531  26.444  28.467  1.00  0.00     0.049 A 
ATOM     36  H   UNL A   1      41.758  27.565  30.209  1.00  0.00     0.167 HD
ATOM     37  C   UNL A   1      42.271  30.188  33.673  1.00  0.00     0.034 A 
ATOM     38  C   UNL A   1      42.594  25.620  28.377  1.00  0.00     0.034 A 
ATOM     39  C   UNL A   1      43.397  29.295  33.708  1.00  0.00     0.049 A 
ATOM     40  C   UNL A   1      43.655  25.676  29.444  1.00  0.00     0.074 A 
ATOM     41  C   UNL A   1      44.411  29.225  34.647  1.00  0.00     0.029 A 
ATOM     42  N   UNL A   1      43.655  28.309  32.767  1.00  0.00    -0.354 N 
ATOM     43  N   UNL A   1      43.699  26.414  30.526  1.00  0.00    -0.248 NA
ATOM     44  C   UNL A   1      44.804  24.771  29.287  1.00  0.00     0.031 C 
ATOM     45  C   UNL A   1      45.288  28.202  34.269  1.00  0.00     0.029 A 
ATOM     46  C   UNL A   1      44.814  27.628  33.100  1.00  0.00     0.049 A 
ATOM     47  H   UNL A   1      43.097  28.122  31.978  1.00  0.00     0.167 HD
ATOM     48  C   UNL A   1      44.865  26.050  31.189  1.00  0.00     0.074 A 
ATOM     49  C   UNL A   1      45.485  25.005  30.401  1.00  0.00     0.031 C 
ATOM     50  C   UNL A   1      45.388  26.551  32.336  1.00  0.00     0.034 A 
BRANCH  37  51
ATOM     51  C   UNL A   1      42.145  31.214  34.767  1.00  0.00     0.023 A 
ATOM     52  C   UNL A   1      41.560  30.855  35.997  1.00  0.00     0.012 A 
ATOM     53  C   UNL A   1      42.653  32.517  34.595  1.00  0.00     0.148 A 
ATOM     54  C   UNL A   1      41.460  31.784  37.032  1.00  0.00     0.002 A 
ATOM     55  C   UNL A   1      42.583  33.427  35.644  1.00  0.00     0.091 A 
ATOM     56  F   UNL A   1      43.182  32.848  33.409  1.00  0.00    -0.205 F 
ATOM     57  C   UNL A   1      41.980  33.065  36.859  1.00  0.00     0.022 A 
BRANCH  55  58
ATOM     58  S   UNL A   1      43.287  35.076  35.538  1.00  0.00     0.127 S 
ATOM     59  O   UNL A   1      44.691  34.781  35.255  1.00  0.00    -0.237 OA
ATOM     60  O   UNL A   1      42.550  35.660  34.417  1.00  0.00    -0.237 OA
ATOM     61  O   UNL A   1      43.024  35.704  36.826  1.00  0.00    -0.744 OA
ENDBRANCH  55  58
ENDBRANCH  37  51
BRANCH  38  62
ATOM     62  C   UNL A   1      42.690  24.651  27.249  1.00  0.00     0.023 A 
ATOM     63  C   UNL A   1      43.381  25.019  26.078  1.00  0.00     0.012 A 
ATOM     64  C   UNL A   1      42.137  23.359  27.341  1.00  0.00     0.148 A 
ATOM     65  C   UNL A   1      43.501  24.125  25.012  1.00  0.00     0.002 A 
ATOM     66  C   UNL A   1      42.309  22.454  26.300  1.00  0.00     0.091 A 
ATOM     67  F   UNL A   1      41.458  23.035  28.451  1.00  0.00    -0.205 F 
ATOM     68  C   UNL A   1      42.978  22.839  25.128  1.00  0.00     0.022 A 
BRANCH  66  69
ATOM     69  S   UNL A   1      41.787  20.740  26.429  1.00  0.00     0.127 S 
ATOM     70  O   UNL A   1      40.346  20.849  26.219  1.00  0.00    -0.237 OA
ATOM     71  O   UNL A   1      42.523  20.110  25.332  1.00  0.00    -0.237 OA
ATOM     72  O   UNL A   1      42.207  20.307  27.755  1.00  0.00    -0.744 OA
ENDBRANCH  66  69
ENDBRANCH  38  62
BRANCH  50  73
ATOM     73  C   UNL A   1      46.688  25.968  32.823  1.00  0.00     0.023 A 
ATOM     74  C   UNL A   1      47.899  26.617  32.513  1.00  0.00     0.012 A 
ATOM     75  C   UNL A   1      46.705  24.827  33.648  1.00  0.00     0.148 A 
ATOM     76  C   UNL A   1      49.110  26.126  32.996  1.00  0.00     0.002 A 
ATOM     77  C   UNL A   1      47.913  24.366  34.160  1.00  0.00     0.091 A 
ATOM     78  F   UNL A   1      45.545  24.209  33.915  1.00  0.00    -0.205 F 
ATOM     79  C   UNL A   1      49.116  25.009  33.828  1.00  0.00     0.022 A 
BRANCH  77  80
ATOM     80  S   UNL A   1      48.002  22.989  35.311  1.00  0.00     0.127 S 
ATOM     81  O   UNL A   1      49.438  22.718  35.342  1.00  0.00    -0.237 OA
ATOM     82  O   UNL A   1      47.464  23.571  36.541  1.00  0.00    -0.237 OA
ATOM     83  O   UNL A   1      47.175  21.936  34.735  1.00  0.00    -0.744 OA
ENDBRANCH  77  80
ENDBRANCH  50  73
ENDBRANCH  24  25
ENDBRANCH  17  19
ENDBRANCH  16  17
ENDBRANCH  15  16
ENDBRANCH   1  15
TORSDOF 17
ENDMDL
MODEL 2
REMARK VINA RESULT:      -9.6      4.161      9.851
REMARK SMILES CCCCc1[nH]ncc1C(=O)OCCOC(=O)c1ccc(-c2c3nc(c(-c4cccc(S(=O)(=O)[O-])c4F)c4ccc([nH]4)c(-c4cccc(S(=O)(=O)[O-])c4F)c4nc(c(-c5cccc(S(=O)(=O)[O-])c5F)c5ccc2[nH]5)C=C4)C=C3)cc1
REMARK SMILES IDX 13 1 12 2 10 3 11 4 9 5 5 6 6 7 7 8 8 10 4 11 3 12 2 13 1 14
REMARK SMILES IDX 14 15 15 16 16 17 17 18 18 19 19 20 80 21 20 22 79 23 21 24
REMARK SMILES IDX 22 25 23 26 73 27 24 28 78 29 72 30 74 31 25 32 77 33 71 34
REMARK SMILES IDX 70 35 26 37 58 38 38 39 57 40 39 41 42 42 56 43 75 44 40 45
REMARK SMILES IDX 41 46 55 48 76 49 43 50 27 51 28 52 36 53 29 54 31 55 37 56
REMARK SMILES IDX 30 57 32 58 33 59 34 60 35 61 59 62 60 63 68 64 61 65 63 66
REMARK SMILES IDX 69 67 62 68 64 69 65 70 66 71 67 72 44 73 45 74 53 75 46 76
REMARK SMILES IDX 48 77 54 78 47 79 49 80 50 81 51 82 52 83
REMARK H PARENT 6 9 74 36 42 47
REMARK Flexibility Score: inf
ROOT
ATOM      1  C   UNL A   1      31.464  29.189  24.565  1.00  0.00     0.275 C 
ENDROOT
BRANCH   1   2
ATOM      2  O   UNL A   1      30.464  29.601  23.612  1.00  0.00    -0.458 OA
BRANCH   2   3
ATOM      3  C   UNL A   1      30.006  28.638  22.756  1.00  0.00     0.341 C 
ATOM      4  O   UNL A   1      30.491  28.400  21.663  1.00  0.00    -0.246 OA
BRANCH   3   5
ATOM      5  C   UNL A   1      28.940  27.830  23.328  1.00  0.00     0.100 A 
ATOM      6  C   UNL A   1      28.964  26.569  23.904  1.00  0.00     0.050 A 
ATOM      7  N   UNL A   1      27.648  26.222  24.077  1.00  0.00    -0.282 N 
ATOM      8  N   UNL A   1      26.796  27.233  23.880  1.00  0.00    -0.183 NA
ATOM      9  H   UNL A   1      27.359  25.314  24.324  1.00  0.00     0.190 HD
ATOM     10  C   UNL A   1      27.581  28.216  23.438  1.00  0.00     0.150 A 
BRANCH   6  11
ATOM     11  C   UNL A   1      30.064  25.672  24.354  1.00  0.00     0.056 C 
BRANCH  11  12
ATOM     12  C   UNL A   1      30.044  25.491  25.882  1.00  0.00     0.006 C 
BRANCH  12  13
ATOM     13  C   UNL A   1      30.781  24.257  26.419  1.00  0.00    -0.003 C 
ATOM     14  C   UNL A   1      30.750  23.067  25.474  1.00  0.00     0.004 C 
ENDBRANCH  12  13
ENDBRANCH  11  12
ENDBRANCH   6  11
ENDBRANCH   3   5
ENDBRANCH   2   3
ENDBRANCH   1   2
BRANCH   1  15
ATOM     15  C   UNL A   1      31.615  30.224  25.682  1.00  0.00     0.275 C 
BRANCH  15  16
ATOM     16  O   UNL A   1      32.996  30.375  26.056  1.00  0.00    -0.458 OA
BRANCH  16  17
ATOM     17  C   UNL A   1      33.261  31.374  26.931  1.00  0.00     0.338 C 
ATOM     18  O   UNL A   1      32.537  32.305  27.233  1.00  0.00    -0.246 OA
BRANCH  17  19
ATOM     19  C   UNL A   1      34.542  31.094  27.599  1.00  0.00     0.060 A 
ATOM     20  C   UNL A   1      34.784  29.782  27.999  1.00  0.00     0.016 A 
ATOM     21  C   UNL A   1      35.455  32.103  27.901  1.00  0.00     0.016 A 
ATOM     22  C   UNL A   1      35.933  29.461  28.715  1.00  0.00     0.010 A 
ATOM     23  C   UNL A   1      36.622  31.779  28.606  1.00  0.00     0.010 A 
ATOM     24  C   UNL A   1      36.863  30.458  29.030  1.00  0.00    -0.014 A 
BRANCH  24  25
ATOM     25  C   UNL A   1      38.054  30.115  29.850  1.00  0.00     0.031 A 
ATOM     26  C   UNL A   1      39.097  29.182  29.301  1.00  0.00     0.074 A 
ATOM     27  C   UNL A   1      38.208  30.652  31.075  1.00  0.00     0.049 A 
ATOM     28  N   UNL A   1      40.159  28.692  29.888  1.00  0.00    -0.248 NA
ATOM     29  C   UNL A   1      38.920  28.736  27.909  1.00  0.00     0.031 C 
ATOM     30  C   UNL A   1      37.281  31.589  31.709  1.00  0.00     0.029 A 
ATOM     31  N   UNL A   1      39.199  30.479  32.011  1.00  0.00    -0.354 N 
ATOM     32  C   UNL A   1      40.744  27.838  28.962  1.00  0.00     0.074 A 
ATOM     33  C   UNL A   1      39.925  27.881  27.770  1.00  0.00     0.031 C 
ATOM     34  C   UNL A   1      37.744  31.908  32.929  1.00  0.00     0.029 A 
ATOM     35  C   UNL A   1      38.975  31.164  33.182  1.00  0.00     0.049 A 
ATOM     36  H   UNL A   1      39.994  29.918  31.857  1.00  0.00     0.167 HD
ATOM     37  C   UNL A   1      41.869  27.095  29.090  1.00  0.00     0.034 A 
ATOM     38  C   UNL A   1      39.667  31.172  34.339  1.00  0.00     0.034 A 
ATOM     39  C   UNL A   1      42.717  27.103  30.251  1.00  0.00     0.049 A 
ATOM     40  C   UNL A   1      40.918  30.341  34.450  1.00  0.00     0.074 A 
ATOM     41  C   UNL A   1      43.900  26.415  30.458  1.00  0.00     0.029 A 
ATOM     42  N   UNL A   1      42.478  27.841  31.401  1.00  0.00    -0.354 N 
ATOM     43  N   UNL A   1      41.495  29.594  33.541  1.00  0.00    -0.248 NA
ATOM     44  C   UNL A   1      41.623  30.370  35.739  1.00  0.00     0.031 C 
ATOM     45  C   UNL A   1      44.373  26.731  31.736  1.00  0.00     0.029 A 
ATOM     46  C   UNL A   1      43.489  27.624  32.322  1.00  0.00     0.049 A 
ATOM     47  H   UNL A   1      41.704  28.433  31.541  1.00  0.00     0.167 HD
ATOM     48  C   UNL A   1      42.640  29.080  34.139  1.00  0.00     0.074 A 
ATOM     49  C   UNL A   1      42.689  29.624  35.480  1.00  0.00     0.031 C 
ATOM     50  C   UNL A   1      43.555  28.218  33.633  1.00  0.00     0.034 A 
BRANCH  37  51
ATOM     51  C   UNL A   1      42.265  26.224  27.928  1.00  0.00     0.023 A 
ATOM     52  C   UNL A   1      43.171  26.713  26.966  1.00  0.00     0.012 A 
ATOM     53  C   UNL A   1      41.784  24.904  27.820  1.00  0.00     0.148 A 
ATOM     54  C   UNL A   1      43.570  25.912  25.898  1.00  0.00     0.002 A 
ATOM     55  C   UNL A   1      42.216  24.099  26.772  1.00  0.00     0.091 A 
ATOM     56  F   UNL A   1      40.903  24.466  28.730  1.00  0.00    -0.205 F 
ATOM     57  C   UNL A   1      43.102  24.603  25.806  1.00  0.00     0.022 A 
BRANCH  55  58
ATOM     58  S   UNL A   1      41.721  22.379  26.612  1.00  0.00     0.127 S 
ATOM     59  O   UNL A   1      42.374  21.998  25.361  1.00  0.00    -0.237 OA
ATOM     60  O   UNL A   1      42.300  21.774  27.811  1.00  0.00    -0.237 OA
ATOM     61  O   UNL A   1      40.264  22.386  26.584  1.00  0.00    -0.744 OA
ENDBRANCH  55  58
ENDBRANCH  37  51
BRANCH  38  62
ATOM     62  C   UNL A   1      39.207  32.021  35.474  1.00  0.00     0.023 A 
ATOM     63  C   UNL A   1      38.303  31.489  36.413  1.00  0.00     0.012 A 
ATOM     64  C   UNL A   1      39.684  33.335  35.649  1.00  0.00     0.148 A 
ATOM     65  C   UNL A   1      37.869  32.256  37.496  1.00  0.00     0.002 A 
ATOM     66  C   UNL A   1      39.292  34.073  36.760  1.00  0.00     0.091 A 
ATOM     67  F   UNL A   1      40.522  33.836  34.730  1.00  0.00    -0.205 F 
ATOM     68  C   UNL A   1      38.373  33.541  37.677  1.00  0.00     0.022 A 
BRANCH  66  69
ATOM     69  S   UNL A   1      40.002  35.680  37.137  1.00  0.00     0.127 S 
ATOM     70  O   UNL A   1      39.282  36.048  38.353  1.00  0.00    -0.237 OA
ATOM     71  O   UNL A   1      41.415  35.354  37.334  1.00  0.00    -0.237 OA
ATOM     72  O   UNL A   1      39.738  36.504  35.964  1.00  0.00    -0.744 OA
ENDBRANCH  66  69
ENDBRANCH  38  62
BRANCH  50  73
ATOM     73  C   UNL A   1      44.703  27.818  34.520  1.00  0.00     0.023 A 
ATOM     74  C   UNL A   1      45.835  28.653  34.609  1.00  0.00     0.012 A 
ATOM     75  C   UNL A   1      44.631  26.661  35.321  1.00  0.00     0.148 A 
ATOM     76  C   UNL A   1      46.887  28.330  35.463  1.00  0.00     0.002 A 
ATOM     77  C   UNL A   1      45.667  26.367  36.201  1.00  0.00     0.091 A 
ATOM     78  F   UNL A   1      43.557  25.867  35.206  1.00  0.00    -0.205 F 
ATOM     79  C   UNL A   1      46.799  27.195  36.267  1.00  0.00     0.022 A 
BRANCH  77  80
ATOM     80  S   UNL A   1      45.593  24.976  37.334  1.00  0.00     0.127 S 
ATOM     81  O   UNL A   1      44.392  25.284  38.108  1.00  0.00    -0.237 OA
ATOM     82  O   UNL A   1      45.457  23.836  36.426  1.00  0.00    -0.237 OA
ATOM     83  O   UNL A   1      46.846  25.003  38.078  1.00  0.00    -0.744 OA
ENDBRANCH  77  80
ENDBRANCH  50  73
ENDBRANCH  24  25
ENDBRANCH  17  19
ENDBRANCH  16  17
ENDBRANCH  15  16
ENDBRANCH   1  15
TORSDOF 17
ENDMDL
MODEL 3
REMARK VINA RESULT:      -9.6      1.490      1.792
REMARK SMILES CCCCc1[nH]ncc1C(=O)OCCOC(=O)c1ccc(-c2c3nc(c(-c4cccc(S(=O)(=O)[O-])c4F)c4ccc([nH]4)c(-c4cccc(S(=O)(=O)[O-])c4F)c4nc(c(-c5cccc(S(=O)(=O)[O-])c5F)c5ccc2[nH]5)C=C4)C=C3)cc1
REMARK SMILES IDX 13 1 12 2 10 3 11 4 9 5 5 6 6 7 7 8 8 10 4 11 3 12 2 13 1 14
REMARK SMILES IDX 14 15 15 16 16 17 17 18 18 19 19 20 80 21 20 22 79 23 21 24
REMARK SMILES IDX 22 25 23 26 73 27 24 28 78 29 72 30 74 31 25 32 77 33 71 34
REMARK SMILES IDX 70 35 26 37 58 38 38 39 57 40 39 41 42 42 56 43 75 44 40 45
REMARK SMILES IDX 41 46 55 48 76 49 43 50 27 51 28 52 36 53 29 54 31 55 37 56
REMARK SMILES IDX 30 57 32 58 33 59 34 60 35 61 59 62 60 63 68 64 61 65 63 66
REMARK SMILES IDX 69 67 62 68 64 69 65 70 66 71 67 72 44 73 45 74 53 75 46 76
REMARK SMILES IDX 48 77 54 78 47 79 49 80 50 81 51 82 52 83
REMARK H PARENT 6 9 74 36 42 47
REMARK Flexibility Score: inf
ROOT
ATOM      1  C   UNL A   1      33.928  34.441  28.675  1.00  0.00     0.275 C 
ENDROOT
BRANCH   1   2
ATOM      2  O   UNL A   1      33.146  34.791  29.834  1.00  0.00    -0.458 OA
BRANCH   2   3
ATOM      3  C   UNL A   1      33.233  36.088  30.257  1.00  0.00     0.341 C 
ATOM      4  O   UNL A   1      32.897  37.054  29.593  1.00  0.00    -0.246 OA
BRANCH   3   5
ATOM      5  C   UNL A   1      33.666  36.207  31.640  1.00  0.00     0.100 A 
ATOM      6  C   UNL A   1      34.298  35.298  32.475  1.00  0.00     0.050 A 
ATOM      7  N   UNL A   1      34.277  35.872  33.721  1.00  0.00    -0.282 N 
ATOM      8  N   UNL A   1      33.899  37.155  33.715  1.00  0.00    -0.183 NA
ATOM      9  H   UNL A   1      34.517  35.385  34.543  1.00  0.00     0.190 HD
ATOM     10  C   UNL A   1      33.541  37.364  32.449  1.00  0.00     0.150 A 
BRANCH   6  11
ATOM     11  C   UNL A   1      34.960  33.984  32.243  1.00  0.00     0.056 C 
BRANCH  11  12
ATOM     12  C   UNL A   1      36.301  34.159  31.510  1.00  0.00     0.006 C 
BRANCH  12  13
ATOM     13  C   UNL A   1      36.951  32.869  30.990  1.00  0.00    -0.003 C 
ATOM     14  C   UNL A   1      37.665  33.038  29.658  1.00  0.00     0.004 C 
ENDBRANCH  12  13
ENDBRANCH  11  12
ENDBRANCH   6  11
ENDBRANCH   3   5
ENDBRANCH   2   3
ENDBRANCH   1   2
BRANCH   1  15
ATOM     15  C   UNL A   1      33.583  33.032  28.186  1.00  0.00     0.275 C 
BRANCH  15  16
ATOM     16  O   UNL A   1      34.774  32.311  27.824  1.00  0.00    -0.458 OA
BRANCH  16  17
ATOM     17  C   UNL A   1      34.625  30.975  27.659  1.00  0.00     0.338 C 
ATOM     18  O   UNL A   1      33.679  30.393  27.159  1.00  0.00    -0.246 OA
BRANCH  17  19
ATOM     19  C   UNL A   1      35.872  30.304  28.056  1.00  0.00     0.060 A 
ATOM     20  C   UNL A   1      35.894  29.674  29.298  1.00  0.00     0.016 A 
ATOM     21  C   UNL A   1      37.022  30.353  27.270  1.00  0.00     0.016 A 
ATOM     22  C   UNL A   1      37.065  29.097  29.778  1.00  0.00     0.010 A 
ATOM     23  C   UNL A   1      38.198  29.755  27.743  1.00  0.00     0.010 A 
ATOM     24  C   UNL A   1      38.232  29.135  29.007  1.00  0.00    -0.014 A 
BRANCH  24  25
ATOM     25  C   UNL A   1      39.491  28.571  29.556  1.00  0.00     0.031 A 
ATOM     26  C   UNL A   1      40.090  29.153  30.807  1.00  0.00     0.074 A 
ATOM     27  C   UNL A   1      40.088  27.529  28.947  1.00  0.00     0.049 A 
ATOM     28  N   UNL A   1      41.222  28.862  31.394  1.00  0.00    -0.248 NA
ATOM     29  C   UNL A   1      39.316  30.206  31.484  1.00  0.00     0.031 C 
ATOM     30  C   UNL A   1      39.594  26.859  27.743  1.00  0.00     0.029 A 
ATOM     31  N   UNL A   1      41.246  26.855  29.251  1.00  0.00    -0.354 N 
ATOM     32  C   UNL A   1      41.325  29.731  32.472  1.00  0.00     0.074 A 
ATOM     33  C   UNL A   1      40.137  30.556  32.465  1.00  0.00     0.031 C 
ATOM     34  C   UNL A   1      40.442  25.872  27.410  1.00  0.00     0.029 A 
ATOM     35  C   UNL A   1      41.562  25.869  28.347  1.00  0.00     0.049 A 
ATOM     36  H   UNL A   1      41.797  27.060  30.041  1.00  0.00     0.167 HD
ATOM     37  C   UNL A   1      42.315  29.825  33.392  1.00  0.00     0.034 A 
ATOM     38  C   UNL A   1      42.644  25.068  28.265  1.00  0.00     0.034 A 
ATOM     39  C   UNL A   1      43.464  28.962  33.436  1.00  0.00     0.049 A 
ATOM     40  C   UNL A   1      43.725  25.190  29.306  1.00  0.00     0.074 A 
ATOM     41  C   UNL A   1      44.499  28.953  34.355  1.00  0.00     0.029 A 
ATOM     42  N   UNL A   1      43.727  27.947  32.527  1.00  0.00    -0.354 N 
ATOM     43  N   UNL A   1      43.773  25.970  30.359  1.00  0.00    -0.248 NA
ATOM     44  C   UNL A   1      44.892  24.309  29.158  1.00  0.00     0.031 C 
ATOM     45  C   UNL A   1      45.393  27.938  33.997  1.00  0.00     0.029 A 
ATOM     46  C   UNL A   1      44.909  27.308  32.861  1.00  0.00     0.049 A 
ATOM     47  H   UNL A   1      43.157  27.717  31.759  1.00  0.00     0.167 HD
ATOM     48  C   UNL A   1      44.961  25.660  31.010  1.00  0.00     0.074 A 
ATOM     49  C   UNL A   1      45.591  24.602  30.248  1.00  0.00     0.031 C 
ATOM     50  C   UNL A   1      45.495  26.217  32.125  1.00  0.00     0.034 A 
BRANCH  37  51
ATOM     51  C   UNL A   1      42.186  30.889  34.450  1.00  0.00     0.023 A 
ATOM     52  C   UNL A   1      41.710  30.546  35.731  1.00  0.00     0.012 A 
ATOM     53  C   UNL A   1      42.586  32.215  34.190  1.00  0.00     0.148 A 
ATOM     54  C   UNL A   1      41.610  31.512  36.731  1.00  0.00     0.002 A 
ATOM     55  C   UNL A   1      42.517  33.164  35.203  1.00  0.00     0.091 A 
ATOM     56  F   UNL A   1      43.010  32.527  32.958  1.00  0.00    -0.205 F 
ATOM     57  C   UNL A   1      42.022  32.817  36.471  1.00  0.00     0.022 A 
BRANCH  55  58
ATOM     58  S   UNL A   1      43.091  34.852  34.982  1.00  0.00     0.127 S 
ATOM     59  O   UNL A   1      44.489  34.643  34.609  1.00  0.00    -0.237 OA
ATOM     60  O   UNL A   1      42.236  35.333  33.896  1.00  0.00    -0.237 OA
ATOM     61  O   UNL A   1      42.873  35.517  36.260  1.00  0.00    -0.744 OA
ENDBRANCH  55  58
ENDBRANCH  37  51
BRANCH  38  62
ATOM     62  C   UNL A   1      42.741  24.059  27.173  1.00  0.00     0.023 A 
ATOM     63  C   UNL A   1      43.501  24.354  26.025  1.00  0.00     0.012 A 
ATOM     64  C   UNL A   1      42.118  22.801  27.277  1.00  0.00     0.148 A 
ATOM     65  C   UNL A   1      43.624  23.421  24.993  1.00  0.00     0.002 A 
ATOM     66  C   UNL A   1      42.291  21.855  26.273  1.00  0.00     0.091 A 
ATOM     67  F   UNL A   1      41.374  22.547  28.364  1.00  0.00    -0.205 F 
ATOM     68  C   UNL A   1      43.031  22.168  25.123  1.00  0.00     0.022 A 
BRANCH  66  69
ATOM     69  S   UNL A   1      41.675  20.174  26.429  1.00  0.00     0.127 S 
ATOM     70  O   UNL A   1      42.188  19.788  27.741  1.00  0.00    -0.237 OA
ATOM     71  O   UNL A   1      40.227  20.369  26.367  1.00  0.00    -0.237 OA
ATOM     72  O   UNL A   1      42.229  19.453  25.290  1.00  0.00    -0.744 OA
ENDBRANCH  66  69
ENDBRANCH  38  62
BRANCH  50  73
ATOM     73  C   UNL A   1      46.819  25.685  32.606  1.00  0.00     0.023 A 
ATOM     74  C   UNL A   1      46.851  24.778  33.684  1.00  0.00     0.012 A 
ATOM     75  C   UNL A   1      48.017  26.020  31.946  1.00  0.00     0.148 A 
ATOM     76  C   UNL A   1      48.058  24.232  34.114  1.00  0.00     0.002 A 
ATOM     77  C   UNL A   1      49.212  25.440  32.354  1.00  0.00     0.091 A 
ATOM     78  F   UNL A   1      47.969  26.902  30.937  1.00  0.00    -0.205 F 
ATOM     79  C   UNL A   1      49.237  24.553  33.443  1.00  0.00     0.022 A 
BRANCH  77  80
ATOM     80  S   UNL A   1      50.761  25.729  31.489  1.00  0.00     0.127 S 
ATOM     81  O   UNL A   1      51.702  24.951  32.293  1.00  0.00    -0.237 OA
ATOM     82  O   UNL A   1      50.489  25.174  30.163  1.00  0.00    -0.237 OA
ATOM     83  O   UNL A   1      50.961  27.172  31.505  1.00  0.00    -0.744 OA
ENDBRANCH  77  80
ENDBRANCH  50  73
ENDBRANCH  24  25
ENDBRANCH  17  19
ENDBRANCH  16  17
ENDBRANCH  15  16
ENDBRANCH   1  15
TORSDOF 17
ENDMDL
