MODEL 1
REMARK VINA RESULT:     -11.6      0.000      0.000
REMARK SMILES O=C(OCCOC(=O)c1ccc(S(=O)(=O)NC[C@H]2CCS(=O)(=O)C2)cc1)c1ccc(-c2c3nc(c(-c4cccc(S(=O)(=O)[O-])c4F)c4ccc([nH]4)c(-c4cccc(S(=O)(=O)[O-])c4F)c4nc(c(-c5cccc(S(=O)(=O)[O-])c5F)c5ccc2[nH]5)C=C4)C=C3)cc1
REMARK SMILES IDX 5 1 4 2 3 3 2 4 1 5 27 6 28 7 89 8 29 9 88 10 30 11 31 12
REMARK SMILES IDX 32 13 82 14 33 15 87 16 81 17 83 18 34 19 86 20 80 21 79 22
REMARK SMILES IDX 35 24 67 25 47 26 66 27 48 28 51 29 65 30 84 31 49 32 50 33
REMARK SMILES IDX 64 35 85 36 52 37 36 38 37 39 45 40 38 41 40 42 46 43 39 44
REMARK SMILES IDX 41 45 42 46 43 47 44 48 68 49 69 50 77 51 70 52 72 53 78 54
REMARK SMILES IDX 71 55 73 56 74 57 75 58 76 59 53 60 54 61 62 62 55 63 57 64
REMARK SMILES IDX 63 65 56 66 58 67 59 68 60 69 61 70 6 71 7 72 8 73 9 74
REMARK SMILES IDX 10 75 26 76 11 77 25 78 12 79 13 80 14 81 15 82 16 83 17 85
REMARK SMILES IDX 18 86 19 87 24 88 20 89 21 90 22 91 23 92
REMARK H PARENT 83 23 51 34 16 84
REMARK Flexibility Score: inf
ROOT
ATOM      1  C   UNL A   1      35.902  19.987  25.058  1.00  0.00     0.275 C 
ENDROOT
BRANCH   1   2
ATOM      2  C   UNL A   1      37.127  20.838  24.724  1.00  0.00     0.275 C 
BRANCH   2   3
ATOM      3  O   UNL A   1      37.784  21.435  25.857  1.00  0.00    -0.458 OA
BRANCH   3   4
ATOM      4  C   UNL A   1      39.094  21.492  26.194  1.00  0.00     0.338 C 
ATOM      5  O   UNL A   1      39.748  20.448  26.175  1.00  0.00    -0.246 OA
BRANCH   4   6
ATOM      6  C   UNL A   1      39.783  22.725  26.693  1.00  0.00     0.060 A 
ATOM      7  C   UNL A   1      40.719  22.773  27.726  1.00  0.00     0.016 A 
ATOM      8  C   UNL A   1      39.409  23.943  26.089  1.00  0.00     0.016 A 
ATOM      9  C   UNL A   1      41.308  23.982  28.108  1.00  0.00     0.010 A 
ATOM     10  C   UNL A   1      39.996  25.157  26.465  1.00  0.00     0.010 A 
ATOM     11  C   UNL A   1      40.949  25.181  27.484  1.00  0.00    -0.014 A 
BRANCH  11  12
ATOM     12  C   UNL A   1      41.537  26.446  27.976  1.00  0.00     0.031 A 
ATOM     13  C   UNL A   1      42.988  26.728  27.731  1.00  0.00     0.074 A 
ATOM     14  C   UNL A   1      40.755  27.367  28.571  1.00  0.00     0.049 A 
ATOM     15  N   UNL A   1      43.641  27.846  27.906  1.00  0.00    -0.248 NA
ATOM     16  C   UNL A   1      43.797  25.631  27.176  1.00  0.00     0.031 C 
ATOM     17  C   UNL A   1      39.323  27.216  28.813  1.00  0.00     0.029 A 
ATOM     18  N   UNL A   1      41.047  28.601  29.085  1.00  0.00    -0.354 N 
ATOM     19  C   UNL A   1      44.924  27.605  27.435  1.00  0.00     0.074 A 
ATOM     20  C   UNL A   1      44.976  26.219  27.024  1.00  0.00     0.031 C 
ATOM     21  C   UNL A   1      38.874  28.278  29.504  1.00  0.00     0.029 A 
ATOM     22  C   UNL A   1      39.980  29.206  29.706  1.00  0.00     0.049 A 
ATOM     23  H   UNL A   1      41.938  29.016  29.018  1.00  0.00     0.167 HD
ATOM     24  C   UNL A   1      45.949  28.479  27.311  1.00  0.00     0.034 A 
ATOM     25  C   UNL A   1      39.902  30.387  30.346  1.00  0.00     0.034 A 
ATOM     26  C   UNL A   1      45.899  29.841  27.762  1.00  0.00     0.049 A 
ATOM     27  C   UNL A   1      41.091  31.307  30.290  1.00  0.00     0.074 A 
ATOM     28  C   UNL A   1      46.883  30.811  27.698  1.00  0.00     0.029 A 
ATOM     29  N   UNL A   1      44.806  30.421  28.390  1.00  0.00    -0.354 N 
ATOM     30  N   UNL A   1      42.246  31.119  29.697  1.00  0.00    -0.248 NA
ATOM     31  C   UNL A   1      40.945  32.627  30.920  1.00  0.00     0.031 C 
ATOM     32  C   UNL A   1      46.390  31.972  28.305  1.00  0.00     0.029 A 
ATOM     33  C   UNL A   1      45.093  31.730  28.730  1.00  0.00     0.049 A 
ATOM     34  H   UNL A   1      43.950  29.967  28.567  1.00  0.00     0.167 HD
ATOM     35  C   UNL A   1      42.944  32.312  29.835  1.00  0.00     0.074 A 
ATOM     36  C   UNL A   1      42.075  33.220  30.558  1.00  0.00     0.031 C 
ATOM     37  C   UNL A   1      44.192  32.628  29.408  1.00  0.00     0.034 A 
BRANCH  24  38
ATOM     38  C   UNL A   1      47.184  27.983  26.610  1.00  0.00     0.023 A 
ATOM     39  C   UNL A   1      48.272  27.532  27.388  1.00  0.00     0.012 A 
ATOM     40  C   UNL A   1      47.273  27.949  25.208  1.00  0.00     0.148 A 
ATOM     41  C   UNL A   1      49.443  27.083  26.779  1.00  0.00     0.002 A 
ATOM     42  C   UNL A   1      48.433  27.472  24.607  1.00  0.00     0.091 A 
ATOM     43  F   UNL A   1      46.235  28.402  24.490  1.00  0.00    -0.205 F 
ATOM     44  C   UNL A   1      49.520  27.048  25.390  1.00  0.00     0.022 A 
BRANCH  42  45
ATOM     45  S   UNL A   1      48.622  27.340  22.826  1.00  0.00     0.127 S 
ATOM     46  O   UNL A   1      50.013  27.754  22.647  1.00  0.00    -0.237 OA
ATOM     47  O   UNL A   1      48.375  25.917  22.597  1.00  0.00    -0.237 OA
ATOM     48  O   UNL A   1      47.627  28.234  22.249  1.00  0.00    -0.744 OA
ENDBRANCH  42  45
ENDBRANCH  24  38
BRANCH  25  49
ATOM     49  C   UNL A   1      38.640  30.791  31.028  1.00  0.00     0.023 A 
ATOM     50  C   UNL A   1      38.439  30.484  32.387  1.00  0.00     0.012 A 
ATOM     51  C   UNL A   1      37.634  31.481  30.327  1.00  0.00     0.148 A 
ATOM     52  C   UNL A   1      37.235  30.807  33.017  1.00  0.00     0.002 A 
ATOM     53  C   UNL A   1      36.451  31.831  30.971  1.00  0.00     0.091 A 
ATOM     54  F   UNL A   1      37.863  31.833  29.052  1.00  0.00    -0.205 F 
ATOM     55  C   UNL A   1      36.237  31.474  32.309  1.00  0.00     0.022 A 
BRANCH  53  56
ATOM     56  S   UNL A   1      35.181  32.759  30.106  1.00  0.00     0.127 S 
ATOM     57  O   UNL A   1      35.878  33.983  29.718  1.00  0.00    -0.237 OA
ATOM     58  O   UNL A   1      34.850  31.854  29.006  1.00  0.00    -0.237 OA
ATOM     59  O   UNL A   1      34.125  32.951  31.092  1.00  0.00    -0.744 OA
ENDBRANCH  53  56
ENDBRANCH  25  49
BRANCH  37  60
ATOM     60  C   UNL A   1      44.681  34.023  29.691  1.00  0.00     0.023 A 
ATOM     61  C   UNL A   1      45.377  34.289  30.886  1.00  0.00     0.012 A 
ATOM     62  C   UNL A   1      44.507  35.050  28.745  1.00  0.00     0.148 A 
ATOM     63  C   UNL A   1      45.865  35.567  31.150  1.00  0.00     0.002 A 
ATOM     64  C   UNL A   1      45.038  36.311  28.994  1.00  0.00     0.091 A 
ATOM     65  F   UNL A   1      43.818  34.783  27.625  1.00  0.00    -0.205 F 
ATOM     66  C   UNL A   1      45.706  36.573  30.199  1.00  0.00     0.022 A 
BRANCH  64  67
ATOM     67  S   UNL A   1      44.961  37.632  27.779  1.00  0.00     0.127 S 
ATOM     68  O   UNL A   1      45.663  37.036  26.645  1.00  0.00    -0.237 OA
ATOM     69  O   UNL A   1      43.519  37.797  27.587  1.00  0.00    -0.237 OA
ATOM     70  O   UNL A   1      45.618  38.775  28.399  1.00  0.00    -0.744 OA
ENDBRANCH  64  67
ENDBRANCH  37  60
ENDBRANCH  11  12
ENDBRANCH   4   6
ENDBRANCH   3   4
ENDBRANCH   2   3
ENDBRANCH   1   2
BRANCH   1  71
ATOM     71  O   UNL A   1      34.679  20.549  24.570  1.00  0.00    -0.458 OA
BRANCH  71  72
ATOM     72  C   UNL A   1      34.210  21.601  25.292  1.00  0.00     0.338 C 
ATOM     73  O   UNL A   1      34.185  21.697  26.507  1.00  0.00    -0.246 OA
BRANCH  72  74
ATOM     74  C   UNL A   1      33.842  22.699  24.377  1.00  0.00     0.060 A 
ATOM     75  C   UNL A   1      34.471  23.937  24.546  1.00  0.00     0.017 A 
ATOM     76  C   UNL A   1      32.915  22.515  23.345  1.00  0.00     0.017 A 
ATOM     77  C   UNL A   1      34.193  24.981  23.664  1.00  0.00     0.022 A 
ATOM     78  C   UNL A   1      32.640  23.562  22.459  1.00  0.00     0.022 A 
ATOM     79  C   UNL A   1      33.280  24.789  22.620  1.00  0.00     0.082 A 
BRANCH  79  80
ATOM     80  S   UNL A   1      33.003  26.149  21.514  1.00  0.00     0.240 S 
ATOM     81  O   UNL A   1      33.998  27.150  21.842  1.00  0.00    -0.207 OA
ATOM     82  O   UNL A   1      32.937  25.573  20.193  1.00  0.00    -0.207 OA
BRANCH  80  83
ATOM     83  N   UNL A   1      31.500  26.772  21.837  1.00  0.00    -0.211 NA
ATOM     84  H   UNL A   1      30.864  26.190  21.292  1.00  0.00     0.141 HD
BRANCH  83  85
ATOM     85  C   UNL A   1      30.815  26.944  23.123  1.00  0.00     0.103 C 
BRANCH  85  86
ATOM     86  C   UNL A   1      31.561  27.654  24.246  1.00  0.00     0.020 C 
ATOM     87  C   UNL A   1      31.009  29.046  24.583  1.00  0.00     0.022 C 
ATOM     88  C   UNL A   1      31.716  26.868  25.549  1.00  0.00     0.142 C 
ATOM     89  C   UNL A   1      31.789  29.537  25.792  1.00  0.00     0.137 C 
ATOM     90  S   UNL A   1      32.092  28.097  26.798  1.00  0.00     0.150 S 
ATOM     91  O   UNL A   1      33.506  28.060  27.112  1.00  0.00    -0.229 OA
ATOM     92  O   UNL A   1      31.095  28.059  27.850  1.00  0.00    -0.229 OA
ENDBRANCH  85  86
ENDBRANCH  83  85
ENDBRANCH  80  83
ENDBRANCH  79  80
ENDBRANCH  72  74
ENDBRANCH  71  72
ENDBRANCH   1  71
TORSDOF 18
ENDMDL
MODEL 2
REMARK VINA RESULT:     -11.6      5.093     10.416
REMARK SMILES O=C(OCCOC(=O)c1ccc(S(=O)(=O)NC[C@H]2CCS(=O)(=O)C2)cc1)c1ccc(-c2c3nc(c(-c4cccc(S(=O)(=O)[O-])c4F)c4ccc([nH]4)c(-c4cccc(S(=O)(=O)[O-])c4F)c4nc(c(-c5cccc(S(=O)(=O)[O-])c5F)c5ccc2[nH]5)C=C4)C=C3)cc1
REMARK SMILES IDX 5 1 4 2 3 3 2 4 1 5 27 6 28 7 89 8 29 9 88 10 30 11 31 12
REMARK SMILES IDX 32 13 82 14 33 15 87 16 81 17 83 18 34 19 86 20 80 21 79 22
REMARK SMILES IDX 35 24 67 25 47 26 66 27 48 28 51 29 65 30 84 31 49 32 50 33
REMARK SMILES IDX 64 35 85 36 52 37 36 38 37 39 45 40 38 41 40 42 46 43 39 44
REMARK SMILES IDX 41 45 42 46 43 47 44 48 68 49 69 50 77 51 70 52 72 53 78 54
REMARK SMILES IDX 71 55 73 56 74 57 75 58 76 59 53 60 54 61 62 62 55 63 57 64
REMARK SMILES IDX 63 65 56 66 58 67 59 68 60 69 61 70 6 71 7 72 8 73 9 74
REMARK SMILES IDX 10 75 26 76 11 77 25 78 12 79 13 80 14 81 15 82 16 83 17 85
REMARK SMILES IDX 18 86 19 87 24 88 20 89 21 90 22 91 23 92
REMARK H PARENT 83 23 51 34 16 84
REMARK Flexibility Score: inf
ROOT
ATOM      1  C   UNL A   1      31.383  30.348  25.442  1.00  0.00     0.275 C 
ENDROOT
BRANCH   1   2
ATOM      2  C   UNL A   1      32.021  30.757  26.770  1.00  0.00     0.275 C 
BRANCH   2   3
ATOM      3  O   UNL A   1      33.012  31.796  26.677  1.00  0.00    -0.458 OA
BRANCH   3   4
ATOM      4  C   UNL A   1      33.766  32.391  27.633  1.00  0.00     0.338 C 
ATOM      5  O   UNL A   1      33.466  33.531  27.987  1.00  0.00    -0.246 OA
BRANCH   4   6
ATOM      6  C   UNL A   1      35.010  31.794  28.216  1.00  0.00     0.060 A 
ATOM      7  C   UNL A   1      35.108  30.536  28.811  1.00  0.00     0.016 A 
ATOM      8  C   UNL A   1      36.166  32.602  28.196  1.00  0.00     0.016 A 
ATOM      9  C   UNL A   1      36.325  30.072  29.318  1.00  0.00     0.010 A 
ATOM     10  C   UNL A   1      37.388  32.143  28.700  1.00  0.00     0.010 A 
ATOM     11  C   UNL A   1      37.471  30.871  29.269  1.00  0.00    -0.014 A 
BRANCH  11  12
ATOM     12  C   UNL A   1      38.717  30.373  29.892  1.00  0.00     0.031 A 
ATOM     13  C   UNL A   1      39.122  30.886  31.240  1.00  0.00     0.074 A 
ATOM     14  C   UNL A   1      39.437  29.411  29.284  1.00  0.00     0.049 A 
ATOM     15  N   UNL A   1      40.059  30.439  32.033  1.00  0.00    -0.248 NA
ATOM     16  C   UNL A   1      38.346  32.010  31.788  1.00  0.00     0.031 C 
ATOM     17  C   UNL A   1      39.107  28.807  27.997  1.00  0.00     0.029 A 
ATOM     18  N   UNL A   1      40.593  28.781  29.656  1.00  0.00    -0.354 N 
ATOM     19  C   UNL A   1      39.956  31.192  33.194  1.00  0.00     0.074 A 
ATOM     20  C   UNL A   1      38.905  32.164  32.980  1.00  0.00     0.031 C 
ATOM     21  C   UNL A   1      40.080  27.952  27.643  1.00  0.00     0.029 A 
ATOM     22  C   UNL A   1      41.077  27.912  28.706  1.00  0.00     0.049 A 
ATOM     23  H   UNL A   1      41.037  28.934  30.522  1.00  0.00     0.167 HD
ATOM     24  C   UNL A   1      40.642  31.049  34.351  1.00  0.00     0.034 A 
ATOM     25  C   UNL A   1      42.190  27.155  28.706  1.00  0.00     0.034 A 
ATOM     26  C   UNL A   1      41.711  30.109  34.536  1.00  0.00     0.049 A 
ATOM     27  C   UNL A   1      43.005  27.088  29.969  1.00  0.00     0.074 A 
ATOM     28  C   UNL A   1      42.483  29.887  35.661  1.00  0.00     0.029 A 
ATOM     29  N   UNL A   1      42.180  29.248  33.553  1.00  0.00    -0.354 N 
ATOM     30  N   UNL A   1      42.793  27.691  31.114  1.00  0.00    -0.248 NA
ATOM     31  C   UNL A   1      44.162  26.182  29.970  1.00  0.00     0.031 C 
ATOM     32  C   UNL A   1      43.432  28.905  35.352  1.00  0.00     0.029 A 
ATOM     33  C   UNL A   1      43.237  28.502  34.040  1.00  0.00     0.049 A 
ATOM     34  H   UNL A   1      41.812  29.178  32.642  1.00  0.00     0.167 HD
ATOM     35  C   UNL A   1      43.756  27.201  31.987  1.00  0.00     0.074 A 
ATOM     36  C   UNL A   1      44.544  26.241  31.239  1.00  0.00     0.031 C 
ATOM     37  C   UNL A   1      43.974  27.518  33.287  1.00  0.00     0.034 A 
BRANCH  24  38
ATOM     38  C   UNL A   1      40.205  31.901  35.511  1.00  0.00     0.023 A 
ATOM     39  C   UNL A   1      40.865  33.128  35.740  1.00  0.00     0.012 A 
ATOM     40  C   UNL A   1      39.154  31.511  36.359  1.00  0.00     0.148 A 
ATOM     41  C   UNL A   1      40.505  33.939  36.815  1.00  0.00     0.002 A 
ATOM     42  C   UNL A   1      38.780  32.339  37.411  1.00  0.00     0.091 A 
ATOM     43  F   UNL A   1      38.556  30.332  36.134  1.00  0.00    -0.205 F 
ATOM     44  C   UNL A   1      39.460  33.546  37.646  1.00  0.00     0.022 A 
BRANCH  42  45
ATOM     45  S   UNL A   1      37.418  31.953  38.516  1.00  0.00     0.127 S 
ATOM     46  O   UNL A   1      38.033  32.166  39.826  1.00  0.00    -0.237 OA
ATOM     47  O   UNL A   1      36.424  32.957  38.138  1.00  0.00    -0.237 OA
ATOM     48  O   UNL A   1      37.040  30.578  38.222  1.00  0.00    -0.744 OA
ENDBRANCH  42  45
ENDBRANCH  24  38
BRANCH  25  49
ATOM     49  C   UNL A   1      42.554  26.353  27.504  1.00  0.00     0.023 A 
ATOM     50  C   UNL A   1      43.253  26.950  26.439  1.00  0.00     0.012 A 
ATOM     51  C   UNL A   1      42.205  24.992  27.416  1.00  0.00     0.148 A 
ATOM     52  C   UNL A   1      43.546  26.221  25.284  1.00  0.00     0.002 A 
ATOM     53  C   UNL A   1      42.531  24.262  26.277  1.00  0.00     0.091 A 
ATOM     54  F   UNL A   1      41.602  24.413  28.465  1.00  0.00    -0.205 F 
ATOM     55  C   UNL A   1      43.179  24.879  25.199  1.00  0.00     0.022 A 
BRANCH  53  56
ATOM     56  S   UNL A   1      42.142  22.513  26.172  1.00  0.00     0.127 S 
ATOM     57  O   UNL A   1      42.701  22.131  24.877  1.00  0.00    -0.237 OA
ATOM     58  O   UNL A   1      42.848  21.982  27.337  1.00  0.00    -0.237 OA
ATOM     59  O   UNL A   1      40.688  22.452  26.245  1.00  0.00    -0.744 OA
ENDBRANCH  53  56
ENDBRANCH  25  49
BRANCH  37  60
ATOM     60  C   UNL A   1      45.094  26.801  33.991  1.00  0.00     0.023 A 
ATOM     61  C   UNL A   1      46.407  27.302  33.903  1.00  0.00     0.012 A 
ATOM     62  C   UNL A   1      44.835  25.670  34.787  1.00  0.00     0.148 A 
ATOM     63  C   UNL A   1      47.452  26.669  34.573  1.00  0.00     0.002 A 
ATOM     64  C   UNL A   1      45.874  25.072  35.491  1.00  0.00     0.091 A 
ATOM     65  F   UNL A   1      43.582  25.192  34.836  1.00  0.00    -0.205 F 
ATOM     66  C   UNL A   1      47.183  25.563  35.376  1.00  0.00     0.022 A 
BRANCH  64  67
ATOM     67  S   UNL A   1      45.593  23.704  36.621  1.00  0.00     0.127 S 
ATOM     68  O   UNL A   1      46.942  23.453  37.126  1.00  0.00    -0.237 OA
ATOM     69  O   UNL A   1      44.674  24.288  37.599  1.00  0.00    -0.237 OA
ATOM     70  O   UNL A   1      45.013  22.639  35.814  1.00  0.00    -0.744 OA
ENDBRANCH  64  67
ENDBRANCH  37  60
ENDBRANCH  11  12
ENDBRANCH   4   6
ENDBRANCH   3   4
ENDBRANCH   2   3
ENDBRANCH   1   2
BRANCH   1  71
ATOM     71  O   UNL A   1      31.992  29.190  24.860  1.00  0.00    -0.458 OA
BRANCH  71  72
ATOM     72  C   UNL A   1      31.139  28.390  24.167  1.00  0.00     0.338 C 
ATOM     73  O   UNL A   1      30.550  28.671  23.138  1.00  0.00    -0.246 OA
BRANCH  72  74
ATOM     74  C   UNL A   1      31.121  27.046  24.778  1.00  0.00     0.060 A 
ATOM     75  C   UNL A   1      32.014  26.786  25.823  1.00  0.00     0.017 A 
ATOM     76  C   UNL A   1      30.222  26.060  24.357  1.00  0.00     0.017 A 
ATOM     77  C   UNL A   1      31.986  25.548  26.465  1.00  0.00     0.022 A 
ATOM     78  C   UNL A   1      30.194  24.820  25.004  1.00  0.00     0.022 A 
ATOM     79  C   UNL A   1      31.073  24.569  26.055  1.00  0.00     0.082 A 
BRANCH  79  80
ATOM     80  S   UNL A   1      31.069  23.031  26.940  1.00  0.00     0.240 S 
ATOM     81  O   UNL A   1      32.311  22.985  27.684  1.00  0.00    -0.207 OA
ATOM     82  O   UNL A   1      29.796  22.972  27.618  1.00  0.00    -0.207 OA
BRANCH  80  83
ATOM     83  N   UNL A   1      31.073  21.800  25.828  1.00  0.00    -0.211 NA
ATOM     84  H   UNL A   1      30.187  21.907  25.332  1.00  0.00     0.141 HD
BRANCH  83  85
ATOM     85  C   UNL A   1      32.043  21.500  24.770  1.00  0.00     0.103 C 
BRANCH  85  86
ATOM     86  C   UNL A   1      33.490  21.927  24.978  1.00  0.00     0.020 C 
ATOM     87  C   UNL A   1      34.511  20.793  24.808  1.00  0.00     0.022 C 
ATOM     88  C   UNL A   1      33.960  23.127  24.152  1.00  0.00     0.142 C 
ATOM     89  C   UNL A   1      35.885  21.430  24.928  1.00  0.00     0.137 C 
ATOM     90  S   UNL A   1      35.750  23.037  24.168  1.00  0.00     0.150 S 
ATOM     91  O   UNL A   1      36.281  24.017  25.096  1.00  0.00    -0.229 OA
ATOM     92  O   UNL A   1      36.256  22.945  22.813  1.00  0.00    -0.229 OA
ENDBRANCH  85  86
ENDBRANCH  83  85
ENDBRANCH  80  83
ENDBRANCH  79  80
ENDBRANCH  72  74
ENDBRANCH  71  72
ENDBRANCH   1  71
TORSDOF 18
ENDMDL
MODEL 3
REMARK VINA RESULT:     -11.4      1.596      7.933
REMARK SMILES O=C(OCCOC(=O)c1ccc(S(=O)(=O)NC[C@H]2CCS(=O)(=O)C2)cc1)c1ccc(-c2c3nc(c(-c4cccc(S(=O)(=O)[O-])c4F)c4ccc([nH]4)c(-c4cccc(S(=O)(=O)[O-])c4F)c4nc(c(-c5cccc(S(=O)(=O)[O-])c5F)c5ccc2[nH]5)C=C4)C=C3)cc1
REMARK SMILES IDX 5 1 4 2 3 3 2 4 1 5 27 6 28 7 89 8 29 9 88 10 30 11 31 12
REMARK SMILES IDX 32 13 82 14 33 15 87 16 81 17 83 18 34 19 86 20 80 21 79 22
REMARK SMILES IDX 35 24 67 25 47 26 66 27 48 28 51 29 65 30 84 31 49 32 50 33
REMARK SMILES IDX 64 35 85 36 52 37 36 38 37 39 45 40 38 41 40 42 46 43 39 44
REMARK SMILES IDX 41 45 42 46 43 47 44 48 68 49 69 50 77 51 70 52 72 53 78 54
REMARK SMILES IDX 71 55 73 56 74 57 75 58 76 59 53 60 54 61 62 62 55 63 57 64
REMARK SMILES IDX 63 65 56 66 58 67 59 68 60 69 61 70 6 71 7 72 8 73 9 74
REMARK SMILES IDX 10 75 26 76 11 77 25 78 12 79 13 80 14 81 15 82 16 83 17 85
REMARK SMILES IDX 18 86 19 87 24 88 20 89 21 90 22 91 23 92
REMARK H PARENT 83 23 51 34 16 84
REMARK Flexibility Score: inf
ROOT
ATOM      1  C   UNL A   1      38.140  20.950  25.394  1.00  0.00     0.275 C 
ENDROOT
BRANCH   1   2
ATOM      2  C   UNL A   1      38.760  19.553  25.380  1.00  0.00     0.275 C 
BRANCH   2   3
ATOM      3  O   UNL A   1      40.130  19.489  25.817  1.00  0.00    -0.458 OA
BRANCH   3   4
ATOM      4  C   UNL A   1      40.751  20.062  26.875  1.00  0.00     0.338 C 
ATOM      5  O   UNL A   1      40.898  19.394  27.899  1.00  0.00    -0.246 OA
BRANCH   4   6
ATOM      6  C   UNL A   1      41.179  21.497  26.923  1.00  0.00     0.060 A 
ATOM      7  C   UNL A   1      41.282  22.353  25.826  1.00  0.00     0.016 A 
ATOM      8  C   UNL A   1      41.552  22.001  28.187  1.00  0.00     0.016 A 
ATOM      9  C   UNL A   1      41.685  23.682  25.986  1.00  0.00     0.010 A 
ATOM     10  C   UNL A   1      41.955  23.332  28.353  1.00  0.00     0.010 A 
ATOM     11  C   UNL A   1      42.027  24.179  27.247  1.00  0.00    -0.014 A 
BRANCH  11  12
ATOM     12  C   UNL A   1      42.528  25.567  27.356  1.00  0.00     0.031 A 
ATOM     13  C   UNL A   1      41.628  26.632  27.904  1.00  0.00     0.074 A 
ATOM     14  C   UNL A   1      43.805  25.851  27.037  1.00  0.00     0.049 A 
ATOM     15  N   UNL A   1      41.933  27.852  28.259  1.00  0.00    -0.248 NA
ATOM     16  C   UNL A   1      40.220  26.268  28.125  1.00  0.00     0.031 C 
ATOM     17  C   UNL A   1      44.778  24.882  26.544  1.00  0.00     0.029 A 
ATOM     18  N   UNL A   1      44.501  27.029  27.070  1.00  0.00    -0.354 N 
ATOM     19  C   UNL A   1      40.769  28.387  28.793  1.00  0.00     0.074 A 
ATOM     20  C   UNL A   1      39.737  27.381  28.661  1.00  0.00     0.031 C 
ATOM     21  C   UNL A   1      45.923  25.516  26.240  1.00  0.00     0.029 A 
ATOM     22  C   UNL A   1      45.777  26.929  26.567  1.00  0.00     0.049 A 
ATOM     23  H   UNL A   1      44.124  27.869  27.420  1.00  0.00     0.167 HD
ATOM     24  C   UNL A   1      40.594  29.589  29.387  1.00  0.00     0.034 A 
ATOM     25  C   UNL A   1      46.726  27.870  26.409  1.00  0.00     0.034 A 
ATOM     26  C   UNL A   1      41.615  30.595  29.474  1.00  0.00     0.049 A 
ATOM     27  C   UNL A   1      46.474  29.238  26.982  1.00  0.00     0.074 A 
ATOM     28  C   UNL A   1      41.543  31.854  30.042  1.00  0.00     0.029 A 
ATOM     29  N   UNL A   1      42.894  30.464  28.951  1.00  0.00    -0.354 N 
ATOM     30  N   UNL A   1      45.419  29.674  27.629  1.00  0.00    -0.248 NA
ATOM     31  C   UNL A   1      47.563  30.218  26.876  1.00  0.00     0.031 C 
ATOM     32  C   UNL A   1      42.774  32.491  29.845  1.00  0.00     0.029 A 
ATOM     33  C   UNL A   1      43.618  31.622  29.171  1.00  0.00     0.049 A 
ATOM     34  H   UNL A   1      43.236  29.664  28.491  1.00  0.00     0.167 HD
ATOM     35  C   UNL A   1      45.736  30.959  28.052  1.00  0.00     0.074 A 
ATOM     36  C   UNL A   1      47.087  31.224  27.599  1.00  0.00     0.031 C 
ATOM     37  C   UNL A   1      44.978  31.842  28.749  1.00  0.00     0.034 A 
BRANCH  24  38
ATOM     38  C   UNL A   1      39.258  29.843  30.030  1.00  0.00     0.023 A 
ATOM     39  C   UNL A   1      39.061  29.443  31.369  1.00  0.00     0.012 A 
ATOM     40  C   UNL A   1      38.213  30.476  29.334  1.00  0.00     0.148 A 
ATOM     41  C   UNL A   1      37.832  29.642  31.997  1.00  0.00     0.002 A 
ATOM     42  C   UNL A   1      36.999  30.698  29.976  1.00  0.00     0.091 A 
ATOM     43  F   UNL A   1      38.417  30.828  28.057  1.00  0.00    -0.205 F 
ATOM     44  C   UNL A   1      36.805  30.274  31.302  1.00  0.00     0.022 A 
BRANCH  42  45
ATOM     45  S   UNL A   1      35.624  31.544  29.190  1.00  0.00     0.127 S 
ATOM     46  O   UNL A   1      35.072  30.485  28.346  1.00  0.00    -0.237 OA
ATOM     47  O   UNL A   1      34.792  31.905  30.338  1.00  0.00    -0.237 OA
ATOM     48  O   UNL A   1      36.202  32.673  28.476  1.00  0.00    -0.744 OA
ENDBRANCH  42  45
ENDBRANCH  24  38
BRANCH  25  49
ATOM     49  C   UNL A   1      48.016  27.533  25.746  1.00  0.00     0.023 A 
ATOM     50  C   UNL A   1      49.135  27.163  26.515  1.00  0.00     0.012 A 
ATOM     51  C   UNL A   1      48.136  27.579  24.344  1.00  0.00     0.148 A 
ATOM     52  C   UNL A   1      50.364  26.903  25.904  1.00  0.00     0.002 A 
ATOM     53  C   UNL A   1      49.354  27.284  23.739  1.00  0.00     0.091 A 
ATOM     54  F   UNL A   1      47.047  27.862  23.613  1.00  0.00    -0.205 F 
ATOM     55  C   UNL A   1      50.477  26.970  24.516  1.00  0.00     0.022 A 
BRANCH  53  56
ATOM     56  S   UNL A   1      49.509  27.286  21.951  1.00  0.00     0.127 S 
ATOM     57  O   UNL A   1      48.657  26.169  21.548  1.00  0.00    -0.237 OA
ATOM     58  O   UNL A   1      48.999  28.613  21.610  1.00  0.00    -0.237 OA
ATOM     59  O   UNL A   1      50.930  27.084  21.701  1.00  0.00    -0.744 OA
ENDBRANCH  53  56
ENDBRANCH  25  49
BRANCH  37  60
ATOM     60  C   UNL A   1      45.604  33.169  29.084  1.00  0.00     0.023 A 
ATOM     61  C   UNL A   1      46.340  33.311  30.276  1.00  0.00     0.012 A 
ATOM     62  C   UNL A   1      45.515  34.251  28.189  1.00  0.00     0.148 A 
ATOM     63  C   UNL A   1      46.952  34.524  30.588  1.00  0.00     0.002 A 
ATOM     64  C   UNL A   1      46.168  35.442  28.484  1.00  0.00     0.091 A 
ATOM     65  F   UNL A   1      44.786  34.103  27.072  1.00  0.00    -0.205 F 
ATOM     66  C   UNL A   1      46.877  35.584  29.687  1.00  0.00     0.022 A 
BRANCH  64  67
ATOM     67  S   UNL A   1      46.200  36.820  27.332  1.00  0.00     0.127 S 
ATOM     68  O   UNL A   1      47.133  37.734  27.986  1.00  0.00    -0.237 OA
ATOM     69  O   UNL A   1      46.711  36.196  26.111  1.00  0.00    -0.237 OA
ATOM     70  O   UNL A   1      44.822  37.285  27.236  1.00  0.00    -0.744 OA
ENDBRANCH  64  67
ENDBRANCH  37  60
ENDBRANCH  11  12
ENDBRANCH   4   6
ENDBRANCH   3   4
ENDBRANCH   2   3
ENDBRANCH   1   2
BRANCH   1  71
ATOM     71  O   UNL A   1      36.792  20.971  24.911  1.00  0.00    -0.458 OA
BRANCH  71  72
ATOM     72  C   UNL A   1      36.431  22.124  24.289  1.00  0.00     0.338 C 
ATOM     73  O   UNL A   1      36.996  22.653  23.348  1.00  0.00    -0.246 OA
BRANCH  72  74
ATOM     74  C   UNL A   1      35.147  22.599  24.843  1.00  0.00     0.060 A 
ATOM     75  C   UNL A   1      35.133  23.825  25.517  1.00  0.00     0.017 A 
ATOM     76  C   UNL A   1      33.964  21.870  24.682  1.00  0.00     0.017 A 
ATOM     77  C   UNL A   1      33.929  24.334  26.002  1.00  0.00     0.022 A 
ATOM     78  C   UNL A   1      32.756  22.383  25.167  1.00  0.00     0.022 A 
ATOM     79  C   UNL A   1      32.742  23.612  25.822  1.00  0.00     0.082 A 
BRANCH  79  80
ATOM     80  S   UNL A   1      31.242  24.337  26.433  1.00  0.00     0.240 S 
ATOM     81  O   UNL A   1      30.638  23.350  27.305  1.00  0.00    -0.207 OA
ATOM     82  O   UNL A   1      31.611  25.641  26.931  1.00  0.00    -0.207 OA
BRANCH  80  83
ATOM     83  N   UNL A   1      30.233  24.590  25.141  1.00  0.00    -0.211 NA
ATOM     84  H   UNL A   1      29.301  24.400  25.510  1.00  0.00     0.141 HD
BRANCH  83  85
ATOM     85  C   UNL A   1      30.055  25.788  24.313  1.00  0.00     0.103 C 
BRANCH  85  86
ATOM     86  C   UNL A   1      31.090  26.076  23.233  1.00  0.00     0.020 C 
ATOM     87  C   UNL A   1      32.196  27.048  23.667  1.00  0.00     0.022 C 
ATOM     88  C   UNL A   1      31.747  24.852  22.591  1.00  0.00     0.142 C 
ATOM     89  C   UNL A   1      33.187  27.113  22.517  1.00  0.00     0.137 C 
ATOM     90  S   UNL A   1      33.245  25.471  21.826  1.00  0.00     0.150 S 
ATOM     91  O   UNL A   1      33.053  25.581  20.393  1.00  0.00    -0.229 OA
ATOM     92  O   UNL A   1      34.401  24.787  22.371  1.00  0.00    -0.229 OA
ENDBRANCH  85  86
ENDBRANCH  83  85
ENDBRANCH  80  83
ENDBRANCH  79  80
ENDBRANCH  72  74
ENDBRANCH  71  72
ENDBRANCH   1  71
TORSDOF 18
ENDMDL
