MODEL 1
REMARK VINA RESULT:     -13.2      0.000      0.000
REMARK SMILES C[C@@H]1CCC[C@H](C)[N@H+]1Cc1cc2c(cc1Cl)C=C(C(=O)OCCOC(=O)c1ccc(-c3c4nc(c(-c5cccc(S(=O)(=O)[O-])c5F)c5ccc([nH]5)c(-c5cccc(S(=O)(=O)[O-])c5F)c5nc(c(-c6cccc(S(=O)(=O)[O-])c6F)c6ccc3[nH]6)C=C5)C=C4)cc1)[C@@H](C(F)(F)F)O2
REMARK SMILES IDX 23 1 22 2 21 3 19 4 20 5 18 6 10 7 11 8 15 9 12 10 14 11
REMARK SMILES IDX 16 12 13 13 95 14 17 15 90 16 9 17 8 18 7 19 6 20 5 21 4 22
REMARK SMILES IDX 2 23 3 25 1 26 91 27 92 28 93 29 94 30 24 31 25 32 26 33
REMARK SMILES IDX 27 34 28 35 89 36 29 37 88 38 30 39 31 40 32 41 82 42 33 43
REMARK SMILES IDX 87 44 81 45 83 46 34 47 86 48 80 49 79 50 35 52 67 53 47 54
REMARK SMILES IDX 66 55 48 56 51 57 65 58 84 59 49 60 50 61 64 63 85 64 52 65
REMARK SMILES IDX 36 66 37 67 45 68 38 69 40 70 46 71 39 72 41 73 42 74 43 75
REMARK SMILES IDX 44 76 68 77 69 78 77 79 70 80 72 81 78 82 71 83 73 84 74 85
REMARK SMILES IDX 75 86 76 87 53 88 54 89 62 90 55 91 57 92 63 93 56 94 58 95
REMARK SMILES IDX 59 96 60 97 61 98
REMARK H PARENT 8 24 83 51 51 62
REMARK Flexibility Score: inf
ROOT
ATOM      1  C   UNL A   1      31.658  30.073  25.519  1.00  0.00     0.275 C 
ENDROOT
BRANCH   1   2
ATOM      2  C   UNL A   1      31.372  28.680  24.954  1.00  0.00     0.275 C 
BRANCH   2   3
ATOM      3  O   UNL A   1      32.364  27.708  25.350  1.00  0.00    -0.459 OA
BRANCH   3   4
ATOM      4  C   UNL A   1      31.936  26.796  26.261  1.00  0.00     0.338 C 
ATOM      5  O   UNL A   1      31.310  27.043  27.273  1.00  0.00    -0.246 OA
BRANCH   4   6
ATOM      6  C   UNL A   1      32.286  25.419  25.849  1.00  0.00     0.087 C 
ATOM      7  C   UNL A   1      34.772  21.126  24.968  1.00  0.00     0.029 A 
ATOM      8  C   UNL A   1      33.404  21.469  25.062  1.00  0.00     0.058 A 
ATOM      9  C   UNL A   1      35.708  22.171  24.907  1.00  0.00     0.050 A 
ATOM     10  C   UNL A   1      33.004  22.796  25.248  1.00  0.00     0.128 A 
ATOM     11  C   UNL A   1      35.314  23.487  25.148  1.00  0.00     0.033 A 
ATOM     12  Cl  UNL A   1      37.377  21.925  24.538  1.00  0.00    -0.084 Cl
ATOM     13  C   UNL A   1      33.971  23.792  25.357  1.00  0.00     0.019 A 
ATOM     14  O   UNL A   1      31.664  23.044  25.395  1.00  0.00    -0.475 OA
ATOM     15  C   UNL A   1      33.590  25.133  25.752  1.00  0.00     0.027 C 
ATOM     16  C   UNL A   1      31.232  24.439  25.415  1.00  0.00     0.316 C 
BRANCH   7  17
ATOM     17  C   UNL A   1      35.185  19.665  25.006  1.00  0.00     0.301 C 
BRANCH  17  18
ATOM     18  N   UNL A   1      34.285  18.688  24.352  1.00  0.00    -0.327 N 
ATOM     19  C   UNL A   1      31.951  18.587  23.535  1.00  0.00     0.075 C 
ATOM     20  C   UNL A   1      32.873  18.763  24.753  1.00  0.00     0.181 C 
ATOM     21  C   UNL A   1      32.479  17.786  25.873  1.00  0.00     0.065 C 
ATOM     22  C   UNL A   1      32.971  16.365  25.634  1.00  0.00     0.012 C 
ATOM     23  C   UNL A   1      34.841  17.332  24.186  1.00  0.00     0.181 C 
ATOM     24  H   UNL A   1      34.246  19.021  23.388  1.00  0.00     0.348 HD
ATOM     25  C   UNL A   1      34.457  16.349  25.305  1.00  0.00     0.065 C 
ATOM     26  C   UNL A   1      34.502  16.743  22.809  1.00  0.00     0.075 C 
ENDBRANCH  17  18
ENDBRANCH   7  17
BRANCH  16  27
ATOM     27  C   UNL A   1      30.699  24.857  24.033  1.00  0.00     0.430 C 
ATOM     28  F   UNL A   1      30.258  23.792  23.321  1.00  0.00    -0.167 F 
ATOM     29  F   UNL A   1      29.646  25.705  24.151  1.00  0.00    -0.167 F 
ATOM     30  F   UNL A   1      31.635  25.484  23.284  1.00  0.00    -0.167 F 
ENDBRANCH  16  27
ENDBRANCH   4   6
ENDBRANCH   3   4
ENDBRANCH   2   3
ENDBRANCH   1   2
BRANCH   1  31
ATOM     31  O   UNL A   1      33.034  30.200  25.921  1.00  0.00    -0.458 OA
BRANCH  31  32
ATOM     32  C   UNL A   1      33.275  31.118  26.885  1.00  0.00     0.338 C 
ATOM     33  O   UNL A   1      32.516  31.985  27.288  1.00  0.00    -0.246 OA
BRANCH  32  34
ATOM     34  C   UNL A   1      34.595  30.867  27.479  1.00  0.00     0.060 A 
ATOM     35  C   UNL A   1      35.423  31.905  27.892  1.00  0.00     0.016 A 
ATOM     36  C   UNL A   1      34.949  29.545  27.738  1.00  0.00     0.016 A 
ATOM     37  C   UNL A   1      36.626  31.599  28.544  1.00  0.00     0.010 A 
ATOM     38  C   UNL A   1      36.104  29.244  28.453  1.00  0.00     0.010 A 
ATOM     39  C   UNL A   1      36.974  30.265  28.850  1.00  0.00    -0.014 A 
BRANCH  39  40
ATOM     40  C   UNL A   1      38.215  29.942  29.614  1.00  0.00     0.031 A 
ATOM     41  C   UNL A   1      38.436  30.462  31.015  1.00  0.00     0.074 A 
ATOM     42  C   UNL A   1      39.188  29.219  29.021  1.00  0.00     0.049 A 
ATOM     43  N   UNL A   1      39.444  30.243  31.822  1.00  0.00    -0.248 NA
ATOM     44  C   UNL A   1      37.420  31.372  31.573  1.00  0.00     0.031 C 
ATOM     45  C   UNL A   1      39.176  28.773  27.625  1.00  0.00     0.029 A 
ATOM     46  N   UNL A   1      40.373  28.730  29.513  1.00  0.00    -0.354 N 
ATOM     47  C   UNL A   1      39.204  31.013  32.955  1.00  0.00     0.074 A 
ATOM     48  C   UNL A   1      37.978  31.739  32.719  1.00  0.00     0.031 C 
ATOM     49  C   UNL A   1      40.267  28.026  27.393  1.00  0.00     0.029 A 
ATOM     50  C   UNL A   1      41.066  27.955  28.612  1.00  0.00     0.049 A 
ATOM     51  H   UNL A   1      40.695  28.916  30.424  1.00  0.00     0.167 HD
ATOM     52  C   UNL A   1      39.909  31.072  34.111  1.00  0.00     0.034 A 
ATOM     53  C   UNL A   1      42.202  27.243  28.753  1.00  0.00     0.034 A 
ATOM     54  C   UNL A   1      41.073  30.278  34.387  1.00  0.00     0.049 A 
ATOM     55  C   UNL A   1      42.895  27.215  30.085  1.00  0.00     0.074 A 
ATOM     56  C   UNL A   1      41.786  30.182  35.571  1.00  0.00     0.029 A 
ATOM     57  N   UNL A   1      41.685  29.429  33.480  1.00  0.00    -0.354 N 
ATOM     58  N   UNL A   1      42.564  27.831  31.193  1.00  0.00    -0.248 NA
ATOM     59  C   UNL A   1      44.096  26.375  30.200  1.00  0.00     0.031 C 
ATOM     60  C   UNL A   1      42.823  29.265  35.381  1.00  0.00     0.029 A 
ATOM     61  C   UNL A   1      42.757  28.793  34.079  1.00  0.00     0.049 A 
ATOM     62  H   UNL A   1      41.399  29.299  32.547  1.00  0.00     0.167 HD
ATOM     63  C   UNL A   1      43.505  27.447  32.139  1.00  0.00     0.074 A 
ATOM     64  C   UNL A   1      44.410  26.525  31.482  1.00  0.00     0.031 C 
ATOM     65  C   UNL A   1      43.620  27.841  33.430  1.00  0.00     0.034 A 
BRANCH  52  66
ATOM     66  C   UNL A   1      39.375  31.942  35.219  1.00  0.00     0.023 A 
ATOM     67  C   UNL A   1      38.456  31.386  36.133  1.00  0.00     0.012 A 
ATOM     68  C   UNL A   1      39.837  33.258  35.415  1.00  0.00     0.148 A 
ATOM     69  C   UNL A   1      37.987  32.132  37.212  1.00  0.00     0.002 A 
ATOM     70  C   UNL A   1      39.389  33.985  36.514  1.00  0.00     0.091 A 
ATOM     71  F   UNL A   1      40.707  33.768  34.531  1.00  0.00    -0.205 F 
ATOM     72  C   UNL A   1      38.459  33.426  37.406  1.00  0.00     0.022 A 
BRANCH  70  73
ATOM     73  S   UNL A   1      39.976  35.640  36.898  1.00  0.00     0.127 S 
ATOM     74  O   UNL A   1      39.171  35.971  38.073  1.00  0.00    -0.237 OA
ATOM     75  O   UNL A   1      41.392  35.404  37.177  1.00  0.00    -0.237 OA
ATOM     76  O   UNL A   1      39.710  36.448  35.717  1.00  0.00    -0.744 OA
ENDBRANCH  70  73
ENDBRANCH  52  66
BRANCH  53  77
ATOM     77  C   UNL A   1      42.671  26.402  27.618  1.00  0.00     0.023 A 
ATOM     78  C   UNL A   1      43.687  26.896  26.778  1.00  0.00     0.012 A 
ATOM     79  C   UNL A   1      42.196  25.090  27.432  1.00  0.00     0.148 A 
ATOM     80  C   UNL A   1      44.221  26.098  25.766  1.00  0.00     0.002 A 
ATOM     81  C   UNL A   1      42.761  24.287  26.448  1.00  0.00     0.091 A 
ATOM     82  F   UNL A   1      41.229  24.645  28.247  1.00  0.00    -0.205 F 
ATOM     83  C   UNL A   1      43.767  24.792  25.609  1.00  0.00     0.022 A 
BRANCH  81  84
ATOM     84  S   UNL A   1      42.328  22.556  26.240  1.00  0.00     0.127 S 
ATOM     85  O   UNL A   1      42.977  22.236  24.971  1.00  0.00    -0.237 OA
ATOM     86  O   UNL A   1      42.947  21.950  27.419  1.00  0.00    -0.237 OA
ATOM     87  O   UNL A   1      40.872  22.510  26.227  1.00  0.00    -0.744 OA
ENDBRANCH  81  84
ENDBRANCH  53  77
BRANCH  65  88
ATOM     88  C   UNL A   1      44.758  27.294  34.243  1.00  0.00     0.023 A 
ATOM     89  C   UNL A   1      45.987  27.980  34.247  1.00  0.00     0.012 A 
ATOM     90  C   UNL A   1      44.568  26.197  35.105  1.00  0.00     0.148 A 
ATOM     91  C   UNL A   1      47.016  27.581  35.098  1.00  0.00     0.002 A 
ATOM     92  C   UNL A   1      45.587  25.823  35.974  1.00  0.00     0.091 A 
ATOM     93  F   UNL A   1      43.390  25.557  35.074  1.00  0.00    -0.205 F 
ATOM     94  C   UNL A   1      46.811  26.512  35.970  1.00  0.00     0.022 A 
BRANCH  92  95
ATOM     95  S   UNL A   1      45.396  24.511  37.185  1.00  0.00     0.127 S 
ATOM     96  O   UNL A   1      46.587  24.695  38.013  1.00  0.00    -0.237 OA
ATOM     97  O   UNL A   1      44.137  24.873  37.836  1.00  0.00    -0.237 OA
ATOM     98  O   UNL A   1      45.354  23.266  36.430  1.00  0.00    -0.744 OA
ENDBRANCH  92  95
ENDBRANCH  65  88
ENDBRANCH  39  40
ENDBRANCH  32  34
ENDBRANCH  31  32
ENDBRANCH   1  31
TORSDOF 17
ENDMDL
MODEL 2
REMARK VINA RESULT:     -13.1      1.545      2.428
REMARK SMILES C[C@@H]1CCC[C@H](C)[N@H+]1Cc1cc2c(cc1Cl)C=C(C(=O)OCCOC(=O)c1ccc(-c3c4nc(c(-c5cccc(S(=O)(=O)[O-])c5F)c5ccc([nH]5)c(-c5cccc(S(=O)(=O)[O-])c5F)c5nc(c(-c6cccc(S(=O)(=O)[O-])c6F)c6ccc3[nH]6)C=C5)C=C4)cc1)[C@@H](C(F)(F)F)O2
REMARK SMILES IDX 23 1 22 2 21 3 19 4 20 5 18 6 10 7 11 8 15 9 12 10 14 11
REMARK SMILES IDX 16 12 13 13 95 14 17 15 90 16 9 17 8 18 7 19 6 20 5 21 4 22
REMARK SMILES IDX 2 23 3 25 1 26 91 27 92 28 93 29 94 30 24 31 25 32 26 33
REMARK SMILES IDX 27 34 28 35 89 36 29 37 88 38 30 39 31 40 32 41 82 42 33 43
REMARK SMILES IDX 87 44 81 45 83 46 34 47 86 48 80 49 79 50 35 52 67 53 47 54
REMARK SMILES IDX 66 55 48 56 51 57 65 58 84 59 49 60 50 61 64 63 85 64 52 65
REMARK SMILES IDX 36 66 37 67 45 68 38 69 40 70 46 71 39 72 41 73 42 74 43 75
REMARK SMILES IDX 44 76 68 77 69 78 77 79 70 80 72 81 78 82 71 83 73 84 74 85
REMARK SMILES IDX 75 86 76 87 53 88 54 89 62 90 55 91 57 92 63 93 56 94 58 95
REMARK SMILES IDX 59 96 60 97 61 98
REMARK H PARENT 8 24 83 51 51 62
REMARK Flexibility Score: inf
ROOT
ATOM      1  C   UNL A   1      31.481  29.854  25.764  1.00  0.00     0.275 C 
ENDROOT
BRANCH   1   2
ATOM      2  C   UNL A   1      30.783  30.381  24.509  1.00  0.00     0.275 C 
BRANCH   2   3
ATOM      3  O   UNL A   1      29.907  29.402  23.910  1.00  0.00    -0.459 OA
BRANCH   3   4
ATOM      4  C   UNL A   1      30.307  28.947  22.695  1.00  0.00     0.338 C 
ATOM      5  O   UNL A   1      30.192  29.540  21.640  1.00  0.00    -0.246 OA
BRANCH   4   6
ATOM      6  C   UNL A   1      30.963  27.625  22.804  1.00  0.00     0.087 C 
ATOM      7  C   UNL A   1      31.947  22.793  23.840  1.00  0.00     0.029 A 
ATOM      8  C   UNL A   1      32.489  23.736  22.936  1.00  0.00     0.058 A 
ATOM      9  C   UNL A   1      31.070  23.262  24.830  1.00  0.00     0.050 A 
ATOM     10  C   UNL A   1      32.047  25.063  22.927  1.00  0.00     0.128 A 
ATOM     11  C   UNL A   1      30.589  24.571  24.786  1.00  0.00     0.033 A 
ATOM     12  Cl  UNL A   1      30.529  22.291  26.152  1.00  0.00    -0.084 Cl
ATOM     13  C   UNL A   1      31.048  25.456  23.813  1.00  0.00     0.019 A 
ATOM     14  O   UNL A   1      32.572  25.903  21.981  1.00  0.00    -0.475 OA
ATOM     15  C   UNL A   1      30.435  26.762  23.682  1.00  0.00     0.027 C 
ATOM     16  C   UNL A   1      32.244  27.323  22.079  1.00  0.00     0.316 C 
BRANCH   7  17
ATOM     17  C   UNL A   1      32.268  21.319  23.670  1.00  0.00     0.301 C 
BRANCH  17  18
ATOM     18  N   UNL A   1      32.880  20.620  24.824  1.00  0.00    -0.327 N 
ATOM     19  C   UNL A   1      33.967  21.201  26.969  1.00  0.00     0.075 C 
ATOM     20  C   UNL A   1      34.030  21.298  25.435  1.00  0.00     0.181 C 
ATOM     21  C   UNL A   1      35.397  20.818  24.921  1.00  0.00     0.065 C 
ATOM     22  C   UNL A   1      35.529  19.301  24.887  1.00  0.00     0.012 C 
ATOM     23  C   UNL A   1      32.986  19.155  24.688  1.00  0.00     0.181 C 
ATOM     24  H   UNL A   1      32.170  20.715  25.551  1.00  0.00     0.348 HD
ATOM     25  C   UNL A   1      34.348  18.665  24.168  1.00  0.00     0.065 C 
ATOM     26  C   UNL A   1      32.614  18.434  25.992  1.00  0.00     0.075 C 
ENDBRANCH  17  18
ENDBRANCH   7  17
BRANCH  16  27
ATOM     27  C   UNL A   1      33.394  28.095  22.753  1.00  0.00     0.430 C 
ATOM     28  F   UNL A   1      34.585  27.842  22.160  1.00  0.00    -0.167 F 
ATOM     29  F   UNL A   1      33.198  29.435  22.669  1.00  0.00    -0.167 F 
ATOM     30  F   UNL A   1      33.523  27.792  24.065  1.00  0.00    -0.167 F 
ENDBRANCH  16  27
ENDBRANCH   4   6
ENDBRANCH   3   4
ENDBRANCH   2   3
ENDBRANCH   1   2
BRANCH   1  31
ATOM     31  O   UNL A   1      32.836  30.331  25.846  1.00  0.00    -0.458 OA
BRANCH  31  32
ATOM     32  C   UNL A   1      33.081  31.218  26.839  1.00  0.00     0.338 C 
ATOM     33  O   UNL A   1      32.321  32.068  27.276  1.00  0.00    -0.246 OA
BRANCH  32  34
ATOM     34  C   UNL A   1      34.406  30.951  27.416  1.00  0.00     0.060 A 
ATOM     35  C   UNL A   1      35.262  31.982  27.790  1.00  0.00     0.016 A 
ATOM     36  C   UNL A   1      34.736  29.629  27.699  1.00  0.00     0.016 A 
ATOM     37  C   UNL A   1      36.470  31.664  28.428  1.00  0.00     0.010 A 
ATOM     38  C   UNL A   1      35.897  29.320  28.401  1.00  0.00     0.010 A 
ATOM     39  C   UNL A   1      36.795  30.331  28.759  1.00  0.00    -0.014 A 
BRANCH  39  40
ATOM     40  C   UNL A   1      38.043  29.999  29.508  1.00  0.00     0.031 A 
ATOM     41  C   UNL A   1      38.280  30.510  30.910  1.00  0.00     0.074 A 
ATOM     42  C   UNL A   1      39.007  29.276  28.902  1.00  0.00     0.049 A 
ATOM     43  N   UNL A   1      39.295  30.284  31.706  1.00  0.00    -0.248 NA
ATOM     44  C   UNL A   1      37.273  31.421  31.483  1.00  0.00     0.031 C 
ATOM     45  C   UNL A   1      38.980  28.838  27.504  1.00  0.00     0.029 A 
ATOM     46  N   UNL A   1      40.195  28.780  29.379  1.00  0.00    -0.354 N 
ATOM     47  C   UNL A   1      39.070  31.048  32.845  1.00  0.00     0.074 A 
ATOM     48  C   UNL A   1      37.843  31.780  32.626  1.00  0.00     0.031 C 
ATOM     49  C   UNL A   1      40.065  28.089  27.256  1.00  0.00     0.029 A 
ATOM     50  C   UNL A   1      40.877  28.008  28.467  1.00  0.00     0.049 A 
ATOM     51  H   UNL A   1      40.527  28.960  30.288  1.00  0.00     0.167 HD
ATOM     52  C   UNL A   1      39.786  31.098  33.994  1.00  0.00     0.034 A 
ATOM     53  C   UNL A   1      42.011  27.291  28.592  1.00  0.00     0.034 A 
ATOM     54  C   UNL A   1      40.950  30.298  34.255  1.00  0.00     0.049 A 
ATOM     55  C   UNL A   1      42.718  27.254  29.917  1.00  0.00     0.074 A 
ATOM     56  C   UNL A   1      41.674  30.193  35.430  1.00  0.00     0.029 A 
ATOM     57  N   UNL A   1      41.549  29.453  33.337  1.00  0.00    -0.354 N 
ATOM     58  N   UNL A   1      42.400  27.864  31.032  1.00  0.00    -0.248 NA
ATOM     59  C   UNL A   1      43.917  26.408  30.016  1.00  0.00     0.031 C 
ATOM     60  C   UNL A   1      42.706  29.273  35.225  1.00  0.00     0.029 A 
ATOM     61  C   UNL A   1      42.625  28.809  33.922  1.00  0.00     0.049 A 
ATOM     62  H   UNL A   1      41.254  29.328  32.406  1.00  0.00     0.167 HD
ATOM     63  C   UNL A   1      43.349  27.471  31.966  1.00  0.00     0.074 A 
ATOM     64  C   UNL A   1      44.244  26.550  31.295  1.00  0.00     0.031 C 
ATOM     65  C   UNL A   1      43.478  27.858  33.258  1.00  0.00     0.034 A 
BRANCH  52  66
ATOM     66  C   UNL A   1      39.266  31.963  35.113  1.00  0.00     0.023 A 
ATOM     67  C   UNL A   1      38.316  31.421  36.002  1.00  0.00     0.012 A 
ATOM     68  C   UNL A   1      39.771  33.258  35.343  1.00  0.00     0.148 A 
ATOM     69  C   UNL A   1      37.857  32.161  37.090  1.00  0.00     0.002 A 
ATOM     70  C   UNL A   1      39.332  33.978  36.450  1.00  0.00     0.091 A 
ATOM     71  F   UNL A   1      40.670  33.755  34.482  1.00  0.00    -0.205 F 
ATOM     72  C   UNL A   1      38.370  33.434  37.317  1.00  0.00     0.022 A 
BRANCH  70  73
ATOM     73  S   UNL A   1      39.970  35.603  36.876  1.00  0.00     0.127 S 
ATOM     74  O   UNL A   1      41.402  35.333  37.003  1.00  0.00    -0.237 OA
ATOM     75  O   UNL A   1      39.601  36.393  35.701  1.00  0.00    -0.237 OA
ATOM     76  O   UNL A   1      39.301  35.990  38.109  1.00  0.00    -0.744 OA
ENDBRANCH  70  73
ENDBRANCH  52  66
BRANCH  53  77
ATOM     77  C   UNL A   1      42.466  26.455  27.448  1.00  0.00     0.023 A 
ATOM     78  C   UNL A   1      43.371  27.004  26.519  1.00  0.00     0.012 A 
ATOM     79  C   UNL A   1      42.093  25.102  27.334  1.00  0.00     0.148 A 
ATOM     80  C   UNL A   1      43.896  26.221  25.492  1.00  0.00     0.002 A 
ATOM     81  C   UNL A   1      42.651  24.317  26.332  1.00  0.00     0.091 A 
ATOM     82  F   UNL A   1      41.231  24.606  28.232  1.00  0.00    -0.205 F 
ATOM     83  C   UNL A   1      43.545  24.876  25.405  1.00  0.00     0.022 A 
BRANCH  81  84
ATOM     84  S   UNL A   1      42.354  22.550  26.204  1.00  0.00     0.127 S 
ATOM     85  O   UNL A   1      40.895  22.496  26.140  1.00  0.00    -0.237 OA
ATOM     86  O   UNL A   1      43.037  22.223  24.953  1.00  0.00    -0.237 OA
ATOM     87  O   UNL A   1      42.951  21.960  27.394  1.00  0.00    -0.744 OA
ENDBRANCH  81  84
ENDBRANCH  53  77
BRANCH  65  88
ATOM     88  C   UNL A   1      44.623  27.302  34.057  1.00  0.00     0.023 A 
ATOM     89  C   UNL A   1      45.842  28.005  34.084  1.00  0.00     0.012 A 
ATOM     90  C   UNL A   1      44.447  26.176  34.883  1.00  0.00     0.148 A 
ATOM     91  C   UNL A   1      46.875  27.594  34.926  1.00  0.00     0.002 A 
ATOM     92  C   UNL A   1      45.469  25.790  35.743  1.00  0.00     0.091 A 
ATOM     93  F   UNL A   1      43.278  25.521  34.830  1.00  0.00    -0.205 F 
ATOM     94  C   UNL A   1      46.683  26.496  35.763  1.00  0.00     0.022 A 
BRANCH  92  95
ATOM     95  S   UNL A   1      45.294  24.438  36.912  1.00  0.00     0.127 S 
ATOM     96  O   UNL A   1      44.978  23.318  36.026  1.00  0.00    -0.237 OA
ATOM     97  O   UNL A   1      46.625  24.380  37.518  1.00  0.00    -0.237 OA
ATOM     98  O   UNL A   1      44.227  24.826  37.824  1.00  0.00    -0.744 OA
ENDBRANCH  92  95
ENDBRANCH  65  88
ENDBRANCH  39  40
ENDBRANCH  32  34
ENDBRANCH  31  32
ENDBRANCH   1  31
TORSDOF 17
ENDMDL
MODEL 3
REMARK VINA RESULT:     -12.9      5.328     10.492
REMARK SMILES C[C@@H]1CCC[C@H](C)[N@H+]1Cc1cc2c(cc1Cl)C=C(C(=O)OCCOC(=O)c1ccc(-c3c4nc(c(-c5cccc(S(=O)(=O)[O-])c5F)c5ccc([nH]5)c(-c5cccc(S(=O)(=O)[O-])c5F)c5nc(c(-c6cccc(S(=O)(=O)[O-])c6F)c6ccc3[nH]6)C=C5)C=C4)cc1)[C@@H](C(F)(F)F)O2
REMARK SMILES IDX 23 1 22 2 21 3 19 4 20 5 18 6 10 7 11 8 15 9 12 10 14 11
REMARK SMILES IDX 16 12 13 13 95 14 17 15 90 16 9 17 8 18 7 19 6 20 5 21 4 22
REMARK SMILES IDX 2 23 3 25 1 26 91 27 92 28 93 29 94 30 24 31 25 32 26 33
REMARK SMILES IDX 27 34 28 35 89 36 29 37 88 38 30 39 31 40 32 41 82 42 33 43
REMARK SMILES IDX 87 44 81 45 83 46 34 47 86 48 80 49 79 50 35 52 67 53 47 54
REMARK SMILES IDX 66 55 48 56 51 57 65 58 84 59 49 60 50 61 64 63 85 64 52 65
REMARK SMILES IDX 36 66 37 67 45 68 38 69 40 70 46 71 39 72 41 73 42 74 43 75
REMARK SMILES IDX 44 76 68 77 69 78 77 79 70 80 72 81 78 82 71 83 73 84 74 85
REMARK SMILES IDX 75 86 76 87 53 88 54 89 62 90 55 91 57 92 63 93 56 94 58 95
REMARK SMILES IDX 59 96 60 97 61 98
REMARK H PARENT 8 24 83 51 51 62
REMARK Flexibility Score: inf
ROOT
ATOM      1  C   UNL A   1      36.350  20.690  25.111  1.00  0.00     0.275 C 
ENDROOT
BRANCH   1   2
ATOM      2  C   UNL A   1      34.973  21.289  24.816  1.00  0.00     0.275 C 
BRANCH   2   3
ATOM      3  O   UNL A   1      35.019  22.723  24.644  1.00  0.00    -0.459 OA
BRANCH   3   4
ATOM      4  C   UNL A   1      34.238  23.425  25.505  1.00  0.00     0.338 C 
ATOM      5  O   UNL A   1      34.230  23.307  26.715  1.00  0.00    -0.246 OA
BRANCH   4   6
ATOM      6  C   UNL A   1      33.403  24.415  24.790  1.00  0.00     0.087 C 
ATOM      7  C   UNL A   1      31.316  28.709  23.180  1.00  0.00     0.029 A 
ATOM      8  C   UNL A   1      31.385  27.395  22.664  1.00  0.00     0.058 A 
ATOM      9  C   UNL A   1      31.727  28.916  24.506  1.00  0.00     0.050 A 
ATOM     10  C   UNL A   1      31.988  26.364  23.393  1.00  0.00     0.128 A 
ATOM     11  C   UNL A   1      32.377  27.902  25.211  1.00  0.00     0.033 A 
ATOM     12  Cl  UNL A   1      31.468  30.396  25.357  1.00  0.00    -0.084 Cl
ATOM     13  C   UNL A   1      32.541  26.643  24.640  1.00  0.00     0.019 A 
ATOM     14  O   UNL A   1      32.074  25.131  22.802  1.00  0.00    -0.475 OA
ATOM     15  C   UNL A   1      33.345  25.645  25.316  1.00  0.00     0.027 C 
ATOM     16  C   UNL A   1      32.544  24.018  23.623  1.00  0.00     0.316 C 
BRANCH   7  17
ATOM     17  C   UNL A   1      30.876  29.848  22.278  1.00  0.00     0.301 C 
BRANCH  17  18
ATOM     18  N   UNL A   1      29.421  30.026  22.069  1.00  0.00    -0.327 N 
ATOM     19  C   UNL A   1      27.897  30.842  20.299  1.00  0.00     0.075 C 
ATOM     20  C   UNL A   1      29.036  31.196  21.269  1.00  0.00     0.181 C 
ATOM     21  C   UNL A   1      28.671  32.439  22.097  1.00  0.00     0.065 C 
ATOM     22  C   UNL A   1      27.712  32.140  23.243  1.00  0.00     0.012 C 
ATOM     23  C   UNL A   1      28.576  29.735  23.243  1.00  0.00     0.181 C 
ATOM     24  H   UNL A   1      29.184  29.257  21.441  1.00  0.00     0.348 HD
ATOM     25  C   UNL A   1      28.211  30.971  24.081  1.00  0.00     0.065 C 
ATOM     26  C   UNL A   1      27.313  28.952  22.853  1.00  0.00     0.075 C 
ENDBRANCH  17  18
ENDBRANCH   7  17
BRANCH  16  27
ATOM     27  C   UNL A   1      31.352  23.189  24.136  1.00  0.00     0.430 C 
ATOM     28  F   UNL A   1      30.310  23.219  23.273  1.00  0.00    -0.167 F 
ATOM     29  F   UNL A   1      31.693  21.884  24.285  1.00  0.00    -0.167 F 
ATOM     30  F   UNL A   1      30.898  23.623  25.334  1.00  0.00    -0.167 F 
ENDBRANCH  16  27
ENDBRANCH   4   6
ENDBRANCH   3   4
ENDBRANCH   2   3
ENDBRANCH   1   2
BRANCH   1  31
ATOM     31  O   UNL A   1      37.352  21.717  25.225  1.00  0.00    -0.458 OA
BRANCH  31  32
ATOM     32  C   UNL A   1      38.510  21.336  25.811  1.00  0.00     0.338 C 
ATOM     33  O   UNL A   1      39.022  20.228  25.789  1.00  0.00    -0.246 OA
BRANCH  32  34
ATOM     34  C   UNL A   1      39.153  22.505  26.427  1.00  0.00     0.060 A 
ATOM     35  C   UNL A   1      40.320  22.391  27.176  1.00  0.00     0.016 A 
ATOM     36  C   UNL A   1      38.630  23.762  26.134  1.00  0.00     0.016 A 
ATOM     37  C   UNL A   1      40.940  23.555  27.652  1.00  0.00     0.010 A 
ATOM     38  C   UNL A   1      39.288  24.919  26.541  1.00  0.00     0.010 A 
ATOM     39  C   UNL A   1      40.443  24.835  27.325  1.00  0.00    -0.014 A 
BRANCH  39  40
ATOM     40  C   UNL A   1      41.147  26.076  27.764  1.00  0.00     0.031 A 
ATOM     41  C   UNL A   1      42.570  26.365  27.348  1.00  0.00     0.074 A 
ATOM     42  C   UNL A   1      40.521  26.931  28.600  1.00  0.00     0.049 A 
ATOM     43  N   UNL A   1      43.308  27.413  27.618  1.00  0.00    -0.248 NA
ATOM     44  C   UNL A   1      43.272  25.336  26.560  1.00  0.00     0.031 C 
ATOM     45  C   UNL A   1      39.202  26.712  29.200  1.00  0.00     0.029 A 
ATOM     46  N   UNL A   1      40.905  28.156  29.088  1.00  0.00    -0.354 N 
ATOM     47  C   UNL A   1      44.560  27.153  27.073  1.00  0.00     0.074 A 
ATOM     48  C   UNL A   1      44.500  25.831  26.492  1.00  0.00     0.031 C 
ATOM     49  C   UNL A   1      38.863  27.790  29.923  1.00  0.00     0.029 A 
ATOM     50  C   UNL A   1      39.944  28.770  29.857  1.00  0.00     0.049 A 
ATOM     51  H   UNL A   1      41.786  28.556  28.905  1.00  0.00     0.167 HD
ATOM     52  C   UNL A   1      45.647  27.959  27.011  1.00  0.00     0.034 A 
ATOM     53  C   UNL A   1      39.917  29.992  30.424  1.00  0.00     0.034 A 
ATOM     54  C   UNL A   1      45.680  29.309  27.500  1.00  0.00     0.049 A 
ATOM     55  C   UNL A   1      41.080  30.922  30.229  1.00  0.00     0.074 A 
ATOM     56  C   UNL A   1      46.695  30.242  27.378  1.00  0.00     0.029 A 
ATOM     57  N   UNL A   1      44.647  29.926  28.184  1.00  0.00    -0.354 N 
ATOM     58  N   UNL A   1      42.196  30.711  29.576  1.00  0.00    -0.248 NA
ATOM     59  C   UNL A   1      40.973  32.265  30.819  1.00  0.00     0.031 C 
ATOM     60  C   UNL A   1      46.270  31.429  27.980  1.00  0.00     0.029 A 
ATOM     61  C   UNL A   1      44.992  31.233  28.479  1.00  0.00     0.049 A 
ATOM     62  H   UNL A   1      43.793  29.499  28.426  1.00  0.00     0.167 HD
ATOM     63  C   UNL A   1      42.919  31.893  29.665  1.00  0.00     0.074 A 
ATOM     64  C   UNL A   1      42.107  32.828  30.416  1.00  0.00     0.031 C 
ATOM     65  C   UNL A   1      44.156  32.169  29.184  1.00  0.00     0.034 A 
BRANCH  52  66
ATOM     66  C   UNL A   1      46.864  27.448  26.284  1.00  0.00     0.023 A 
ATOM     67  C   UNL A   1      47.715  26.539  26.946  1.00  0.00     0.012 A 
ATOM     68  C   UNL A   1      47.118  27.782  24.939  1.00  0.00     0.148 A 
ATOM     69  C   UNL A   1      48.815  25.989  26.290  1.00  0.00     0.002 A 
ATOM     70  C   UNL A   1      48.199  27.203  24.282  1.00  0.00     0.091 A 
ATOM     71  F   UNL A   1      46.298  28.651  24.331  1.00  0.00    -0.205 F 
ATOM     72  C   UNL A   1      49.051  26.315  24.958  1.00  0.00     0.022 A 
BRANCH  70  73
ATOM     73  S   UNL A   1      48.564  27.502  22.547  1.00  0.00     0.127 S 
ATOM     74  O   UNL A   1      49.838  28.214  22.634  1.00  0.00    -0.237 OA
ATOM     75  O   UNL A   1      48.662  26.141  22.018  1.00  0.00    -0.237 OA
ATOM     76  O   UNL A   1      47.452  28.283  22.028  1.00  0.00    -0.744 OA
ENDBRANCH  70  73
ENDBRANCH  52  66
BRANCH  53  77
ATOM     77  C   UNL A   1      38.680  30.435  31.124  1.00  0.00     0.023 A 
ATOM     78  C   UNL A   1      38.591  30.270  32.520  1.00  0.00     0.012 A 
ATOM     79  C   UNL A   1      37.649  31.105  30.439  1.00  0.00     0.148 A 
ATOM     80  C   UNL A   1      37.492  30.762  33.224  1.00  0.00     0.002 A 
ATOM     81  C   UNL A   1      36.577  31.628  31.152  1.00  0.00     0.091 A 
ATOM     82  F   UNL A   1      37.761  31.248  29.112  1.00  0.00    -0.205 F 
ATOM     83  C   UNL A   1      36.492  31.450  32.542  1.00  0.00     0.022 A 
BRANCH  81  84
ATOM     84  S   UNL A   1      35.296  32.628  30.386  1.00  0.00     0.127 S 
ATOM     85  O   UNL A   1      36.044  33.818  29.987  1.00  0.00    -0.237 OA
ATOM     86  O   UNL A   1      34.869  31.770  29.281  1.00  0.00    -0.237 OA
ATOM     87  O   UNL A   1      34.288  32.838  31.415  1.00  0.00    -0.744 OA
ENDBRANCH  81  84
ENDBRANCH  53  77
BRANCH  65  88
ATOM     88  C   UNL A   1      44.732  33.532  29.443  1.00  0.00     0.023 A 
ATOM     89  C   UNL A   1      45.523  33.732  30.591  1.00  0.00     0.012 A 
ATOM     90  C   UNL A   1      44.613  34.560  28.489  1.00  0.00     0.148 A 
ATOM     91  C   UNL A   1      46.188  34.941  30.787  1.00  0.00     0.002 A 
ATOM     92  C   UNL A   1      45.304  35.751  28.675  1.00  0.00     0.091 A 
ATOM     93  F   UNL A   1      43.847  34.344  27.410  1.00  0.00    -0.205 F 
ATOM     94  C   UNL A   1      46.089  35.944  29.824  1.00  0.00     0.022 A 
BRANCH  92  95
ATOM     95  S   UNL A   1      45.303  37.073  27.460  1.00  0.00     0.127 S 
ATOM     96  O   UNL A   1      43.921  37.035  26.980  1.00  0.00    -0.237 OA
ATOM     97  O   UNL A   1      45.633  38.243  28.275  1.00  0.00    -0.237 OA
ATOM     98  O   UNL A   1      46.311  36.717  26.471  1.00  0.00    -0.744 OA
ENDBRANCH  92  95
ENDBRANCH  65  88
ENDBRANCH  39  40
ENDBRANCH  32  34
ENDBRANCH  31  32
ENDBRANCH   1  31
TORSDOF 17
ENDMDL
