MODEL 1
REMARK VINA RESULT:     -12.2      0.000      0.000
REMARK SMILES CC1=Nc2ncnn2[C@H](c2ccc(F)cc2)[C@@H]1C(=O)OCCOC(=O)c1ccc(-c2c3nc(c(-c4cccc(S(=O)(=O)[O-])c4F)c4ccc([nH]4)c(-c4cccc(S(=O)(=O)[O-])c4F)c4nc(c(-c5cccc(S(=O)(=O)[O-])c5F)c5ccc2[nH]5)C=C4)C=C3)cc1
REMARK SMILES IDX 22 1 21 2 20 3 18 4 19 5 17 6 1 7 2 8 3 9 4 10 9 11 5 12
REMARK SMILES IDX 8 13 6 14 7 15 10 16 11 17 16 18 12 19 15 20 13 21 14 22
REMARK SMILES IDX 23 23 24 24 25 25 26 26 27 27 88 28 28 29 87 30 29 31 30 32
REMARK SMILES IDX 31 33 81 34 32 35 86 36 80 37 82 38 33 39 85 40 79 41 78 42
REMARK SMILES IDX 34 44 66 45 46 46 65 47 47 48 50 49 64 50 83 51 48 52 49 53
REMARK SMILES IDX 63 55 84 56 51 57 35 58 36 59 44 60 37 61 39 62 45 63 38 64
REMARK SMILES IDX 40 65 41 66 42 67 43 68 67 69 68 70 76 71 69 72 71 73 77 74
REMARK SMILES IDX 70 75 72 76 73 77 74 78 75 79 52 80 53 81 61 82 54 83 56 84
REMARK SMILES IDX 62 85 55 86 57 87 58 88 59 89 60 90
REMARK H PARENT 82 43 50 54
REMARK Flexibility Score: inf
ROOT
ATOM      1  C   UNL A   1      37.534  21.486  24.691  1.00  0.00     0.275 C 
ENDROOT
BRANCH   1   2
ATOM      2  C   UNL A   1      36.058  21.253  24.939  1.00  0.00     0.274 C 
BRANCH   2   3
ATOM      3  O   UNL A   1      35.319  22.490  24.972  1.00  0.00    -0.461 OA
BRANCH   3   4
ATOM      4  C   UNL A   1      34.733  22.899  23.798  1.00  0.00     0.317 C 
ATOM      5  O   UNL A   1      35.195  22.755  22.685  1.00  0.00    -0.251 OA
BRANCH   4   6
ATOM      6  C   UNL A   1      33.465  23.658  24.105  1.00  0.00     0.173 C 
ATOM      7  C   UNL A   1      34.683  25.651  25.271  1.00  0.00     0.063 C 
ATOM      8  C   UNL A   1      33.616  24.581  25.313  1.00  0.00     0.036 C 
ATOM      9  N   UNL A   1      32.883  24.550  26.383  1.00  0.00    -0.220 NA
ATOM     10  C   UNL A   1      31.874  23.665  26.466  1.00  0.00     0.248 A 
ATOM     11  C   UNL A   1      32.259  22.694  24.200  1.00  0.00     0.161 C 
ATOM     12  N   UNL A   1      30.976  23.525  27.417  1.00  0.00    -0.198 NA
ATOM     13  N   UNL A   1      31.579  22.766  25.478  1.00  0.00    -0.221 N 
ATOM     14  C   UNL A   1      30.129  22.575  26.933  1.00  0.00     0.248 A 
ATOM     15  N   UNL A   1      30.430  22.102  25.724  1.00  0.00    -0.157 NA
BRANCH  11  16
ATOM     16  C   UNL A   1      32.492  21.227  23.804  1.00  0.00    -0.022 A 
ATOM     17  C   UNL A   1      32.878  20.305  24.793  1.00  0.00     0.009 A 
ATOM     18  C   UNL A   1      32.237  20.748  22.503  1.00  0.00     0.009 A 
ATOM     19  C   UNL A   1      32.909  18.937  24.514  1.00  0.00     0.039 A 
ATOM     20  C   UNL A   1      32.214  19.376  22.244  1.00  0.00     0.039 A 
ATOM     21  C   UNL A   1      32.541  18.484  23.254  1.00  0.00     0.123 A 
ATOM     22  F   UNL A   1      32.489  17.167  23.016  1.00  0.00    -0.207 F 
ENDBRANCH  11  16
ENDBRANCH   4   6
ENDBRANCH   3   4
ENDBRANCH   2   3
ENDBRANCH   1   2
BRANCH   1  23
ATOM     23  O   UNL A   1      38.263  21.270  25.891  1.00  0.00    -0.458 OA
BRANCH  23  24
ATOM     24  C   UNL A   1      39.339  20.474  25.758  1.00  0.00     0.338 C 
ATOM     25  O   UNL A   1      39.362  19.296  25.401  1.00  0.00    -0.246 OA
BRANCH  24  26
ATOM     26  C   UNL A   1      40.501  21.143  26.316  1.00  0.00     0.060 A 
ATOM     27  C   UNL A   1      40.663  20.998  27.695  1.00  0.00     0.016 A 
ATOM     28  C   UNL A   1      41.101  22.175  25.580  1.00  0.00     0.016 A 
ATOM     29  C   UNL A   1      41.215  22.038  28.384  1.00  0.00     0.010 A 
ATOM     30  C   UNL A   1      41.648  23.220  26.272  1.00  0.00     0.010 A 
ATOM     31  C   UNL A   1      41.604  23.169  27.664  1.00  0.00    -0.014 A 
BRANCH  31  32
ATOM     32  C   UNL A   1      42.080  24.284  28.437  1.00  0.00     0.031 A 
ATOM     33  C   UNL A   1      41.194  25.460  28.313  1.00  0.00     0.074 A 
ATOM     34  C   UNL A   1      43.158  24.166  29.228  1.00  0.00     0.049 A 
ATOM     35  N   UNL A   1      41.489  26.636  27.869  1.00  0.00    -0.248 NA
ATOM     36  C   UNL A   1      39.753  25.230  28.517  1.00  0.00     0.031 C 
ATOM     37  C   UNL A   1      43.890  22.944  29.581  1.00  0.00     0.029 A 
ATOM     38  N   UNL A   1      43.708  25.105  30.035  1.00  0.00    -0.354 N 
ATOM     39  C   UNL A   1      40.304  27.357  27.968  1.00  0.00     0.074 A 
ATOM     40  C   UNL A   1      39.247  26.402  28.148  1.00  0.00     0.031 C 
ATOM     41  C   UNL A   1      44.569  23.166  30.727  1.00  0.00     0.029 A 
ATOM     42  C   UNL A   1      44.410  24.560  31.100  1.00  0.00     0.049 A 
ATOM     43  H   UNL A   1      43.619  26.074  29.881  1.00  0.00     0.167 HD
ATOM     44  C   UNL A   1      40.314  28.696  28.192  1.00  0.00     0.034 A 
ATOM     45  C   UNL A   1      44.703  25.198  32.257  1.00  0.00     0.034 A 
ATOM     46  C   UNL A   1      41.564  29.289  27.802  1.00  0.00     0.049 A 
ATOM     47  C   UNL A   1      44.553  26.655  32.009  1.00  0.00     0.074 A 
ATOM     48  C   UNL A   1      42.275  29.352  26.620  1.00  0.00     0.029 A 
ATOM     49  N   UNL A   1      42.453  29.606  28.801  1.00  0.00    -0.354 N 
ATOM     50  N   UNL A   1      45.322  27.337  31.205  1.00  0.00    -0.248 NA
ATOM     51  C   UNL A   1      43.273  27.274  32.320  1.00  0.00     0.031 C 
ATOM     52  C   UNL A   1      43.642  29.250  27.007  1.00  0.00     0.029 A 
ATOM     53  C   UNL A   1      43.691  29.177  28.401  1.00  0.00     0.049 A 
ATOM     54  H   UNL A   1      42.239  30.059  29.649  1.00  0.00     0.167 HD
ATOM     55  C   UNL A   1      44.468  28.235  30.577  1.00  0.00     0.074 A 
ATOM     56  C   UNL A   1      43.253  28.232  31.388  1.00  0.00     0.031 C 
ATOM     57  C   UNL A   1      44.706  28.669  29.303  1.00  0.00     0.034 A 
BRANCH  44  58
ATOM     58  C   UNL A   1      39.338  29.384  29.115  1.00  0.00     0.023 A 
ATOM     59  C   UNL A   1      38.708  30.548  28.633  1.00  0.00     0.012 A 
ATOM     60  C   UNL A   1      39.212  29.113  30.500  1.00  0.00     0.148 A 
ATOM     61  C   UNL A   1      38.035  31.423  29.493  1.00  0.00     0.002 A 
ATOM     62  C   UNL A   1      38.465  29.934  31.332  1.00  0.00     0.091 A 
ATOM     63  F   UNL A   1      39.927  28.140  31.071  1.00  0.00    -0.205 F 
ATOM     64  C   UNL A   1      37.902  31.111  30.842  1.00  0.00     0.022 A 
BRANCH  62  65
ATOM     65  S   UNL A   1      38.226  29.519  33.064  1.00  0.00     0.127 S 
ATOM     66  O   UNL A   1      37.501  30.689  33.548  1.00  0.00    -0.237 OA
ATOM     67  O   UNL A   1      37.436  28.290  32.975  1.00  0.00    -0.237 OA
ATOM     68  O   UNL A   1      39.569  29.322  33.599  1.00  0.00    -0.744 OA
ENDBRANCH  62  65
ENDBRANCH  44  58
BRANCH  45  69
ATOM     69  C   UNL A   1      44.807  24.627  33.619  1.00  0.00     0.023 A 
ATOM     70  C   UNL A   1      43.634  24.241  34.294  1.00  0.00     0.012 A 
ATOM     71  C   UNL A   1      46.051  24.237  34.167  1.00  0.00     0.148 A 
ATOM     72  C   UNL A   1      43.696  23.475  35.463  1.00  0.00     0.002 A 
ATOM     73  C   UNL A   1      46.109  23.490  35.339  1.00  0.00     0.091 A 
ATOM     74  F   UNL A   1      47.174  24.520  33.494  1.00  0.00    -0.205 F 
ATOM     75  C   UNL A   1      44.930  23.096  35.983  1.00  0.00     0.022 A 
BRANCH  73  76
ATOM     76  S   UNL A   1      47.667  22.960  36.064  1.00  0.00     0.127 S 
ATOM     77  O   UNL A   1      47.227  21.935  37.012  1.00  0.00    -0.237 OA
ATOM     78  O   UNL A   1      48.384  22.448  34.900  1.00  0.00    -0.237 OA
ATOM     79  O   UNL A   1      48.239  24.145  36.691  1.00  0.00    -0.744 OA
ENDBRANCH  73  76
ENDBRANCH  45  69
BRANCH  57  80
ATOM     80  C   UNL A   1      46.030  28.321  28.659  1.00  0.00     0.023 A 
ATOM     81  C   UNL A   1      47.195  29.075  28.911  1.00  0.00     0.012 A 
ATOM     82  C   UNL A   1      46.152  27.089  27.993  1.00  0.00     0.148 A 
ATOM     83  C   UNL A   1      48.451  28.619  28.502  1.00  0.00     0.002 A 
ATOM     84  C   UNL A   1      47.408  26.613  27.637  1.00  0.00     0.091 A 
ATOM     85  F   UNL A   1      45.037  26.378  27.765  1.00  0.00    -0.205 F 
ATOM     86  C   UNL A   1      48.559  27.378  27.881  1.00  0.00     0.022 A 
BRANCH  84  87
ATOM     87  S   UNL A   1      47.635  24.957  26.981  1.00  0.00     0.127 S 
ATOM     88  O   UNL A   1      47.299  25.138  25.570  1.00  0.00    -0.237 OA
ATOM     89  O   UNL A   1      49.054  24.706  27.245  1.00  0.00    -0.237 OA
ATOM     90  O   UNL A   1      46.731  24.099  27.737  1.00  0.00    -0.744 OA
ENDBRANCH  84  87
ENDBRANCH  57  80
ENDBRANCH  31  32
ENDBRANCH  24  26
ENDBRANCH  23  24
ENDBRANCH   1  23
TORSDOF 15
ENDMDL
MODEL 2
REMARK VINA RESULT:     -12.0      5.419     10.104
REMARK SMILES CC1=Nc2ncnn2[C@H](c2ccc(F)cc2)[C@@H]1C(=O)OCCOC(=O)c1ccc(-c2c3nc(c(-c4cccc(S(=O)(=O)[O-])c4F)c4ccc([nH]4)c(-c4cccc(S(=O)(=O)[O-])c4F)c4nc(c(-c5cccc(S(=O)(=O)[O-])c5F)c5ccc2[nH]5)C=C4)C=C3)cc1
REMARK SMILES IDX 22 1 21 2 20 3 18 4 19 5 17 6 1 7 2 8 3 9 4 10 9 11 5 12
REMARK SMILES IDX 8 13 6 14 7 15 10 16 11 17 16 18 12 19 15 20 13 21 14 22
REMARK SMILES IDX 23 23 24 24 25 25 26 26 27 27 88 28 28 29 87 30 29 31 30 32
REMARK SMILES IDX 31 33 81 34 32 35 86 36 80 37 82 38 33 39 85 40 79 41 78 42
REMARK SMILES IDX 34 44 66 45 46 46 65 47 47 48 50 49 64 50 83 51 48 52 49 53
REMARK SMILES IDX 63 55 84 56 51 57 35 58 36 59 44 60 37 61 39 62 45 63 38 64
REMARK SMILES IDX 40 65 41 66 42 67 43 68 67 69 68 70 76 71 69 72 71 73 77 74
REMARK SMILES IDX 70 75 72 76 73 77 74 78 75 79 52 80 53 81 61 82 54 83 56 84
REMARK SMILES IDX 62 85 55 86 57 87 58 88 59 89 60 90
REMARK H PARENT 82 43 50 54
REMARK Flexibility Score: inf
ROOT
ATOM      1  C   UNL A   1      32.455  30.455  26.913  1.00  0.00     0.275 C 
ENDROOT
BRANCH   1   2
ATOM      2  C   UNL A   1      31.932  29.922  25.595  1.00  0.00     0.274 C 
BRANCH   2   3
ATOM      3  O   UNL A   1      32.366  28.568  25.355  1.00  0.00    -0.461 OA
BRANCH   3   4
ATOM      4  C   UNL A   1      31.515  27.561  25.745  1.00  0.00     0.317 C 
ATOM      5  O   UNL A   1      30.717  27.618  26.657  1.00  0.00    -0.251 OA
BRANCH   4   6
ATOM      6  C   UNL A   1      31.795  26.323  24.930  1.00  0.00     0.173 C 
ATOM      7  C   UNL A   1      34.146  25.898  25.981  1.00  0.00     0.063 C 
ATOM      8  C   UNL A   1      33.290  26.070  24.746  1.00  0.00     0.036 C 
ATOM      9  N   UNL A   1      33.904  25.960  23.609  1.00  0.00    -0.220 NA
ATOM     10  C   UNL A   1      33.196  26.041  22.467  1.00  0.00     0.248 A 
ATOM     11  C   UNL A   1      30.996  26.347  23.605  1.00  0.00     0.161 C 
ATOM     12  N   UNL A   1      33.609  25.879  21.229  1.00  0.00    -0.198 NA
ATOM     13  N   UNL A   1      31.845  26.252  22.434  1.00  0.00    -0.221 N 
ATOM     14  C   UNL A   1      32.467  25.942  20.490  1.00  0.00     0.248 A 
ATOM     15  N   UNL A   1      31.345  26.130  21.186  1.00  0.00    -0.157 NA
BRANCH  11  16
ATOM     16  C   UNL A   1      29.962  27.469  23.421  1.00  0.00    -0.022 A 
ATOM     17  C   UNL A   1      30.361  28.675  22.816  1.00  0.00     0.009 A 
ATOM     18  C   UNL A   1      28.601  27.300  23.747  1.00  0.00     0.009 A 
ATOM     19  C   UNL A   1      29.413  29.636  22.459  1.00  0.00     0.039 A 
ATOM     20  C   UNL A   1      27.651  28.238  23.336  1.00  0.00     0.039 A 
ATOM     21  C   UNL A   1      28.066  29.392  22.687  1.00  0.00     0.123 A 
ATOM     22  F   UNL A   1      27.154  30.276  22.264  1.00  0.00    -0.207 F 
ENDBRANCH  11  16
ENDBRANCH   4   6
ENDBRANCH   3   4
ENDBRANCH   2   3
ENDBRANCH   1   2
BRANCH   1  23
ATOM     23  O   UNL A   1      33.210  31.637  26.687  1.00  0.00    -0.458 OA
BRANCH  23  24
ATOM     24  C   UNL A   1      32.902  32.663  27.500  1.00  0.00     0.338 C 
ATOM     25  O   UNL A   1      31.896  33.371  27.468  1.00  0.00    -0.246 OA
BRANCH  24  26
ATOM     26  C   UNL A   1      34.054  32.981  28.326  1.00  0.00     0.060 A 
ATOM     27  C   UNL A   1      35.087  33.653  27.668  1.00  0.00     0.016 A 
ATOM     28  C   UNL A   1      34.243  32.273  29.521  1.00  0.00     0.016 A 
ATOM     29  C   UNL A   1      36.367  33.399  28.066  1.00  0.00     0.010 A 
ATOM     30  C   UNL A   1      35.527  32.012  29.914  1.00  0.00     0.010 A 
ATOM     31  C   UNL A   1      36.560  32.503  29.120  1.00  0.00    -0.014 A 
BRANCH  31  32
ATOM     32  C   UNL A   1      37.924  32.178  29.437  1.00  0.00     0.031 A 
ATOM     33  C   UNL A   1      38.225  30.753  29.189  1.00  0.00     0.074 A 
ATOM     34  C   UNL A   1      38.790  33.130  29.821  1.00  0.00     0.049 A 
ATOM     35  N   UNL A   1      38.629  29.865  30.035  1.00  0.00    -0.248 NA
ATOM     36  C   UNL A   1      37.825  30.209  27.879  1.00  0.00     0.031 C 
ATOM     37  C   UNL A   1      38.595  34.584  29.812  1.00  0.00     0.029 A 
ATOM     38  N   UNL A   1      40.103  32.992  30.122  1.00  0.00    -0.354 N 
ATOM     39  C   UNL A   1      38.758  28.699  29.287  1.00  0.00     0.074 A 
ATOM     40  C   UNL A   1      38.047  28.911  28.057  1.00  0.00     0.031 C 
ATOM     41  C   UNL A   1      39.806  35.181  29.802  1.00  0.00     0.029 A 
ATOM     42  C   UNL A   1      40.829  34.157  29.927  1.00  0.00     0.049 A 
ATOM     43  H   UNL A   1      40.501  32.151  30.447  1.00  0.00     0.167 HD
ATOM     44  C   UNL A   1      39.684  27.760  29.606  1.00  0.00     0.034 A 
ATOM     45  C   UNL A   1      42.168  34.229  29.744  1.00  0.00     0.034 A 
ATOM     46  C   UNL A   1      40.087  27.859  30.982  1.00  0.00     0.049 A 
ATOM     47  C   UNL A   1      42.749  32.950  30.227  1.00  0.00     0.074 A 
ATOM     48  C   UNL A   1      39.420  27.795  32.189  1.00  0.00     0.029 A 
ATOM     49  N   UNL A   1      41.301  28.447  31.246  1.00  0.00    -0.354 N 
ATOM     50  N   UNL A   1      42.739  32.575  31.478  1.00  0.00    -0.248 NA
ATOM     51  C   UNL A   1      42.957  31.882  29.259  1.00  0.00     0.031 C 
ATOM     52  C   UNL A   1      40.068  28.753  33.019  1.00  0.00     0.029 A 
ATOM     53  C   UNL A   1      41.119  29.315  32.290  1.00  0.00     0.049 A 
ATOM     54  H   UNL A   1      42.147  28.274  30.772  1.00  0.00     0.167 HD
ATOM     55  C   UNL A   1      42.503  31.206  31.434  1.00  0.00     0.074 A 
ATOM     56  C   UNL A   1      42.768  30.821  30.049  1.00  0.00     0.031 C 
ATOM     57  C   UNL A   1      41.832  30.568  32.439  1.00  0.00     0.034 A 
BRANCH  44  58
ATOM     58  C   UNL A   1      40.494  27.018  28.571  1.00  0.00     0.023 A 
ATOM     59  C   UNL A   1      40.591  25.619  28.712  1.00  0.00     0.012 A 
ATOM     60  C   UNL A   1      41.372  27.631  27.643  1.00  0.00     0.148 A 
ATOM     61  C   UNL A   1      41.546  24.879  28.007  1.00  0.00     0.002 A 
ATOM     62  C   UNL A   1      42.254  26.881  26.880  1.00  0.00     0.091 A 
ATOM     63  F   UNL A   1      41.477  28.961  27.582  1.00  0.00    -0.205 F 
ATOM     64  C   UNL A   1      42.371  25.508  27.081  1.00  0.00     0.022 A 
BRANCH  62  65
ATOM     65  S   UNL A   1      43.286  27.661  25.632  1.00  0.00     0.127 S 
ATOM     66  O   UNL A   1      44.027  26.518  25.108  1.00  0.00    -0.237 OA
ATOM     67  O   UNL A   1      42.287  28.225  24.722  1.00  0.00    -0.237 OA
ATOM     68  O   UNL A   1      44.064  28.664  26.350  1.00  0.00    -0.744 OA
ENDBRANCH  62  65
ENDBRANCH  44  58
BRANCH  45  69
ATOM     69  C   UNL A   1      42.932  35.188  28.915  1.00  0.00     0.023 A 
ATOM     70  C   UNL A   1      42.844  35.107  27.513  1.00  0.00     0.012 A 
ATOM     71  C   UNL A   1      43.552  36.327  29.480  1.00  0.00     0.148 A 
ATOM     72  C   UNL A   1      43.338  36.133  26.701  1.00  0.00     0.002 A 
ATOM     73  C   UNL A   1      44.058  37.337  28.668  1.00  0.00     0.091 A 
ATOM     74  F   UNL A   1      43.568  36.464  30.812  1.00  0.00    -0.205 F 
ATOM     75  C   UNL A   1      43.941  37.248  27.276  1.00  0.00     0.022 A 
BRANCH  73  76
ATOM     76  S   UNL A   1      44.843  38.808  29.342  1.00  0.00     0.127 S 
ATOM     77  O   UNL A   1      45.203  39.543  28.128  1.00  0.00    -0.237 OA
ATOM     78  O   UNL A   1      43.756  39.403  30.116  1.00  0.00    -0.237 OA
ATOM     79  O   UNL A   1      45.985  38.334  30.113  1.00  0.00    -0.744 OA
ENDBRANCH  73  76
ENDBRANCH  45  69
BRANCH  57  80
ATOM     80  C   UNL A   1      41.533  31.338  33.706  1.00  0.00     0.023 A 
ATOM     81  C   UNL A   1      42.492  31.475  34.732  1.00  0.00     0.012 A 
ATOM     82  C   UNL A   1      40.371  32.127  33.756  1.00  0.00     0.148 A 
ATOM     83  C   UNL A   1      42.295  32.370  35.786  1.00  0.00     0.002 A 
ATOM     84  C   UNL A   1      40.205  33.056  34.777  1.00  0.00     0.091 A 
ATOM     85  F   UNL A   1      39.469  31.992  32.771  1.00  0.00    -0.205 F 
ATOM     86  C   UNL A   1      41.160  33.174  35.799  1.00  0.00     0.022 A 
BRANCH  84  87
ATOM     87  S   UNL A   1      38.848  34.233  34.767  1.00  0.00     0.127 S 
ATOM     88  O   UNL A   1      37.695  33.373  35.030  1.00  0.00    -0.237 OA
ATOM     89  O   UNL A   1      39.204  35.132  35.866  1.00  0.00    -0.237 OA
ATOM     90  O   UNL A   1      38.874  34.862  33.453  1.00  0.00    -0.744 OA
ENDBRANCH  84  87
ENDBRANCH  57  80
ENDBRANCH  31  32
ENDBRANCH  24  26
ENDBRANCH  23  24
ENDBRANCH   1  23
TORSDOF 15
ENDMDL
MODEL 3
REMARK VINA RESULT:     -11.8      4.232      7.411
REMARK SMILES CC1=Nc2ncnn2[C@H](c2ccc(F)cc2)[C@@H]1C(=O)OCCOC(=O)c1ccc(-c2c3nc(c(-c4cccc(S(=O)(=O)[O-])c4F)c4ccc([nH]4)c(-c4cccc(S(=O)(=O)[O-])c4F)c4nc(c(-c5cccc(S(=O)(=O)[O-])c5F)c5ccc2[nH]5)C=C4)C=C3)cc1
REMARK SMILES IDX 22 1 21 2 20 3 18 4 19 5 17 6 1 7 2 8 3 9 4 10 9 11 5 12
REMARK SMILES IDX 8 13 6 14 7 15 10 16 11 17 16 18 12 19 15 20 13 21 14 22
REMARK SMILES IDX 23 23 24 24 25 25 26 26 27 27 88 28 28 29 87 30 29 31 30 32
REMARK SMILES IDX 31 33 81 34 32 35 86 36 80 37 82 38 33 39 85 40 79 41 78 42
REMARK SMILES IDX 34 44 66 45 46 46 65 47 47 48 50 49 64 50 83 51 48 52 49 53
REMARK SMILES IDX 63 55 84 56 51 57 35 58 36 59 44 60 37 61 39 62 45 63 38 64
REMARK SMILES IDX 40 65 41 66 42 67 43 68 67 69 68 70 76 71 69 72 71 73 77 74
REMARK SMILES IDX 70 75 72 76 73 77 74 78 75 79 52 80 53 81 61 82 54 83 56 84
REMARK SMILES IDX 62 85 55 86 57 87 58 88 59 89 60 90
REMARK H PARENT 82 43 50 54
REMARK Flexibility Score: inf
ROOT
ATOM      1  C   UNL A   1      33.220  29.871  26.731  1.00  0.00     0.275 C 
ENDROOT
BRANCH   1   2
ATOM      2  C   UNL A   1      32.861  28.436  27.057  1.00  0.00     0.274 C 
BRANCH   2   3
ATOM      3  O   UNL A   1      32.464  27.703  25.881  1.00  0.00    -0.461 OA
BRANCH   3   4
ATOM      4  C   UNL A   1      31.453  26.783  26.029  1.00  0.00     0.317 C 
ATOM      5  O   UNL A   1      30.588  26.809  26.879  1.00  0.00    -0.251 OA
BRANCH   4   6
ATOM      6  C   UNL A   1      31.640  25.666  25.032  1.00  0.00     0.173 C 
ATOM      7  C   UNL A   1      33.857  24.792  26.098  1.00  0.00     0.063 C 
ATOM      8  C   UNL A   1      33.104  25.263  24.874  1.00  0.00     0.036 C 
ATOM      9  N   UNL A   1      33.772  25.262  23.761  1.00  0.00    -0.220 NA
ATOM     10  C   UNL A   1      33.151  25.610  22.620  1.00  0.00     0.248 A 
ATOM     11  C   UNL A   1      30.934  25.999  23.697  1.00  0.00     0.161 C 
ATOM     12  N   UNL A   1      33.619  25.599  21.390  1.00  0.00    -0.198 NA
ATOM     13  N   UNL A   1      31.837  25.988  22.564  1.00  0.00    -0.221 N 
ATOM     14  C   UNL A   1      32.540  25.919  20.624  1.00  0.00     0.248 A 
ATOM     15  N   UNL A   1      31.405  26.130  21.293  1.00  0.00    -0.157 NA
BRANCH  11  16
ATOM     16  C   UNL A   1      30.048  27.255  23.657  1.00  0.00    -0.022 A 
ATOM     17  C   UNL A   1      30.658  28.520  23.571  1.00  0.00     0.009 A 
ATOM     18  C   UNL A   1      28.641  27.183  23.605  1.00  0.00     0.009 A 
ATOM     19  C   UNL A   1      29.890  29.662  23.339  1.00  0.00     0.039 A 
ATOM     20  C   UNL A   1      27.883  28.320  23.316  1.00  0.00     0.039 A 
ATOM     21  C   UNL A   1      28.516  29.547  23.176  1.00  0.00     0.123 A 
ATOM     22  F   UNL A   1      27.794  30.631  22.868  1.00  0.00    -0.207 F 
ENDBRANCH  11  16
ENDBRANCH   4   6
ENDBRANCH   3   4
ENDBRANCH   2   3
ENDBRANCH   1   2
BRANCH   1  23
ATOM     23  O   UNL A   1      34.607  30.081  26.954  1.00  0.00    -0.458 OA
BRANCH  23  24
ATOM     24  C   UNL A   1      34.900  31.185  27.664  1.00  0.00     0.338 C 
ATOM     25  O   UNL A   1      34.537  32.340  27.440  1.00  0.00    -0.246 OA
BRANCH  24  26
ATOM     26  C   UNL A   1      35.917  30.864  28.651  1.00  0.00     0.060 A 
ATOM     27  C   UNL A   1      36.933  31.812  28.783  1.00  0.00     0.016 A 
ATOM     28  C   UNL A   1      36.054  29.533  29.068  1.00  0.00     0.016 A 
ATOM     29  C   UNL A   1      38.184  31.365  29.095  1.00  0.00     0.010 A 
ATOM     30  C   UNL A   1      37.309  29.084  29.372  1.00  0.00     0.010 A 
ATOM     31  C   UNL A   1      38.361  29.993  29.284  1.00  0.00    -0.014 A 
BRANCH  31  32
ATOM     32  C   UNL A   1      39.711  29.550  29.502  1.00  0.00     0.031 A 
ATOM     33  C   UNL A   1      40.157  29.798  30.889  1.00  0.00     0.074 A 
ATOM     34  C   UNL A   1      40.393  28.910  28.539  1.00  0.00     0.049 A 
ATOM     35  N   UNL A   1      41.149  30.520  31.290  1.00  0.00    -0.248 NA
ATOM     36  C   UNL A   1      39.255  29.351  31.965  1.00  0.00     0.031 C 
ATOM     37  C   UNL A   1      39.888  28.409  27.256  1.00  0.00     0.029 A 
ATOM     38  N   UNL A   1      41.650  28.408  28.599  1.00  0.00    -0.354 N 
ATOM     39  C   UNL A   1      41.124  30.414  32.677  1.00  0.00     0.074 A 
ATOM     40  C   UNL A   1      39.836  29.889  33.033  1.00  0.00     0.031 C 
ATOM     41  C   UNL A   1      40.722  27.443  26.813  1.00  0.00     0.029 A 
ATOM     42  C   UNL A   1      41.857  27.359  27.715  1.00  0.00     0.049 A 
ATOM     43  H   UNL A   1      42.345  28.752  29.206  1.00  0.00     0.167 HD
ATOM     44  C   UNL A   1      42.266  30.486  33.406  1.00  0.00     0.034 A 
ATOM     45  C   UNL A   1      42.823  26.418  27.823  1.00  0.00     0.034 A 
ATOM     46  C   UNL A   1      43.312  31.163  32.689  1.00  0.00     0.049 A 
ATOM     47  C   UNL A   1      43.855  26.948  28.751  1.00  0.00     0.074 A 
ATOM     48  C   UNL A   1      43.440  32.419  32.128  1.00  0.00     0.029 A 
ATOM     49  N   UNL A   1      44.296  30.390  32.124  1.00  0.00    -0.354 N 
ATOM     50  N   UNL A   1      44.610  27.979  28.483  1.00  0.00    -0.248 NA
ATOM     51  C   UNL A   1      43.752  26.602  30.161  1.00  0.00     0.031 C 
ATOM     52  C   UNL A   1      44.185  32.213  30.933  1.00  0.00     0.029 A 
ATOM     53  C   UNL A   1      44.508  30.857  30.854  1.00  0.00     0.049 A 
ATOM     54  H   UNL A   1      44.764  29.637  32.554  1.00  0.00     0.167 HD
ATOM     55  C   UNL A   1      44.719  28.660  29.690  1.00  0.00     0.074 A 
ATOM     56  C   UNL A   1      44.275  27.705  30.704  1.00  0.00     0.031 C 
ATOM     57  C   UNL A   1      44.869  30.017  29.728  1.00  0.00     0.034 A 
BRANCH  44  58
ATOM     58  C   UNL A   1      42.537  29.604  34.601  1.00  0.00     0.023 A 
ATOM     59  C   UNL A   1      43.204  30.191  35.696  1.00  0.00     0.012 A 
ATOM     60  C   UNL A   1      42.420  28.193  34.604  1.00  0.00     0.148 A 
ATOM     61  C   UNL A   1      43.770  29.410  36.709  1.00  0.00     0.002 A 
ATOM     62  C   UNL A   1      42.902  27.430  35.657  1.00  0.00     0.091 A 
ATOM     63  F   UNL A   1      41.971  27.545  33.525  1.00  0.00    -0.205 F 
ATOM     64  C   UNL A   1      43.609  28.029  36.697  1.00  0.00     0.022 A 
BRANCH  62  65
ATOM     65  S   UNL A   1      42.651  25.650  35.696  1.00  0.00     0.127 S 
ATOM     66  O   UNL A   1      43.261  25.297  36.974  1.00  0.00    -0.237 OA
ATOM     67  O   UNL A   1      41.192  25.549  35.654  1.00  0.00    -0.237 OA
ATOM     68  O   UNL A   1      43.314  25.144  34.500  1.00  0.00    -0.744 OA
ENDBRANCH  62  65
ENDBRANCH  44  58
BRANCH  45  69
ATOM     69  C   UNL A   1      42.766  24.993  27.425  1.00  0.00     0.023 A 
ATOM     70  C   UNL A   1      41.589  24.260  27.661  1.00  0.00     0.012 A 
ATOM     71  C   UNL A   1      43.761  24.412  26.603  1.00  0.00     0.148 A 
ATOM     72  C   UNL A   1      41.398  23.000  27.083  1.00  0.00     0.002 A 
ATOM     73  C   UNL A   1      43.574  23.152  26.045  1.00  0.00     0.091 A 
ATOM     74  F   UNL A   1      44.849  25.130  26.297  1.00  0.00    -0.205 F 
ATOM     75  C   UNL A   1      42.387  22.448  26.273  1.00  0.00     0.022 A 
BRANCH  73  76
ATOM     76  S   UNL A   1      44.805  22.380  24.984  1.00  0.00     0.127 S 
ATOM     77  O   UNL A   1      44.981  23.391  23.940  1.00  0.00    -0.237 OA
ATOM     78  O   UNL A   1      45.939  22.236  25.893  1.00  0.00    -0.237 OA
ATOM     79  O   UNL A   1      44.206  21.138  24.516  1.00  0.00    -0.744 OA
ENDBRANCH  73  76
ENDBRANCH  45  69
BRANCH  57  80
ATOM     80  C   UNL A   1      45.131  30.750  28.431  1.00  0.00     0.023 A 
ATOM     81  C   UNL A   1      44.075  31.193  27.606  1.00  0.00     0.012 A 
ATOM     82  C   UNL A   1      46.433  31.206  28.166  1.00  0.00     0.148 A 
ATOM     83  C   UNL A   1      44.312  32.062  26.538  1.00  0.00     0.002 A 
ATOM     84  C   UNL A   1      46.657  32.114  27.136  1.00  0.00     0.091 A 
ATOM     85  F   UNL A   1      47.428  30.782  28.961  1.00  0.00    -0.205 F 
ATOM     86  C   UNL A   1      45.601  32.537  26.314  1.00  0.00     0.022 A 
BRANCH  84  87
ATOM     87  S   UNL A   1      48.259  32.887  26.896  1.00  0.00     0.127 S 
ATOM     88  O   UNL A   1      47.981  33.836  25.819  1.00  0.00    -0.237 OA
ATOM     89  O   UNL A   1      48.511  33.501  28.201  1.00  0.00    -0.237 OA
ATOM     90  O   UNL A   1      49.179  31.808  26.559  1.00  0.00    -0.744 OA
ENDBRANCH  84  87
ENDBRANCH  57  80
ENDBRANCH  31  32
ENDBRANCH  24  26
ENDBRANCH  23  24
ENDBRANCH   1  23
TORSDOF 15
ENDMDL
