MODEL 1
REMARK VINA RESULT:     -11.0      0.000      0.000
REMARK SMILES CCCc1c(C(=O)OCCOC(=O)c2ccc(-c3c4nc(c(-c5cccc(S(=O)(=O)[O-])c5F)c5ccc([nH]5)c(-c5cccc(S(=O)(=O)[O-])c5F)c5nc(c(-c6cccc(S(=O)(=O)[O-])c6F)c6ccc3[nH]6)C=C5)C=C4)cc2)nnn1-c1cccc(C(F)(F)F)c1
REMARK SMILES IDX 10 1 9 2 8 3 6 4 7 5 5 6 4 7 79 8 77 9 78 10 3 11 2 12 1 13
REMARK SMILES IDX 80 14 81 15 89 16 82 17 84 18 83 19 85 20 86 21 87 22 88 23
REMARK SMILES IDX 11 24 12 25 13 26 14 27 15 28 76 29 16 30 75 31 17 32 18 33
REMARK SMILES IDX 19 34 69 35 20 36 74 37 68 38 70 39 21 40 73 41 67 42 66 43
REMARK SMILES IDX 22 45 54 46 34 47 53 48 35 49 38 50 52 51 71 52 36 53 37 54
REMARK SMILES IDX 51 56 72 57 39 58 23 59 24 60 32 61 25 62 27 63 33 64 26 65
REMARK SMILES IDX 28 66 29 67 30 68 31 69 55 70 56 71 64 72 57 73 59 74 65 75
REMARK SMILES IDX 58 76 60 77 61 78 62 79 63 80 40 81 41 82 49 83 42 84 44 85
REMARK SMILES IDX 50 86 43 87 45 88 46 89 47 90 48 91
REMARK H PARENT 70 44 38 55
REMARK Flexibility Score: inf
ROOT
ATOM      1  C   UNL A   1      34.029  33.364  28.000  1.00  0.00     0.275 C 
ENDROOT
BRANCH   1   2
ATOM      2  C   UNL A   1      33.963  34.657  28.800  1.00  0.00     0.275 C 
BRANCH   2   3
ATOM      3  O   UNL A   1      33.054  34.533  29.903  1.00  0.00    -0.457 OA
BRANCH   3   4
ATOM      4  C   UNL A   1      32.972  35.607  30.751  1.00  0.00     0.360 C 
ATOM      5  O   UNL A   1      32.194  36.543  30.582  1.00  0.00    -0.244 OA
BRANCH   4   6
ATOM      6  C   UNL A   1      33.869  35.498  31.892  1.00  0.00     0.194 A 
ATOM      7  C   UNL A   1      34.441  34.375  32.482  1.00  0.00     0.079 A 
ATOM      8  N   UNL A   1      35.192  34.905  33.520  1.00  0.00    -0.217 N 
ATOM      9  N   UNL A   1      34.214  36.611  32.626  1.00  0.00    -0.122 NA
ATOM     10  N   UNL A   1      34.928  36.219  33.669  1.00  0.00    -0.061 NA
BRANCH   7  11
ATOM     11  C   UNL A   1      34.294  32.913  32.202  1.00  0.00     0.059 C 
BRANCH  11  12
ATOM     12  C   UNL A   1      35.500  32.285  31.491  1.00  0.00     0.003 C 
ATOM     13  C   UNL A   1      36.181  31.174  32.275  1.00  0.00     0.004 C 
ENDBRANCH  11  12
ENDBRANCH   7  11
BRANCH   8  14
ATOM     14  C   UNL A   1      36.244  34.324  34.257  1.00  0.00     0.067 A 
ATOM     15  C   UNL A   1      36.030  33.941  35.584  1.00  0.00     0.028 A 
ATOM     16  C   UNL A   1      37.524  34.242  33.694  1.00  0.00     0.041 A 
ATOM     17  C   UNL A   1      37.085  33.408  36.325  1.00  0.00     0.003 A 
ATOM     18  C   UNL A   1      38.601  33.762  34.453  1.00  0.00     0.058 A 
ATOM     19  C   UNL A   1      38.362  33.321  35.765  1.00  0.00     0.013 A 
BRANCH  18  20
ATOM     20  C   UNL A   1      39.999  33.756  33.890  1.00  0.00     0.416 C 
ATOM     21  F   UNL A   1      40.304  32.590  33.254  1.00  0.00    -0.166 F 
ATOM     22  F   UNL A   1      40.202  34.744  32.975  1.00  0.00    -0.166 F 
ATOM     23  F   UNL A   1      40.967  33.923  34.836  1.00  0.00    -0.166 F 
ENDBRANCH  18  20
ENDBRANCH   8  14
ENDBRANCH   4   6
ENDBRANCH   3   4
ENDBRANCH   2   3
ENDBRANCH   1   2
BRANCH   1  24
ATOM     24  O   UNL A   1      35.331  32.781  28.042  1.00  0.00    -0.458 OA
BRANCH  24  25
ATOM     25  C   UNL A   1      35.364  31.464  27.741  1.00  0.00     0.338 C 
ATOM     26  O   UNL A   1      34.484  30.822  27.193  1.00  0.00    -0.246 OA
BRANCH  25  27
ATOM     27  C   UNL A   1      36.501  30.826  28.401  1.00  0.00     0.060 A 
ATOM     28  C   UNL A   1      37.554  31.649  28.816  1.00  0.00     0.016 A 
ATOM     29  C   UNL A   1      36.620  29.432  28.361  1.00  0.00     0.016 A 
ATOM     30  C   UNL A   1      38.774  31.071  29.102  1.00  0.00     0.010 A 
ATOM     31  C   UNL A   1      37.840  28.859  28.627  1.00  0.00     0.010 A 
ATOM     32  C   UNL A   1      38.912  29.688  28.955  1.00  0.00    -0.014 A 
BRANCH  32  33
ATOM     33  C   UNL A   1      40.180  29.084  29.310  1.00  0.00     0.031 A 
ATOM     34  C   UNL A   1      40.339  28.879  30.768  1.00  0.00     0.074 A 
ATOM     35  C   UNL A   1      41.022  28.586  28.386  1.00  0.00     0.049 A 
ATOM     36  N   UNL A   1      41.218  29.407  31.555  1.00  0.00    -0.248 NA
ATOM     37  C   UNL A   1      39.288  28.119  31.465  1.00  0.00     0.031 C 
ATOM     38  C   UNL A   1      40.769  28.452  26.948  1.00  0.00     0.029 A 
ATOM     39  N   UNL A   1      42.207  27.938  28.562  1.00  0.00    -0.354 N 
ATOM     40  C   UNL A   1      40.972  28.835  32.803  1.00  0.00     0.074 A 
ATOM     41  C   UNL A   1      39.657  28.265  32.735  1.00  0.00     0.031 C 
ATOM     42  C   UNL A   1      41.633  27.550  26.435  1.00  0.00     0.029 A 
ATOM     43  C   UNL A   1      42.560  27.143  27.476  1.00  0.00     0.049 A 
ATOM     44  H   UNL A   1      42.756  28.023  29.374  1.00  0.00     0.167 HD
ATOM     45  C   UNL A   1      41.992  28.595  33.671  1.00  0.00     0.034 A 
ATOM     46  C   UNL A   1      43.481  26.151  27.474  1.00  0.00     0.034 A 
ATOM     47  C   UNL A   1      43.157  29.379  33.334  1.00  0.00     0.049 A 
ATOM     48  C   UNL A   1      44.361  26.353  28.647  1.00  0.00     0.074 A 
ATOM     49  C   UNL A   1      43.436  30.721  33.179  1.00  0.00     0.029 A 
ATOM     50  N   UNL A   1      44.195  28.699  32.748  1.00  0.00    -0.354 N 
ATOM     51  N   UNL A   1      45.194  27.349  28.772  1.00  0.00    -0.248 NA
ATOM     52  C   UNL A   1      44.068  25.627  29.873  1.00  0.00     0.031 C 
ATOM     53  C   UNL A   1      44.429  30.783  32.156  1.00  0.00     0.029 A 
ATOM     54  C   UNL A   1      44.732  29.478  31.765  1.00  0.00     0.049 A 
ATOM     55  H   UNL A   1      44.501  27.797  32.997  1.00  0.00     0.167 HD
ATOM     56  C   UNL A   1      45.167  27.652  30.126  1.00  0.00     0.074 A 
ATOM     57  C   UNL A   1      44.595  26.471  30.763  1.00  0.00     0.031 C 
ATOM     58  C   UNL A   1      45.324  28.939  30.557  1.00  0.00     0.034 A 
BRANCH  45  59
ATOM     59  C   UNL A   1      42.118  27.331  34.513  1.00  0.00     0.023 A 
ATOM     60  C   UNL A   1      41.754  27.446  35.875  1.00  0.00     0.012 A 
ATOM     61  C   UNL A   1      42.860  26.180  34.154  1.00  0.00     0.148 A 
ATOM     62  C   UNL A   1      42.214  26.546  36.841  1.00  0.00     0.002 A 
ATOM     63  C   UNL A   1      43.260  25.250  35.108  1.00  0.00     0.091 A 
ATOM     64  F   UNL A   1      43.298  26.010  32.907  1.00  0.00    -0.205 F 
ATOM     65  C   UNL A   1      42.977  25.451  36.459  1.00  0.00     0.022 A 
BRANCH  63  66
ATOM     66  S   UNL A   1      44.224  23.799  34.661  1.00  0.00     0.127 S 
ATOM     67  O   UNL A   1      43.297  23.101  33.776  1.00  0.00    -0.237 OA
ATOM     68  O   UNL A   1      45.381  24.403  33.999  1.00  0.00    -0.237 OA
ATOM     69  O   UNL A   1      44.539  23.130  35.917  1.00  0.00    -0.744 OA
ENDBRANCH  63  66
ENDBRANCH  45  59
BRANCH  46  70
ATOM     70  C   UNL A   1      43.533  24.913  26.662  1.00  0.00     0.023 A 
ATOM     71  C   UNL A   1      44.677  24.645  25.884  1.00  0.00     0.012 A 
ATOM     72  C   UNL A   1      42.589  23.875  26.838  1.00  0.00     0.148 A 
ATOM     73  C   UNL A   1      44.890  23.379  25.329  1.00  0.00     0.002 A 
ATOM     74  C   UNL A   1      42.797  22.623  26.269  1.00  0.00     0.091 A 
ATOM     75  F   UNL A   1      41.536  24.086  27.638  1.00  0.00    -0.205 F 
ATOM     76  C   UNL A   1      43.955  22.366  25.525  1.00  0.00     0.022 A 
BRANCH  74  77
ATOM     77  S   UNL A   1      41.630  21.271  26.478  1.00  0.00     0.127 S 
ATOM     78  O   UNL A   1      40.392  21.854  25.959  1.00  0.00    -0.237 OA
ATOM     79  O   UNL A   1      42.215  20.230  25.638  1.00  0.00    -0.237 OA
ATOM     80  O   UNL A   1      41.599  20.990  27.908  1.00  0.00    -0.744 OA
ENDBRANCH  74  77
ENDBRANCH  46  70
BRANCH  58  81
ATOM     81  C   UNL A   1      45.908  29.943  29.598  1.00  0.00     0.023 A 
ATOM     82  C   UNL A   1      47.298  30.124  29.448  1.00  0.00     0.012 A 
ATOM     83  C   UNL A   1      45.035  30.603  28.715  1.00  0.00     0.148 A 
ATOM     84  C   UNL A   1      47.804  30.969  28.458  1.00  0.00     0.002 A 
ATOM     85  C   UNL A   1      45.545  31.403  27.700  1.00  0.00     0.091 A 
ATOM     86  F   UNL A   1      43.715  30.418  28.869  1.00  0.00    -0.205 F 
ATOM     87  C   UNL A   1      46.929  31.598  27.575  1.00  0.00     0.022 A 
BRANCH  85  88
ATOM     88  S   UNL A   1      44.475  32.127  26.455  1.00  0.00     0.127 S 
ATOM     89  O   UNL A   1      45.426  32.488  25.406  1.00  0.00    -0.237 OA
ATOM     90  O   UNL A   1      43.584  31.016  26.117  1.00  0.00    -0.237 OA
ATOM     91  O   UNL A   1      43.804  33.245  27.109  1.00  0.00    -0.744 OA
ENDBRANCH  85  88
ENDBRANCH  58  81
ENDBRANCH  32  33
ENDBRANCH  25  27
ENDBRANCH  24  25
ENDBRANCH   1  24
TORSDOF 18
ENDMDL
MODEL 2
REMARK VINA RESULT:     -11.0      1.942      2.488
REMARK SMILES CCCc1c(C(=O)OCCOC(=O)c2ccc(-c3c4nc(c(-c5cccc(S(=O)(=O)[O-])c5F)c5ccc([nH]5)c(-c5cccc(S(=O)(=O)[O-])c5F)c5nc(c(-c6cccc(S(=O)(=O)[O-])c6F)c6ccc3[nH]6)C=C5)C=C4)cc2)nnn1-c1cccc(C(F)(F)F)c1
REMARK SMILES IDX 10 1 9 2 8 3 6 4 7 5 5 6 4 7 79 8 77 9 78 10 3 11 2 12 1 13
REMARK SMILES IDX 80 14 81 15 89 16 82 17 84 18 83 19 85 20 86 21 87 22 88 23
REMARK SMILES IDX 11 24 12 25 13 26 14 27 15 28 76 29 16 30 75 31 17 32 18 33
REMARK SMILES IDX 19 34 69 35 20 36 74 37 68 38 70 39 21 40 73 41 67 42 66 43
REMARK SMILES IDX 22 45 54 46 34 47 53 48 35 49 38 50 52 51 71 52 36 53 37 54
REMARK SMILES IDX 51 56 72 57 39 58 23 59 24 60 32 61 25 62 27 63 33 64 26 65
REMARK SMILES IDX 28 66 29 67 30 68 31 69 55 70 56 71 64 72 57 73 59 74 65 75
REMARK SMILES IDX 58 76 60 77 61 78 62 79 63 80 40 81 41 82 49 83 42 84 44 85
REMARK SMILES IDX 50 86 43 87 45 88 46 89 47 90 48 91
REMARK H PARENT 70 44 38 55
REMARK Flexibility Score: inf
ROOT
ATOM      1  C   UNL A   1      32.873  33.234  27.680  1.00  0.00     0.275 C 
ENDROOT
BRANCH   1   2
ATOM      2  C   UNL A   1      32.942  34.604  28.339  1.00  0.00     0.275 C 
BRANCH   2   3
ATOM      3  O   UNL A   1      33.597  34.527  29.613  1.00  0.00    -0.457 OA
BRANCH   3   4
ATOM      4  C   UNL A   1      33.185  35.423  30.566  1.00  0.00     0.360 C 
ATOM      5  O   UNL A   1      32.220  36.169  30.418  1.00  0.00    -0.244 OA
BRANCH   4   6
ATOM      6  C   UNL A   1      33.979  35.362  31.784  1.00  0.00     0.194 A 
ATOM      7  C   UNL A   1      34.697  34.306  32.338  1.00  0.00     0.079 A 
ATOM      8  N   UNL A   1      35.239  34.856  33.490  1.00  0.00    -0.217 N 
ATOM      9  N   UNL A   1      34.042  36.439  32.640  1.00  0.00    -0.122 NA
ATOM     10  N   UNL A   1      34.720  36.079  33.717  1.00  0.00    -0.061 NA
BRANCH   7  11
ATOM     11  C   UNL A   1      34.852  32.877  31.924  1.00  0.00     0.059 C 
BRANCH  11  12
ATOM     12  C   UNL A   1      36.238  32.534  31.359  1.00  0.00     0.003 C 
ATOM     13  C   UNL A   1      36.930  33.688  30.653  1.00  0.00     0.004 C 
ENDBRANCH  11  12
ENDBRANCH   7  11
BRANCH   8  14
ATOM     14  C   UNL A   1      36.311  34.401  34.285  1.00  0.00     0.067 A 
ATOM     15  C   UNL A   1      36.048  33.749  35.493  1.00  0.00     0.028 A 
ATOM     16  C   UNL A   1      37.626  34.707  33.917  1.00  0.00     0.041 A 
ATOM     17  C   UNL A   1      37.110  33.341  36.300  1.00  0.00     0.003 A 
ATOM     18  C   UNL A   1      38.695  34.352  34.752  1.00  0.00     0.058 A 
ATOM     19  C   UNL A   1      38.425  33.641  35.934  1.00  0.00     0.013 A 
BRANCH  18  20
ATOM     20  C   UNL A   1      40.107  34.756  34.414  1.00  0.00     0.416 C 
ATOM     21  F   UNL A   1      41.034  33.881  34.893  1.00  0.00    -0.166 F 
ATOM     22  F   UNL A   1      40.324  34.833  33.071  1.00  0.00    -0.166 F 
ATOM     23  F   UNL A   1      40.458  35.975  34.915  1.00  0.00    -0.166 F 
ENDBRANCH  18  20
ENDBRANCH   8  14
ENDBRANCH   4   6
ENDBRANCH   3   4
ENDBRANCH   2   3
ENDBRANCH   1   2
BRANCH   1  24
ATOM     24  O   UNL A   1      33.711  32.286  28.340  1.00  0.00    -0.458 OA
BRANCH  24  25
ATOM     25  C   UNL A   1      33.931  31.151  27.640  1.00  0.00     0.338 C 
ATOM     26  O   UNL A   1      33.084  30.417  27.160  1.00  0.00    -0.246 OA
BRANCH  25  27
ATOM     27  C   UNL A   1      35.333  30.756  27.753  1.00  0.00     0.060 A 
ATOM     28  C   UNL A   1      35.607  29.427  28.097  1.00  0.00     0.016 A 
ATOM     29  C   UNL A   1      36.322  31.747  27.775  1.00  0.00     0.016 A 
ATOM     30  C   UNL A   1      36.866  29.108  28.561  1.00  0.00     0.010 A 
ATOM     31  C   UNL A   1      37.570  31.432  28.256  1.00  0.00     0.010 A 
ATOM     32  C   UNL A   1      37.815  30.128  28.682  1.00  0.00    -0.014 A 
BRANCH  32  33
ATOM     33  C   UNL A   1      39.149  29.774  29.119  1.00  0.00     0.031 A 
ATOM     34  C   UNL A   1      39.414  30.132  30.532  1.00  0.00     0.074 A 
ATOM     35  C   UNL A   1      39.975  29.021  28.369  1.00  0.00     0.049 A 
ATOM     36  N   UNL A   1      40.289  30.964  30.992  1.00  0.00    -0.248 NA
ATOM     37  C   UNL A   1      38.477  29.622  31.547  1.00  0.00     0.031 C 
ATOM     38  C   UNL A   1      39.648  28.350  27.107  1.00  0.00     0.029 A 
ATOM     39  N   UNL A   1      41.220  28.554  28.664  1.00  0.00    -0.354 N 
ATOM     40  C   UNL A   1      40.169  30.881  32.379  1.00  0.00     0.074 A 
ATOM     41  C   UNL A   1      38.908  30.249  32.639  1.00  0.00     0.031 C 
ATOM     42  C   UNL A   1      40.556  27.375  26.883  1.00  0.00     0.029 A 
ATOM     43  C   UNL A   1      41.576  27.438  27.915  1.00  0.00     0.049 A 
ATOM     44  H   UNL A   1      41.807  28.966  29.338  1.00  0.00     0.167 HD
ATOM     45  C   UNL A   1      41.257  31.039  33.181  1.00  0.00     0.034 A 
ATOM     46  C   UNL A   1      42.578  26.571  28.193  1.00  0.00     0.034 A 
ATOM     47  C   UNL A   1      42.326  31.710  32.481  1.00  0.00     0.049 A 
ATOM     48  C   UNL A   1      43.506  27.244  29.130  1.00  0.00     0.074 A 
ATOM     49  C   UNL A   1      42.477  32.914  31.824  1.00  0.00     0.029 A 
ATOM     50  N   UNL A   1      43.383  30.924  32.093  1.00  0.00    -0.354 N 
ATOM     51  N   UNL A   1      44.254  28.262  28.810  1.00  0.00    -0.248 NA
ATOM     52  C   UNL A   1      43.352  27.005  30.556  1.00  0.00     0.031 C 
ATOM     53  C   UNL A   1      43.397  32.653  30.766  1.00  0.00     0.029 A 
ATOM     54  C   UNL A   1      43.789  31.315  30.851  1.00  0.00     0.049 A 
ATOM     55  H   UNL A   1      43.781  30.198  32.625  1.00  0.00     0.167 HD
ATOM     56  C   UNL A   1      44.283  29.043  29.958  1.00  0.00     0.074 A 
ATOM     57  C   UNL A   1      43.855  28.148  31.028  1.00  0.00     0.031 C 
ATOM     58  C   UNL A   1      44.352  30.405  29.875  1.00  0.00     0.034 A 
BRANCH  45  59
ATOM     59  C   UNL A   1      41.544  30.185  34.411  1.00  0.00     0.023 A 
ATOM     60  C   UNL A   1      42.113  30.855  35.520  1.00  0.00     0.012 A 
ATOM     61  C   UNL A   1      41.606  28.770  34.428  1.00  0.00     0.148 A 
ATOM     62  C   UNL A   1      42.818  30.170  36.514  1.00  0.00     0.002 A 
ATOM     63  C   UNL A   1      42.252  28.088  35.454  1.00  0.00     0.091 A 
ATOM     64  F   UNL A   1      41.149  28.053  33.403  1.00  0.00    -0.205 F 
ATOM     65  C   UNL A   1      42.896  28.784  36.476  1.00  0.00     0.022 A 
BRANCH  63  66
ATOM     66  S   UNL A   1      42.356  26.292  35.468  1.00  0.00     0.127 S 
ATOM     67  O   UNL A   1      43.197  26.045  34.301  1.00  0.00    -0.237 OA
ATOM     68  O   UNL A   1      42.995  26.042  36.761  1.00  0.00    -0.237 OA
ATOM     69  O   UNL A   1      40.981  25.815  35.381  1.00  0.00    -0.744 OA
ENDBRANCH  63  66
ENDBRANCH  45  59
BRANCH  46  70
ATOM     70  C   UNL A   1      42.688  25.126  27.886  1.00  0.00     0.023 A 
ATOM     71  C   UNL A   1      41.682  24.247  28.334  1.00  0.00     0.012 A 
ATOM     72  C   UNL A   1      43.628  24.640  26.949  1.00  0.00     0.148 A 
ATOM     73  C   UNL A   1      41.594  22.940  27.840  1.00  0.00     0.002 A 
ATOM     74  C   UNL A   1      43.547  23.334  26.475  1.00  0.00     0.091 A 
ATOM     75  F   UNL A   1      44.544  25.482  26.453  1.00  0.00    -0.205 F 
ATOM     76  C   UNL A   1      42.522  22.485  26.908  1.00  0.00     0.022 A 
BRANCH  74  77
ATOM     77  S   UNL A   1      44.714  22.679  25.274  1.00  0.00     0.127 S 
ATOM     78  O   UNL A   1      45.935  22.555  26.070  1.00  0.00    -0.237 OA
ATOM     79  O   UNL A   1      44.093  21.410  24.906  1.00  0.00    -0.237 OA
ATOM     80  O   UNL A   1      44.796  23.677  24.214  1.00  0.00    -0.744 OA
ENDBRANCH  74  77
ENDBRANCH  46  70
BRANCH  58  81
ATOM     81  C   UNL A   1      44.787  31.016  28.570  1.00  0.00     0.023 A 
ATOM     82  C   UNL A   1      43.866  31.442  27.591  1.00  0.00     0.012 A 
ATOM     83  C   UNL A   1      46.151  31.312  28.396  1.00  0.00     0.148 A 
ATOM     84  C   UNL A   1      44.300  32.122  26.451  1.00  0.00     0.002 A 
ATOM     85  C   UNL A   1      46.572  32.033  27.286  1.00  0.00     0.091 A 
ATOM     86  F   UNL A   1      47.015  30.902  29.338  1.00  0.00    -0.205 F 
ATOM     87  C   UNL A   1      45.651  32.429  26.304  1.00  0.00     0.022 A 
BRANCH  85  88
ATOM     88  S   UNL A   1      48.274  32.572  27.112  1.00  0.00     0.127 S 
ATOM     89  O   UNL A   1      48.969  31.313  26.851  1.00  0.00    -0.237 OA
ATOM     90  O   UNL A   1      48.204  33.481  25.966  1.00  0.00    -0.237 OA
ATOM     91  O   UNL A   1      48.613  33.230  28.369  1.00  0.00    -0.744 OA
ENDBRANCH  85  88
ENDBRANCH  58  81
ENDBRANCH  32  33
ENDBRANCH  25  27
ENDBRANCH  24  25
ENDBRANCH   1  24
TORSDOF 18
ENDMDL
MODEL 3
REMARK VINA RESULT:     -10.9      5.008     10.530
REMARK SMILES CCCc1c(C(=O)OCCOC(=O)c2ccc(-c3c4nc(c(-c5cccc(S(=O)(=O)[O-])c5F)c5ccc([nH]5)c(-c5cccc(S(=O)(=O)[O-])c5F)c5nc(c(-c6cccc(S(=O)(=O)[O-])c6F)c6ccc3[nH]6)C=C5)C=C4)cc2)nnn1-c1cccc(C(F)(F)F)c1
REMARK SMILES IDX 10 1 9 2 8 3 6 4 7 5 5 6 4 7 79 8 77 9 78 10 3 11 2 12 1 13
REMARK SMILES IDX 80 14 81 15 89 16 82 17 84 18 83 19 85 20 86 21 87 22 88 23
REMARK SMILES IDX 11 24 12 25 13 26 14 27 15 28 76 29 16 30 75 31 17 32 18 33
REMARK SMILES IDX 19 34 69 35 20 36 74 37 68 38 70 39 21 40 73 41 67 42 66 43
REMARK SMILES IDX 22 45 54 46 34 47 53 48 35 49 38 50 52 51 71 52 36 53 37 54
REMARK SMILES IDX 51 56 72 57 39 58 23 59 24 60 32 61 25 62 27 63 33 64 26 65
REMARK SMILES IDX 28 66 29 67 30 68 31 69 55 70 56 71 64 72 57 73 59 74 65 75
REMARK SMILES IDX 58 76 60 77 61 78 62 79 63 80 40 81 41 82 49 83 42 84 44 85
REMARK SMILES IDX 50 86 43 87 45 88 46 89 47 90 48 91
REMARK H PARENT 70 44 38 55
REMARK Flexibility Score: inf
ROOT
ATOM      1  C   UNL A   1      36.791  21.622  24.928  1.00  0.00     0.275 C 
ENDROOT
BRANCH   1   2
ATOM      2  C   UNL A   1      35.616  20.781  25.408  1.00  0.00     0.275 C 
BRANCH   2   3
ATOM      3  O   UNL A   1      34.820  21.507  26.356  1.00  0.00    -0.457 OA
BRANCH   3   4
ATOM      4  C   UNL A   1      33.472  21.551  26.113  1.00  0.00     0.360 C 
ATOM      5  O   UNL A   1      32.808  20.563  25.807  1.00  0.00    -0.244 OA
BRANCH   4   6
ATOM      6  C   UNL A   1      32.904  22.878  26.300  1.00  0.00     0.194 A 
ATOM      7  C   UNL A   1      33.317  24.111  25.803  1.00  0.00     0.079 A 
ATOM      8  N   UNL A   1      32.384  24.995  26.325  1.00  0.00    -0.217 N 
ATOM      9  N   UNL A   1      31.832  23.074  27.143  1.00  0.00    -0.122 NA
ATOM     10  N   UNL A   1      31.599  24.374  27.228  1.00  0.00    -0.061 NA
BRANCH   7  11
ATOM     11  C   UNL A   1      34.494  24.511  24.973  1.00  0.00     0.059 C 
BRANCH  11  12
ATOM     12  C   UNL A   1      34.219  24.534  23.463  1.00  0.00     0.003 C 
ATOM     13  C   UNL A   1      33.973  23.164  22.850  1.00  0.00     0.004 C 
ENDBRANCH  11  12
ENDBRANCH   7  11
BRANCH   8  14
ATOM     14  C   UNL A   1      32.069  26.310  25.923  1.00  0.00     0.067 A 
ATOM     15  C   UNL A   1      32.467  27.389  26.716  1.00  0.00     0.028 A 
ATOM     16  C   UNL A   1      31.261  26.516  24.798  1.00  0.00     0.041 A 
ATOM     17  C   UNL A   1      32.113  28.686  26.340  1.00  0.00     0.003 A 
ATOM     18  C   UNL A   1      30.854  27.812  24.448  1.00  0.00     0.058 A 
ATOM     19  C   UNL A   1      31.312  28.896  25.216  1.00  0.00     0.013 A 
BRANCH  18  20
ATOM     20  C   UNL A   1      29.911  28.040  23.295  1.00  0.00     0.416 C 
ATOM     21  F   UNL A   1      30.395  27.558  22.117  1.00  0.00    -0.166 F 
ATOM     22  F   UNL A   1      28.703  27.436  23.478  1.00  0.00    -0.166 F 
ATOM     23  F   UNL A   1      29.636  29.356  23.070  1.00  0.00    -0.166 F 
ENDBRANCH  18  20
ENDBRANCH   8  14
ENDBRANCH   4   6
ENDBRANCH   3   4
ENDBRANCH   2   3
ENDBRANCH   1   2
BRANCH   1  24
ATOM     24  O   UNL A   1      37.402  22.338  26.001  1.00  0.00    -0.458 OA
BRANCH  24  25
ATOM     25  C   UNL A   1      38.699  22.025  26.215  1.00  0.00     0.338 C 
ATOM     26  O   UNL A   1      39.169  20.905  26.316  1.00  0.00    -0.246 OA
BRANCH  25  27
ATOM     27  C   UNL A   1      39.451  23.223  26.583  1.00  0.00     0.060 A 
ATOM     28  C   UNL A   1      40.607  23.052  27.352  1.00  0.00     0.016 A 
ATOM     29  C   UNL A   1      38.868  24.481  26.388  1.00  0.00     0.016 A 
ATOM     30  C   UNL A   1      41.130  24.144  28.014  1.00  0.00     0.010 A 
ATOM     31  C   UNL A   1      39.378  25.563  27.064  1.00  0.00     0.010 A 
ATOM     32  C   UNL A   1      40.477  25.375  27.900  1.00  0.00    -0.014 A 
BRANCH  32  33
ATOM     33  C   UNL A   1      41.064  26.526  28.554  1.00  0.00     0.031 A 
ATOM     34  C   UNL A   1      42.424  26.846  28.061  1.00  0.00     0.074 A 
ATOM     35  C   UNL A   1      40.357  27.324  29.374  1.00  0.00     0.049 A 
ATOM     36  N   UNL A   1      43.534  26.836  28.723  1.00  0.00    -0.248 NA
ATOM     37  C   UNL A   1      42.591  27.040  26.611  1.00  0.00     0.031 C 
ATOM     38  C   UNL A   1      38.916  27.258  29.636  1.00  0.00     0.029 A 
ATOM     39  N   UNL A   1      40.743  28.467  30.006  1.00  0.00    -0.354 N 
ATOM     40  C   UNL A   1      44.497  27.275  27.815  1.00  0.00     0.074 A 
ATOM     41  C   UNL A   1      43.914  27.144  26.511  1.00  0.00     0.031 C 
ATOM     42  C   UNL A   1      38.511  28.440  30.149  1.00  0.00     0.029 A 
ATOM     43  C   UNL A   1      39.674  29.285  30.355  1.00  0.00     0.049 A 
ATOM     44  H   UNL A   1      41.682  28.690  30.196  1.00  0.00     0.167 HD
ATOM     45  C   UNL A   1      45.563  28.011  28.233  1.00  0.00     0.034 A 
ATOM     46  C   UNL A   1      39.742  30.596  30.687  1.00  0.00     0.034 A 
ATOM     47  C   UNL A   1      45.770  27.865  29.654  1.00  0.00     0.049 A 
ATOM     48  C   UNL A   1      41.142  30.891  31.068  1.00  0.00     0.074 A 
ATOM     49  C   UNL A   1      45.994  26.814  30.519  1.00  0.00     0.029 A 
ATOM     50  N   UNL A   1      45.396  28.932  30.433  1.00  0.00    -0.354 N 
ATOM     51  N   UNL A   1      41.721  30.420  32.137  1.00  0.00    -0.248 NA
ATOM     52  C   UNL A   1      42.037  31.441  30.063  1.00  0.00     0.031 C 
ATOM     53  C   UNL A   1      45.360  27.189  31.741  1.00  0.00     0.029 A 
ATOM     54  C   UNL A   1      44.811  28.462  31.572  1.00  0.00     0.049 A 
ATOM     55  H   UNL A   1      45.530  29.881  30.205  1.00  0.00     0.167 HD
ATOM     56  C   UNL A   1      43.035  30.200  31.748  1.00  0.00     0.074 A 
ATOM     57  C   UNL A   1      43.203  30.991  30.533  1.00  0.00     0.031 C 
ATOM     58  C   UNL A   1      43.756  29.165  32.272  1.00  0.00     0.034 A 
BRANCH  45  59
ATOM     59  C   UNL A   1      46.115  29.217  27.483  1.00  0.00     0.023 A 
ATOM     60  C   UNL A   1      47.521  29.380  27.508  1.00  0.00     0.012 A 
ATOM     61  C   UNL A   1      45.358  30.338  27.064  1.00  0.00     0.148 A 
ATOM     62  C   UNL A   1      48.125  30.617  27.264  1.00  0.00     0.002 A 
ATOM     63  C   UNL A   1      45.968  31.549  26.757  1.00  0.00     0.091 A 
ATOM     64  F   UNL A   1      44.026  30.301  27.062  1.00  0.00    -0.205 F 
ATOM     65  C   UNL A   1      47.347  31.706  26.897  1.00  0.00     0.022 A 
BRANCH  63  66
ATOM     66  S   UNL A   1      45.008  32.983  26.249  1.00  0.00     0.127 S 
ATOM     67  O   UNL A   1      44.064  33.103  27.355  1.00  0.00    -0.237 OA
ATOM     68  O   UNL A   1      46.036  34.023  26.192  1.00  0.00    -0.237 OA
ATOM     69  O   UNL A   1      44.438  32.638  24.952  1.00  0.00    -0.744 OA
ENDBRANCH  63  66
ENDBRANCH  45  59
BRANCH  46  70
ATOM     70  C   UNL A   1      38.741  31.671  30.495  1.00  0.00     0.023 A 
ATOM     71  C   UNL A   1      38.212  31.900  29.209  1.00  0.00     0.012 A 
ATOM     72  C   UNL A   1      38.114  32.302  31.594  1.00  0.00     0.148 A 
ATOM     73  C   UNL A   1      37.079  32.700  29.027  1.00  0.00     0.002 A 
ATOM     74  C   UNL A   1      36.999  33.111  31.406  1.00  0.00     0.091 A 
ATOM     75  F   UNL A   1      38.554  32.035  32.830  1.00  0.00    -0.205 F 
ATOM     76  C   UNL A   1      36.468  33.302  30.124  1.00  0.00     0.022 A 
BRANCH  74  77
ATOM     77  S   UNL A   1      36.163  33.922  32.776  1.00  0.00     0.127 S 
ATOM     78  O   UNL A   1      35.098  34.657  32.093  1.00  0.00    -0.237 OA
ATOM     79  O   UNL A   1      35.709  32.786  33.572  1.00  0.00    -0.237 OA
ATOM     80  O   UNL A   1      37.165  34.776  33.403  1.00  0.00    -0.744 OA
ENDBRANCH  74  77
ENDBRANCH  46  70
BRANCH  58  81
ATOM     81  C   UNL A   1      43.255  28.521  33.538  1.00  0.00     0.023 A 
ATOM     82  C   UNL A   1      42.224  27.560  33.541  1.00  0.00     0.012 A 
ATOM     83  C   UNL A   1      43.951  28.776  34.733  1.00  0.00     0.148 A 
ATOM     84  C   UNL A   1      41.875  26.890  34.715  1.00  0.00     0.002 A 
ATOM     85  C   UNL A   1      43.635  28.071  35.888  1.00  0.00     0.091 A 
ATOM     86  F   UNL A   1      44.932  29.692  34.715  1.00  0.00    -0.205 F 
ATOM     87  C   UNL A   1      42.590  27.135  35.886  1.00  0.00     0.022 A 
BRANCH  85  88
ATOM     88  S   UNL A   1      44.606  28.247  37.386  1.00  0.00     0.127 S 
ATOM     89  O   UNL A   1      44.048  27.199  38.238  1.00  0.00    -0.237 OA
ATOM     90  O   UNL A   1      45.968  27.990  36.913  1.00  0.00    -0.237 OA
ATOM     91  O   UNL A   1      44.387  29.615  37.843  1.00  0.00    -0.744 OA
ENDBRANCH  85  88
ENDBRANCH  58  81
ENDBRANCH  32  33
ENDBRANCH  25  27
ENDBRANCH  24  25
ENDBRANCH   1  24
TORSDOF 18
ENDMDL
