MODEL 1
REMARK VINA RESULT:     -10.5      0.000      0.000
REMARK SMILES COc1nc(Cl)nc(N(CC(=O)OCCOC(=O)c2ccc(-c3c4nc(c(-c5cccc(S(=O)(=O)[O-])c5F)c5ccc([nH]5)c(-c5cccc(S(=O)(=O)[O-])c5F)c5nc(c(-c6cccc(S(=O)(=O)[O-])c6F)c6ccc3[nH]6)C=C5)C=C4)cc2)C(C)(C)C)n1
REMARK SMILES IDX 14 1 13 2 11 3 12 4 10 5 9 6 8 7 3 8 4 9 86 10 5 11 6 12
REMARK SMILES IDX 7 13 2 14 1 15 82 16 83 17 84 18 85 19 15 20 16 21 17 22
REMARK SMILES IDX 18 23 19 24 20 25 81 26 21 27 80 28 22 29 23 30 24 31 74 32
REMARK SMILES IDX 25 33 79 34 73 35 75 36 26 37 78 38 72 39 71 40 27 42 59 43
REMARK SMILES IDX 39 44 58 45 40 46 43 47 57 48 76 49 41 50 42 51 56 53 77 54
REMARK SMILES IDX 44 55 28 56 29 57 37 58 30 59 32 60 38 61 31 62 33 63 34 64
REMARK SMILES IDX 35 65 36 66 60 67 61 68 69 69 62 70 64 71 70 72 63 73 65 74
REMARK SMILES IDX 66 75 67 76 68 77 45 78 46 79 54 80 47 81 49 82 55 83 48 84
REMARK SMILES IDX 50 85 51 86 52 87 53 88
REMARK H PARENT 75 41 43 52
REMARK Flexibility Score: inf
ROOT
ATOM      1  C   UNL A   1      31.364  28.789  25.033  1.00  0.00     0.274 C 
ENDROOT
BRANCH   1   2
ATOM      2  O   UNL A   1      32.068  27.642  25.556  1.00  0.00    -0.461 OA
BRANCH   2   3
ATOM      3  C   UNL A   1      31.293  26.564  25.867  1.00  0.00     0.325 C 
ATOM      4  O   UNL A   1      30.753  26.389  26.956  1.00  0.00    -0.250 OA
BRANCH   3   5
ATOM      5  C   UNL A   1      31.014  25.659  24.669  1.00  0.00     0.242 C 
BRANCH   5   6
ATOM      6  N   UNL A   1      32.204  25.144  23.969  1.00  0.00    -0.325 N 
BRANCH   6   7
ATOM      7  C   UNL A   1      32.844  24.095  24.618  1.00  0.00     0.233 A 
ATOM      8  C   UNL A   1      34.648  23.233  25.668  1.00  0.00     0.322 A 
ATOM      9  N   UNL A   1      34.220  21.987  25.646  1.00  0.00    -0.164 NA
ATOM     10  N   UNL A   1      34.014  24.301  25.203  1.00  0.00    -0.158 NA
ATOM     11  C   UNL A   1      33.024  21.907  25.096  1.00  0.00     0.230 A 
ATOM     12  Cl  UNL A   1      32.365  20.336  24.966  1.00  0.00    -0.041 Cl
ATOM     13  N   UNL A   1      32.295  22.887  24.574  1.00  0.00    -0.182 NA
BRANCH   8  14
ATOM     14  O   UNL A   1      35.898  23.461  26.194  1.00  0.00    -0.467 OA
ATOM     15  C   UNL A   1      36.824  23.525  25.116  1.00  0.00     0.282 C 
ENDBRANCH   8  14
ENDBRANCH   6   7
BRANCH   6  16
ATOM     16  C   UNL A   1      32.598  25.596  22.603  1.00  0.00     0.035 C 
ATOM     17  C   UNL A   1      33.697  26.673  22.691  1.00  0.00     0.034 C 
ATOM     18  C   UNL A   1      33.055  24.404  21.735  1.00  0.00     0.034 C 
ATOM     19  C   UNL A   1      31.431  26.241  21.825  1.00  0.00     0.034 C 
ENDBRANCH   6  16
ENDBRANCH   5   6
ENDBRANCH   3   5
ENDBRANCH   2   3
ENDBRANCH   1   2
BRANCH   1  20
ATOM     20  C   UNL A   1      32.177  30.055  25.292  1.00  0.00     0.275 C 
BRANCH  20  21
ATOM     21  O   UNL A   1      32.343  30.231  26.709  1.00  0.00    -0.458 OA
BRANCH  21  22
ATOM     22  C   UNL A   1      32.889  31.411  27.091  1.00  0.00     0.338 C 
ATOM     23  O   UNL A   1      32.393  32.518  26.969  1.00  0.00    -0.246 OA
BRANCH  22  24
ATOM     24  C   UNL A   1      34.206  31.186  27.732  1.00  0.00     0.060 A 
ATOM     25  C   UNL A   1      35.125  32.226  27.906  1.00  0.00     0.016 A 
ATOM     26  C   UNL A   1      34.554  29.882  28.088  1.00  0.00     0.016 A 
ATOM     27  C   UNL A   1      36.405  31.952  28.394  1.00  0.00     0.010 A 
ATOM     28  C   UNL A   1      35.799  29.629  28.667  1.00  0.00     0.010 A 
ATOM     29  C   UNL A   1      36.740  30.659  28.823  1.00  0.00    -0.014 A 
BRANCH  29  30
ATOM     30  C   UNL A   1      38.018  30.383  29.536  1.00  0.00     0.031 A 
ATOM     31  C   UNL A   1      39.043  29.443  28.961  1.00  0.00     0.074 A 
ATOM     32  C   UNL A   1      38.202  30.900  30.768  1.00  0.00     0.049 A 
ATOM     33  N   UNL A   1      40.100  28.927  29.534  1.00  0.00    -0.248 NA
ATOM     34  C   UNL A   1      38.850  29.019  27.565  1.00  0.00     0.031 C 
ATOM     35  C   UNL A   1      37.278  31.809  31.450  1.00  0.00     0.029 A 
ATOM     36  N   UNL A   1      39.208  30.707  31.682  1.00  0.00    -0.354 N 
ATOM     37  C   UNL A   1      40.670  28.079  28.591  1.00  0.00     0.074 A 
ATOM     38  C   UNL A   1      39.843  28.152  27.405  1.00  0.00     0.031 C 
ATOM     39  C   UNL A   1      37.758  32.097  32.667  1.00  0.00     0.029 A 
ATOM     40  C   UNL A   1      38.983  31.337  32.884  1.00  0.00     0.049 A 
ATOM     41  H   UNL A   1      40.013  30.171  31.495  1.00  0.00     0.167 HD
ATOM     42  C   UNL A   1      41.787  27.319  28.701  1.00  0.00     0.034 A 
ATOM     43  C   UNL A   1      39.653  31.281  34.051  1.00  0.00     0.034 A 
ATOM     44  C   UNL A   1      42.634  27.284  29.865  1.00  0.00     0.049 A 
ATOM     45  C   UNL A   1      40.869  30.410  34.155  1.00  0.00     0.074 A 
ATOM     46  C   UNL A   1      43.822  26.595  30.045  1.00  0.00     0.029 A 
ATOM     47  N   UNL A   1      42.387  27.964  31.048  1.00  0.00    -0.354 N 
ATOM     48  N   UNL A   1      41.438  29.679  33.228  1.00  0.00    -0.248 NA
ATOM     49  C   UNL A   1      41.538  30.360  35.462  1.00  0.00     0.031 C 
ATOM     50  C   UNL A   1      44.287  26.851  31.340  1.00  0.00     0.029 A 
ATOM     51  C   UNL A   1      43.391  27.703  31.966  1.00  0.00     0.049 A 
ATOM     52  H   UNL A   1      41.610  28.546  31.212  1.00  0.00     0.167 HD
ATOM     53  C   UNL A   1      42.542  29.093  33.834  1.00  0.00     0.074 A 
ATOM     54  C   UNL A   1      42.576  29.575  35.201  1.00  0.00     0.031 C 
ATOM     55  C   UNL A   1      43.435  28.218  33.310  1.00  0.00     0.034 A 
BRANCH  42  56
ATOM     56  C   UNL A   1      42.195  26.494  27.510  1.00  0.00     0.023 A 
ATOM     57  C   UNL A   1      42.970  27.087  26.493  1.00  0.00     0.012 A 
ATOM     58  C   UNL A   1      41.879  25.123  27.426  1.00  0.00     0.148 A 
ATOM     59  C   UNL A   1      43.407  26.335  25.403  1.00  0.00     0.002 A 
ATOM     60  C   UNL A   1      42.345  24.373  26.351  1.00  0.00     0.091 A 
ATOM     61  F   UNL A   1      41.117  24.580  28.386  1.00  0.00    -0.205 F 
ATOM     62  C   UNL A   1      43.105  24.978  25.337  1.00  0.00     0.022 A 
BRANCH  60  63
ATOM     63  S   UNL A   1      42.055  22.604  26.230  1.00  0.00     0.127 S 
ATOM     64  O   UNL A   1      42.747  22.274  24.986  1.00  0.00    -0.237 OA
ATOM     65  O   UNL A   1      42.701  22.091  27.439  1.00  0.00    -0.237 OA
ATOM     66  O   UNL A   1      40.606  22.449  26.215  1.00  0.00    -0.744 OA
ENDBRANCH  60  63
ENDBRANCH  42  56
BRANCH  43  67
ATOM     67  C   UNL A   1      39.187  32.108  35.198  1.00  0.00     0.023 A 
ATOM     68  C   UNL A   1      38.338  31.526  36.157  1.00  0.00     0.012 A 
ATOM     69  C   UNL A   1      39.651  33.424  35.394  1.00  0.00     0.148 A 
ATOM     70  C   UNL A   1      37.956  32.241  37.292  1.00  0.00     0.002 A 
ATOM     71  C   UNL A   1      39.314  34.109  36.555  1.00  0.00     0.091 A 
ATOM     72  F   UNL A   1      40.440  33.968  34.457  1.00  0.00    -0.205 F 
ATOM     73  C   UNL A   1      38.457  33.525  37.501  1.00  0.00     0.022 A 
BRANCH  71  74
ATOM     74  S   UNL A   1      40.044  35.698  36.969  1.00  0.00     0.127 S 
ATOM     75  O   UNL A   1      39.650  36.515  35.826  1.00  0.00    -0.237 OA
ATOM     76  O   UNL A   1      39.369  36.029  38.226  1.00  0.00    -0.237 OA
ATOM     77  O   UNL A   1      41.471  35.442  37.112  1.00  0.00    -0.744 OA
ENDBRANCH  71  74
ENDBRANCH  43  67
BRANCH  55  78
ATOM     78  C   UNL A   1      44.529  27.725  34.217  1.00  0.00     0.023 A 
ATOM     79  C   UNL A   1      45.727  28.460  34.312  1.00  0.00     0.012 A 
ATOM     80  C   UNL A   1      44.354  26.575  35.010  1.00  0.00     0.148 A 
ATOM     81  C   UNL A   1      46.746  28.043  35.168  1.00  0.00     0.002 A 
ATOM     82  C   UNL A   1      45.360  26.187  35.887  1.00  0.00     0.091 A 
ATOM     83  F   UNL A   1      43.215  25.878  34.885  1.00  0.00    -0.205 F 
ATOM     84  C   UNL A   1      46.559  26.915  35.962  1.00  0.00     0.022 A 
BRANCH  82  85
ATOM     85  S   UNL A   1      45.174  24.788  37.000  1.00  0.00     0.127 S 
ATOM     86  O   UNL A   1      44.107  25.251  37.885  1.00  0.00    -0.237 OA
ATOM     87  O   UNL A   1      44.786  23.710  36.089  1.00  0.00    -0.237 OA
ATOM     88  O   UNL A   1      46.475  24.605  37.628  1.00  0.00    -0.744 OA
ENDBRANCH  82  85
ENDBRANCH  55  78
ENDBRANCH  29  30
ENDBRANCH  22  24
ENDBRANCH  21  22
ENDBRANCH  20  21
ENDBRANCH   1  20
TORSDOF 18
ENDMDL
MODEL 2
REMARK VINA RESULT:     -10.1      5.248     10.012
REMARK SMILES COc1nc(Cl)nc(N(CC(=O)OCCOC(=O)c2ccc(-c3c4nc(c(-c5cccc(S(=O)(=O)[O-])c5F)c5ccc([nH]5)c(-c5cccc(S(=O)(=O)[O-])c5F)c5nc(c(-c6cccc(S(=O)(=O)[O-])c6F)c6ccc3[nH]6)C=C5)C=C4)cc2)C(C)(C)C)n1
REMARK SMILES IDX 14 1 13 2 11 3 12 4 10 5 9 6 8 7 3 8 4 9 86 10 5 11 6 12
REMARK SMILES IDX 7 13 2 14 1 15 82 16 83 17 84 18 85 19 15 20 16 21 17 22
REMARK SMILES IDX 18 23 19 24 20 25 81 26 21 27 80 28 22 29 23 30 24 31 74 32
REMARK SMILES IDX 25 33 79 34 73 35 75 36 26 37 78 38 72 39 71 40 27 42 59 43
REMARK SMILES IDX 39 44 58 45 40 46 43 47 57 48 76 49 41 50 42 51 56 53 77 54
REMARK SMILES IDX 44 55 28 56 29 57 37 58 30 59 32 60 38 61 31 62 33 63 34 64
REMARK SMILES IDX 35 65 36 66 60 67 61 68 69 69 62 70 64 71 70 72 63 73 65 74
REMARK SMILES IDX 66 75 67 76 68 77 45 78 46 79 54 80 47 81 49 82 55 83 48 84
REMARK SMILES IDX 50 85 51 86 52 87 53 88
REMARK H PARENT 75 41 43 52
REMARK Flexibility Score: inf
ROOT
ATOM      1  C   UNL A   1      35.911  22.158  24.014  1.00  0.00     0.274 C 
ENDROOT
BRANCH   1   2
ATOM      2  O   UNL A   1      34.724  22.572  24.723  1.00  0.00    -0.461 OA
BRANCH   2   3
ATOM      3  C   UNL A   1      34.328  23.860  24.512  1.00  0.00     0.325 C 
ATOM      4  O   UNL A   1      34.288  24.402  23.411  1.00  0.00    -0.250 OA
BRANCH   3   5
ATOM      5  C   UNL A   1      33.769  24.530  25.766  1.00  0.00     0.242 C 
BRANCH   5   6
ATOM      6  N   UNL A   1      32.523  25.293  25.579  1.00  0.00    -0.325 N 
BRANCH   6   7
ATOM      7  C   UNL A   1      32.709  26.650  25.342  1.00  0.00     0.233 A 
ATOM      8  C   UNL A   1      32.661  28.435  23.961  1.00  0.00     0.322 A 
ATOM      9  N   UNL A   1      33.320  29.237  24.772  1.00  0.00    -0.164 NA
ATOM     10  N   UNL A   1      32.317  27.175  24.192  1.00  0.00    -0.158 NA
ATOM     11  C   UNL A   1      33.607  28.630  25.907  1.00  0.00     0.230 A 
ATOM     12  Cl  UNL A   1      34.500  29.546  27.039  1.00  0.00    -0.041 Cl
ATOM     13  N   UNL A   1      33.344  27.375  26.255  1.00  0.00    -0.182 NA
BRANCH   8  14
ATOM     14  O   UNL A   1      32.316  28.932  22.726  1.00  0.00    -0.467 OA
ATOM     15  C   UNL A   1      30.895  28.982  22.653  1.00  0.00     0.282 C 
ENDBRANCH   8  14
ENDBRANCH   6   7
BRANCH   6  16
ATOM     16  C   UNL A   1      31.183  24.644  25.486  1.00  0.00     0.035 C 
ATOM     17  C   UNL A   1      31.166  23.331  26.293  1.00  0.00     0.034 C 
ATOM     18  C   UNL A   1      30.069  25.603  25.959  1.00  0.00     0.034 C 
ATOM     19  C   UNL A   1      30.802  24.259  24.040  1.00  0.00     0.034 C 
ENDBRANCH   6  16
ENDBRANCH   5   6
ENDBRANCH   3   5
ENDBRANCH   2   3
ENDBRANCH   1   2
BRANCH   1  20
ATOM     20  C   UNL A   1      36.823  21.369  24.950  1.00  0.00     0.275 C 
BRANCH  20  21
ATOM     21  O   UNL A   1      38.128  21.970  24.958  1.00  0.00    -0.458 OA
BRANCH  21  22
ATOM     22  C   UNL A   1      38.919  21.638  26.008  1.00  0.00     0.338 C 
ATOM     23  O   UNL A   1      39.128  20.515  26.436  1.00  0.00    -0.246 OA
BRANCH  22  24
ATOM     24  C   UNL A   1      39.549  22.848  26.582  1.00  0.00     0.060 A 
ATOM     25  C   UNL A   1      40.533  22.764  27.574  1.00  0.00     0.016 A 
ATOM     26  C   UNL A   1      39.080  24.097  26.173  1.00  0.00     0.016 A 
ATOM     27  C   UNL A   1      41.011  23.926  28.184  1.00  0.00     0.010 A 
ATOM     28  C   UNL A   1      39.631  25.259  26.715  1.00  0.00     0.010 A 
ATOM     29  C   UNL A   1      40.599  25.188  27.729  1.00  0.00    -0.014 A 
BRANCH  29  30
ATOM     30  C   UNL A   1      41.244  26.439  28.217  1.00  0.00     0.031 A 
ATOM     31  C   UNL A   1      40.441  27.514  28.897  1.00  0.00     0.074 A 
ATOM     32  C   UNL A   1      42.547  26.652  27.940  1.00  0.00     0.049 A 
ATOM     33  N   UNL A   1      40.789  28.741  29.190  1.00  0.00    -0.248 NA
ATOM     34  C   UNL A   1      39.064  27.172  29.288  1.00  0.00     0.031 C 
ATOM     35  C   UNL A   1      43.435  25.699  27.269  1.00  0.00     0.029 A 
ATOM     36  N   UNL A   1      43.343  27.749  28.155  1.00  0.00    -0.354 N 
ATOM     37  C   UNL A   1      39.664  29.335  29.751  1.00  0.00     0.074 A 
ATOM     38  C   UNL A   1      38.621  28.331  29.762  1.00  0.00     0.031 C 
ATOM     39  C   UNL A   1      44.649  26.249  27.130  1.00  0.00     0.029 A 
ATOM     40  C   UNL A   1      44.608  27.617  27.631  1.00  0.00     0.049 A 
ATOM     41  H   UNL A   1      43.039  28.552  28.636  1.00  0.00     0.167 HD
ATOM     42  C   UNL A   1      39.520  30.596  30.226  1.00  0.00     0.034 A 
ATOM     43  C   UNL A   1      45.615  28.503  27.518  1.00  0.00     0.034 A 
ATOM     44  C   UNL A   1      40.572  31.578  30.257  1.00  0.00     0.049 A 
ATOM     45  C   UNL A   1      45.420  29.901  28.024  1.00  0.00     0.074 A 
ATOM     46  C   UNL A   1      40.538  32.860  30.778  1.00  0.00     0.029 A 
ATOM     47  N   UNL A   1      41.848  31.390  29.747  1.00  0.00    -0.354 N 
ATOM     48  N   UNL A   1      44.377  30.419  28.625  1.00  0.00    -0.248 NA
ATOM     49  C   UNL A   1      46.539  30.835  27.843  1.00  0.00     0.031 C 
ATOM     50  C   UNL A   1      41.791  33.451  30.574  1.00  0.00     0.029 A 
ATOM     51  C   UNL A   1      42.607  32.535  29.930  1.00  0.00     0.049 A 
ATOM     52  H   UNL A   1      42.168  30.565  29.317  1.00  0.00     0.167 HD
ATOM     53  C   UNL A   1      44.719  31.735  28.909  1.00  0.00     0.074 A 
ATOM     54  C   UNL A   1      46.075  31.927  28.436  1.00  0.00     0.031 C 
ATOM     55  C   UNL A   1      43.968  32.703  29.490  1.00  0.00     0.034 A 
BRANCH  42  56
ATOM     56  C   UNL A   1      38.182  30.980  30.801  1.00  0.00     0.023 A 
ATOM     57  C   UNL A   1      37.890  30.658  32.142  1.00  0.00     0.012 A 
ATOM     58  C   UNL A   1      37.248  31.720  30.049  1.00  0.00     0.148 A 
ATOM     59  C   UNL A   1      36.682  31.046  32.719  1.00  0.00     0.002 A 
ATOM     60  C   UNL A   1      36.057  32.130  30.642  1.00  0.00     0.091 A 
ATOM     61  F   UNL A   1      37.527  31.994  28.767  1.00  0.00    -0.205 F 
ATOM     62  C   UNL A   1      35.771  31.791  31.973  1.00  0.00     0.022 A 
BRANCH  60  63
ATOM     63  S   UNL A   1      34.863  33.150  29.768  1.00  0.00     0.127 S 
ATOM     64  O   UNL A   1      34.122  32.150  29.004  1.00  0.00    -0.237 OA
ATOM     65  O   UNL A   1      34.107  33.763  30.861  1.00  0.00    -0.237 OA
ATOM     66  O   UNL A   1      35.655  34.091  28.987  1.00  0.00    -0.744 OA
ENDBRANCH  60  63
ENDBRANCH  42  56
BRANCH  43  67
ATOM     67  C   UNL A   1      46.908  28.065  26.923  1.00  0.00     0.023 A 
ATOM     68  C   UNL A   1      47.890  27.509  27.762  1.00  0.00     0.012 A 
ATOM     69  C   UNL A   1      47.131  28.108  25.533  1.00  0.00     0.148 A 
ATOM     70  C   UNL A   1      49.076  27.004  27.228  1.00  0.00     0.002 A 
ATOM     71  C   UNL A   1      48.288  27.550  25.002  1.00  0.00     0.091 A 
ATOM     72  F   UNL A   1      46.193  28.664  24.753  1.00  0.00    -0.205 F 
ATOM     73  C   UNL A   1      49.267  27.008  25.847  1.00  0.00     0.022 A 
BRANCH  71  74
ATOM     74  S   UNL A   1      48.534  27.375  23.230  1.00  0.00     0.127 S 
ATOM     75  O   UNL A   1      48.439  25.929  23.056  1.00  0.00    -0.237 OA
ATOM     76  O   UNL A   1      47.409  28.137  22.686  1.00  0.00    -0.237 OA
ATOM     77  O   UNL A   1      49.837  27.968  22.960  1.00  0.00    -0.744 OA
ENDBRANCH  71  74
ENDBRANCH  43  67
BRANCH  55  78
ATOM     78  C   UNL A   1      44.597  34.059  29.650  1.00  0.00     0.023 A 
ATOM     79  C   UNL A   1      45.286  34.361  30.840  1.00  0.00     0.012 A 
ATOM     80  C   UNL A   1      44.555  35.009  28.612  1.00  0.00     0.148 A 
ATOM     81  C   UNL A   1      45.906  35.600  31.004  1.00  0.00     0.002 A 
ATOM     82  C   UNL A   1      45.205  36.227  28.768  1.00  0.00     0.091 A 
ATOM     83  F   UNL A   1      43.872  34.708  27.497  1.00  0.00    -0.205 F 
ATOM     84  C   UNL A   1      45.874  36.528  29.966  1.00  0.00     0.022 A 
BRANCH  82  85
ATOM     85  S   UNL A   1      45.278  37.451  27.454  1.00  0.00     0.127 S 
ATOM     86  O   UNL A   1      46.006  36.728  26.414  1.00  0.00    -0.237 OA
ATOM     87  O   UNL A   1      43.862  37.681  27.160  1.00  0.00    -0.237 OA
ATOM     88  O   UNL A   1      45.967  38.601  28.021  1.00  0.00    -0.744 OA
ENDBRANCH  82  85
ENDBRANCH  55  78
ENDBRANCH  29  30
ENDBRANCH  22  24
ENDBRANCH  21  22
ENDBRANCH  20  21
ENDBRANCH   1  20
TORSDOF 18
ENDMDL
MODEL 3
REMARK VINA RESULT:     -10.0      1.976      2.772
REMARK SMILES COc1nc(Cl)nc(N(CC(=O)OCCOC(=O)c2ccc(-c3c4nc(c(-c5cccc(S(=O)(=O)[O-])c5F)c5ccc([nH]5)c(-c5cccc(S(=O)(=O)[O-])c5F)c5nc(c(-c6cccc(S(=O)(=O)[O-])c6F)c6ccc3[nH]6)C=C5)C=C4)cc2)C(C)(C)C)n1
REMARK SMILES IDX 14 1 13 2 11 3 12 4 10 5 9 6 8 7 3 8 4 9 86 10 5 11 6 12
REMARK SMILES IDX 7 13 2 14 1 15 82 16 83 17 84 18 85 19 15 20 16 21 17 22
REMARK SMILES IDX 18 23 19 24 20 25 81 26 21 27 80 28 22 29 23 30 24 31 74 32
REMARK SMILES IDX 25 33 79 34 73 35 75 36 26 37 78 38 72 39 71 40 27 42 59 43
REMARK SMILES IDX 39 44 58 45 40 46 43 47 57 48 76 49 41 50 42 51 56 53 77 54
REMARK SMILES IDX 44 55 28 56 29 57 37 58 30 59 32 60 38 61 31 62 33 63 34 64
REMARK SMILES IDX 35 65 36 66 60 67 61 68 69 69 62 70 64 71 70 72 63 73 65 74
REMARK SMILES IDX 66 75 67 76 68 77 45 78 46 79 54 80 47 81 49 82 55 83 48 84
REMARK SMILES IDX 50 85 51 86 52 87 53 88
REMARK H PARENT 75 41 43 52
REMARK Flexibility Score: inf
ROOT
ATOM      1  C   UNL A   1      31.748  28.641  26.542  1.00  0.00     0.274 C 
ENDROOT
BRANCH   1   2
ATOM      2  O   UNL A   1      33.060  28.048  26.642  1.00  0.00    -0.461 OA
BRANCH   2   3
ATOM      3  C   UNL A   1      33.478  27.349  25.548  1.00  0.00     0.325 C 
ATOM      4  O   UNL A   1      33.995  27.857  24.557  1.00  0.00    -0.250 OA
BRANCH   3   5
ATOM      5  C   UNL A   1      33.398  25.835  25.735  1.00  0.00     0.242 C 
BRANCH   5   6
ATOM      6  N   UNL A   1      32.163  25.198  25.245  1.00  0.00    -0.325 N 
BRANCH   6   7
ATOM      7  C   UNL A   1      31.647  25.761  24.084  1.00  0.00     0.233 A 
ATOM      8  C   UNL A   1      31.767  26.162  21.865  1.00  0.00     0.322 A 
ATOM      9  N   UNL A   1      30.814  27.071  21.852  1.00  0.00    -0.164 NA
ATOM     10  N   UNL A   1      32.200  25.476  22.915  1.00  0.00    -0.158 NA
ATOM     11  C   UNL A   1      30.296  27.231  23.055  1.00  0.00     0.230 A 
ATOM     12  Cl  UNL A   1      29.072  28.416  23.190  1.00  0.00    -0.041 Cl
ATOM     13  N   UNL A   1      30.650  26.631  24.186  1.00  0.00    -0.182 NA
BRANCH   8  14
ATOM     14  O   UNL A   1      32.414  25.909  20.678  1.00  0.00    -0.467 OA
ATOM     15  C   UNL A   1      33.048  24.640  20.784  1.00  0.00     0.282 C 
ENDBRANCH   8  14
ENDBRANCH   6   7
BRANCH   6  16
ATOM     16  C   UNL A   1      31.601  23.953  25.846  1.00  0.00     0.035 C 
ATOM     17  C   UNL A   1      30.276  24.259  26.570  1.00  0.00     0.034 C 
ATOM     18  C   UNL A   1      31.412  22.857  24.775  1.00  0.00     0.034 C 
ATOM     19  C   UNL A   1      32.532  23.328  26.908  1.00  0.00     0.034 C 
ENDBRANCH   6  16
ENDBRANCH   5   6
ENDBRANCH   3   5
ENDBRANCH   2   3
ENDBRANCH   1   2
BRANCH   1  20
ATOM     20  C   UNL A   1      31.876  30.157  26.417  1.00  0.00     0.275 C 
BRANCH  20  21
ATOM     21  O   UNL A   1      33.267  30.517  26.414  1.00  0.00    -0.458 OA
BRANCH  21  22
ATOM     22  C   UNL A   1      33.619  31.500  27.279  1.00  0.00     0.338 C 
ATOM     23  O   UNL A   1      32.964  32.488  27.565  1.00  0.00    -0.246 OA
BRANCH  22  24
ATOM     24  C   UNL A   1      34.938  31.206  27.885  1.00  0.00     0.060 A 
ATOM     25  C   UNL A   1      35.926  32.189  28.006  1.00  0.00     0.016 A 
ATOM     26  C   UNL A   1      35.214  29.892  28.264  1.00  0.00     0.016 A 
ATOM     27  C   UNL A   1      37.201  31.846  28.463  1.00  0.00     0.010 A 
ATOM     28  C   UNL A   1      36.458  29.573  28.812  1.00  0.00     0.010 A 
ATOM     29  C   UNL A   1      37.466  30.544  28.914  1.00  0.00    -0.014 A 
BRANCH  29  30
ATOM     30  C   UNL A   1      38.746  30.203  29.596  1.00  0.00     0.031 A 
ATOM     31  C   UNL A   1      39.696  29.195  29.008  1.00  0.00     0.074 A 
ATOM     32  C   UNL A   1      38.995  30.727  30.813  1.00  0.00     0.049 A 
ATOM     33  N   UNL A   1      40.737  28.626  29.560  1.00  0.00    -0.248 NA
ATOM     34  C   UNL A   1      39.438  28.762  27.626  1.00  0.00     0.031 C 
ATOM     35  C   UNL A   1      38.147  31.700  31.505  1.00  0.00     0.029 A 
ATOM     36  N   UNL A   1      40.015  30.489  31.701  1.00  0.00    -0.354 N 
ATOM     37  C   UNL A   1      41.228  27.731  28.617  1.00  0.00     0.074 A 
ATOM     38  C   UNL A   1      40.373  27.835  27.453  1.00  0.00     0.031 C 
ATOM     39  C   UNL A   1      38.678  31.978  32.703  1.00  0.00     0.029 A 
ATOM     40  C   UNL A   1      39.861  31.150  32.899  1.00  0.00     0.049 A 
ATOM     41  H   UNL A   1      40.780  29.903  31.502  1.00  0.00     0.167 HD
ATOM     42  C   UNL A   1      42.302  26.908  28.708  1.00  0.00     0.034 A 
ATOM     43  C   UNL A   1      40.560  31.071  34.047  1.00  0.00     0.034 A 
ATOM     44  C   UNL A   1      43.178  26.840  29.849  1.00  0.00     0.049 A 
ATOM     45  C   UNL A   1      41.725  30.131  34.133  1.00  0.00     0.074 A 
ATOM     46  C   UNL A   1      44.328  26.085  30.007  1.00  0.00     0.029 A 
ATOM     47  N   UNL A   1      43.006  27.552  31.027  1.00  0.00    -0.354 N 
ATOM     48  N   UNL A   1      42.223  29.353  33.203  1.00  0.00    -0.248 NA
ATOM     49  C   UNL A   1      42.428  30.062  35.420  1.00  0.00     0.031 C 
ATOM     50  C   UNL A   1      44.845  26.333  31.284  1.00  0.00     0.029 A 
ATOM     51  C   UNL A   1      44.019  27.246  31.920  1.00  0.00     0.049 A 
ATOM     52  H   UNL A   1      42.270  28.181  31.202  1.00  0.00     0.167 HD
ATOM     53  C   UNL A   1      43.308  28.713  33.787  1.00  0.00     0.074 A 
ATOM     54  C   UNL A   1      43.409  29.212  35.144  1.00  0.00     0.031 C 
ATOM     55  C   UNL A   1      44.132  27.778  33.254  1.00  0.00     0.034 A 
BRANCH  42  56
ATOM     56  C   UNL A   1      42.626  26.042  27.520  1.00  0.00     0.023 A 
ATOM     57  C   UNL A   1      43.457  26.550  26.502  1.00  0.00     0.012 A 
ATOM     58  C   UNL A   1      42.174  24.709  27.442  1.00  0.00     0.148 A 
ATOM     59  C   UNL A   1      43.817  25.755  25.415  1.00  0.00     0.002 A 
ATOM     60  C   UNL A   1      42.563  23.912  26.370  1.00  0.00     0.091 A 
ATOM     61  F   UNL A   1      41.361  24.248  28.403  1.00  0.00    -0.205 F 
ATOM     62  C   UNL A   1      43.380  24.434  25.354  1.00  0.00     0.022 A 
BRANCH  60  63
ATOM     63  S   UNL A   1      42.098  22.180  26.255  1.00  0.00     0.127 S 
ATOM     64  O   UNL A   1      40.648  22.273  26.098  1.00  0.00    -0.237 OA
ATOM     65  O   UNL A   1      42.812  21.737  25.056  1.00  0.00    -0.237 OA
ATOM     66  O   UNL A   1      42.568  21.569  27.491  1.00  0.00    -0.744 OA
ENDBRANCH  60  63
ENDBRANCH  42  56
BRANCH  43  67
ATOM     67  C   UNL A   1      40.178  31.942  35.193  1.00  0.00     0.023 A 
ATOM     68  C   UNL A   1      40.654  33.266  35.230  1.00  0.00     0.012 A 
ATOM     69  C   UNL A   1      39.279  31.504  36.185  1.00  0.00     0.148 A 
ATOM     70  C   UNL A   1      40.244  34.138  36.239  1.00  0.00     0.002 A 
ATOM     71  C   UNL A   1      38.829  32.395  37.151  1.00  0.00     0.091 A 
ATOM     72  F   UNL A   1      38.856  30.232  36.144  1.00  0.00    -0.205 F 
ATOM     73  C   UNL A   1      39.318  33.709  37.188  1.00  0.00     0.022 A 
BRANCH  71  74
ATOM     74  S   UNL A   1      37.522  31.964  38.308  1.00  0.00     0.127 S 
ATOM     75  O   UNL A   1      36.500  32.957  37.988  1.00  0.00    -0.237 OA
ATOM     76  O   UNL A   1      37.197  30.594  37.909  1.00  0.00    -0.237 OA
ATOM     77  O   UNL A   1      38.125  32.071  39.630  1.00  0.00    -0.744 OA
ENDBRANCH  71  74
ENDBRANCH  43  67
BRANCH  55  78
ATOM     78  C   UNL A   1      45.220  27.235  34.138  1.00  0.00     0.023 A 
ATOM     79  C   UNL A   1      46.483  27.858  34.136  1.00  0.00     0.012 A 
ATOM     80  C   UNL A   1      44.982  26.150  35.004  1.00  0.00     0.148 A 
ATOM     81  C   UNL A   1      47.502  27.396  34.969  1.00  0.00     0.002 A 
ATOM     82  C   UNL A   1      45.992  25.717  35.856  1.00  0.00     0.091 A 
ATOM     83  F   UNL A   1      43.780  25.557  34.970  1.00  0.00    -0.205 F 
ATOM     84  C   UNL A   1      47.253  26.333  35.835  1.00  0.00     0.022 A 
BRANCH  82  85
ATOM     85  S   UNL A   1      45.735  24.404  37.056  1.00  0.00     0.127 S 
ATOM     86  O   UNL A   1      44.628  24.937  37.848  1.00  0.00    -0.237 OA
ATOM     87  O   UNL A   1      45.384  23.266  36.205  1.00  0.00    -0.237 OA
ATOM     88  O   UNL A   1      47.001  24.259  37.761  1.00  0.00    -0.744 OA
ENDBRANCH  82  85
ENDBRANCH  55  78
ENDBRANCH  29  30
ENDBRANCH  22  24
ENDBRANCH  21  22
ENDBRANCH  20  21
ENDBRANCH   1  20
TORSDOF 18
ENDMDL
