MODEL 1
REMARK VINA RESULT:     -13.0      0.000      0.000
REMARK SMILES CCc1nc(-c2cccnc2)nc(Oc2ccc(C(=O)OCCOC(=O)c3ccc(-c4c5nc(c(-c6cccc(S(=O)(=O)[O-])c6F)c6ccc([nH]6)c(-c6cccc(S(=O)(=O)[O-])c6F)c6nc(c(-c7cccc(S(=O)(=O)[O-])c7F)c7ccc4[nH]7)C=C6)C=C5)cc3)cc2)c1C
REMARK SMILES IDX 22 1 21 2 19 3 20 4 18 5 15 6 16 7 91 8 17 9 90 10 14 11
REMARK SMILES IDX 13 12 3 13 4 14 92 15 5 16 93 17 12 18 2 19 1 20 6 21 7 22
REMARK SMILES IDX 11 23 8 24 10 25 9 26 23 27 24 28 25 29 26 30 27 31 28 32
REMARK SMILES IDX 89 33 29 34 88 35 30 36 31 37 32 38 82 39 33 40 87 41 81 42
REMARK SMILES IDX 83 43 34 44 86 45 80 46 79 47 35 49 67 50 47 51 66 52 48 53
REMARK SMILES IDX 51 54 65 55 84 56 49 57 50 58 64 60 85 61 52 62 36 63 37 64
REMARK SMILES IDX 45 65 38 66 40 67 46 68 39 69 41 70 42 71 43 72 44 73 68 74
REMARK SMILES IDX 69 75 77 76 70 77 72 78 78 79 71 80 73 81 74 82 75 83 76 84
REMARK SMILES IDX 53 85 54 86 62 87 55 88 57 89 63 90 56 91 58 92 59 93 60 94
REMARK SMILES IDX 61 95
REMARK H PARENT 83 48 51 59
REMARK Flexibility Score: inf
ROOT
ATOM      1  C   UNL A   1      31.209  29.243  24.954  1.00  0.00     0.275 C 
ENDROOT
BRANCH   1   2
ATOM      2  O   UNL A   1      31.491  28.104  24.116  1.00  0.00    -0.458 OA
BRANCH   2   3
ATOM      3  C   UNL A   1      30.398  27.451  23.654  1.00  0.00     0.338 C 
ATOM      4  O   UNL A   1      29.556  27.897  22.894  1.00  0.00    -0.246 OA
BRANCH   3   5
ATOM      5  C   UNL A   1      30.330  26.064  24.169  1.00  0.00     0.060 A 
ATOM      6  C   UNL A   1      30.779  23.597  25.335  1.00  0.00     0.129 A 
ATOM      7  C   UNL A   1      30.311  24.634  26.130  1.00  0.00     0.048 A 
ATOM      8  C   UNL A   1      30.840  23.717  23.944  1.00  0.00     0.048 A 
ATOM      9  C   UNL A   1      30.146  25.881  25.548  1.00  0.00     0.019 A 
ATOM     10  C   UNL A   1      30.612  24.964  23.353  1.00  0.00     0.019 A 
BRANCH   6  11
ATOM     11  O   UNL A   1      31.246  22.491  25.980  1.00  0.00    -0.439 OA
BRANCH  11  12
ATOM     12  C   UNL A   1      32.492  21.988  25.672  1.00  0.00     0.226 A 
ATOM     13  C   UNL A   1      34.770  21.920  25.069  1.00  0.00     0.051 A 
ATOM     14  N   UNL A   1      34.681  20.597  24.839  1.00  0.00    -0.233 NA
ATOM     15  C   UNL A   1      33.726  22.651  25.639  1.00  0.00     0.033 A 
ATOM     16  C   UNL A   1      33.493  20.020  25.046  1.00  0.00     0.165 A 
ATOM     17  C   UNL A   1      34.019  24.034  26.139  1.00  0.00     0.052 C 
ATOM     18  N   UNL A   1      32.380  20.677  25.377  1.00  0.00    -0.193 NA
BRANCH  13  19
ATOM     19  C   UNL A   1      36.085  22.559  24.675  1.00  0.00     0.053 C 
ATOM     20  C   UNL A   1      36.133  22.934  23.198  1.00  0.00     0.011 C 
ENDBRANCH  13  19
BRANCH  16  21
ATOM     21  C   UNL A   1      33.414  18.579  24.860  1.00  0.00     0.038 A 
ATOM     22  C   UNL A   1      34.110  17.915  23.842  1.00  0.00     0.015 A 
ATOM     23  C   UNL A   1      32.639  17.785  25.705  1.00  0.00     0.123 A 
ATOM     24  C   UNL A   1      34.029  16.530  23.728  1.00  0.00     0.021 A 
ATOM     25  N   UNL A   1      32.532  16.435  25.616  1.00  0.00    -0.264 NA
ATOM     26  C   UNL A   1      33.233  15.842  24.628  1.00  0.00     0.111 A 
ENDBRANCH  16  21
ENDBRANCH  11  12
ENDBRANCH   6  11
ENDBRANCH   3   5
ENDBRANCH   2   3
ENDBRANCH   1   2
BRANCH   1  27
ATOM     27  C   UNL A   1      32.502  29.914  25.419  1.00  0.00     0.275 C 
BRANCH  27  28
ATOM     28  O   UNL A   1      32.453  30.219  26.825  1.00  0.00    -0.458 OA
BRANCH  28  29
ATOM     29  C   UNL A   1      33.087  31.358  27.182  1.00  0.00     0.338 C 
ATOM     30  O   UNL A   1      32.606  32.480  27.251  1.00  0.00    -0.246 OA
BRANCH  29  31
ATOM     31  C   UNL A   1      34.468  31.078  27.595  1.00  0.00     0.060 A 
ATOM     32  C   UNL A   1      34.787  29.773  27.945  1.00  0.00     0.016 A 
ATOM     33  C   UNL A   1      35.368  32.106  27.852  1.00  0.00     0.016 A 
ATOM     34  C   UNL A   1      35.916  29.508  28.709  1.00  0.00     0.010 A 
ATOM     35  C   UNL A   1      36.585  31.809  28.479  1.00  0.00     0.010 A 
ATOM     36  C   UNL A   1      36.854  30.516  28.968  1.00  0.00    -0.014 A 
BRANCH  36  37
ATOM     37  C   UNL A   1      38.096  30.213  29.741  1.00  0.00     0.031 A 
ATOM     38  C   UNL A   1      39.150  29.291  29.173  1.00  0.00     0.074 A 
ATOM     39  C   UNL A   1      38.279  30.750  30.967  1.00  0.00     0.049 A 
ATOM     40  N   UNL A   1      40.195  28.769  29.763  1.00  0.00    -0.248 NA
ATOM     41  C   UNL A   1      38.998  28.886  27.766  1.00  0.00     0.031 C 
ATOM     42  C   UNL A   1      37.356  31.668  31.639  1.00  0.00     0.029 A 
ATOM     43  N   UNL A   1      39.297  30.591  31.877  1.00  0.00    -0.354 N 
ATOM     44  C   UNL A   1      40.776  27.915  28.830  1.00  0.00     0.074 A 
ATOM     45  C   UNL A   1      39.970  27.993  27.632  1.00  0.00     0.031 C 
ATOM     46  C   UNL A   1      37.856  32.009  32.834  1.00  0.00     0.029 A 
ATOM     47  C   UNL A   1      39.078  31.253  33.064  1.00  0.00     0.049 A 
ATOM     48  H   UNL A   1      40.104  30.056  31.698  1.00  0.00     0.167 HD
ATOM     49  C   UNL A   1      41.880  27.139  28.960  1.00  0.00     0.034 A 
ATOM     50  C   UNL A   1      39.741  31.216  34.236  1.00  0.00     0.034 A 
ATOM     51  C   UNL A   1      42.714  27.114  30.134  1.00  0.00     0.049 A 
ATOM     52  C   UNL A   1      40.954  30.340  34.355  1.00  0.00     0.074 A 
ATOM     53  C   UNL A   1      43.883  26.402  30.342  1.00  0.00     0.029 A 
ATOM     54  N   UNL A   1      42.471  27.828  31.296  1.00  0.00    -0.354 N 
ATOM     55  N   UNL A   1      41.512  29.577  33.448  1.00  0.00    -0.248 NA
ATOM     56  C   UNL A   1      41.638  30.332  35.655  1.00  0.00     0.031 C 
ATOM     57  C   UNL A   1      44.326  26.657  31.644  1.00  0.00     0.029 A 
ATOM     58  C   UNL A   1      43.459  27.565  32.230  1.00  0.00     0.049 A 
ATOM     59  H   UNL A   1      41.708  28.434  31.437  1.00  0.00     0.167 HD
ATOM     60  C   UNL A   1      42.631  29.022  34.056  1.00  0.00     0.074 A 
ATOM     61  C   UNL A   1      42.683  29.556  35.402  1.00  0.00     0.031 C 
ATOM     62  C   UNL A   1      43.525  28.139  33.550  1.00  0.00     0.034 A 
BRANCH  49  63
ATOM     63  C   UNL A   1      42.261  26.249  27.802  1.00  0.00     0.023 A 
ATOM     64  C   UNL A   1      43.153  26.710  26.813  1.00  0.00     0.012 A 
ATOM     65  C   UNL A   1      41.780  24.925  27.729  1.00  0.00     0.148 A 
ATOM     66  C   UNL A   1      43.527  25.885  25.751  1.00  0.00     0.002 A 
ATOM     67  C   UNL A   1      42.197  24.092  26.696  1.00  0.00     0.091 A 
ATOM     68  F   UNL A   1      40.922  24.504  28.669  1.00  0.00    -0.205 F 
ATOM     69  C   UNL A   1      43.059  24.575  25.699  1.00  0.00     0.022 A 
BRANCH  67  70
ATOM     70  S   UNL A   1      41.716  22.364  26.587  1.00  0.00     0.127 S 
ATOM     71  O   UNL A   1      42.248  21.831  27.842  1.00  0.00    -0.237 OA
ATOM     72  O   UNL A   1      40.257  22.454  26.534  1.00  0.00    -0.237 OA
ATOM     73  O   UNL A   1      42.340  21.847  25.377  1.00  0.00    -0.744 OA
ENDBRANCH  67  70
ENDBRANCH  49  63
BRANCH  50  74
ATOM     74  C   UNL A   1      39.260  32.028  35.390  1.00  0.00     0.023 A 
ATOM     75  C   UNL A   1      38.351  31.466  36.305  1.00  0.00     0.012 A 
ATOM     76  C   UNL A   1      39.725  33.342  35.603  1.00  0.00     0.148 A 
ATOM     77  C   UNL A   1      37.890  32.206  37.396  1.00  0.00     0.002 A 
ATOM     78  C   UNL A   1      39.313  34.049  36.726  1.00  0.00     0.091 A 
ATOM     79  F   UNL A   1      40.580  33.866  34.714  1.00  0.00    -0.205 F 
ATOM     80  C   UNL A   1      38.381  33.491  37.613  1.00  0.00     0.022 A 
BRANCH  78  81
ATOM     81  S   UNL A   1      40.003  35.650  37.161  1.00  0.00     0.127 S 
ATOM     82  O   UNL A   1      39.652  36.453  35.993  1.00  0.00    -0.237 OA
ATOM     83  O   UNL A   1      39.260  35.976  38.379  1.00  0.00    -0.237 OA
ATOM     84  O   UNL A   1      41.426  35.424  37.369  1.00  0.00    -0.744 OA
ENDBRANCH  78  81
ENDBRANCH  50  74
BRANCH  62  85
ATOM     85  C   UNL A   1      44.674  27.732  34.435  1.00  0.00     0.023 A 
ATOM     86  C   UNL A   1      45.865  28.485  34.440  1.00  0.00     0.012 A 
ATOM     87  C   UNL A   1      44.546  26.632  35.305  1.00  0.00     0.148 A 
ATOM     88  C   UNL A   1      46.926  28.124  35.271  1.00  0.00     0.002 A 
ATOM     89  C   UNL A   1      45.585  26.312  36.170  1.00  0.00     0.091 A 
ATOM     90  F   UNL A   1      43.412  25.917  35.271  1.00  0.00    -0.205 F 
ATOM     91  C   UNL A   1      46.781  27.046  36.143  1.00  0.00     0.022 A 
BRANCH  89  92
ATOM     92  S   UNL A   1      45.453  25.006  37.395  1.00  0.00     0.127 S 
ATOM     93  O   UNL A   1      44.248  25.401  38.124  1.00  0.00    -0.237 OA
ATOM     94  O   UNL A   1      45.298  23.814  36.560  1.00  0.00    -0.237 OA
ATOM     95  O   UNL A   1      46.688  25.049  38.166  1.00  0.00    -0.744 OA
ENDBRANCH  89  92
ENDBRANCH  62  85
ENDBRANCH  36  37
ENDBRANCH  29  31
ENDBRANCH  28  29
ENDBRANCH  27  28
ENDBRANCH   1  27
TORSDOF 18
ENDMDL
MODEL 2
REMARK VINA RESULT:     -12.4      5.033     10.370
REMARK SMILES CCc1nc(-c2cccnc2)nc(Oc2ccc(C(=O)OCCOC(=O)c3ccc(-c4c5nc(c(-c6cccc(S(=O)(=O)[O-])c6F)c6ccc([nH]6)c(-c6cccc(S(=O)(=O)[O-])c6F)c6nc(c(-c7cccc(S(=O)(=O)[O-])c7F)c7ccc4[nH]7)C=C6)C=C5)cc3)cc2)c1C
REMARK SMILES IDX 22 1 21 2 19 3 20 4 18 5 15 6 16 7 91 8 17 9 90 10 14 11
REMARK SMILES IDX 13 12 3 13 4 14 92 15 5 16 93 17 12 18 2 19 1 20 6 21 7 22
REMARK SMILES IDX 11 23 8 24 10 25 9 26 23 27 24 28 25 29 26 30 27 31 28 32
REMARK SMILES IDX 89 33 29 34 88 35 30 36 31 37 32 38 82 39 33 40 87 41 81 42
REMARK SMILES IDX 83 43 34 44 86 45 80 46 79 47 35 49 67 50 47 51 66 52 48 53
REMARK SMILES IDX 51 54 65 55 84 56 49 57 50 58 64 60 85 61 52 62 36 63 37 64
REMARK SMILES IDX 45 65 38 66 40 67 46 68 39 69 41 70 42 71 43 72 44 73 68 74
REMARK SMILES IDX 69 75 77 76 70 77 72 78 78 79 71 80 73 81 74 82 75 83 76 84
REMARK SMILES IDX 53 85 54 86 62 87 55 88 57 89 63 90 56 91 58 92 59 93 60 94
REMARK SMILES IDX 61 95
REMARK H PARENT 83 48 51 59
REMARK Flexibility Score: inf
ROOT
ATOM      1  C   UNL A   1      35.195  21.413  24.341  1.00  0.00     0.275 C 
ENDROOT
BRANCH   1   2
ATOM      2  O   UNL A   1      33.987  21.178  25.091  1.00  0.00    -0.458 OA
BRANCH   2   3
ATOM      3  C   UNL A   1      32.863  21.064  24.344  1.00  0.00     0.338 C 
ATOM      4  O   UNL A   1      32.639  20.216  23.498  1.00  0.00    -0.246 OA
BRANCH   3   5
ATOM      5  C   UNL A   1      31.871  22.110  24.683  1.00  0.00     0.060 A 
ATOM      6  C   UNL A   1      30.519  24.434  25.333  1.00  0.00     0.129 A 
ATOM      7  C   UNL A   1      30.790  24.172  23.997  1.00  0.00     0.048 A 
ATOM      8  C   UNL A   1      30.736  23.470  26.321  1.00  0.00     0.048 A 
ATOM      9  C   UNL A   1      31.520  23.035  23.688  1.00  0.00     0.019 A 
ATOM     10  C   UNL A   1      31.419  22.294  25.994  1.00  0.00     0.019 A 
BRANCH   6  11
ATOM     11  O   UNL A   1      30.105  25.695  25.640  1.00  0.00    -0.439 OA
BRANCH  11  12
ATOM     12  C   UNL A   1      30.876  26.780  25.281  1.00  0.00     0.226 A 
ATOM     13  C   UNL A   1      32.676  28.300  25.224  1.00  0.00     0.051 A 
ATOM     14  N   UNL A   1      31.932  29.172  24.519  1.00  0.00    -0.233 NA
ATOM     15  C   UNL A   1      32.240  27.006  25.510  1.00  0.00     0.033 A 
ATOM     16  C   UNL A   1      30.684  28.803  24.214  1.00  0.00     0.165 A 
ATOM     17  C   UNL A   1      33.242  26.016  26.023  1.00  0.00     0.052 C 
ATOM     18  N   UNL A   1      30.103  27.677  24.635  1.00  0.00    -0.193 NA
BRANCH  13  19
ATOM     19  C   UNL A   1      34.024  28.819  25.679  1.00  0.00     0.053 C 
ATOM     20  C   UNL A   1      34.012  29.285  27.130  1.00  0.00     0.011 C 
ENDBRANCH  13  19
BRANCH  16  21
ATOM     21  C   UNL A   1      29.902  29.718  23.397  1.00  0.00     0.038 A 
ATOM     22  C   UNL A   1      29.471  30.964  23.869  1.00  0.00     0.015 A 
ATOM     23  C   UNL A   1      29.552  29.394  22.087  1.00  0.00     0.123 A 
ATOM     24  C   UNL A   1      28.755  31.818  23.034  1.00  0.00     0.021 A 
ATOM     25  N   UNL A   1      28.848  30.199  21.251  1.00  0.00    -0.264 NA
ATOM     26  C   UNL A   1      28.469  31.394  21.748  1.00  0.00     0.111 A 
ENDBRANCH  16  21
ENDBRANCH  11  12
ENDBRANCH   6  11
ENDBRANCH   3   5
ENDBRANCH   2   3
ENDBRANCH   1   2
BRANCH   1  27
ATOM     27  C   UNL A   1      36.404  20.790  25.041  1.00  0.00     0.275 C 
BRANCH  27  28
ATOM     28  O   UNL A   1      37.547  21.664  24.981  1.00  0.00    -0.458 OA
BRANCH  28  29
ATOM     29  C   UNL A   1      38.595  21.282  25.745  1.00  0.00     0.338 C 
ATOM     30  O   UNL A   1      39.106  20.173  25.795  1.00  0.00    -0.246 OA
BRANCH  29  31
ATOM     31  C   UNL A   1      39.149  22.427  26.478  1.00  0.00     0.060 A 
ATOM     32  C   UNL A   1      38.658  23.690  26.174  1.00  0.00     0.016 A 
ATOM     33  C   UNL A   1      40.279  22.295  27.278  1.00  0.00     0.016 A 
ATOM     34  C   UNL A   1      39.384  24.824  26.511  1.00  0.00     0.010 A 
ATOM     35  C   UNL A   1      40.917  23.447  27.755  1.00  0.00     0.010 A 
ATOM     36  C   UNL A   1      40.515  24.729  27.333  1.00  0.00    -0.014 A 
BRANCH  36  37
ATOM     37  C   UNL A   1      41.259  25.958  27.741  1.00  0.00     0.031 A 
ATOM     38  C   UNL A   1      40.587  27.023  28.575  1.00  0.00     0.074 A 
ATOM     39  C   UNL A   1      42.541  26.134  27.351  1.00  0.00     0.049 A 
ATOM     40  N   UNL A   1      41.006  28.228  28.869  1.00  0.00    -0.248 NA
ATOM     41  C   UNL A   1      39.263  26.702  29.133  1.00  0.00     0.031 C 
ATOM     42  C   UNL A   1      43.325  25.186  26.556  1.00  0.00     0.029 A 
ATOM     43  N   UNL A   1      43.408  27.180  27.556  1.00  0.00    -0.354 N 
ATOM     44  C   UNL A   1      39.969  28.835  29.572  1.00  0.00     0.074 A 
ATOM     45  C   UNL A   1      38.903  27.862  29.666  1.00  0.00     0.031 C 
ATOM     46  C   UNL A   1      44.556  25.676  26.363  1.00  0.00     0.029 A 
ATOM     47  C   UNL A   1      44.620  27.018  26.922  1.00  0.00     0.049 A 
ATOM     48  H   UNL A   1      43.186  27.969  28.102  1.00  0.00     0.167 HD
ATOM     49  C   UNL A   1      39.912  30.085  30.092  1.00  0.00     0.034 A 
ATOM     50  C   UNL A   1      45.650  27.869  26.747  1.00  0.00     0.034 A 
ATOM     51  C   UNL A   1      41.000  31.027  30.049  1.00  0.00     0.049 A 
ATOM     52  C   UNL A   1      45.556  29.251  27.325  1.00  0.00     0.074 A 
ATOM     53  C   UNL A   1      41.060  32.297  30.595  1.00  0.00     0.029 A 
ATOM     54  N   UNL A   1      42.219  30.804  29.427  1.00  0.00    -0.354 N 
ATOM     55  N   UNL A   1      44.587  29.787  28.024  1.00  0.00    -0.248 NA
ATOM     56  C   UNL A   1      46.703  30.140  27.102  1.00  0.00     0.031 C 
ATOM     57  C   UNL A   1      42.299  32.857  30.270  1.00  0.00     0.029 A 
ATOM     58  C   UNL A   1      43.031  31.917  29.563  1.00  0.00     0.049 A 
ATOM     59  H   UNL A   1      42.470  29.975  28.958  1.00  0.00     0.167 HD
ATOM     60  C   UNL A   1      45.020  31.066  28.353  1.00  0.00     0.074 A 
ATOM     61  C   UNL A   1      46.348  31.213  27.794  1.00  0.00     0.031 C 
ATOM     62  C   UNL A   1      44.369  32.034  29.043  1.00  0.00     0.034 A 
BRANCH  49  63
ATOM     63  C   UNL A   1      38.628  30.517  30.761  1.00  0.00     0.023 A 
ATOM     64  C   UNL A   1      38.409  30.241  32.125  1.00  0.00     0.012 A 
ATOM     65  C   UNL A   1      37.663  31.256  30.046  1.00  0.00     0.148 A 
ATOM     66  C   UNL A   1      37.236  30.656  32.756  1.00  0.00     0.002 A 
ATOM     67  C   UNL A   1      36.519  31.710  30.692  1.00  0.00     0.091 A 
ATOM     68  F   UNL A   1      37.878  31.498  28.744  1.00  0.00    -0.205 F 
ATOM     69  C   UNL A   1      36.298  31.399  32.044  1.00  0.00     0.022 A 
BRANCH  67  70
ATOM     70  S   UNL A   1      35.292  32.744  29.885  1.00  0.00     0.127 S 
ATOM     71  O   UNL A   1      34.403  33.071  31.000  1.00  0.00    -0.237 OA
ATOM     72  O   UNL A   1      36.102  33.863  29.404  1.00  0.00    -0.237 OA
ATOM     73  O   UNL A   1      34.700  31.925  28.837  1.00  0.00    -0.744 OA
ENDBRANCH  67  70
ENDBRANCH  49  63
BRANCH  50  74
ATOM     74  C   UNL A   1      46.853  27.434  25.980  1.00  0.00     0.023 A 
ATOM     75  C   UNL A   1      46.958  27.750  24.613  1.00  0.00     0.012 A 
ATOM     76  C   UNL A   1      47.906  26.738  26.607  1.00  0.00     0.148 A 
ATOM     77  C   UNL A   1      48.077  27.357  23.876  1.00  0.00     0.002 A 
ATOM     78  C   UNL A   1      49.045  26.408  25.883  1.00  0.00     0.091 A 
ATOM     79  F   UNL A   1      47.783  26.434  27.906  1.00  0.00    -0.205 F 
ATOM     80  C   UNL A   1      49.125  26.699  24.513  1.00  0.00     0.022 A 
BRANCH  78  81
ATOM     81  S   UNL A   1      50.501  25.690  26.655  1.00  0.00     0.127 S 
ATOM     82  O   UNL A   1      50.841  26.703  27.650  1.00  0.00    -0.237 OA
ATOM     83  O   UNL A   1      49.965  24.443  27.203  1.00  0.00    -0.237 OA
ATOM     84  O   UNL A   1      51.468  25.508  25.582  1.00  0.00    -0.744 OA
ENDBRANCH  78  81
ENDBRANCH  50  74
BRANCH  62  85
ATOM     85  C   UNL A   1      45.105  33.326  29.283  1.00  0.00     0.023 A 
ATOM     86  C   UNL A   1      45.887  33.490  30.444  1.00  0.00     0.012 A 
ATOM     87  C   UNL A   1      45.064  34.357  28.324  1.00  0.00     0.148 A 
ATOM     88  C   UNL A   1      46.585  34.678  30.664  1.00  0.00     0.002 A 
ATOM     89  C   UNL A   1      45.807  35.514  28.523  1.00  0.00     0.091 A 
ATOM     90  F   UNL A   1      44.298  34.188  27.236  1.00  0.00    -0.205 F 
ATOM     91  C   UNL A   1      46.555  35.683  29.699  1.00  0.00     0.022 A 
BRANCH  89  92
ATOM     92  S   UNL A   1      45.907  36.818  27.293  1.00  0.00     0.127 S 
ATOM     93  O   UNL A   1      44.572  37.409  27.375  1.00  0.00    -0.237 OA
ATOM     94  O   UNL A   1      46.981  37.659  27.823  1.00  0.00    -0.237 OA
ATOM     95  O   UNL A   1      46.220  36.160  26.031  1.00  0.00    -0.744 OA
ENDBRANCH  89  92
ENDBRANCH  62  85
ENDBRANCH  36  37
ENDBRANCH  29  31
ENDBRANCH  28  29
ENDBRANCH  27  28
ENDBRANCH   1  27
TORSDOF 18
ENDMDL
MODEL 3
REMARK VINA RESULT:     -12.4      1.356      1.667
REMARK SMILES CCc1nc(-c2cccnc2)nc(Oc2ccc(C(=O)OCCOC(=O)c3ccc(-c4c5nc(c(-c6cccc(S(=O)(=O)[O-])c6F)c6ccc([nH]6)c(-c6cccc(S(=O)(=O)[O-])c6F)c6nc(c(-c7cccc(S(=O)(=O)[O-])c7F)c7ccc4[nH]7)C=C6)C=C5)cc3)cc2)c1C
REMARK SMILES IDX 22 1 21 2 19 3 20 4 18 5 15 6 16 7 91 8 17 9 90 10 14 11
REMARK SMILES IDX 13 12 3 13 4 14 92 15 5 16 93 17 12 18 2 19 1 20 6 21 7 22
REMARK SMILES IDX 11 23 8 24 10 25 9 26 23 27 24 28 25 29 26 30 27 31 28 32
REMARK SMILES IDX 89 33 29 34 88 35 30 36 31 37 32 38 82 39 33 40 87 41 81 42
REMARK SMILES IDX 83 43 34 44 86 45 80 46 79 47 35 49 67 50 47 51 66 52 48 53
REMARK SMILES IDX 51 54 65 55 84 56 49 57 50 58 64 60 85 61 52 62 36 63 37 64
REMARK SMILES IDX 45 65 38 66 40 67 46 68 39 69 41 70 42 71 43 72 44 73 68 74
REMARK SMILES IDX 69 75 77 76 70 77 72 78 78 79 71 80 73 81 74 82 75 83 76 84
REMARK SMILES IDX 53 85 54 86 62 87 55 88 57 89 63 90 56 91 58 92 59 93 60 94
REMARK SMILES IDX 61 95
REMARK H PARENT 83 48 51 59
REMARK Flexibility Score: inf
ROOT
ATOM      1  C   UNL A   1      31.491  29.295  24.769  1.00  0.00     0.275 C 
ENDROOT
BRANCH   1   2
ATOM      2  O   UNL A   1      31.549  28.056  24.033  1.00  0.00    -0.458 OA
BRANCH   2   3
ATOM      3  C   UNL A   1      30.347  27.485  23.780  1.00  0.00     0.338 C 
ATOM      4  O   UNL A   1      29.407  28.001  23.201  1.00  0.00    -0.246 OA
BRANCH   3   5
ATOM      5  C   UNL A   1      30.287  26.093  24.283  1.00  0.00     0.060 A 
ATOM      6  C   UNL A   1      30.762  23.604  25.390  1.00  0.00     0.129 A 
ATOM      7  C   UNL A   1      30.360  24.638  26.224  1.00  0.00     0.048 A 
ATOM      8  C   UNL A   1      30.741  23.740  24.000  1.00  0.00     0.048 A 
ATOM      9  C   UNL A   1      30.183  25.895  25.668  1.00  0.00     0.019 A 
ATOM     10  C   UNL A   1      30.500  24.998  23.439  1.00  0.00     0.019 A 
BRANCH   6  11
ATOM     11  O   UNL A   1      31.248  22.482  25.993  1.00  0.00    -0.439 OA
BRANCH  11  12
ATOM     12  C   UNL A   1      32.512  22.026  25.685  1.00  0.00     0.226 A 
ATOM     13  C   UNL A   1      34.784  22.042  25.060  1.00  0.00     0.051 A 
ATOM     14  N   UNL A   1      34.752  20.711  24.865  1.00  0.00    -0.233 NA
ATOM     15  C   UNL A   1      33.715  22.742  25.621  1.00  0.00     0.033 A 
ATOM     16  C   UNL A   1      33.593  20.088  25.099  1.00  0.00     0.165 A 
ATOM     17  C   UNL A   1      33.951  24.149  26.082  1.00  0.00     0.052 C 
ATOM     18  N   UNL A   1      32.455  20.704  25.425  1.00  0.00    -0.193 NA
BRANCH  13  19
ATOM     19  C   UNL A   1      36.067  22.728  24.634  1.00  0.00     0.053 C 
ATOM     20  C   UNL A   1      37.121  21.743  24.144  1.00  0.00     0.011 C 
ENDBRANCH  13  19
BRANCH  16  21
ATOM     21  C   UNL A   1      33.575  18.641  24.951  1.00  0.00     0.038 A 
ATOM     22  C   UNL A   1      34.569  17.947  24.251  1.00  0.00     0.015 A 
ATOM     23  C   UNL A   1      32.560  17.871  25.518  1.00  0.00     0.123 A 
ATOM     24  C   UNL A   1      34.526  16.558  24.168  1.00  0.00     0.021 A 
ATOM     25  N   UNL A   1      32.484  16.517  25.449  1.00  0.00    -0.264 NA
ATOM     26  C   UNL A   1      33.473  15.895  24.775  1.00  0.00     0.111 A 
ENDBRANCH  16  21
ENDBRANCH  11  12
ENDBRANCH   6  11
ENDBRANCH   3   5
ENDBRANCH   2   3
ENDBRANCH   1   2
BRANCH   1  27
ATOM     27  C   UNL A   1      32.882  29.716  25.242  1.00  0.00     0.275 C 
BRANCH  27  28
ATOM     28  O   UNL A   1      32.925  29.850  26.675  1.00  0.00    -0.458 OA
BRANCH  28  29
ATOM     29  C   UNL A   1      33.456  31.010  27.122  1.00  0.00     0.338 C 
ATOM     30  O   UNL A   1      32.897  32.094  27.204  1.00  0.00    -0.246 OA
BRANCH  29  31
ATOM     31  C   UNL A   1      34.822  30.800  27.617  1.00  0.00     0.060 A 
ATOM     32  C   UNL A   1      35.176  29.520  28.019  1.00  0.00     0.016 A 
ATOM     33  C   UNL A   1      35.663  31.873  27.895  1.00  0.00     0.016 A 
ATOM     34  C   UNL A   1      36.271  29.323  28.851  1.00  0.00     0.010 A 
ATOM     35  C   UNL A   1      36.855  31.644  28.596  1.00  0.00     0.010 A 
ATOM     36  C   UNL A   1      37.149  30.376  29.133  1.00  0.00    -0.014 A 
BRANCH  36  37
ATOM     37  C   UNL A   1      38.358  30.146  29.981  1.00  0.00     0.031 A 
ATOM     38  C   UNL A   1      39.439  29.190  29.536  1.00  0.00     0.074 A 
ATOM     39  C   UNL A   1      38.486  30.783  31.165  1.00  0.00     0.049 A 
ATOM     40  N   UNL A   1      40.461  28.725  30.210  1.00  0.00    -0.248 NA
ATOM     41  C   UNL A   1      39.350  28.670  28.161  1.00  0.00     0.031 C 
ATOM     42  C   UNL A   1      37.530  31.745  31.720  1.00  0.00     0.029 A 
ATOM     43  N   UNL A   1      39.464  30.706  32.128  1.00  0.00    -0.354 N 
ATOM     44  C   UNL A   1      41.084  27.802  29.377  1.00  0.00     0.074 A 
ATOM     45  C   UNL A   1      40.330  27.777  28.143  1.00  0.00     0.031 C 
ATOM     46  C   UNL A   1      37.977  32.186  32.904  1.00  0.00     0.029 A 
ATOM     47  C   UNL A   1      39.191  31.461  33.247  1.00  0.00     0.049 A 
ATOM     48  H   UNL A   1      40.280  30.164  32.029  1.00  0.00     0.167 HD
ATOM     49  C   UNL A   1      42.185  27.048  29.616  1.00  0.00     0.034 A 
ATOM     50  C   UNL A   1      39.803  31.524  34.445  1.00  0.00     0.034 A 
ATOM     51  C   UNL A   1      42.967  27.124  30.823  1.00  0.00     0.049 A 
ATOM     52  C   UNL A   1      41.013  30.670  34.687  1.00  0.00     0.074 A 
ATOM     53  C   UNL A   1      44.129  26.441  31.138  1.00  0.00     0.029 A 
ATOM     54  N   UNL A   1      42.671  27.929  31.912  1.00  0.00    -0.354 N 
ATOM     55  N   UNL A   1      41.613  29.841  33.871  1.00  0.00    -0.248 NA
ATOM     56  C   UNL A   1      41.640  30.773  36.012  1.00  0.00     0.031 C 
ATOM     57  C   UNL A   1      44.514  26.805  32.433  1.00  0.00     0.029 A 
ATOM     58  C   UNL A   1      43.619  27.750  32.905  1.00  0.00     0.049 A 
ATOM     59  H   UNL A   1      41.900  28.539  31.969  1.00  0.00     0.167 HD
ATOM     60  C   UNL A   1      42.707  29.344  34.569  1.00  0.00     0.074 A 
ATOM     61  C   UNL A   1      42.698  29.987  35.868  1.00  0.00     0.031 C 
ATOM     62  C   UNL A   1      43.625  28.430  34.176  1.00  0.00     0.034 A 
BRANCH  49  63
ATOM     63  C   UNL A   1      42.619  26.069  28.552  1.00  0.00     0.023 A 
ATOM     64  C   UNL A   1      41.904  24.871  28.353  1.00  0.00     0.012 A 
ATOM     65  C   UNL A   1      43.705  26.370  27.703  1.00  0.00     0.148 A 
ATOM     66  C   UNL A   1      42.285  23.971  27.356  1.00  0.00     0.002 A 
ATOM     67  C   UNL A   1      44.048  25.493  26.680  1.00  0.00     0.091 A 
ATOM     68  F   UNL A   1      44.385  27.507  27.913  1.00  0.00    -0.205 F 
ATOM     69  C   UNL A   1      43.348  24.288  26.514  1.00  0.00     0.022 A 
BRANCH  67  70
ATOM     70  S   UNL A   1      45.347  25.848  25.491  1.00  0.00     0.127 S 
ATOM     71  O   UNL A   1      44.901  27.128  24.941  1.00  0.00    -0.237 OA
ATOM     72  O   UNL A   1      46.531  25.934  26.346  1.00  0.00    -0.237 OA
ATOM     73  O   UNL A   1      45.352  24.735  24.553  1.00  0.00    -0.744 OA
ENDBRANCH  67  70
ENDBRANCH  49  63
BRANCH  50  74
ATOM     74  C   UNL A   1      39.269  32.424  35.508  1.00  0.00     0.023 A 
ATOM     75  C   UNL A   1      38.268  31.955  36.378  1.00  0.00     0.012 A 
ATOM     76  C   UNL A   1      39.772  33.729  35.681  1.00  0.00     0.148 A 
ATOM     77  C   UNL A   1      37.756  32.778  37.383  1.00  0.00     0.002 A 
ATOM     78  C   UNL A   1      39.306  34.519  36.724  1.00  0.00     0.091 A 
ATOM     79  F   UNL A   1      40.716  34.164  34.834  1.00  0.00    -0.205 F 
ATOM     80  C   UNL A   1      38.284  34.054  37.564  1.00  0.00     0.022 A 
BRANCH  78  81
ATOM     81  S   UNL A   1      40.029  36.116  37.119  1.00  0.00     0.127 S 
ATOM     82  O   UNL A   1      41.409  35.751  37.426  1.00  0.00    -0.237 OA
ATOM     83  O   UNL A   1      39.849  36.846  35.863  1.00  0.00    -0.237 OA
ATOM     84  O   UNL A   1      39.250  36.638  38.232  1.00  0.00    -0.744 OA
ENDBRANCH  78  81
ENDBRANCH  50  74
BRANCH  62  85
ATOM     85  C   UNL A   1      44.736  28.105  35.140  1.00  0.00     0.023 A 
ATOM     86  C   UNL A   1      45.979  28.761  35.035  1.00  0.00     0.012 A 
ATOM     87  C   UNL A   1      44.523  27.187  36.186  1.00  0.00     0.148 A 
ATOM     88  C   UNL A   1      47.006  28.478  35.935  1.00  0.00     0.002 A 
ATOM     89  C   UNL A   1      45.532  26.952  37.112  1.00  0.00     0.091 A 
ATOM     90  F   UNL A   1      43.341  26.559  36.256  1.00  0.00    -0.205 F 
ATOM     91  C   UNL A   1      46.778  27.584  36.980  1.00  0.00     0.022 A 
BRANCH  89  92
ATOM     92  S   UNL A   1      45.298  25.894  38.544  1.00  0.00     0.127 S 
ATOM     93  O   UNL A   1      45.032  24.599  37.919  1.00  0.00    -0.237 OA
ATOM     94  O   UNL A   1      46.594  25.992  39.216  1.00  0.00    -0.237 OA
ATOM     95  O   UNL A   1      44.184  26.465  39.290  1.00  0.00    -0.744 OA
ENDBRANCH  89  92
ENDBRANCH  62  85
ENDBRANCH  36  37
ENDBRANCH  29  31
ENDBRANCH  28  29
ENDBRANCH  27  28
ENDBRANCH   1  27
TORSDOF 18
ENDMDL
