MODEL 1
REMARK VINA RESULT:     -11.4      0.000      0.000
REMARK SMILES Cc1nn(-c2cc(Cl)ccc2Cl)nc1C(=O)OCCOC(=O)c1ccc(-c2c3nc(c(-c4cccc(S(=O)(=O)[O-])c4F)c4ccc([nH]4)c(-c4cccc(S(=O)(=O)[O-])c4F)c4nc(c(-c5cccc(S(=O)(=O)[O-])c5F)c5ccc2[nH]5)C=C4)C=C3)cc1
REMARK SMILES IDX 19 1 18 2 17 3 15 4 16 5 14 6 1 7 2 8 3 9 4 10 13 11 5 12
REMARK SMILES IDX 6 13 11 14 7 15 10 16 12 17 8 18 9 19 20 20 21 21 22 22
REMARK SMILES IDX 23 23 24 24 85 25 25 26 84 27 26 28 27 29 28 30 78 31 29 32
REMARK SMILES IDX 83 33 77 34 79 35 30 36 82 37 76 38 75 39 31 41 63 42 43 43
REMARK SMILES IDX 62 44 44 45 47 46 61 47 80 48 45 49 46 50 60 52 81 53 48 54
REMARK SMILES IDX 32 55 33 56 41 57 34 58 36 59 42 60 35 61 37 62 38 63 39 64
REMARK SMILES IDX 40 65 64 66 65 67 73 68 66 69 68 70 74 71 67 72 69 73 70 74
REMARK SMILES IDX 71 75 72 76 49 77 50 78 58 79 51 80 53 81 59 82 52 83 54 84
REMARK SMILES IDX 55 85 56 86 57 87
REMARK H PARENT 79 40 47 51
REMARK Flexibility Score: inf
ROOT
ATOM      1  C   UNL A   1      33.492  33.141  28.057  1.00  0.00     0.275 C 
ENDROOT
BRANCH   1   2
ATOM      2  C   UNL A   1      33.447  34.570  28.581  1.00  0.00     0.275 C 
BRANCH   2   3
ATOM      3  O   UNL A   1      32.824  34.625  29.875  1.00  0.00    -0.457 OA
BRANCH   3   4
ATOM      4  C   UNL A   1      33.129  35.729  30.626  1.00  0.00     0.360 C 
ATOM      5  O   UNL A   1      32.570  36.815  30.491  1.00  0.00    -0.244 OA
BRANCH   4   6
ATOM      6  C   UNL A   1      34.160  35.470  31.631  1.00  0.00     0.193 A 
ATOM      7  C   UNL A   1      33.775  37.338  33.431  1.00  0.00     0.071 C 
ATOM      8  C   UNL A   1      34.424  36.138  32.855  1.00  0.00     0.095 A 
ATOM      9  N   UNL A   1      35.414  35.513  33.510  1.00  0.00    -0.153 NA
ATOM     10  N   UNL A   1      35.787  34.570  32.617  1.00  0.00    -0.149 N 
ATOM     11  N   UNL A   1      35.088  34.504  31.469  1.00  0.00    -0.141 NA
BRANCH  10  12
ATOM     12  C   UNL A   1      36.863  33.701  32.847  1.00  0.00     0.106 A 
ATOM     13  C   UNL A   1      36.860  32.932  34.022  1.00  0.00     0.052 A 
ATOM     14  C   UNL A   1      37.940  33.652  31.958  1.00  0.00     0.068 A 
ATOM     15  C   UNL A   1      37.936  32.089  34.285  1.00  0.00     0.043 A 
ATOM     16  C   UNL A   1      39.031  32.831  32.259  1.00  0.00     0.024 A 
ATOM     17  Cl  UNL A   1      38.061  34.654  30.556  1.00  0.00    -0.082 Cl
ATOM     18  Cl  UNL A   1      37.927  31.092  35.684  1.00  0.00    -0.084 Cl
ATOM     19  C   UNL A   1      39.027  32.044  33.415  1.00  0.00     0.022 A 
ENDBRANCH  10  12
ENDBRANCH   4   6
ENDBRANCH   3   4
ENDBRANCH   2   3
ENDBRANCH   1   2
BRANCH   1  20
ATOM     20  O   UNL A   1      34.792  32.569  28.186  1.00  0.00    -0.458 OA
BRANCH  20  21
ATOM     21  C   UNL A   1      34.872  31.254  27.880  1.00  0.00     0.338 C 
ATOM     22  O   UNL A   1      33.993  30.563  27.390  1.00  0.00    -0.246 OA
BRANCH  21  23
ATOM     23  C   UNL A   1      36.126  30.714  28.407  1.00  0.00     0.060 A 
ATOM     24  C   UNL A   1      37.102  31.611  28.851  1.00  0.00     0.016 A 
ATOM     25  C   UNL A   1      36.396  29.348  28.240  1.00  0.00     0.016 A 
ATOM     26  C   UNL A   1      38.392  31.148  29.026  1.00  0.00     0.010 A 
ATOM     27  C   UNL A   1      37.683  28.894  28.401  1.00  0.00     0.010 A 
ATOM     28  C   UNL A   1      38.678  29.807  28.741  1.00  0.00    -0.014 A 
BRANCH  28  29
ATOM     29  C   UNL A   1      40.022  29.312  28.971  1.00  0.00     0.031 A 
ATOM     30  C   UNL A   1      40.370  29.277  30.411  1.00  0.00     0.074 A 
ATOM     31  C   UNL A   1      40.780  28.794  27.986  1.00  0.00     0.049 A 
ATOM     32  N   UNL A   1      41.259  29.987  31.020  1.00  0.00    -0.248 NA
ATOM     33  C   UNL A   1      39.503  28.500  31.314  1.00  0.00     0.031 C 
ATOM     34  C   UNL A   1      40.372  28.552  26.597  1.00  0.00     0.029 A 
ATOM     35  N   UNL A   1      42.027  28.242  28.042  1.00  0.00    -0.354 N 
ATOM     36  C   UNL A   1      41.243  29.531  32.335  1.00  0.00     0.074 A 
ATOM     37  C   UNL A   1      40.013  28.812  32.506  1.00  0.00     0.031 C 
ATOM     38  C   UNL A   1      41.242  27.694  26.019  1.00  0.00     0.029 A 
ATOM     39  C   UNL A   1      42.333  27.442  26.944  1.00  0.00     0.049 A 
ATOM     40  H   UNL A   1      42.651  28.395  28.788  1.00  0.00     0.167 HD
ATOM     41  C   UNL A   1      42.395  29.486  33.057  1.00  0.00     0.034 A 
ATOM     42  C   UNL A   1      43.381  26.591  26.823  1.00  0.00     0.034 A 
ATOM     43  C   UNL A   1      43.425  30.274  32.432  1.00  0.00     0.049 A 
ATOM     44  C   UNL A   1      44.416  27.023  27.783  1.00  0.00     0.074 A 
ATOM     45  C   UNL A   1      43.684  31.612  32.238  1.00  0.00     0.029 A 
ATOM     46  N   UNL A   1      44.184  29.568  31.536  1.00  0.00    -0.354 N 
ATOM     47  N   UNL A   1      45.062  28.148  27.669  1.00  0.00    -0.248 NA
ATOM     48  C   UNL A   1      44.515  26.373  29.085  1.00  0.00     0.031 C 
ATOM     49  C   UNL A   1      44.474  31.689  31.054  1.00  0.00     0.029 A 
ATOM     50  C   UNL A   1      44.706  30.397  30.581  1.00  0.00     0.049 A 
ATOM     51  H   UNL A   1      44.333  28.596  31.574  1.00  0.00     0.167 HD
ATOM     52  C   UNL A   1      45.229  28.567  28.976  1.00  0.00     0.074 A 
ATOM     53  C   UNL A   1      45.072  27.366  29.786  1.00  0.00     0.031 C 
ATOM     54  C   UNL A   1      45.141  29.889  29.297  1.00  0.00     0.034 A 
BRANCH  41  55
ATOM     55  C   UNL A   1      42.769  28.368  34.013  1.00  0.00     0.023 A 
ATOM     56  C   UNL A   1      43.020  28.732  35.355  1.00  0.00     0.012 A 
ATOM     57  C   UNL A   1      43.183  27.074  33.617  1.00  0.00     0.148 A 
ATOM     58  C   UNL A   1      43.686  27.875  36.239  1.00  0.00     0.002 A 
ATOM     59  C   UNL A   1      43.776  26.197  34.519  1.00  0.00     0.091 A 
ATOM     60  F   UNL A   1      43.146  26.719  32.331  1.00  0.00    -0.205 F 
ATOM     61  C   UNL A   1      44.057  26.602  35.823  1.00  0.00     0.022 A 
BRANCH  59  62
ATOM     62  S   UNL A   1      44.248  24.530  34.038  1.00  0.00     0.127 S 
ATOM     63  O   UNL A   1      45.345  24.258  34.964  1.00  0.00    -0.237 OA
ATOM     64  O   UNL A   1      43.016  23.785  34.298  1.00  0.00    -0.237 OA
ATOM     65  O   UNL A   1      44.608  24.614  32.628  1.00  0.00    -0.744 OA
ENDBRANCH  59  62
ENDBRANCH  41  55
BRANCH  42  66
ATOM     66  C   UNL A   1      43.508  25.334  26.055  1.00  0.00     0.023 A 
ATOM     67  C   UNL A   1      44.599  25.146  25.182  1.00  0.00     0.012 A 
ATOM     68  C   UNL A   1      42.716  24.214  26.389  1.00  0.00     0.148 A 
ATOM     69  C   UNL A   1      44.912  23.874  24.687  1.00  0.00     0.002 A 
ATOM     70  C   UNL A   1      43.031  22.953  25.893  1.00  0.00     0.091 A 
ATOM     71  F   UNL A   1      41.709  24.378  27.256  1.00  0.00    -0.205 F 
ATOM     72  C   UNL A   1      44.137  22.777  25.052  1.00  0.00     0.022 A 
BRANCH  70  73
ATOM     73  S   UNL A   1      42.102  21.481  26.346  1.00  0.00     0.127 S 
ATOM     74  O   UNL A   1      40.744  21.849  25.945  1.00  0.00    -0.237 OA
ATOM     75  O   UNL A   1      42.731  20.459  25.512  1.00  0.00    -0.237 OA
ATOM     76  O   UNL A   1      42.283  21.318  27.782  1.00  0.00    -0.744 OA
ENDBRANCH  70  73
ENDBRANCH  42  66
BRANCH  54  77
ATOM     77  C   UNL A   1      45.312  30.881  28.183  1.00  0.00     0.023 A 
ATOM     78  C   UNL A   1      44.227  31.390  27.440  1.00  0.00     0.012 A 
ATOM     79  C   UNL A   1      46.598  31.390  27.948  1.00  0.00     0.148 A 
ATOM     80  C   UNL A   1      44.427  32.369  26.465  1.00  0.00     0.002 A 
ATOM     81  C   UNL A   1      46.788  32.396  27.011  1.00  0.00     0.091 A 
ATOM     82  F   UNL A   1      47.616  30.890  28.665  1.00  0.00    -0.205 F 
ATOM     83  C   UNL A   1      45.707  32.881  26.258  1.00  0.00     0.022 A 
BRANCH  81  84
ATOM     84  S   UNL A   1      48.386  33.175  26.781  1.00  0.00     0.127 S 
ATOM     85  O   UNL A   1      49.232  32.038  26.425  1.00  0.00    -0.237 OA
ATOM     86  O   UNL A   1      48.123  34.109  25.686  1.00  0.00    -0.237 OA
ATOM     87  O   UNL A   1      48.707  33.820  28.049  1.00  0.00    -0.744 OA
ENDBRANCH  81  84
ENDBRANCH  54  77
ENDBRANCH  28  29
ENDBRANCH  21  23
ENDBRANCH  20  21
ENDBRANCH   1  20
TORSDOF 15
ENDMDL
MODEL 2
REMARK VINA RESULT:     -11.3      4.838      9.993
REMARK SMILES Cc1nn(-c2cc(Cl)ccc2Cl)nc1C(=O)OCCOC(=O)c1ccc(-c2c3nc(c(-c4cccc(S(=O)(=O)[O-])c4F)c4ccc([nH]4)c(-c4cccc(S(=O)(=O)[O-])c4F)c4nc(c(-c5cccc(S(=O)(=O)[O-])c5F)c5ccc2[nH]5)C=C4)C=C3)cc1
REMARK SMILES IDX 19 1 18 2 17 3 15 4 16 5 14 6 1 7 2 8 3 9 4 10 13 11 5 12
REMARK SMILES IDX 6 13 11 14 7 15 10 16 12 17 8 18 9 19 20 20 21 21 22 22
REMARK SMILES IDX 23 23 24 24 85 25 25 26 84 27 26 28 27 29 28 30 78 31 29 32
REMARK SMILES IDX 83 33 77 34 79 35 30 36 82 37 76 38 75 39 31 41 63 42 43 43
REMARK SMILES IDX 62 44 44 45 47 46 61 47 80 48 45 49 46 50 60 52 81 53 48 54
REMARK SMILES IDX 32 55 33 56 41 57 34 58 36 59 42 60 35 61 37 62 38 63 39 64
REMARK SMILES IDX 40 65 64 66 65 67 73 68 66 69 68 70 74 71 67 72 69 73 70 74
REMARK SMILES IDX 71 75 72 76 49 77 50 78 58 79 51 80 53 81 59 82 52 83 54 84
REMARK SMILES IDX 55 85 56 86 57 87
REMARK H PARENT 79 40 47 51
REMARK Flexibility Score: inf
ROOT
ATOM      1  C   UNL A   1      39.747  20.197  25.700  1.00  0.00     0.275 C 
ENDROOT
BRANCH   1   2
ATOM      2  C   UNL A   1      38.499  19.632  25.035  1.00  0.00     0.275 C 
BRANCH   2   3
ATOM      3  O   UNL A   1      37.354  20.459  25.300  1.00  0.00    -0.457 OA
BRANCH   3   4
ATOM      4  C   UNL A   1      36.151  19.942  24.898  1.00  0.00     0.360 C 
ATOM      5  O   UNL A   1      35.980  18.753  24.636  1.00  0.00    -0.244 OA
BRANCH   4   6
ATOM      6  C   UNL A   1      35.085  20.942  24.853  1.00  0.00     0.193 A 
ATOM      7  C   UNL A   1      32.937  19.612  25.557  1.00  0.00     0.071 C 
ATOM      8  C   UNL A   1      33.706  20.815  25.165  1.00  0.00     0.095 A 
ATOM      9  N   UNL A   1      33.106  22.010  25.067  1.00  0.00    -0.153 NA
ATOM     10  N   UNL A   1      34.105  22.786  24.594  1.00  0.00    -0.149 N 
ATOM     11  N   UNL A   1      35.306  22.203  24.429  1.00  0.00    -0.141 NA
BRANCH  10  12
ATOM     12  C   UNL A   1      33.917  24.136  24.264  1.00  0.00     0.106 A 
ATOM     13  C   UNL A   1      34.072  25.097  25.276  1.00  0.00     0.052 A 
ATOM     14  C   UNL A   1      33.523  24.505  22.975  1.00  0.00     0.068 A 
ATOM     15  C   UNL A   1      33.856  26.440  24.975  1.00  0.00     0.043 A 
ATOM     16  C   UNL A   1      33.270  25.853  22.703  1.00  0.00     0.024 A 
ATOM     17  Cl  UNL A   1      33.203  23.365  21.716  1.00  0.00    -0.082 Cl
ATOM     18  Cl  UNL A   1      34.099  27.640  26.180  1.00  0.00    -0.084 Cl
ATOM     19  C   UNL A   1      33.444  26.820  23.698  1.00  0.00     0.022 A 
ENDBRANCH  10  12
ENDBRANCH   4   6
ENDBRANCH   3   4
ENDBRANCH   2   3
ENDBRANCH   1   2
BRANCH   1  20
ATOM     20  O   UNL A   1      40.708  19.179  25.978  1.00  0.00    -0.458 OA
BRANCH  20  21
ATOM     21  C   UNL A   1      41.991  19.518  25.718  1.00  0.00     0.338 C 
ATOM     22  O   UNL A   1      42.805  18.868  25.081  1.00  0.00    -0.246 OA
BRANCH  21  23
ATOM     23  C   UNL A   1      42.336  20.714  26.489  1.00  0.00     0.060 A 
ATOM     24  C   UNL A   1      41.911  20.795  27.818  1.00  0.00     0.016 A 
ATOM     25  C   UNL A   1      42.873  21.820  25.814  1.00  0.00     0.016 A 
ATOM     26  C   UNL A   1      41.926  22.027  28.442  1.00  0.00     0.010 A 
ATOM     27  C   UNL A   1      42.874  23.047  26.433  1.00  0.00     0.010 A 
ATOM     28  C   UNL A   1      42.353  23.149  27.720  1.00  0.00    -0.014 A 
BRANCH  28  29
ATOM     29  C   UNL A   1      42.413  24.433  28.391  1.00  0.00     0.031 A 
ATOM     30  C   UNL A   1      41.231  25.278  28.098  1.00  0.00     0.074 A 
ATOM     31  C   UNL A   1      43.361  24.730  29.302  1.00  0.00     0.049 A 
ATOM     32  N   UNL A   1      41.206  26.388  27.440  1.00  0.00    -0.248 NA
ATOM     33  C   UNL A   1      39.898  24.734  28.407  1.00  0.00     0.031 C 
ATOM     34  C   UNL A   1      44.387  23.823  29.831  1.00  0.00     0.029 A 
ATOM     35  N   UNL A   1      43.526  25.856  30.055  1.00  0.00    -0.354 N 
ATOM     36  C   UNL A   1      39.881  26.812  27.504  1.00  0.00     0.074 A 
ATOM     37  C   UNL A   1      39.102  25.668  27.886  1.00  0.00     0.031 C 
ATOM     38  C   UNL A   1      44.896  24.342  30.970  1.00  0.00     0.029 A 
ATOM     39  C   UNL A   1      44.338  25.668  31.171  1.00  0.00     0.049 A 
ATOM     40  H   UNL A   1      43.111  26.720  29.830  1.00  0.00     0.167 HD
ATOM     41  C   UNL A   1      39.590  28.138  27.578  1.00  0.00     0.034 A 
ATOM     42  C   UNL A   1      44.499  26.518  32.213  1.00  0.00     0.034 A 
ATOM     43  C   UNL A   1      40.732  28.937  27.214  1.00  0.00     0.049 A 
ATOM     44  C   UNL A   1      44.115  27.865  31.750  1.00  0.00     0.074 A 
ATOM     45  C   UNL A   1      41.426  29.226  26.062  1.00  0.00     0.029 A 
ATOM     46  N   UNL A   1      41.539  29.249  28.277  1.00  0.00    -0.354 N 
ATOM     47  N   UNL A   1      44.792  28.525  30.853  1.00  0.00    -0.248 NA
ATOM     48  C   UNL A   1      42.776  28.373  32.022  1.00  0.00     0.031 C 
ATOM     49  C   UNL A   1      42.756  29.534  26.474  1.00  0.00     0.029 A 
ATOM     50  C   UNL A   1      42.826  29.460  27.866  1.00  0.00     0.049 A 
ATOM     51  H   UNL A   1      41.233  29.313  29.211  1.00  0.00     0.167 HD
ATOM     52  C   UNL A   1      43.819  29.194  30.133  1.00  0.00     0.074 A 
ATOM     53  C   UNL A   1      42.655  29.235  31.007  1.00  0.00     0.031 C 
ATOM     54  C   UNL A   1      43.940  29.348  28.783  1.00  0.00     0.034 A 
BRANCH  41  55
ATOM     55  C   UNL A   1      38.492  28.732  28.440  1.00  0.00     0.023 A 
ATOM     56  C   UNL A   1      37.559  29.575  27.796  1.00  0.00     0.012 A 
ATOM     57  C   UNL A   1      38.507  28.765  29.855  1.00  0.00     0.148 A 
ATOM     58  C   UNL A   1      36.721  30.434  28.517  1.00  0.00     0.002 A 
ATOM     59  C   UNL A   1      37.621  29.563  30.569  1.00  0.00     0.091 A 
ATOM     60  F   UNL A   1      39.471  28.138  30.533  1.00  0.00    -0.205 F 
ATOM     61  C   UNL A   1      36.746  30.422  29.906  1.00  0.00     0.022 A 
BRANCH  59  62
ATOM     62  S   UNL A   1      37.593  29.563  32.367  1.00  0.00     0.127 S 
ATOM     63  O   UNL A   1      38.849  30.241  32.679  1.00  0.00    -0.237 OA
ATOM     64  O   UNL A   1      36.383  30.335  32.646  1.00  0.00    -0.237 OA
ATOM     65  O   UNL A   1      37.510  28.161  32.759  1.00  0.00    -0.744 OA
ENDBRANCH  59  62
ENDBRANCH  41  55
BRANCH  42  66
ATOM     66  C   UNL A   1      44.810  26.241  33.633  1.00  0.00     0.023 A 
ATOM     67  C   UNL A   1      46.142  26.305  34.090  1.00  0.00     0.012 A 
ATOM     68  C   UNL A   1      43.774  26.192  34.590  1.00  0.00     0.148 A 
ATOM     69  C   UNL A   1      46.430  26.356  35.459  1.00  0.00     0.002 A 
ATOM     70  C   UNL A   1      44.066  26.241  35.950  1.00  0.00     0.091 A 
ATOM     71  F   UNL A   1      42.505  26.182  34.162  1.00  0.00    -0.205 F 
ATOM     72  C   UNL A   1      45.393  26.337  36.388  1.00  0.00     0.022 A 
BRANCH  70  73
ATOM     73  S   UNL A   1      42.784  26.258  37.210  1.00  0.00     0.127 S 
ATOM     74  O   UNL A   1      42.020  27.451  36.844  1.00  0.00    -0.237 OA
ATOM     75  O   UNL A   1      42.099  24.992  36.962  1.00  0.00    -0.237 OA
ATOM     76  O   UNL A   1      43.478  26.356  38.488  1.00  0.00    -0.744 OA
ENDBRANCH  70  73
ENDBRANCH  42  66
BRANCH  54  77
ATOM     77  C   UNL A   1      45.311  29.191  28.192  1.00  0.00     0.023 A 
ATOM     78  C   UNL A   1      46.297  30.196  28.272  1.00  0.00     0.012 A 
ATOM     79  C   UNL A   1      45.645  27.950  27.627  1.00  0.00     0.148 A 
ATOM     80  C   UNL A   1      47.583  29.974  27.775  1.00  0.00     0.002 A 
ATOM     81  C   UNL A   1      46.937  27.717  27.177  1.00  0.00     0.091 A 
ATOM     82  F   UNL A   1      44.691  27.010  27.560  1.00  0.00    -0.205 F 
ATOM     83  C   UNL A   1      47.906  28.729  27.237  1.00  0.00     0.022 A 
BRANCH  81  84
ATOM     84  S   UNL A   1      47.444  26.103  26.582  1.00  0.00     0.127 S 
ATOM     85  O   UNL A   1      47.116  26.183  25.161  1.00  0.00    -0.237 OA
ATOM     86  O   UNL A   1      48.878  26.099  26.880  1.00  0.00    -0.237 OA
ATOM     87  O   UNL A   1      46.675  25.130  27.348  1.00  0.00    -0.744 OA
ENDBRANCH  81  84
ENDBRANCH  54  77
ENDBRANCH  28  29
ENDBRANCH  21  23
ENDBRANCH  20  21
ENDBRANCH   1  20
TORSDOF 15
ENDMDL
MODEL 3
REMARK VINA RESULT:     -11.3      4.456      8.863
REMARK SMILES Cc1nn(-c2cc(Cl)ccc2Cl)nc1C(=O)OCCOC(=O)c1ccc(-c2c3nc(c(-c4cccc(S(=O)(=O)[O-])c4F)c4ccc([nH]4)c(-c4cccc(S(=O)(=O)[O-])c4F)c4nc(c(-c5cccc(S(=O)(=O)[O-])c5F)c5ccc2[nH]5)C=C4)C=C3)cc1
REMARK SMILES IDX 19 1 18 2 17 3 15 4 16 5 14 6 1 7 2 8 3 9 4 10 13 11 5 12
REMARK SMILES IDX 6 13 11 14 7 15 10 16 12 17 8 18 9 19 20 20 21 21 22 22
REMARK SMILES IDX 23 23 24 24 85 25 25 26 84 27 26 28 27 29 28 30 78 31 29 32
REMARK SMILES IDX 83 33 77 34 79 35 30 36 82 37 76 38 75 39 31 41 63 42 43 43
REMARK SMILES IDX 62 44 44 45 47 46 61 47 80 48 45 49 46 50 60 52 81 53 48 54
REMARK SMILES IDX 32 55 33 56 41 57 34 58 36 59 42 60 35 61 37 62 38 63 39 64
REMARK SMILES IDX 40 65 64 66 65 67 73 68 66 69 68 70 74 71 67 72 69 73 70 74
REMARK SMILES IDX 71 75 72 76 49 77 50 78 58 79 51 80 53 81 59 82 52 83 54 84
REMARK SMILES IDX 55 85 56 86 57 87
REMARK H PARENT 79 40 47 51
REMARK Flexibility Score: inf
ROOT
ATOM      1  C   UNL A   1      32.130  33.081  27.025  1.00  0.00     0.275 C 
ENDROOT
BRANCH   1   2
ATOM      2  C   UNL A   1      31.673  31.649  26.779  1.00  0.00     0.275 C 
BRANCH   2   3
ATOM      3  O   UNL A   1      32.658  30.914  26.033  1.00  0.00    -0.457 OA
BRANCH   3   4
ATOM      4  C   UNL A   1      33.464  30.093  26.775  1.00  0.00     0.360 C 
ATOM      5  O   UNL A   1      34.281  30.508  27.595  1.00  0.00    -0.244 OA
BRANCH   4   6
ATOM      6  C   UNL A   1      33.223  28.673  26.521  1.00  0.00     0.193 A 
ATOM      7  C   UNL A   1      31.141  28.106  28.012  1.00  0.00     0.071 C 
ATOM      8  C   UNL A   1      32.207  27.819  27.025  1.00  0.00     0.095 A 
ATOM      9  N   UNL A   1      32.311  26.607  26.461  1.00  0.00    -0.153 NA
ATOM     10  N   UNL A   1      33.441  26.734  25.732  1.00  0.00    -0.149 N 
ATOM     11  N   UNL A   1      34.042  27.939  25.740  1.00  0.00    -0.141 NA
BRANCH  10  12
ATOM     12  C   UNL A   1      33.993  25.668  25.008  1.00  0.00     0.106 A 
ATOM     13  C   UNL A   1      35.085  24.981  25.561  1.00  0.00     0.052 A 
ATOM     14  C   UNL A   1      33.506  25.342  23.740  1.00  0.00     0.068 A 
ATOM     15  C   UNL A   1      35.668  23.941  24.842  1.00  0.00     0.043 A 
ATOM     16  C   UNL A   1      34.131  24.323  23.015  1.00  0.00     0.024 A 
ATOM     17  Cl  UNL A   1      32.242  26.219  22.952  1.00  0.00    -0.082 Cl
ATOM     18  Cl  UNL A   1      36.966  23.045  25.524  1.00  0.00    -0.084 Cl
ATOM     19  C   UNL A   1      35.204  23.617  23.567  1.00  0.00     0.022 A 
ENDBRANCH  10  12
ENDBRANCH   4   6
ENDBRANCH   3   4
ENDBRANCH   2   3
ENDBRANCH   1   2
BRANCH   1  20
ATOM     20  O   UNL A   1      32.206  33.383  28.417  1.00  0.00    -0.458 OA
BRANCH  20  21
ATOM     21  C   UNL A   1      32.902  34.502  28.723  1.00  0.00     0.338 C 
ATOM     22  O   UNL A   1      32.523  35.655  28.601  1.00  0.00    -0.246 OA
BRANCH  21  23
ATOM     23  C   UNL A   1      34.281  34.134  29.047  1.00  0.00     0.060 A 
ATOM     24  C   UNL A   1      35.256  34.260  28.053  1.00  0.00     0.016 A 
ATOM     25  C   UNL A   1      34.535  33.461  30.251  1.00  0.00     0.016 A 
ATOM     26  C   UNL A   1      36.463  33.612  28.226  1.00  0.00     0.010 A 
ATOM     27  C   UNL A   1      35.731  32.806  30.415  1.00  0.00     0.010 A 
ATOM     28  C   UNL A   1      36.662  32.843  29.379  1.00  0.00    -0.014 A 
BRANCH  28  29
ATOM     29  C   UNL A   1      37.948  32.202  29.582  1.00  0.00     0.031 A 
ATOM     30  C   UNL A   1      37.945  30.787  29.142  1.00  0.00     0.074 A 
ATOM     31  C   UNL A   1      39.044  32.883  29.968  1.00  0.00     0.049 A 
ATOM     32  N   UNL A   1      38.070  29.736  29.882  1.00  0.00    -0.248 NA
ATOM     33  C   UNL A   1      37.574  30.495  27.747  1.00  0.00     0.031 C 
ATOM     34  C   UNL A   1      39.159  34.336  30.144  1.00  0.00     0.029 A 
ATOM     35  N   UNL A   1      40.324  32.448  30.149  1.00  0.00    -0.354 N 
ATOM     36  C   UNL A   1      38.072  28.668  28.990  1.00  0.00     0.074 A 
ATOM     37  C   UNL A   1      37.533  29.163  27.755  1.00  0.00     0.031 C 
ATOM     38  C   UNL A   1      40.466  34.681  30.161  1.00  0.00     0.029 A 
ATOM     39  C   UNL A   1      41.269  33.471  30.139  1.00  0.00     0.049 A 
ATOM     40  H   UNL A   1      40.558  31.500  30.274  1.00  0.00     0.167 HD
ATOM     41  C   UNL A   1      38.835  27.570  29.239  1.00  0.00     0.034 A 
ATOM     42  C   UNL A   1      42.615  33.336  30.064  1.00  0.00     0.034 A 
ATOM     43  C   UNL A   1      39.269  27.545  30.612  1.00  0.00     0.049 A 
ATOM     44  C   UNL A   1      42.950  31.973  30.521  1.00  0.00     0.074 A 
ATOM     45  C   UNL A   1      38.689  27.332  31.842  1.00  0.00     0.029 A 
ATOM     46  N   UNL A   1      40.462  28.187  30.818  1.00  0.00    -0.354 N 
ATOM     47  N   UNL A   1      42.781  31.577  31.751  1.00  0.00    -0.248 NA
ATOM     48  C   UNL A   1      43.160  30.911  29.545  1.00  0.00     0.031 C 
ATOM     49  C   UNL A   1      39.487  28.052  32.779  1.00  0.00     0.029 A 
ATOM     50  C   UNL A   1      40.548  28.652  32.102  1.00  0.00     0.049 A 
ATOM     51  H   UNL A   1      41.162  28.298  30.135  1.00  0.00     0.167 HD
ATOM     52  C   UNL A   1      42.390  30.257  31.621  1.00  0.00     0.074 A 
ATOM     53  C   UNL A   1      42.839  29.853  30.296  1.00  0.00     0.031 C 
ATOM     54  C   UNL A   1      41.450  29.728  32.455  1.00  0.00     0.034 A 
BRANCH  41  55
ATOM     55  C   UNL A   1      39.611  26.804  28.183  1.00  0.00     0.023 A 
ATOM     56  C   UNL A   1      39.484  25.397  28.192  1.00  0.00     0.012 A 
ATOM     57  C   UNL A   1      40.669  27.342  27.412  1.00  0.00     0.148 A 
ATOM     58  C   UNL A   1      40.385  24.571  27.510  1.00  0.00     0.002 A 
ATOM     59  C   UNL A   1      41.515  26.522  26.675  1.00  0.00     0.091 A 
ATOM     60  F   UNL A   1      40.968  28.640  27.491  1.00  0.00    -0.205 F 
ATOM     61  C   UNL A   1      41.397  25.134  26.743  1.00  0.00     0.022 A 
BRANCH  59  62
ATOM     62  S   UNL A   1      42.822  27.202  25.643  1.00  0.00     0.127 S 
ATOM     63  O   UNL A   1      43.723  27.765  26.646  1.00  0.00    -0.237 OA
ATOM     64  O   UNL A   1      43.318  26.006  24.963  1.00  0.00    -0.237 OA
ATOM     65  O   UNL A   1      42.168  28.161  24.761  1.00  0.00    -0.744 OA
ENDBRANCH  59  62
ENDBRANCH  41  55
BRANCH  42  66
ATOM     66  C   UNL A   1      43.635  34.234  29.481  1.00  0.00     0.023 A 
ATOM     67  C   UNL A   1      44.352  35.121  30.309  1.00  0.00     0.012 A 
ATOM     68  C   UNL A   1      44.098  34.023  28.165  1.00  0.00     0.148 A 
ATOM     69  C   UNL A   1      45.517  35.749  29.851  1.00  0.00     0.002 A 
ATOM     70  C   UNL A   1      45.255  34.651  27.714  1.00  0.00     0.091 A 
ATOM     71  F   UNL A   1      43.449  33.144  27.390  1.00  0.00    -0.205 F 
ATOM     72  C   UNL A   1      45.975  35.505  28.560  1.00  0.00     0.022 A 
BRANCH  70  73
ATOM     73  S   UNL A   1      45.932  34.360  26.074  1.00  0.00     0.127 S 
ATOM     74  O   UNL A   1      47.020  35.337  26.022  1.00  0.00    -0.237 OA
ATOM     75  O   UNL A   1      46.363  32.968  26.166  1.00  0.00    -0.237 OA
ATOM     76  O   UNL A   1      44.845  34.620  25.138  1.00  0.00    -0.744 OA
ENDBRANCH  70  73
ENDBRANCH  42  66
BRANCH  54  77
ATOM     77  C   UNL A   1      41.200  30.442  33.752  1.00  0.00     0.023 A 
ATOM     78  C   UNL A   1      42.111  30.410  34.829  1.00  0.00     0.012 A 
ATOM     79  C   UNL A   1      40.058  31.252  33.848  1.00  0.00     0.148 A 
ATOM     80  C   UNL A   1      41.872  31.154  35.987  1.00  0.00     0.002 A 
ATOM     81  C   UNL A   1      39.847  32.025  34.981  1.00  0.00     0.091 A 
ATOM     82  F   UNL A   1      39.205  31.265  32.812  1.00  0.00    -0.205 F 
ATOM     83  C   UNL A   1      40.745  31.971  36.058  1.00  0.00     0.022 A 
BRANCH  81  84
ATOM     84  S   UNL A   1      38.480  33.181  35.086  1.00  0.00     0.127 S 
ATOM     85  O   UNL A   1      38.761  33.875  36.340  1.00  0.00    -0.237 OA
ATOM     86  O   UNL A   1      38.666  33.992  33.882  1.00  0.00    -0.237 OA
ATOM     87  O   UNL A   1      37.267  32.372  35.076  1.00  0.00    -0.744 OA
ENDBRANCH  81  84
ENDBRANCH  54  77
ENDBRANCH  28  29
ENDBRANCH  21  23
ENDBRANCH  20  21
ENDBRANCH   1  20
TORSDOF 15
ENDMDL
