MODEL 1
REMARK VINA RESULT:      -9.8      0.000      0.000
REMARK SMILES CC[N@@H+](Cc1cccc(C)n1)Cc1csc(C(=O)OCCOC(=O)c2ccc(-c3c4nc(c(-c5cccc(S(=O)(=O)[O-])c5F)c5ccc([nH]5)c(-c5cccc(S(=O)(=O)[O-])c5F)c5nc(c(-c6cccc(S(=O)(=O)[O-])c6F)c6ccc3[nH]6)C=C5)C=C4)cc2)n1
REMARK SMILES IDX 20 1 19 2 17 3 18 4 16 5 13 6 14 7 88 8 15 9 12 10 3 11 2 13
REMARK SMILES IDX 1 14 4 15 5 16 6 17 11 18 7 19 9 20 8 21 10 22 21 23 22 24
REMARK SMILES IDX 23 25 24 26 25 27 26 28 87 29 27 30 86 31 28 32 29 33 30 34
REMARK SMILES IDX 80 35 31 36 85 37 79 38 81 39 32 40 84 41 78 42 77 43 33 45
REMARK SMILES IDX 65 46 45 47 64 48 46 49 49 50 63 51 82 52 47 53 48 54 62 56
REMARK SMILES IDX 83 57 50 58 34 59 35 60 43 61 36 62 38 63 44 64 37 65 39 66
REMARK SMILES IDX 40 67 41 68 42 69 66 70 67 71 75 72 68 73 70 74 76 75 69 76
REMARK SMILES IDX 71 77 72 78 73 79 74 80 51 81 52 82 60 83 53 84 55 85 61 86
REMARK SMILES IDX 54 87 56 88 57 89 58 90 59 91
REMARK H PARENT 3 12 81 44 49 55
REMARK Flexibility Score: inf
ROOT
ATOM      1  C   UNL A   1      33.594  34.239  28.359  1.00  0.00     0.275 C 
ENDROOT
BRANCH   1   2
ATOM      2  O   UNL A   1      34.067  35.403  29.062  1.00  0.00    -0.457 OA
BRANCH   2   3
ATOM      3  C   UNL A   1      33.199  35.942  29.977  1.00  0.00     0.367 C 
ATOM      4  O   UNL A   1      32.133  36.459  29.670  1.00  0.00    -0.243 OA
BRANCH   3   5
ATOM      5  C   UNL A   1      33.699  35.774  31.340  1.00  0.00     0.202 A 
ATOM      6  C   UNL A   1      34.433  34.848  33.226  1.00  0.00     0.106 A 
ATOM      7  C   UNL A   1      34.219  36.137  33.676  1.00  0.00     0.097 A 
ATOM      8  N   UNL A   1      34.117  34.644  31.882  1.00  0.00    -0.229 NA
ATOM      9  S   UNL A   1      33.789  37.151  32.374  1.00  0.00    -0.115 S 
BRANCH   6  10
ATOM     10  C   UNL A   1      35.033  33.726  34.020  1.00  0.00     0.320 C 
BRANCH  10  11
ATOM     11  N   UNL A   1      36.444  33.483  33.730  1.00  0.00    -0.325 N 
ATOM     12  H   UNL A   1      36.915  33.613  34.626  1.00  0.00     0.348 HD
BRANCH  11  13
ATOM     13  C   UNL A   1      36.895  32.112  33.617  1.00  0.00     0.259 C 
ATOM     14  C   UNL A   1      36.206  31.235  32.573  1.00  0.00     0.071 C 
ENDBRANCH  11  13
BRANCH  11  15
ATOM     15  C   UNL A   1      37.083  34.547  32.924  1.00  0.00     0.319 C 
BRANCH  15  16
ATOM     16  C   UNL A   1      37.818  34.350  31.599  1.00  0.00     0.095 A 
ATOM     17  C   UNL A   1      37.261  33.886  30.411  1.00  0.00     0.030 A 
ATOM     18  N   UNL A   1      39.170  34.519  31.687  1.00  0.00    -0.252 NA
ATOM     19  C   UNL A   1      38.066  33.656  29.297  1.00  0.00     0.004 A 
ATOM     20  C   UNL A   1      39.947  34.296  30.596  1.00  0.00     0.038 A 
ATOM     21  C   UNL A   1      39.429  33.868  29.385  1.00  0.00     0.023 A 
ATOM     22  C   UNL A   1      41.419  34.527  30.752  1.00  0.00     0.067 C 
ENDBRANCH  15  16
ENDBRANCH  11  15
ENDBRANCH  10  11
ENDBRANCH   6  10
ENDBRANCH   3   5
ENDBRANCH   2   3
ENDBRANCH   1   2
BRANCH   1  23
ATOM     23  C   UNL A   1      34.291  32.953  28.817  1.00  0.00     0.275 C 
BRANCH  23  24
ATOM     24  O   UNL A   1      34.780  32.184  27.700  1.00  0.00    -0.458 OA
BRANCH  24  25
ATOM     25  C   UNL A   1      34.586  30.850  27.811  1.00  0.00     0.338 C 
ATOM     26  O   UNL A   1      33.538  30.246  27.654  1.00  0.00    -0.246 OA
BRANCH  25  27
ATOM     27  C   UNL A   1      35.859  30.145  28.009  1.00  0.00     0.060 A 
ATOM     28  C   UNL A   1      36.015  29.474  29.217  1.00  0.00     0.016 A 
ATOM     29  C   UNL A   1      36.942  30.292  27.145  1.00  0.00     0.016 A 
ATOM     30  C   UNL A   1      37.258  28.990  29.605  1.00  0.00     0.010 A 
ATOM     31  C   UNL A   1      38.190  29.766  27.515  1.00  0.00     0.010 A 
ATOM     32  C   UNL A   1      38.368  29.140  28.764  1.00  0.00    -0.014 A 
BRANCH  32  33
ATOM     33  C   UNL A   1      39.702  28.688  29.252  1.00  0.00     0.031 A 
ATOM     34  C   UNL A   1      40.377  29.391  30.400  1.00  0.00     0.074 A 
ATOM     35  C   UNL A   1      40.281  27.600  28.702  1.00  0.00     0.049 A 
ATOM     36  N   UNL A   1      41.543  29.152  30.945  1.00  0.00    -0.248 NA
ATOM     37  C   UNL A   1      39.651  30.513  31.017  1.00  0.00     0.031 C 
ATOM     38  C   UNL A   1      39.725  26.815  27.599  1.00  0.00     0.029 A 
ATOM     39  N   UNL A   1      41.463  26.965  28.997  1.00  0.00    -0.354 N 
ATOM     40  C   UNL A   1      41.716  30.125  31.924  1.00  0.00     0.074 A 
ATOM     41  C   UNL A   1      40.535  30.959  31.898  1.00  0.00     0.031 C 
ATOM     42  C   UNL A   1      40.552  25.796  27.322  1.00  0.00     0.029 A 
ATOM     43  C   UNL A   1      41.729  25.892  28.179  1.00  0.00     0.049 A 
ATOM     44  H   UNL A   1      42.062  27.250  29.725  1.00  0.00     0.167 HD
ATOM     45  C   UNL A   1      42.759  30.301  32.772  1.00  0.00     0.034 A 
ATOM     46  C   UNL A   1      42.810  25.093  28.098  1.00  0.00     0.034 A 
ATOM     47  C   UNL A   1      43.914  29.443  32.824  1.00  0.00     0.049 A 
ATOM     48  C   UNL A   1      43.955  25.318  29.046  1.00  0.00     0.074 A 
ATOM     49  C   UNL A   1      45.003  29.518  33.674  1.00  0.00     0.029 A 
ATOM     50  N   UNL A   1      44.135  28.357  31.991  1.00  0.00    -0.354 N 
ATOM     51  N   UNL A   1      44.072  26.203  30.005  1.00  0.00    -0.248 NA
ATOM     52  C   UNL A   1      45.109  24.417  28.916  1.00  0.00     0.031 C 
ATOM     53  C   UNL A   1      45.901  28.501  33.332  1.00  0.00     0.029 A 
ATOM     54  C   UNL A   1      45.347  27.760  32.300  1.00  0.00     0.049 A 
ATOM     55  H   UNL A   1      43.522  28.055  31.283  1.00  0.00     0.167 HD
ATOM     56  C   UNL A   1      45.291  25.943  30.617  1.00  0.00     0.074 A 
ATOM     57  C   UNL A   1      45.866  24.802  29.934  1.00  0.00     0.031 C 
ATOM     58  C   UNL A   1      45.888  26.596  31.646  1.00  0.00     0.034 A 
BRANCH  45  59
ATOM     59  C   UNL A   1      42.703  31.473  33.721  1.00  0.00     0.023 A 
ATOM     60  C   UNL A   1      43.223  32.725  33.334  1.00  0.00     0.012 A 
ATOM     61  C   UNL A   1      42.084  31.345  34.982  1.00  0.00     0.148 A 
ATOM     62  C   UNL A   1      43.162  33.819  34.199  1.00  0.00     0.002 A 
ATOM     63  C   UNL A   1      41.982  32.450  35.818  1.00  0.00     0.091 A 
ATOM     64  F   UNL A   1      41.610  30.143  35.341  1.00  0.00    -0.205 F 
ATOM     65  C   UNL A   1      42.533  33.684  35.435  1.00  0.00     0.022 A 
BRANCH  63  66
ATOM     66  S   UNL A   1      41.119  32.400  37.391  1.00  0.00     0.127 S 
ATOM     67  O   UNL A   1      41.992  31.530  38.180  1.00  0.00    -0.237 OA
ATOM     68  O   UNL A   1      41.137  33.807  37.796  1.00  0.00    -0.237 OA
ATOM     69  O   UNL A   1      39.795  31.865  37.110  1.00  0.00    -0.744 OA
ENDBRANCH  63  66
ENDBRANCH  45  59
BRANCH  46  70
ATOM     70  C   UNL A   1      42.857  24.000  27.085  1.00  0.00     0.023 A 
ATOM     71  C   UNL A   1      43.550  24.194  25.875  1.00  0.00     0.012 A 
ATOM     72  C   UNL A   1      42.228  22.762  27.325  1.00  0.00     0.148 A 
ATOM     73  C   UNL A   1      43.589  23.187  24.909  1.00  0.00     0.002 A 
ATOM     74  C   UNL A   1      42.326  21.742  26.387  1.00  0.00     0.091 A 
ATOM     75  F   UNL A   1      41.559  22.602  28.475  1.00  0.00    -0.205 F 
ATOM     76  C   UNL A   1      42.988  21.958  25.170  1.00  0.00     0.022 A 
BRANCH  74  77
ATOM     77  S   UNL A   1      41.699  20.087  26.697  1.00  0.00     0.127 S 
ATOM     78  O   UNL A   1      42.006  19.411  25.438  1.00  0.00    -0.237 OA
ATOM     79  O   UNL A   1      42.513  19.667  27.838  1.00  0.00    -0.237 OA
ATOM     80  O   UNL A   1      40.283  20.251  26.996  1.00  0.00    -0.744 OA
ENDBRANCH  74  77
ENDBRANCH  46  70
BRANCH  58  81
ATOM     81  C   UNL A   1      47.206  26.058  32.139  1.00  0.00     0.023 A 
ATOM     82  C   UNL A   1      47.251  25.196  33.253  1.00  0.00     0.012 A 
ATOM     83  C   UNL A   1      48.401  26.376  31.464  1.00  0.00     0.148 A 
ATOM     84  C   UNL A   1      48.470  24.697  33.714  1.00  0.00     0.002 A 
ATOM     85  C   UNL A   1      49.603  25.831  31.895  1.00  0.00     0.091 A 
ATOM     86  F   UNL A   1      48.342  27.214  30.418  1.00  0.00    -0.205 F 
ATOM     87  C   UNL A   1      49.643  25.006  33.029  1.00  0.00     0.022 A 
BRANCH  85  88
ATOM     88  S   UNL A   1      51.147  26.092  31.014  1.00  0.00     0.127 S 
ATOM     89  O   UNL A   1      51.369  27.522  31.218  1.00  0.00    -0.237 OA
ATOM     90  O   UNL A   1      52.070  25.221  31.741  1.00  0.00    -0.237 OA
ATOM     91  O   UNL A   1      50.896  25.689  29.636  1.00  0.00    -0.744 OA
ENDBRANCH  85  88
ENDBRANCH  58  81
ENDBRANCH  32  33
ENDBRANCH  25  27
ENDBRANCH  24  25
ENDBRANCH  23  24
ENDBRANCH   1  23
TORSDOF 19
ENDMDL
MODEL 2
REMARK VINA RESULT:      -9.7      5.183     10.879
REMARK SMILES CC[N@@H+](Cc1cccc(C)n1)Cc1csc(C(=O)OCCOC(=O)c2ccc(-c3c4nc(c(-c5cccc(S(=O)(=O)[O-])c5F)c5ccc([nH]5)c(-c5cccc(S(=O)(=O)[O-])c5F)c5nc(c(-c6cccc(S(=O)(=O)[O-])c6F)c6ccc3[nH]6)C=C5)C=C4)cc2)n1
REMARK SMILES IDX 20 1 19 2 17 3 18 4 16 5 13 6 14 7 88 8 15 9 12 10 3 11 2 13
REMARK SMILES IDX 1 14 4 15 5 16 6 17 11 18 7 19 9 20 8 21 10 22 21 23 22 24
REMARK SMILES IDX 23 25 24 26 25 27 26 28 87 29 27 30 86 31 28 32 29 33 30 34
REMARK SMILES IDX 80 35 31 36 85 37 79 38 81 39 32 40 84 41 78 42 77 43 33 45
REMARK SMILES IDX 65 46 45 47 64 48 46 49 49 50 63 51 82 52 47 53 48 54 62 56
REMARK SMILES IDX 83 57 50 58 34 59 35 60 43 61 36 62 38 63 44 64 37 65 39 66
REMARK SMILES IDX 40 67 41 68 42 69 66 70 67 71 75 72 68 73 70 74 76 75 69 76
REMARK SMILES IDX 71 77 72 78 73 79 74 80 51 81 52 82 60 83 53 84 55 85 61 86
REMARK SMILES IDX 54 87 56 88 57 89 58 90 59 91
REMARK H PARENT 3 12 81 44 49 55
REMARK Flexibility Score: inf
ROOT
ATOM      1  C   UNL A   1      35.789  20.069  24.971  1.00  0.00     0.275 C 
ENDROOT
BRANCH   1   2
ATOM      2  O   UNL A   1      35.333  21.404  24.682  1.00  0.00    -0.457 OA
BRANCH   2   3
ATOM      3  C   UNL A   1      34.453  21.944  25.583  1.00  0.00     0.367 C 
ATOM      4  O   UNL A   1      34.479  21.695  26.781  1.00  0.00    -0.243 OA
BRANCH   3   5
ATOM      5  C   UNL A   1      33.529  22.869  24.928  1.00  0.00     0.202 A 
ATOM      6  C   UNL A   1      32.040  24.488  24.592  1.00  0.00     0.106 A 
ATOM      7  C   UNL A   1      32.003  23.885  23.348  1.00  0.00     0.097 A 
ATOM      8  N   UNL A   1      32.912  23.887  25.500  1.00  0.00    -0.229 NA
ATOM      9  S   UNL A   1      33.193  22.667  23.249  1.00  0.00    -0.115 S 
BRANCH   6  10
ATOM     10  C   UNL A   1      31.308  25.736  24.988  1.00  0.00     0.320 C 
BRANCH  10  11
ATOM     11  N   UNL A   1      31.241  26.743  23.933  1.00  0.00    -0.325 N 
ATOM     12  H   UNL A   1      31.399  26.221  23.070  1.00  0.00     0.348 HD
BRANCH  11  13
ATOM     13  C   UNL A   1      29.936  27.196  23.498  1.00  0.00     0.259 C 
ATOM     14  C   UNL A   1      28.736  26.331  23.879  1.00  0.00     0.071 C 
ENDBRANCH  11  13
BRANCH  11  15
ATOM     15  C   UNL A   1      32.396  27.669  23.912  1.00  0.00     0.319 C 
BRANCH  15  16
ATOM     16  C   UNL A   1      32.855  28.557  25.068  1.00  0.00     0.095 A 
ATOM     17  C   UNL A   1      33.887  28.277  25.958  1.00  0.00     0.030 A 
ATOM     18  N   UNL A   1      32.049  29.637  25.288  1.00  0.00    -0.252 NA
ATOM     19  C   UNL A   1      34.140  29.128  27.033  1.00  0.00     0.004 A 
ATOM     20  C   UNL A   1      32.306  30.462  26.336  1.00  0.00     0.038 A 
ATOM     21  C   UNL A   1      33.343  30.241  27.225  1.00  0.00     0.023 A 
ATOM     22  C   UNL A   1      31.401  31.644  26.505  1.00  0.00     0.067 C 
ENDBRANCH  15  16
ENDBRANCH  11  15
ENDBRANCH  10  11
ENDBRANCH   6  10
ENDBRANCH   3   5
ENDBRANCH   2   3
ENDBRANCH   1   2
BRANCH   1  23
ATOM     23  C   UNL A   1      37.316  19.948  24.926  1.00  0.00     0.275 C 
BRANCH  23  24
ATOM     24  O   UNL A   1      37.961  21.158  25.368  1.00  0.00    -0.458 OA
BRANCH  24  25
ATOM     25  C   UNL A   1      39.122  20.963  26.035  1.00  0.00     0.338 C 
ATOM     26  O   UNL A   1      39.803  19.950  26.042  1.00  0.00    -0.246 OA
BRANCH  25  27
ATOM     27  C   UNL A   1      39.582  22.205  26.671  1.00  0.00     0.060 A 
ATOM     28  C   UNL A   1      39.074  23.392  26.155  1.00  0.00     0.016 A 
ATOM     29  C   UNL A   1      40.620  22.232  27.600  1.00  0.00     0.016 A 
ATOM     30  C   UNL A   1      39.626  24.614  26.513  1.00  0.00     0.010 A 
ATOM     31  C   UNL A   1      41.151  23.470  27.998  1.00  0.00     0.010 A 
ATOM     32  C   UNL A   1      40.682  24.672  27.432  1.00  0.00    -0.014 A 
BRANCH  32  33
ATOM     33  C   UNL A   1      41.305  25.993  27.724  1.00  0.00     0.031 A 
ATOM     34  C   UNL A   1      42.677  26.327  27.197  1.00  0.00     0.074 A 
ATOM     35  C   UNL A   1      40.612  26.923  28.412  1.00  0.00     0.049 A 
ATOM     36  N   UNL A   1      43.385  27.415  27.366  1.00  0.00    -0.248 NA
ATOM     37  C   UNL A   1      43.344  25.305  26.374  1.00  0.00     0.031 C 
ATOM     38  C   UNL A   1      39.267  26.737  28.960  1.00  0.00     0.029 A 
ATOM     39  N   UNL A   1      40.938  28.209  28.767  1.00  0.00    -0.354 N 
ATOM     40  C   UNL A   1      44.598  27.187  26.726  1.00  0.00     0.074 A 
ATOM     41  C   UNL A   1      44.532  25.856  26.164  1.00  0.00     0.031 C 
ATOM     42  C   UNL A   1      38.876  27.868  29.565  1.00  0.00     0.029 A 
ATOM     43  C   UNL A   1      39.964  28.838  29.508  1.00  0.00     0.049 A 
ATOM     44  H   UNL A   1      41.786  28.640  28.514  1.00  0.00     0.167 HD
ATOM     45  C   UNL A   1      45.666  28.013  26.609  1.00  0.00     0.034 A 
ATOM     46  C   UNL A   1      39.955  30.045  30.106  1.00  0.00     0.034 A 
ATOM     47  C   UNL A   1      45.714  29.354  27.133  1.00  0.00     0.049 A 
ATOM     48  C   UNL A   1      41.157  30.937  29.967  1.00  0.00     0.074 A 
ATOM     49  C   UNL A   1      46.736  30.281  27.031  1.00  0.00     0.029 A 
ATOM     50  N   UNL A   1      44.700  29.959  27.860  1.00  0.00    -0.354 N 
ATOM     51  N   UNL A   1      42.269  30.728  29.304  1.00  0.00    -0.248 NA
ATOM     52  C   UNL A   1      41.095  32.243  30.637  1.00  0.00     0.031 C 
ATOM     53  C   UNL A   1      46.357  31.433  27.729  1.00  0.00     0.029 A 
ATOM     54  C   UNL A   1      45.076  31.243  28.222  1.00  0.00     0.049 A 
ATOM     55  H   UNL A   1      43.840  29.538  28.086  1.00  0.00     0.167 HD
ATOM     56  C   UNL A   1      43.020  31.887  29.445  1.00  0.00     0.074 A 
ATOM     57  C   UNL A   1      42.227  32.804  30.239  1.00  0.00     0.031 C 
ATOM     58  C   UNL A   1      44.260  32.164  28.971  1.00  0.00     0.034 A 
BRANCH  45  59
ATOM     59  C   UNL A   1      46.883  27.493  25.883  1.00  0.00     0.023 A 
ATOM     60  C   UNL A   1      47.022  27.700  24.495  1.00  0.00     0.012 A 
ATOM     61  C   UNL A   1      47.917  26.847  26.590  1.00  0.00     0.148 A 
ATOM     62  C   UNL A   1      48.150  27.236  23.817  1.00  0.00     0.002 A 
ATOM     63  C   UNL A   1      49.061  26.433  25.917  1.00  0.00     0.091 A 
ATOM     64  F   UNL A   1      47.762  26.645  27.906  1.00  0.00    -0.205 F 
ATOM     65  C   UNL A   1      49.173  26.614  24.529  1.00  0.00     0.022 A 
BRANCH  63  66
ATOM     66  S   UNL A   1      50.468  25.697  26.756  1.00  0.00     0.127 S 
ATOM     67  O   UNL A   1      49.892  24.451  27.261  1.00  0.00    -0.237 OA
ATOM     68  O   UNL A   1      51.423  25.525  25.660  1.00  0.00    -0.237 OA
ATOM     69  O   UNL A   1      50.876  26.654  27.775  1.00  0.00    -0.744 OA
ENDBRANCH  63  66
ENDBRANCH  45  59
BRANCH  46  70
ATOM     70  C   UNL A   1      38.762  30.483  30.886  1.00  0.00     0.023 A 
ATOM     71  C   UNL A   1      38.651  30.142  32.248  1.00  0.00     0.012 A 
ATOM     72  C   UNL A   1      37.745  31.249  30.286  1.00  0.00     0.148 A 
ATOM     73  C   UNL A   1      37.533  30.529  32.989  1.00  0.00     0.002 A 
ATOM     74  C   UNL A   1      36.666  31.687  31.045  1.00  0.00     0.091 A 
ATOM     75  F   UNL A   1      37.860  31.549  28.985  1.00  0.00    -0.205 F 
ATOM     76  C   UNL A   1      36.548  31.311  32.391  1.00  0.00     0.022 A 
BRANCH  74  77
ATOM     77  S   UNL A   1      35.423  32.807  30.393  1.00  0.00     0.127 S 
ATOM     78  O   UNL A   1      36.178  34.051  30.269  1.00  0.00    -0.237 OA
ATOM     79  O   UNL A   1      35.076  32.165  29.125  1.00  0.00    -0.237 OA
ATOM     80  O   UNL A   1      34.347  32.816  31.375  1.00  0.00    -0.744 OA
ENDBRANCH  74  77
ENDBRANCH  46  70
BRANCH  58  81
ATOM     81  C   UNL A   1      44.817  33.538  29.243  1.00  0.00     0.023 A 
ATOM     82  C   UNL A   1      45.464  33.815  30.464  1.00  0.00     0.012 A 
ATOM     83  C   UNL A   1      44.735  34.546  28.261  1.00  0.00     0.148 A 
ATOM     84  C   UNL A   1      45.979  35.087  30.720  1.00  0.00     0.002 A 
ATOM     85  C   UNL A   1      45.299  35.791  28.501  1.00  0.00     0.091 A 
ATOM     86  F   UNL A   1      44.098  34.270  27.114  1.00  0.00    -0.205 F 
ATOM     87  C   UNL A   1      45.906  36.070  29.735  1.00  0.00     0.022 A 
BRANCH  85  88
ATOM     88  S   UNL A   1      45.341  37.083  27.254  1.00  0.00     0.127 S 
ATOM     89  O   UNL A   1      46.022  36.411  26.150  1.00  0.00    -0.237 OA
ATOM     90  O   UNL A   1      43.919  37.342  27.028  1.00  0.00    -0.237 OA
ATOM     91  O   UNL A   1      46.068  38.196  27.852  1.00  0.00    -0.744 OA
ENDBRANCH  85  88
ENDBRANCH  58  81
ENDBRANCH  32  33
ENDBRANCH  25  27
ENDBRANCH  24  25
ENDBRANCH  23  24
ENDBRANCH   1  23
TORSDOF 19
ENDMDL
MODEL 3
REMARK VINA RESULT:      -9.7      4.562      7.240
REMARK SMILES CC[N@@H+](Cc1cccc(C)n1)Cc1csc(C(=O)OCCOC(=O)c2ccc(-c3c4nc(c(-c5cccc(S(=O)(=O)[O-])c5F)c5ccc([nH]5)c(-c5cccc(S(=O)(=O)[O-])c5F)c5nc(c(-c6cccc(S(=O)(=O)[O-])c6F)c6ccc3[nH]6)C=C5)C=C4)cc2)n1
REMARK SMILES IDX 20 1 19 2 17 3 18 4 16 5 13 6 14 7 88 8 15 9 12 10 3 11 2 13
REMARK SMILES IDX 1 14 4 15 5 16 6 17 11 18 7 19 9 20 8 21 10 22 21 23 22 24
REMARK SMILES IDX 23 25 24 26 25 27 26 28 87 29 27 30 86 31 28 32 29 33 30 34
REMARK SMILES IDX 80 35 31 36 85 37 79 38 81 39 32 40 84 41 78 42 77 43 33 45
REMARK SMILES IDX 65 46 45 47 64 48 46 49 49 50 63 51 82 52 47 53 48 54 62 56
REMARK SMILES IDX 83 57 50 58 34 59 35 60 43 61 36 62 38 63 44 64 37 65 39 66
REMARK SMILES IDX 40 67 41 68 42 69 66 70 67 71 75 72 68 73 70 74 76 75 69 76
REMARK SMILES IDX 71 77 72 78 73 79 74 80 51 81 52 82 60 83 53 84 55 85 61 86
REMARK SMILES IDX 54 87 56 88 57 89 58 90 59 91
REMARK H PARENT 3 12 81 44 49 55
REMARK Flexibility Score: inf
ROOT
ATOM      1  C   UNL A   1      32.433  29.342  25.116  1.00  0.00     0.275 C 
ENDROOT
BRANCH   1   2
ATOM      2  O   UNL A   1      31.680  28.116  25.166  1.00  0.00    -0.457 OA
BRANCH   2   3
ATOM      3  C   UNL A   1      32.341  27.029  25.675  1.00  0.00     0.367 C 
ATOM      4  O   UNL A   1      33.270  27.116  26.468  1.00  0.00    -0.243 OA
BRANCH   3   5
ATOM      5  C   UNL A   1      31.762  25.780  25.181  1.00  0.00     0.202 A 
ATOM      6  C   UNL A   1      31.317  23.618  24.906  1.00  0.00     0.106 A 
ATOM      7  C   UNL A   1      30.677  24.123  23.789  1.00  0.00     0.097 A 
ATOM      8  N   UNL A   1      31.951  24.578  25.694  1.00  0.00    -0.229 NA
ATOM      9  S   UNL A   1      30.714  25.828  23.812  1.00  0.00    -0.115 S 
BRANCH   6  10
ATOM     10  C   UNL A   1      31.305  22.186  25.354  1.00  0.00     0.320 C 
BRANCH  10  11
ATOM     11  N   UNL A   1      32.442  21.405  24.875  1.00  0.00    -0.325 N 
ATOM     12  H   UNL A   1      32.938  21.128  25.723  1.00  0.00     0.348 HD
BRANCH  11  13
ATOM     13  C   UNL A   1      32.213  20.031  24.480  1.00  0.00     0.259 C 
ATOM     14  C   UNL A   1      32.903  18.945  25.303  1.00  0.00     0.071 C 
ENDBRANCH  11  13
BRANCH  11  15
ATOM     15  C   UNL A   1      33.482  22.212  24.198  1.00  0.00     0.319 C 
BRANCH  15  16
ATOM     16  C   UNL A   1      34.916  22.420  24.685  1.00  0.00     0.095 A 
ATOM     17  C   UNL A   1      35.513  23.642  24.981  1.00  0.00     0.030 A 
ATOM     18  N   UNL A   1      35.675  21.286  24.668  1.00  0.00    -0.252 NA
ATOM     19  C   UNL A   1      36.863  23.701  25.322  1.00  0.00     0.004 A 
ATOM     20  C   UNL A   1      36.989  21.353  25.005  1.00  0.00     0.038 A 
ATOM     21  C   UNL A   1      37.615  22.542  25.340  1.00  0.00     0.023 A 
ATOM     22  C   UNL A   1      37.758  20.068  24.994  1.00  0.00     0.067 C 
ENDBRANCH  15  16
ENDBRANCH  11  15
ENDBRANCH  10  11
ENDBRANCH   6  10
ENDBRANCH   3   5
ENDBRANCH   2   3
ENDBRANCH   1   2
BRANCH   1  23
ATOM     23  C   UNL A   1      31.785  30.462  25.938  1.00  0.00     0.275 C 
BRANCH  23  24
ATOM     24  O   UNL A   1      32.415  30.612  27.225  1.00  0.00    -0.458 OA
BRANCH  24  25
ATOM     25  C   UNL A   1      33.194  31.712  27.343  1.00  0.00     0.338 C 
ATOM     26  O   UNL A   1      32.836  32.875  27.270  1.00  0.00    -0.246 OA
BRANCH  25  27
ATOM     27  C   UNL A   1      34.565  31.350  27.729  1.00  0.00     0.060 A 
ATOM     28  C   UNL A   1      34.797  30.008  28.009  1.00  0.00     0.016 A 
ATOM     29  C   UNL A   1      35.543  32.303  28.005  1.00  0.00     0.016 A 
ATOM     30  C   UNL A   1      35.979  29.605  28.616  1.00  0.00     0.010 A 
ATOM     31  C   UNL A   1      36.757  31.892  28.578  1.00  0.00     0.010 A 
ATOM     32  C   UNL A   1      36.973  30.543  28.921  1.00  0.00    -0.014 A 
BRANCH  32  33
ATOM     33  C   UNL A   1      38.190  30.086  29.651  1.00  0.00     0.031 A 
ATOM     34  C   UNL A   1      38.455  30.544  31.061  1.00  0.00     0.074 A 
ATOM     35  C   UNL A   1      39.028  29.204  29.068  1.00  0.00     0.049 A 
ATOM     36  N   UNL A   1      39.468  30.268  31.843  1.00  0.00    -0.248 NA
ATOM     37  C   UNL A   1      37.455  31.433  31.675  1.00  0.00     0.031 C 
ATOM     38  C   UNL A   1      38.876  28.664  27.716  1.00  0.00     0.029 A 
ATOM     39  N   UNL A   1      40.171  28.604  29.537  1.00  0.00    -0.354 N 
ATOM     40  C   UNL A   1      39.259  30.992  33.013  1.00  0.00     0.074 A 
ATOM     41  C   UNL A   1      38.022  31.721  32.838  1.00  0.00     0.031 C 
ATOM     42  C   UNL A   1      39.873  27.802  27.470  1.00  0.00     0.029 A 
ATOM     43  C   UNL A   1      40.774  27.777  28.618  1.00  0.00     0.049 A 
ATOM     44  H   UNL A   1      40.525  28.752  30.444  1.00  0.00     0.167 HD
ATOM     45  C   UNL A   1      40.022  31.038  34.132  1.00  0.00     0.034 A 
ATOM     46  C   UNL A   1      41.937  27.100  28.672  1.00  0.00     0.034 A 
ATOM     47  C   UNL A   1      41.231  30.277  34.319  1.00  0.00     0.049 A 
ATOM     48  C   UNL A   1      42.767  27.177  29.923  1.00  0.00     0.074 A 
ATOM     49  C   UNL A   1      42.051  30.228  35.433  1.00  0.00     0.029 A 
ATOM     50  N   UNL A   1      41.796  29.438  33.372  1.00  0.00    -0.354 N 
ATOM     51  N   UNL A   1      42.520  27.816  31.041  1.00  0.00    -0.248 NA
ATOM     52  C   UNL A   1      44.026  26.418  29.931  1.00  0.00     0.031 C 
ATOM     53  C   UNL A   1      43.133  29.388  35.145  1.00  0.00     0.029 A 
ATOM     54  C   UNL A   1      42.960  28.874  33.870  1.00  0.00     0.049 A 
ATOM     55  H   UNL A   1      41.426  29.268  32.476  1.00  0.00     0.167 HD
ATOM     56  C   UNL A   1      43.570  27.507  31.896  1.00  0.00     0.074 A 
ATOM     57  C   UNL A   1      44.445  26.605  31.175  1.00  0.00     0.031 C 
ATOM     58  C   UNL A   1      43.797  27.940  33.162  1.00  0.00     0.034 A 
BRANCH  45  59
ATOM     59  C   UNL A   1      39.574  31.944  35.252  1.00  0.00     0.023 A 
ATOM     60  C   UNL A   1      39.890  33.318  35.222  1.00  0.00     0.012 A 
ATOM     61  C   UNL A   1      38.790  31.441  36.311  1.00  0.00     0.148 A 
ATOM     62  C   UNL A   1      39.468  34.167  36.246  1.00  0.00     0.002 A 
ATOM     63  C   UNL A   1      38.330  32.302  37.300  1.00  0.00     0.091 A 
ATOM     64  F   UNL A   1      38.513  30.130  36.332  1.00  0.00    -0.205 F 
ATOM     65  C   UNL A   1      38.680  33.661  37.278  1.00  0.00     0.022 A 
BRANCH  63  66
ATOM     66  S   UNL A   1      37.242  31.765  38.624  1.00  0.00     0.127 S 
ATOM     67  O   UNL A   1      38.082  31.980  39.802  1.00  0.00    -0.237 OA
ATOM     68  O   UNL A   1      36.122  32.699  38.498  1.00  0.00    -0.237 OA
ATOM     69  O   UNL A   1      36.912  30.376  38.338  1.00  0.00    -0.744 OA
ENDBRANCH  63  66
ENDBRANCH  45  59
BRANCH  46  70
ATOM     70  C   UNL A   1      42.382  26.284  27.506  1.00  0.00     0.023 A 
ATOM     71  C   UNL A   1      43.158  26.876  26.491  1.00  0.00     0.012 A 
ATOM     72  C   UNL A   1      42.050  24.919  27.409  1.00  0.00     0.148 A 
ATOM     73  C   UNL A   1      43.568  26.130  25.385  1.00  0.00     0.002 A 
ATOM     74  C   UNL A   1      42.516  24.167  26.338  1.00  0.00     0.091 A 
ATOM     75  F   UNL A   1      41.296  24.378  28.376  1.00  0.00    -0.205 F 
ATOM     76  C   UNL A   1      43.258  24.774  25.315  1.00  0.00     0.022 A 
BRANCH  74  77
ATOM     77  S   UNL A   1      42.278  22.390  26.234  1.00  0.00     0.127 S 
ATOM     78  O   UNL A   1      40.824  22.288  26.139  1.00  0.00    -0.237 OA
ATOM     79  O   UNL A   1      43.002  22.061  25.005  1.00  0.00    -0.237 OA
ATOM     80  O   UNL A   1      42.871  21.841  27.446  1.00  0.00    -0.744 OA
ENDBRANCH  74  77
ENDBRANCH  46  70
BRANCH  58  81
ATOM     81  C   UNL A   1      45.008  27.397  33.875  1.00  0.00     0.023 A 
ATOM     82  C   UNL A   1      46.184  28.168  33.968  1.00  0.00     0.012 A 
ATOM     83  C   UNL A   1      44.961  26.132  34.494  1.00  0.00     0.148 A 
ATOM     84  C   UNL A   1      47.308  27.667  34.627  1.00  0.00     0.002 A 
ATOM     85  C   UNL A   1      46.065  25.665  35.195  1.00  0.00     0.091 A 
ATOM     86  F   UNL A   1      43.840  25.404  34.377  1.00  0.00    -0.205 F 
ATOM     87  C   UNL A   1      47.245  26.422  35.248  1.00  0.00     0.022 A 
BRANCH  85  88
ATOM     88  S   UNL A   1      46.037  24.120  36.110  1.00  0.00     0.127 S 
ATOM     89  O   UNL A   1      47.316  24.168  36.815  1.00  0.00    -0.237 OA
ATOM     90  O   UNL A   1      44.862  24.286  36.965  1.00  0.00    -0.237 OA
ATOM     91  O   UNL A   1      45.913  23.064  35.112  1.00  0.00    -0.744 OA
ENDBRANCH  85  88
ENDBRANCH  58  81
ENDBRANCH  32  33
ENDBRANCH  25  27
ENDBRANCH  24  25
ENDBRANCH  23  24
ENDBRANCH   1  23
TORSDOF 19
ENDMDL
