MODEL 1
REMARK VINA RESULT:     -13.0      0.000      0.000
REMARK SMILES O=C(/C=C/c1ccc(S(=O)(=O)Nc2ccc3c(c2)OCCO3)cc1)OCCOC(=O)c1ccc(-c2c3nc(c(-c4cccc(S(=O)(=O)[O-])c4F)c4ccc([nH]4)c(-c4cccc(S(=O)(=O)[O-])c4F)c4nc(c(-c5cccc(S(=O)(=O)[O-])c5F)c5ccc2[nH]5)C=C4)C=C3)cc1
REMARK SMILES IDX 26 1 25 2 2 3 1 4 3 5 4 6 5 7 6 8 24 9 7 10 23 11 8 12 9 13
REMARK SMILES IDX 10 14 11 15 12 16 13 18 14 19 18 20 15 21 17 22 16 23 19 24
REMARK SMILES IDX 22 25 20 26 21 27 27 28 28 29 29 30 30 31 31 32 32 33 93 34
REMARK SMILES IDX 33 35 92 36 34 37 35 38 36 39 86 40 37 41 91 42 85 43 87 44
REMARK SMILES IDX 38 45 90 46 84 47 83 48 39 50 71 51 51 52 70 53 52 54 55 55
REMARK SMILES IDX 69 56 88 57 53 58 54 59 68 61 89 62 56 63 40 64 41 65 49 66
REMARK SMILES IDX 42 67 44 68 50 69 43 70 45 71 46 72 47 73 48 74 72 75 73 76
REMARK SMILES IDX 81 77 74 78 76 79 82 80 75 81 77 82 78 83 79 84 80 85 57 86
REMARK SMILES IDX 58 87 66 88 59 89 61 90 67 91 60 92 62 93 63 94 64 95 65 96
REMARK H PARENT 12 17 87 49 55 60
REMARK Flexibility Score: inf
ROOT
ATOM      1  C   UNL A   1      42.631  20.254  26.088  1.00  0.00     0.275 C 
ENDROOT
BRANCH   1   2
ATOM      2  O   UNL A   1      41.233  20.443  25.792  1.00  0.00    -0.459 OA
BRANCH   2   3
ATOM      3  C   UNL A   1      40.327  21.095  26.561  1.00  0.00     0.330 C 
ATOM      4  O   UNL A   1      40.409  21.085  27.785  1.00  0.00    -0.247 OA
BRANCH   3   5
ATOM      5  C   UNL A   1      39.113  21.636  25.931  1.00  0.00     0.094 C 
ATOM      6  C   UNL A   1      38.212  20.938  25.226  1.00  0.00     0.015 C 
BRANCH   6   7
ATOM      7  C   UNL A   1      36.925  21.462  24.736  1.00  0.00    -0.025 A 
ATOM      8  C   UNL A   1      36.953  22.479  23.769  1.00  0.00     0.009 A 
ATOM      9  C   UNL A   1      35.680  21.005  25.186  1.00  0.00     0.009 A 
ATOM     10  C   UNL A   1      35.773  23.083  23.327  1.00  0.00     0.023 A 
ATOM     11  C   UNL A   1      34.492  21.555  24.695  1.00  0.00     0.023 A 
ATOM     12  C   UNL A   1      34.547  22.646  23.829  1.00  0.00     0.087 A 
BRANCH  12  13
ATOM     13  S   UNL A   1      33.085  23.642  23.548  1.00  0.00     0.261 S 
ATOM     14  O   UNL A   1      33.444  24.635  22.553  1.00  0.00    -0.201 OA
ATOM     15  O   UNL A   1      31.994  22.725  23.307  1.00  0.00    -0.201 OA
BRANCH  13  16
ATOM     16  N   UNL A   1      32.801  24.492  24.993  1.00  0.00    -0.279 N 
ATOM     17  H   UNL A   1      33.114  24.142  25.860  1.00  0.00     0.180 HD
BRANCH  16  18
ATOM     18  C   UNL A   1      32.090  25.736  24.908  1.00  0.00     0.053 A 
ATOM     19  C   UNL A   1      32.842  26.888  25.122  1.00  0.00     0.031 A 
ATOM     20  C   UNL A   1      30.753  25.829  24.524  1.00  0.00     0.077 A 
ATOM     21  C   UNL A   1      32.294  28.136  24.865  1.00  0.00     0.052 A 
ATOM     22  C   UNL A   1      30.252  27.074  24.143  1.00  0.00     0.163 A 
ATOM     23  C   UNL A   1      31.041  28.221  24.288  1.00  0.00     0.161 A 
ATOM     24  O   UNL A   1      29.025  27.087  23.525  1.00  0.00    -0.486 OA
ATOM     25  O   UNL A   1      30.684  29.450  23.794  1.00  0.00    -0.486 OA
ATOM     26  C   UNL A   1      28.625  28.407  23.131  1.00  0.00     0.271 C 
ATOM     27  C   UNL A   1      29.806  29.253  22.687  1.00  0.00     0.271 C 
ENDBRANCH  16  18
ENDBRANCH  13  16
ENDBRANCH  12  13
ENDBRANCH   6   7
ENDBRANCH   3   5
ENDBRANCH   2   3
ENDBRANCH   1   2
BRANCH   1  28
ATOM     28  C   UNL A   1      43.585  21.235  25.401  1.00  0.00     0.275 C 
BRANCH  28  29
ATOM     29  O   UNL A   1      42.934  22.420  24.915  1.00  0.00    -0.458 OA
BRANCH  29  30
ATOM     30  C   UNL A   1      43.691  23.549  24.932  1.00  0.00     0.338 C 
ATOM     31  O   UNL A   1      44.582  23.827  24.146  1.00  0.00    -0.246 OA
BRANCH  30  32
ATOM     32  C   UNL A   1      43.191  24.498  25.958  1.00  0.00     0.060 A 
ATOM     33  C   UNL A   1      43.770  25.773  26.012  1.00  0.00     0.016 A 
ATOM     34  C   UNL A   1      42.163  24.170  26.843  1.00  0.00     0.016 A 
ATOM     35  C   UNL A   1      43.319  26.725  26.936  1.00  0.00     0.010 A 
ATOM     36  C   UNL A   1      41.714  25.126  27.769  1.00  0.00     0.010 A 
ATOM     37  C   UNL A   1      42.284  26.414  27.827  1.00  0.00    -0.014 A 
BRANCH  37  38
ATOM     38  C   UNL A   1      41.833  27.374  28.877  1.00  0.00     0.031 A 
ATOM     39  C   UNL A   1      42.539  27.396  30.207  1.00  0.00     0.074 A 
ATOM     40  C   UNL A   1      40.794  28.216  28.692  1.00  0.00     0.049 A 
ATOM     41  N   UNL A   1      42.254  28.093  31.276  1.00  0.00    -0.248 NA
ATOM     42  C   UNL A   1      43.743  26.558  30.338  1.00  0.00     0.031 C 
ATOM     43  C   UNL A   1      40.064  28.425  27.443  1.00  0.00     0.029 A 
ATOM     44  N   UNL A   1      40.146  29.042  29.590  1.00  0.00    -0.354 N 
ATOM     45  C   UNL A   1      43.247  27.798  32.198  1.00  0.00     0.074 A 
ATOM     46  C   UNL A   1      44.116  26.817  31.584  1.00  0.00     0.031 C 
ATOM     47  C   UNL A   1      39.035  29.260  27.679  1.00  0.00     0.029 A 
ATOM     48  C   UNL A   1      38.975  29.574  29.098  1.00  0.00     0.049 A 
ATOM     49  H   UNL A   1      40.490  29.232  30.494  1.00  0.00     0.167 HD
ATOM     50  C   UNL A   1      43.454  28.338  33.421  1.00  0.00     0.034 A 
ATOM     51  C   UNL A   1      37.945  30.181  29.725  1.00  0.00     0.034 A 
ATOM     52  C   UNL A   1      42.621  29.339  34.029  1.00  0.00     0.049 A 
ATOM     53  C   UNL A   1      38.067  30.558  31.169  1.00  0.00     0.074 A 
ATOM     54  C   UNL A   1      42.845  30.049  35.196  1.00  0.00     0.029 A 
ATOM     55  N   UNL A   1      41.389  29.741  33.548  1.00  0.00    -0.354 N 
ATOM     56  N   UNL A   1      39.084  30.387  31.970  1.00  0.00    -0.248 NA
ATOM     57  C   UNL A   1      36.936  31.284  31.767  1.00  0.00     0.031 C 
ATOM     58  C   UNL A   1      41.726  30.853  35.443  1.00  0.00     0.029 A 
ATOM     59  C   UNL A   1      40.818  30.654  34.419  1.00  0.00     0.049 A 
ATOM     60  H   UNL A   1      40.978  29.424  32.712  1.00  0.00     0.167 HD
ATOM     61  C   UNL A   1      38.748  31.048  33.144  1.00  0.00     0.074 A 
ATOM     62  C   UNL A   1      37.418  31.587  32.964  1.00  0.00     0.031 C 
ATOM     63  C   UNL A   1      39.505  31.217  34.253  1.00  0.00     0.034 A 
BRANCH  50  64
ATOM     64  C   UNL A   1      44.683  27.914  34.170  1.00  0.00     0.023 A 
ATOM     65  C   UNL A   1      45.847  28.702  34.077  1.00  0.00     0.012 A 
ATOM     66  C   UNL A   1      44.653  26.809  35.040  1.00  0.00     0.148 A 
ATOM     67  C   UNL A   1      46.974  28.389  34.833  1.00  0.00     0.002 A 
ATOM     68  C   UNL A   1      45.770  26.522  35.814  1.00  0.00     0.091 A 
ATOM     69  F   UNL A   1      43.539  26.066  35.090  1.00  0.00    -0.205 F 
ATOM     70  C   UNL A   1      46.930  27.307  35.710  1.00  0.00     0.022 A 
BRANCH  68  71
ATOM     71  S   UNL A   1      45.793  25.190  37.018  1.00  0.00     0.127 S 
ATOM     72  O   UNL A   1      44.592  25.483  37.800  1.00  0.00    -0.237 OA
ATOM     73  O   UNL A   1      45.693  24.005  36.167  1.00  0.00    -0.237 OA
ATOM     74  O   UNL A   1      47.052  25.320  37.738  1.00  0.00    -0.744 OA
ENDBRANCH  68  71
ENDBRANCH  50  64
BRANCH  51  75
ATOM     75  C   UNL A   1      36.658  30.440  29.022  1.00  0.00     0.023 A 
ATOM     76  C   UNL A   1      35.928  29.390  28.445  1.00  0.00     0.012 A 
ATOM     77  C   UNL A   1      36.194  31.765  28.875  1.00  0.00     0.148 A 
ATOM     78  C   UNL A   1      34.739  29.654  27.760  1.00  0.00     0.002 A 
ATOM     79  C   UNL A   1      34.978  32.016  28.253  1.00  0.00     0.091 A 
ATOM     80  F   UNL A   1      36.978  32.758  29.315  1.00  0.00    -0.205 F 
ATOM     81  C   UNL A   1      34.254  30.960  27.683  1.00  0.00     0.022 A 
BRANCH  79  82
ATOM     82  S   UNL A   1      34.239  33.654  28.185  1.00  0.00     0.127 S 
ATOM     83  O   UNL A   1      32.918  33.364  27.631  1.00  0.00    -0.237 OA
ATOM     84  O   UNL A   1      34.242  34.040  29.595  1.00  0.00    -0.237 OA
ATOM     85  O   UNL A   1      35.109  34.455  27.333  1.00  0.00    -0.744 OA
ENDBRANCH  79  82
ENDBRANCH  51  75
BRANCH  63  86
ATOM     86  C   UNL A   1      38.946  32.066  35.358  1.00  0.00     0.023 A 
ATOM     87  C   UNL A   1      38.953  33.469  35.238  1.00  0.00     0.012 A 
ATOM     88  C   UNL A   1      38.366  31.468  36.495  1.00  0.00     0.148 A 
ATOM     89  C   UNL A   1      38.408  34.266  36.245  1.00  0.00     0.002 A 
ATOM     90  C   UNL A   1      37.784  32.267  37.471  1.00  0.00     0.091 A 
ATOM     91  F   UNL A   1      38.396  30.132  36.599  1.00  0.00    -0.205 F 
ATOM     92  C   UNL A   1      37.813  33.665  37.353  1.00  0.00     0.022 A 
BRANCH  90  93
ATOM     93  S   UNL A   1      36.922  31.580  38.890  1.00  0.00     0.127 S 
ATOM     94  O   UNL A   1      37.851  31.880  39.979  1.00  0.00    -0.237 OA
ATOM     95  O   UNL A   1      35.686  32.361  38.910  1.00  0.00    -0.237 OA
ATOM     96  O   UNL A   1      36.737  30.163  38.602  1.00  0.00    -0.744 OA
ENDBRANCH  90  93
ENDBRANCH  63  86
ENDBRANCH  37  38
ENDBRANCH  30  32
ENDBRANCH  29  30
ENDBRANCH  28  29
ENDBRANCH   1  28
TORSDOF 18
ENDMDL
MODEL 2
REMARK VINA RESULT:     -12.7      1.827      3.335
REMARK SMILES O=C(/C=C/c1ccc(S(=O)(=O)Nc2ccc3c(c2)OCCO3)cc1)OCCOC(=O)c1ccc(-c2c3nc(c(-c4cccc(S(=O)(=O)[O-])c4F)c4ccc([nH]4)c(-c4cccc(S(=O)(=O)[O-])c4F)c4nc(c(-c5cccc(S(=O)(=O)[O-])c5F)c5ccc2[nH]5)C=C4)C=C3)cc1
REMARK SMILES IDX 26 1 25 2 2 3 1 4 3 5 4 6 5 7 6 8 24 9 7 10 23 11 8 12 9 13
REMARK SMILES IDX 10 14 11 15 12 16 13 18 14 19 18 20 15 21 17 22 16 23 19 24
REMARK SMILES IDX 22 25 20 26 21 27 27 28 28 29 29 30 30 31 31 32 32 33 93 34
REMARK SMILES IDX 33 35 92 36 34 37 35 38 36 39 86 40 37 41 91 42 85 43 87 44
REMARK SMILES IDX 38 45 90 46 84 47 83 48 39 50 71 51 51 52 70 53 52 54 55 55
REMARK SMILES IDX 69 56 88 57 53 58 54 59 68 61 89 62 56 63 40 64 41 65 49 66
REMARK SMILES IDX 42 67 44 68 50 69 43 70 45 71 46 72 47 73 48 74 72 75 73 76
REMARK SMILES IDX 81 77 74 78 76 79 82 80 75 81 77 82 78 83 79 84 80 85 57 86
REMARK SMILES IDX 58 87 66 88 59 89 61 90 67 91 60 92 62 93 63 94 64 95 65 96
REMARK H PARENT 12 17 87 49 55 60
REMARK Flexibility Score: inf
ROOT
ATOM      1  C   UNL A   1      42.754  19.949  26.009  1.00  0.00     0.275 C 
ENDROOT
BRANCH   1   2
ATOM      2  O   UNL A   1      41.335  20.171  25.871  1.00  0.00    -0.459 OA
BRANCH   2   3
ATOM      3  C   UNL A   1      40.552  20.908  26.695  1.00  0.00     0.330 C 
ATOM      4  O   UNL A   1      40.661  20.829  27.915  1.00  0.00    -0.247 OA
BRANCH   3   5
ATOM      5  C   UNL A   1      39.414  21.647  26.126  1.00  0.00     0.094 C 
ATOM      6  C   UNL A   1      38.435  21.128  25.372  1.00  0.00     0.015 C 
BRANCH   6   7
ATOM      7  C   UNL A   1      37.223  21.846  24.942  1.00  0.00    -0.025 A 
ATOM      8  C   UNL A   1      36.223  22.083  25.899  1.00  0.00     0.009 A 
ATOM      9  C   UNL A   1      37.011  22.297  23.633  1.00  0.00     0.009 A 
ATOM     10  C   UNL A   1      35.010  22.677  25.540  1.00  0.00     0.023 A 
ATOM     11  C   UNL A   1      35.830  22.959  23.282  1.00  0.00     0.023 A 
ATOM     12  C   UNL A   1      34.802  23.072  24.218  1.00  0.00     0.087 A 
BRANCH  12  13
ATOM     13  S   UNL A   1      33.146  23.492  23.684  1.00  0.00     0.261 S 
ATOM     14  O   UNL A   1      32.870  24.822  24.191  1.00  0.00    -0.201 OA
ATOM     15  O   UNL A   1      33.083  23.222  22.265  1.00  0.00    -0.201 OA
BRANCH  13  16
ATOM     16  N   UNL A   1      32.097  22.436  24.507  1.00  0.00    -0.279 N 
ATOM     17  H   UNL A   1      31.510  22.762  25.229  1.00  0.00     0.180 HD
BRANCH  16  18
ATOM     18  C   UNL A   1      32.095  21.055  24.114  1.00  0.00     0.053 A 
ATOM     19  C   UNL A   1      31.966  20.806  22.751  1.00  0.00     0.031 A 
ATOM     20  C   UNL A   1      32.321  20.006  25.004  1.00  0.00     0.077 A 
ATOM     21  C   UNL A   1      32.155  19.523  22.256  1.00  0.00     0.052 A 
ATOM     22  C   UNL A   1      32.638  18.749  24.488  1.00  0.00     0.163 A 
ATOM     23  C   UNL A   1      32.582  18.524  23.108  1.00  0.00     0.161 A 
ATOM     24  O   UNL A   1      33.109  17.813  25.377  1.00  0.00    -0.486 OA
ATOM     25  O   UNL A   1      33.027  17.370  22.513  1.00  0.00    -0.486 OA
ATOM     26  C   UNL A   1      33.449  16.575  24.739  1.00  0.00     0.271 C 
ATOM     27  C   UNL A   1      34.025  16.788  23.349  1.00  0.00     0.271 C 
ENDBRANCH  16  18
ENDBRANCH  13  16
ENDBRANCH  12  13
ENDBRANCH   6   7
ENDBRANCH   3   5
ENDBRANCH   2   3
ENDBRANCH   1   2
BRANCH   1  28
ATOM     28  C   UNL A   1      43.648  21.071  25.473  1.00  0.00     0.275 C 
BRANCH  28  29
ATOM     29  O   UNL A   1      42.913  22.214  25.007  1.00  0.00    -0.458 OA
BRANCH  29  30
ATOM     30  C   UNL A   1      43.616  23.376  24.952  1.00  0.00     0.338 C 
ATOM     31  O   UNL A   1      44.454  23.669  24.116  1.00  0.00    -0.246 OA
BRANCH  30  32
ATOM     32  C   UNL A   1      43.123  24.333  25.974  1.00  0.00     0.060 A 
ATOM     33  C   UNL A   1      43.663  25.627  25.979  1.00  0.00     0.016 A 
ATOM     34  C   UNL A   1      42.137  23.995  26.903  1.00  0.00     0.016 A 
ATOM     35  C   UNL A   1      43.214  26.586  26.896  1.00  0.00     0.010 A 
ATOM     36  C   UNL A   1      41.691  24.958  27.823  1.00  0.00     0.010 A 
ATOM     37  C   UNL A   1      42.222  26.265  27.831  1.00  0.00    -0.014 A 
BRANCH  37  38
ATOM     38  C   UNL A   1      41.778  27.235  28.874  1.00  0.00     0.031 A 
ATOM     39  C   UNL A   1      42.478  27.253  30.208  1.00  0.00     0.074 A 
ATOM     40  C   UNL A   1      40.752  28.090  28.681  1.00  0.00     0.049 A 
ATOM     41  N   UNL A   1      42.196  27.958  31.273  1.00  0.00    -0.248 NA
ATOM     42  C   UNL A   1      43.670  26.399  30.349  1.00  0.00     0.031 C 
ATOM     43  C   UNL A   1      40.031  28.303  27.427  1.00  0.00     0.029 A 
ATOM     44  N   UNL A   1      40.110  28.928  29.572  1.00  0.00    -0.354 N 
ATOM     45  C   UNL A   1      43.180  27.653  32.202  1.00  0.00     0.074 A 
ATOM     46  C   UNL A   1      44.039  26.658  31.597  1.00  0.00     0.031 C 
ATOM     47  C   UNL A   1      39.012  29.152  27.654  1.00  0.00     0.029 A 
ATOM     48  C   UNL A   1      38.948  29.473  29.072  1.00  0.00     0.049 A 
ATOM     49  H   UNL A   1      40.451  29.117  30.476  1.00  0.00     0.167 HD
ATOM     50  C   UNL A   1      43.387  28.196  33.424  1.00  0.00     0.034 A 
ATOM     51  C   UNL A   1      37.923  30.097  29.690  1.00  0.00     0.034 A 
ATOM     52  C   UNL A   1      42.565  29.210  34.023  1.00  0.00     0.049 A 
ATOM     53  C   UNL A   1      38.043  30.477  31.134  1.00  0.00     0.074 A 
ATOM     54  C   UNL A   1      42.792  29.923  35.188  1.00  0.00     0.029 A 
ATOM     55  N   UNL A   1      41.341  29.626  33.534  1.00  0.00    -0.354 N 
ATOM     56  N   UNL A   1      39.053  30.297  31.941  1.00  0.00    -0.248 NA
ATOM     57  C   UNL A   1      36.918  31.221  31.722  1.00  0.00     0.031 C 
ATOM     58  C   UNL A   1      41.682  30.742  35.426  1.00  0.00     0.029 A 
ATOM     59  C   UNL A   1      40.777  30.550  34.398  1.00  0.00     0.049 A 
ATOM     60  H   UNL A   1      40.930  29.311  32.697  1.00  0.00     0.167 HD
ATOM     61  C   UNL A   1      38.719  30.966  33.110  1.00  0.00     0.074 A 
ATOM     62  C   UNL A   1      37.397  31.523  32.921  1.00  0.00     0.031 C 
ATOM     63  C   UNL A   1      39.472  31.130  34.222  1.00  0.00     0.034 A 
BRANCH  50  64
ATOM     64  C   UNL A   1      44.607  27.759  34.181  1.00  0.00     0.023 A 
ATOM     65  C   UNL A   1      45.758  28.572  34.153  1.00  0.00     0.012 A 
ATOM     66  C   UNL A   1      44.578  26.614  34.997  1.00  0.00     0.148 A 
ATOM     67  C   UNL A   1      46.873  28.243  34.920  1.00  0.00     0.002 A 
ATOM     68  C   UNL A   1      45.682  26.310  35.783  1.00  0.00     0.091 A 
ATOM     69  F   UNL A   1      43.478  25.849  34.985  1.00  0.00    -0.205 F 
ATOM     70  C   UNL A   1      46.829  27.120  35.743  1.00  0.00     0.022 A 
BRANCH  68  71
ATOM     71  S   UNL A   1      45.703  24.923  36.923  1.00  0.00     0.127 S 
ATOM     72  O   UNL A   1      46.950  24.257  36.549  1.00  0.00    -0.237 OA
ATOM     73  O   UNL A   1      45.737  25.595  38.222  1.00  0.00    -0.237 OA
ATOM     74  O   UNL A   1      44.488  24.166  36.659  1.00  0.00    -0.744 OA
ENDBRANCH  68  71
ENDBRANCH  50  64
BRANCH  51  75
ATOM     75  C   UNL A   1      36.643  30.370  28.979  1.00  0.00     0.023 A 
ATOM     76  C   UNL A   1      35.908  29.328  28.395  1.00  0.00     0.012 A 
ATOM     77  C   UNL A   1      36.193  31.699  28.833  1.00  0.00     0.148 A 
ATOM     78  C   UNL A   1      34.726  29.605  27.702  1.00  0.00     0.002 A 
ATOM     79  C   UNL A   1      34.984  31.963  28.203  1.00  0.00     0.091 A 
ATOM     80  F   UNL A   1      36.984  32.683  29.281  1.00  0.00    -0.205 F 
ATOM     81  C   UNL A   1      34.253  30.916  27.625  1.00  0.00     0.022 A 
BRANCH  79  82
ATOM     82  S   UNL A   1      34.261  33.608  28.135  1.00  0.00     0.127 S 
ATOM     83  O   UNL A   1      32.920  33.325  27.626  1.00  0.00    -0.237 OA
ATOM     84  O   UNL A   1      34.312  34.014  29.539  1.00  0.00    -0.237 OA
ATOM     85  O   UNL A   1      35.112  34.387  27.245  1.00  0.00    -0.744 OA
ENDBRANCH  79  82
ENDBRANCH  51  75
BRANCH  63  86
ATOM     86  C   UNL A   1      38.919  31.991  35.321  1.00  0.00     0.023 A 
ATOM     87  C   UNL A   1      38.911  33.392  35.179  1.00  0.00     0.012 A 
ATOM     88  C   UNL A   1      38.359  31.406  36.474  1.00  0.00     0.148 A 
ATOM     89  C   UNL A   1      38.370  34.199  36.180  1.00  0.00     0.002 A 
ATOM     90  C   UNL A   1      37.782  32.214  37.445  1.00  0.00     0.091 A 
ATOM     91  F   UNL A   1      38.404  30.072  36.599  1.00  0.00    -0.205 F 
ATOM     92  C   UNL A   1      37.795  33.611  37.305  1.00  0.00     0.022 A 
BRANCH  90  93
ATOM     93  S   UNL A   1      36.945  31.541  38.885  1.00  0.00     0.127 S 
ATOM     94  O   UNL A   1      36.741  30.148  38.490  1.00  0.00    -0.237 OA
ATOM     95  O   UNL A   1      37.938  31.737  39.941  1.00  0.00    -0.237 OA
ATOM     96  O   UNL A   1      35.728  32.326  39.048  1.00  0.00    -0.744 OA
ENDBRANCH  90  93
ENDBRANCH  63  86
ENDBRANCH  37  38
ENDBRANCH  30  32
ENDBRANCH  29  30
ENDBRANCH  28  29
ENDBRANCH   1  28
TORSDOF 18
ENDMDL
MODEL 3
REMARK VINA RESULT:     -12.2      5.105      9.313
REMARK SMILES O=C(/C=C/c1ccc(S(=O)(=O)Nc2ccc3c(c2)OCCO3)cc1)OCCOC(=O)c1ccc(-c2c3nc(c(-c4cccc(S(=O)(=O)[O-])c4F)c4ccc([nH]4)c(-c4cccc(S(=O)(=O)[O-])c4F)c4nc(c(-c5cccc(S(=O)(=O)[O-])c5F)c5ccc2[nH]5)C=C4)C=C3)cc1
REMARK SMILES IDX 26 1 25 2 2 3 1 4 3 5 4 6 5 7 6 8 24 9 7 10 23 11 8 12 9 13
REMARK SMILES IDX 10 14 11 15 12 16 13 18 14 19 18 20 15 21 17 22 16 23 19 24
REMARK SMILES IDX 22 25 20 26 21 27 27 28 28 29 29 30 30 31 31 32 32 33 93 34
REMARK SMILES IDX 33 35 92 36 34 37 35 38 36 39 86 40 37 41 91 42 85 43 87 44
REMARK SMILES IDX 38 45 90 46 84 47 83 48 39 50 71 51 51 52 70 53 52 54 55 55
REMARK SMILES IDX 69 56 88 57 53 58 54 59 68 61 89 62 56 63 40 64 41 65 49 66
REMARK SMILES IDX 42 67 44 68 50 69 43 70 45 71 46 72 47 73 48 74 72 75 73 76
REMARK SMILES IDX 81 77 74 78 76 79 82 80 75 81 77 82 78 83 79 84 80 85 57 86
REMARK SMILES IDX 58 87 66 88 59 89 61 90 67 91 60 92 62 93 63 94 64 95 65 96
REMARK H PARENT 12 17 87 49 55 60
REMARK Flexibility Score: inf
ROOT
ATOM      1  C   UNL A   1      38.460  20.958  25.604  1.00  0.00     0.275 C 
ENDROOT
BRANCH   1   2
ATOM      2  O   UNL A   1      37.481  21.062  24.550  1.00  0.00    -0.459 OA
BRANCH   2   3
ATOM      3  C   UNL A   1      36.143  21.212  24.706  1.00  0.00     0.330 C 
ATOM      4  O   UNL A   1      35.423  20.254  24.970  1.00  0.00    -0.247 OA
BRANCH   3   5
ATOM      5  C   UNL A   1      35.521  22.494  24.341  1.00  0.00     0.094 C 
ATOM      6  C   UNL A   1      35.028  23.402  25.194  1.00  0.00     0.015 C 
BRANCH   6   7
ATOM      7  C   UNL A   1      34.552  24.746  24.824  1.00  0.00    -0.025 A 
ATOM      8  C   UNL A   1      34.431  25.706  25.842  1.00  0.00     0.009 A 
ATOM      9  C   UNL A   1      34.210  25.115  23.517  1.00  0.00     0.009 A 
ATOM     10  C   UNL A   1      33.901  26.971  25.577  1.00  0.00     0.023 A 
ATOM     11  C   UNL A   1      33.748  26.404  23.232  1.00  0.00     0.023 A 
ATOM     12  C   UNL A   1      33.519  27.299  24.276  1.00  0.00     0.087 A 
BRANCH  12  13
ATOM     13  S   UNL A   1      32.519  28.759  24.002  1.00  0.00     0.261 S 
ATOM     14  O   UNL A   1      32.892  29.715  25.027  1.00  0.00    -0.201 OA
ATOM     15  O   UNL A   1      32.648  29.098  22.603  1.00  0.00    -0.201 OA
BRANCH  13  16
ATOM     16  N   UNL A   1      30.913  28.307  24.329  1.00  0.00    -0.279 N 
ATOM     17  H   UNL A   1      30.192  28.978  24.367  1.00  0.00     0.180 HD
BRANCH  16  18
ATOM     18  C   UNL A   1      30.643  26.913  24.548  1.00  0.00     0.053 A 
ATOM     19  C   UNL A   1      30.457  26.139  23.406  1.00  0.00     0.031 A 
ATOM     20  C   UNL A   1      30.669  26.316  25.807  1.00  0.00     0.077 A 
ATOM     21  C   UNL A   1      30.392  24.756  23.505  1.00  0.00     0.052 A 
ATOM     22  C   UNL A   1      30.734  24.925  25.886  1.00  0.00     0.163 A 
ATOM     23  C   UNL A   1      30.625  24.152  24.725  1.00  0.00     0.161 A 
ATOM     24  O   UNL A   1      31.024  24.386  27.116  1.00  0.00    -0.486 OA
ATOM     25  O   UNL A   1      30.836  22.796  24.699  1.00  0.00    -0.486 OA
ATOM     26  C   UNL A   1      31.115  22.955  27.079  1.00  0.00     0.271 C 
ATOM     27  C   UNL A   1      31.710  22.455  25.773  1.00  0.00     0.271 C 
ENDBRANCH  16  18
ENDBRANCH  13  16
ENDBRANCH  12  13
ENDBRANCH   6   7
ENDBRANCH   3   5
ENDBRANCH   2   3
ENDBRANCH   1   2
BRANCH   1  28
ATOM     28  C   UNL A   1      39.178  19.608  25.700  1.00  0.00     0.275 C 
BRANCH  28  29
ATOM     29  O   UNL A   1      40.512  19.631  25.169  1.00  0.00    -0.458 OA
BRANCH  29  30
ATOM     30  C   UNL A   1      41.508  19.571  26.093  1.00  0.00     0.338 C 
ATOM     31  O   UNL A   1      42.093  18.562  26.452  1.00  0.00    -0.246 OA
BRANCH  30  32
ATOM     32  C   UNL A   1      41.910  20.935  26.517  1.00  0.00     0.060 A 
ATOM     33  C   UNL A   1      42.137  21.894  25.520  1.00  0.00     0.016 A 
ATOM     34  C   UNL A   1      42.047  21.292  27.859  1.00  0.00     0.016 A 
ATOM     35  C   UNL A   1      42.486  23.208  25.857  1.00  0.00     0.010 A 
ATOM     36  C   UNL A   1      42.399  22.610  28.194  1.00  0.00     0.010 A 
ATOM     37  C   UNL A   1      42.621  23.584  27.199  1.00  0.00    -0.014 A 
BRANCH  37  38
ATOM     38  C   UNL A   1      43.070  24.952  27.593  1.00  0.00     0.031 A 
ATOM     39  C   UNL A   1      42.045  25.964  28.034  1.00  0.00     0.074 A 
ATOM     40  C   UNL A   1      44.364  25.333  27.549  1.00  0.00     0.049 A 
ATOM     41  N   UNL A   1      42.215  27.224  28.338  1.00  0.00    -0.248 NA
ATOM     42  C   UNL A   1      40.660  25.488  28.191  1.00  0.00     0.031 C 
ATOM     43  C   UNL A   1      45.508  24.469  27.263  1.00  0.00     0.029 A 
ATOM     44  N   UNL A   1      44.932  26.581  27.717  1.00  0.00    -0.354 N 
ATOM     45  C   UNL A   1      40.971  27.689  28.742  1.00  0.00     0.074 A 
ATOM     46  C   UNL A   1      40.041  26.590  28.593  1.00  0.00     0.031 C 
ATOM     47  C   UNL A   1      46.618  25.227  27.208  1.00  0.00     0.029 A 
ATOM     48  C   UNL A   1      46.261  26.630  27.361  1.00  0.00     0.049 A 
ATOM     49  H   UNL A   1      44.434  27.359  28.058  1.00  0.00     0.167 HD
ATOM     50  C   UNL A   1      40.644  28.900  29.247  1.00  0.00     0.034 A 
ATOM     51  C   UNL A   1      47.078  27.678  27.122  1.00  0.00     0.034 A 
ATOM     52  C   UNL A   1      41.562  29.989  29.434  1.00  0.00     0.049 A 
ATOM     53  C   UNL A   1      46.621  29.068  27.441  1.00  0.00     0.074 A 
ATOM     54  C   UNL A   1      41.346  31.194  30.081  1.00  0.00     0.029 A 
ATOM     55  N   UNL A   1      42.853  30.027  28.940  1.00  0.00    -0.354 N 
ATOM     56  N   UNL A   1      45.484  29.451  27.958  1.00  0.00    -0.248 NA
ATOM     57  C   UNL A   1      47.589  30.154  27.225  1.00  0.00     0.031 C 
ATOM     58  C   UNL A   1      42.496  31.980  29.941  1.00  0.00     0.029 A 
ATOM     59  C   UNL A   1      43.431  31.254  29.225  1.00  0.00     0.049 A 
ATOM     60  H   UNL A   1      43.295  29.293  28.456  1.00  0.00     0.167 HD
ATOM     61  C   UNL A   1      45.625  30.811  28.198  1.00  0.00     0.074 A 
ATOM     62  C   UNL A   1      46.941  31.193  27.734  1.00  0.00     0.031 C 
ATOM     63  C   UNL A   1      44.743  31.650  28.790  1.00  0.00     0.034 A 
BRANCH  50  64
ATOM     64  C   UNL A   1      39.232  29.100  29.714  1.00  0.00     0.023 A 
ATOM     65  C   UNL A   1      38.878  28.697  31.017  1.00  0.00     0.012 A 
ATOM     66  C   UNL A   1      38.295  29.776  28.912  1.00  0.00     0.148 A 
ATOM     67  C   UNL A   1      37.602  28.954  31.514  1.00  0.00     0.002 A 
ATOM     68  C   UNL A   1      37.035  30.057  29.425  1.00  0.00     0.091 A 
ATOM     69  F   UNL A   1      38.653  30.127  27.669  1.00  0.00    -0.205 F 
ATOM     70  C   UNL A   1      36.687  29.644  30.722  1.00  0.00     0.022 A 
BRANCH  68  71
ATOM     71  S   UNL A   1      35.807  30.994  28.511  1.00  0.00     0.127 S 
ATOM     72  O   UNL A   1      34.818  31.272  29.553  1.00  0.00    -0.237 OA
ATOM     73  O   UNL A   1      36.575  32.160  28.073  1.00  0.00    -0.237 OA
ATOM     74  O   UNL A   1      35.352  30.124  27.437  1.00  0.00    -0.744 OA
ENDBRANCH  68  71
ENDBRANCH  50  64
BRANCH  51  75
ATOM     75  C   UNL A   1      48.414  27.489  26.491  1.00  0.00     0.023 A 
ATOM     76  C   UNL A   1      49.557  27.280  27.275  1.00  0.00     0.012 A 
ATOM     77  C   UNL A   1      48.546  27.585  25.089  1.00  0.00     0.148 A 
ATOM     78  C   UNL A   1      50.809  27.138  26.669  1.00  0.00     0.002 A 
ATOM     79  C   UNL A   1      49.779  27.376  24.487  1.00  0.00     0.091 A 
ATOM     80  F   UNL A   1      47.462  27.921  24.377  1.00  0.00    -0.205 F 
ATOM     81  C   UNL A   1      50.917  27.164  25.278  1.00  0.00     0.022 A 
BRANCH  79  82
ATOM     82  S   UNL A   1      49.993  27.308  22.702  1.00  0.00     0.127 S 
ATOM     83  O   UNL A   1      51.371  26.836  22.583  1.00  0.00    -0.237 OA
ATOM     84  O   UNL A   1      48.974  26.331  22.319  1.00  0.00    -0.237 OA
ATOM     85  O   UNL A   1      49.753  28.660  22.215  1.00  0.00    -0.744 OA
ENDBRANCH  79  82
ENDBRANCH  51  75
BRANCH  63  86
ATOM     86  C   UNL A   1      45.177  33.067  29.028  1.00  0.00     0.023 A 
ATOM     87  C   UNL A   1      45.915  33.391  30.182  1.00  0.00     0.012 A 
ATOM     88  C   UNL A   1      44.897  34.070  28.078  1.00  0.00     0.148 A 
ATOM     89  C   UNL A   1      46.351  34.699  30.397  1.00  0.00     0.002 A 
ATOM     90  C   UNL A   1      45.374  35.359  28.276  1.00  0.00     0.091 A 
ATOM     91  F   UNL A   1      44.170  33.742  27.000  1.00  0.00    -0.205 F 
ATOM     92  C   UNL A   1      46.092  35.678  29.439  1.00  0.00     0.022 A 
BRANCH  90  93
ATOM     93  S   UNL A   1      45.161  36.663  27.059  1.00  0.00     0.127 S 
ATOM     94  O   UNL A   1      45.611  37.841  27.799  1.00  0.00    -0.237 OA
ATOM     95  O   UNL A   1      46.059  36.236  25.987  1.00  0.00    -0.237 OA
ATOM     96  O   UNL A   1      43.748  36.655  26.702  1.00  0.00    -0.744 OA
ENDBRANCH  90  93
ENDBRANCH  63  86
ENDBRANCH  37  38
ENDBRANCH  30  32
ENDBRANCH  29  30
ENDBRANCH  28  29
ENDBRANCH   1  28
TORSDOF 18
ENDMDL
