MODEL 1
REMARK VINA RESULT:     -11.0      0.000      0.000
REMARK SMILES C[NH2+][C@@]1(C(=O)OCCOC(=O)c2ccc(-c3c4nc(c(-c5cccc(S(=O)(=O)[O-])c5F)c5ccc([nH]5)c(-c5cccc(S(=O)(=O)[O-])c5F)c5nc(c(-c6cccc(S(=O)(=O)[O-])c6F)c6ccc3[nH]6)C=C5)C=C4)cc2)CC[C@H](Sc2ccc(C)c(C)c2)C1
REMARK SMILES IDX 8 1 7 2 6 3 4 4 5 5 3 6 75 7 87 8 76 9 77 10 2 11 1 12 78 15
REMARK SMILES IDX 79 16 80 17 86 18 81 19 84 20 82 21 85 22 83 23 9 24 10 25
REMARK SMILES IDX 11 26 12 27 13 28 74 29 14 30 73 31 15 32 16 33 17 34 67 35
REMARK SMILES IDX 18 36 72 37 66 38 68 39 19 40 71 41 65 42 64 43 20 45 52 46
REMARK SMILES IDX 32 47 51 48 33 49 36 50 50 51 69 52 34 53 35 54 49 56 70 57
REMARK SMILES IDX 37 58 21 59 22 60 30 61 23 62 25 63 31 64 24 65 26 66 27 67
REMARK SMILES IDX 28 68 29 69 53 70 54 71 62 72 55 73 57 74 63 75 56 76 58 77
REMARK SMILES IDX 59 78 60 79 61 80 38 81 39 82 47 83 40 84 42 85 48 86 41 87
REMARK SMILES IDX 43 88 44 89 45 90 46 91
REMARK H PARENT 2 13 2 14 68 44 36 55
REMARK Flexibility Score: inf
ROOT
ATOM      1  C   UNL A   1      33.173  33.840  27.959  1.00  0.00     0.275 C 
ENDROOT
BRANCH   1   2
ATOM      2  C   UNL A   1      33.408  35.078  28.823  1.00  0.00     0.274 C 
BRANCH   2   3
ATOM      3  O   UNL A   1      32.610  34.976  30.012  1.00  0.00    -0.457 OA
BRANCH   3   4
ATOM      4  C   UNL A   1      32.615  36.036  30.857  1.00  0.00     0.368 C 
ATOM      5  O   UNL A   1      32.700  37.203  30.486  1.00  0.00    -0.245 OA
BRANCH   4   6
ATOM      6  C   UNL A   1      32.575  35.603  32.357  1.00  0.00     0.195 C 
ATOM      7  C   UNL A   1      33.298  36.676  33.176  1.00  0.00     0.082 C 
ATOM      8  C   UNL A   1      33.426  34.354  32.690  1.00  0.00     0.096 C 
ATOM      9  C   UNL A   1      34.773  36.378  32.910  1.00  0.00     0.022 C 
ATOM     10  C   UNL A   1      34.878  34.847  32.880  1.00  0.00     0.059 C 
BRANCH   6  11
ATOM     11  N   UNL A   1      31.198  35.347  32.845  1.00  0.00    -0.335 N 
ATOM     12  C   UNL A   1      30.432  36.507  33.282  1.00  0.00     0.331 C 
ATOM     13  H   UNL A   1      30.679  34.902  32.089  1.00  0.00     0.347 HD
ATOM     14  H   UNL A   1      31.312  34.772  33.681  1.00  0.00     0.347 HD
ENDBRANCH   6  11
BRANCH  10  15
ATOM     15  S   UNL A   1      35.951  34.109  31.581  1.00  0.00    -0.122 SA
BRANCH  15  16
ATOM     16  C   UNL A   1      37.628  34.320  32.133  1.00  0.00     0.008 A 
ATOM     17  C   UNL A   1      38.018  34.490  33.457  1.00  0.00     0.015 A 
ATOM     18  C   UNL A   1      38.623  34.285  31.143  1.00  0.00     0.018 A 
ATOM     19  C   UNL A   1      39.363  34.692  33.777  1.00  0.00     0.005 A 
ATOM     20  C   UNL A   1      39.986  34.453  31.450  1.00  0.00    -0.047 A 
ATOM     21  C   UNL A   1      40.358  34.674  32.787  1.00  0.00    -0.048 A 
ATOM     22  C   UNL A   1      40.994  34.375  30.338  1.00  0.00     0.044 C 
ATOM     23  C   UNL A   1      41.779  34.913  33.217  1.00  0.00     0.044 C 
ENDBRANCH  15  16
ENDBRANCH  10  15
ENDBRANCH   4   6
ENDBRANCH   3   4
ENDBRANCH   2   3
ENDBRANCH   1   2
BRANCH   1  24
ATOM     24  O   UNL A   1      34.413  33.147  27.721  1.00  0.00    -0.458 OA
BRANCH  24  25
ATOM     25  C   UNL A   1      34.310  31.794  27.646  1.00  0.00     0.338 C 
ATOM     26  O   UNL A   1      33.399  31.152  27.159  1.00  0.00    -0.246 OA
BRANCH  25  27
ATOM     27  C   UNL A   1      35.548  31.181  28.165  1.00  0.00     0.060 A 
ATOM     28  C   UNL A   1      35.505  29.847  28.577  1.00  0.00     0.016 A 
ATOM     29  C   UNL A   1      36.731  31.915  28.275  1.00  0.00     0.016 A 
ATOM     30  C   UNL A   1      36.656  29.222  29.054  1.00  0.00     0.010 A 
ATOM     31  C   UNL A   1      37.874  31.301  28.794  1.00  0.00     0.010 A 
ATOM     32  C   UNL A   1      37.842  29.952  29.183  1.00  0.00    -0.014 A 
BRANCH  32  33
ATOM     33  C   UNL A   1      39.016  29.332  29.834  1.00  0.00     0.031 A 
ATOM     34  C   UNL A   1      39.452  29.842  31.176  1.00  0.00     0.074 A 
ATOM     35  C   UNL A   1      39.688  28.336  29.231  1.00  0.00     0.049 A 
ATOM     36  N   UNL A   1      40.453  29.457  31.921  1.00  0.00    -0.248 NA
ATOM     37  C   UNL A   1      38.645  30.927  31.759  1.00  0.00     0.031 C 
ATOM     38  C   UNL A   1      39.342  27.746  27.938  1.00  0.00     0.029 A 
ATOM     39  N   UNL A   1      40.819  27.661  29.619  1.00  0.00    -0.354 N 
ATOM     40  C   UNL A   1      40.409  30.257  33.055  1.00  0.00     0.074 A 
ATOM     41  C   UNL A   1      39.282  31.153  32.898  1.00  0.00     0.031 C 
ATOM     42  C   UNL A   1      40.265  26.821  27.623  1.00  0.00     0.029 A 
ATOM     43  C   UNL A   1      41.277  26.771  28.676  1.00  0.00     0.049 A 
ATOM     44  H   UNL A   1      41.259  27.802  30.487  1.00  0.00     0.167 HD
ATOM     45  C   UNL A   1      41.231  30.246  34.130  1.00  0.00     0.034 A 
ATOM     46  C   UNL A   1      42.400  26.025  28.659  1.00  0.00     0.034 A 
ATOM     47  C   UNL A   1      42.368  29.376  34.264  1.00  0.00     0.049 A 
ATOM     48  C   UNL A   1      43.335  26.080  29.841  1.00  0.00     0.074 A 
ATOM     49  C   UNL A   1      43.254  29.278  35.323  1.00  0.00     0.029 A 
ATOM     50  N   UNL A   1      42.794  28.475  33.300  1.00  0.00    -0.354 N 
ATOM     51  N   UNL A   1      43.219  26.756  30.959  1.00  0.00    -0.248 NA
ATOM     52  C   UNL A   1      44.543  25.244  29.773  1.00  0.00     0.031 C 
ATOM     53  C   UNL A   1      44.242  28.350  34.978  1.00  0.00     0.029 A 
ATOM     54  C   UNL A   1      43.942  27.833  33.728  1.00  0.00     0.049 A 
ATOM     55  H   UNL A   1      42.345  28.317  32.439  1.00  0.00     0.167 HD
ATOM     56  C   UNL A   1      44.312  26.398  31.741  1.00  0.00     0.074 A 
ATOM     57  C   UNL A   1      45.071  25.431  30.976  1.00  0.00     0.031 C 
ATOM     58  C   UNL A   1      44.661  26.835  32.977  1.00  0.00     0.034 A 
BRANCH  45  59
ATOM     59  C   UNL A   1      40.932  31.216  35.239  1.00  0.00     0.023 A 
ATOM     60  C   UNL A   1      41.872  32.214  35.572  1.00  0.00     0.012 A 
ATOM     61  C   UNL A   1      39.707  31.163  35.930  1.00  0.00     0.148 A 
ATOM     62  C   UNL A   1      41.610  33.122  36.597  1.00  0.00     0.002 A 
ATOM     63  C   UNL A   1      39.434  32.098  36.920  1.00  0.00     0.091 A 
ATOM     64  F   UNL A   1      38.838  30.193  35.614  1.00  0.00    -0.205 F 
ATOM     65  C   UNL A   1      40.389  33.069  37.264  1.00  0.00     0.022 A 
BRANCH  63  66
ATOM     66  S   UNL A   1      37.862  32.161  37.786  1.00  0.00     0.127 S 
ATOM     67  O   UNL A   1      37.050  32.956  36.866  1.00  0.00    -0.237 OA
ATOM     68  O   UNL A   1      37.496  30.745  37.856  1.00  0.00    -0.237 OA
ATOM     69  O   UNL A   1      38.135  32.783  39.073  1.00  0.00    -0.744 OA
ENDBRANCH  63  66
ENDBRANCH  45  59
BRANCH  46  70
ATOM     70  C   UNL A   1      42.702  25.147  27.492  1.00  0.00     0.023 A 
ATOM     71  C   UNL A   1      43.467  25.647  26.420  1.00  0.00     0.012 A 
ATOM     72  C   UNL A   1      42.226  23.822  27.434  1.00  0.00     0.148 A 
ATOM     73  C   UNL A   1      43.719  24.858  25.296  1.00  0.00     0.002 A 
ATOM     74  C   UNL A   1      42.528  23.023  26.338  1.00  0.00     0.091 A 
ATOM     75  F   UNL A   1      41.487  23.368  28.457  1.00  0.00    -0.205 F 
ATOM     76  C   UNL A   1      43.258  23.546  25.259  1.00  0.00     0.022 A 
BRANCH  74  77
ATOM     77  S   UNL A   1      42.074  21.288  26.251  1.00  0.00     0.127 S 
ATOM     78  O   UNL A   1      42.993  20.790  25.230  1.00  0.00    -0.237 OA
ATOM     79  O   UNL A   1      42.362  20.835  27.612  1.00  0.00    -0.237 OA
ATOM     80  O   UNL A   1      40.663  21.265  25.893  1.00  0.00    -0.744 OA
ENDBRANCH  74  77
ENDBRANCH  46  70
BRANCH  58  81
ATOM     81  C   UNL A   1      45.894  26.240  33.612  1.00  0.00     0.023 A 
ATOM     82  C   UNL A   1      45.794  25.076  34.399  1.00  0.00     0.012 A 
ATOM     83  C   UNL A   1      47.164  26.794  33.356  1.00  0.00     0.148 A 
ATOM     84  C   UNL A   1      46.936  24.492  34.948  1.00  0.00     0.002 A 
ATOM     85  C   UNL A   1      48.302  26.176  33.861  1.00  0.00     0.091 A 
ATOM     86  F   UNL A   1      47.238  27.911  32.618  1.00  0.00    -0.205 F 
ATOM     87  C   UNL A   1      48.188  25.034  34.669  1.00  0.00     0.022 A 
BRANCH  85  88
ATOM     88  S   UNL A   1      49.961  26.742  33.470  1.00  0.00     0.127 S 
ATOM     89  O   UNL A   1      49.984  26.612  32.014  1.00  0.00    -0.237 OA
ATOM     90  O   UNL A   1      49.940  28.122  33.958  1.00  0.00    -0.237 OA
ATOM     91  O   UNL A   1      50.869  25.859  34.189  1.00  0.00    -0.744 OA
ENDBRANCH  85  88
ENDBRANCH  58  81
ENDBRANCH  32  33
ENDBRANCH  25  27
ENDBRANCH  24  25
ENDBRANCH   1  24
TORSDOF 17
ENDMDL
MODEL 2
REMARK VINA RESULT:     -10.5      5.539     11.567
REMARK SMILES C[NH2+][C@@]1(C(=O)OCCOC(=O)c2ccc(-c3c4nc(c(-c5cccc(S(=O)(=O)[O-])c5F)c5ccc([nH]5)c(-c5cccc(S(=O)(=O)[O-])c5F)c5nc(c(-c6cccc(S(=O)(=O)[O-])c6F)c6ccc3[nH]6)C=C5)C=C4)cc2)CC[C@H](Sc2ccc(C)c(C)c2)C1
REMARK SMILES IDX 8 1 7 2 6 3 4 4 5 5 3 6 75 7 87 8 76 9 77 10 2 11 1 12 78 15
REMARK SMILES IDX 79 16 80 17 86 18 81 19 84 20 82 21 85 22 83 23 9 24 10 25
REMARK SMILES IDX 11 26 12 27 13 28 74 29 14 30 73 31 15 32 16 33 17 34 67 35
REMARK SMILES IDX 18 36 72 37 66 38 68 39 19 40 71 41 65 42 64 43 20 45 52 46
REMARK SMILES IDX 32 47 51 48 33 49 36 50 50 51 69 52 34 53 35 54 49 56 70 57
REMARK SMILES IDX 37 58 21 59 22 60 30 61 23 62 25 63 31 64 24 65 26 66 27 67
REMARK SMILES IDX 28 68 29 69 53 70 54 71 62 72 55 73 57 74 63 75 56 76 58 77
REMARK SMILES IDX 59 78 60 79 61 80 38 81 39 82 47 83 40 84 42 85 48 86 41 87
REMARK SMILES IDX 43 88 44 89 45 90 46 91
REMARK H PARENT 2 13 2 14 68 44 36 55
REMARK Flexibility Score: inf
ROOT
ATOM      1  C   UNL A   1      37.547  21.107  24.630  1.00  0.00     0.275 C 
ENDROOT
BRANCH   1   2
ATOM      2  C   UNL A   1      36.658  22.147  23.951  1.00  0.00     0.274 C 
BRANCH   2   3
ATOM      3  O   UNL A   1      35.338  22.069  24.508  1.00  0.00    -0.457 OA
BRANCH   3   4
ATOM      4  C   UNL A   1      34.696  23.237  24.754  1.00  0.00     0.368 C 
ATOM      5  O   UNL A   1      35.272  24.289  25.017  1.00  0.00    -0.245 OA
BRANCH   4   6
ATOM      6  C   UNL A   1      33.142  23.080  24.740  1.00  0.00     0.195 C 
ATOM      7  C   UNL A   1      32.764  22.248  23.512  1.00  0.00     0.082 C 
ATOM      8  C   UNL A   1      32.365  24.389  24.460  1.00  0.00     0.096 C 
ATOM      9  C   UNL A   1      32.886  23.250  22.364  1.00  0.00     0.022 C 
ATOM     10  C   UNL A   1      32.352  24.575  22.927  1.00  0.00     0.059 C 
BRANCH   6  11
ATOM     11  N   UNL A   1      32.610  22.506  26.000  1.00  0.00    -0.335 N 
ATOM     12  C   UNL A   1      31.823  23.396  26.843  1.00  0.00     0.331 C 
ATOM     13  H   UNL A   1      32.019  21.713  25.753  1.00  0.00     0.347 HD
ATOM     14  H   UNL A   1      33.433  22.270  26.556  1.00  0.00     0.347 HD
ENDBRANCH   6  11
BRANCH  10  15
ATOM     15  S   UNL A   1      33.277  26.103  22.486  1.00  0.00    -0.122 SA
BRANCH  15  16
ATOM     16  C   UNL A   1      32.762  27.355  23.640  1.00  0.00     0.008 A 
ATOM     17  C   UNL A   1      31.529  27.996  23.625  1.00  0.00     0.015 A 
ATOM     18  C   UNL A   1      33.677  27.689  24.651  1.00  0.00     0.018 A 
ATOM     19  C   UNL A   1      31.243  29.000  24.554  1.00  0.00     0.005 A 
ATOM     20  C   UNL A   1      33.393  28.672  25.617  1.00  0.00    -0.047 A 
ATOM     21  C   UNL A   1      32.162  29.348  25.556  1.00  0.00    -0.048 A 
ATOM     22  C   UNL A   1      34.412  28.954  26.685  1.00  0.00     0.044 C 
ATOM     23  C   UNL A   1      31.778  30.447  26.508  1.00  0.00     0.044 C 
ENDBRANCH  15  16
ENDBRANCH  10  15
ENDBRANCH   4   6
ENDBRANCH   3   4
ENDBRANCH   2   3
ENDBRANCH   1   2
BRANCH   1  24
ATOM     24  O   UNL A   1      37.904  21.537  25.957  1.00  0.00    -0.458 OA
BRANCH  24  25
ATOM     25  C   UNL A   1      39.226  21.440  26.256  1.00  0.00     0.338 C 
ATOM     26  O   UNL A   1      39.945  20.470  26.108  1.00  0.00    -0.246 OA
BRANCH  25  27
ATOM     27  C   UNL A   1      39.721  22.755  26.710  1.00  0.00     0.060 A 
ATOM     28  C   UNL A   1      39.187  23.903  26.119  1.00  0.00     0.016 A 
ATOM     29  C   UNL A   1      40.718  22.860  27.681  1.00  0.00     0.016 A 
ATOM     30  C   UNL A   1      39.610  25.166  26.532  1.00  0.00     0.010 A 
ATOM     31  C   UNL A   1      41.174  24.125  28.063  1.00  0.00     0.010 A 
ATOM     32  C   UNL A   1      40.620  25.282  27.492  1.00  0.00    -0.014 A 
BRANCH  32  33
ATOM     33  C   UNL A   1      41.175  26.615  27.813  1.00  0.00     0.031 A 
ATOM     34  C   UNL A   1      42.612  26.897  27.487  1.00  0.00     0.074 A 
ATOM     35  C   UNL A   1      40.410  27.554  28.395  1.00  0.00     0.049 A 
ATOM     36  N   UNL A   1      43.307  27.984  27.688  1.00  0.00    -0.248 NA
ATOM     37  C   UNL A   1      43.364  25.808  26.841  1.00  0.00     0.031 C 
ATOM     38  C   UNL A   1      38.996  27.400  28.736  1.00  0.00     0.029 A 
ATOM     39  N   UNL A   1      40.725  28.820  28.824  1.00  0.00    -0.354 N 
ATOM     40  C   UNL A   1      44.581  27.712  27.207  1.00  0.00     0.074 A 
ATOM     41  C   UNL A   1      44.564  26.353  26.706  1.00  0.00     0.031 C 
ATOM     42  C   UNL A   1      38.575  28.516  29.356  1.00  0.00     0.029 A 
ATOM     43  C   UNL A   1      39.692  29.450  29.477  1.00  0.00     0.049 A 
ATOM     44  H   UNL A   1      41.605  29.235  28.679  1.00  0.00     0.167 HD
ATOM     45  C   UNL A   1      45.666  28.520  27.183  1.00  0.00     0.034 A 
ATOM     46  C   UNL A   1      39.665  30.635  30.121  1.00  0.00     0.034 A 
ATOM     47  C   UNL A   1      45.686  29.857  27.711  1.00  0.00     0.049 A 
ATOM     48  C   UNL A   1      40.909  31.489  30.137  1.00  0.00     0.074 A 
ATOM     49  C   UNL A   1      46.733  30.761  27.721  1.00  0.00     0.029 A 
ATOM     50  N   UNL A   1      44.619  30.471  28.350  1.00  0.00    -0.354 N 
ATOM     51  N   UNL A   1      42.074  31.267  29.576  1.00  0.00    -0.248 NA
ATOM     52  C   UNL A   1      40.825  32.773  30.849  1.00  0.00     0.031 C 
ATOM     53  C   UNL A   1      46.313  31.906  28.406  1.00  0.00     0.029 A 
ATOM     54  C   UNL A   1      44.988  31.734  28.778  1.00  0.00     0.049 A 
ATOM     55  H   UNL A   1      43.732  30.067  28.481  1.00  0.00     0.167 HD
ATOM     56  C   UNL A   1      42.845  32.397  29.832  1.00  0.00     0.074 A 
ATOM     57  C   UNL A   1      42.009  33.309  30.584  1.00  0.00     0.031 C 
ATOM     58  C   UNL A   1      44.130  32.653  29.483  1.00  0.00     0.034 A 
BRANCH  45  59
ATOM     59  C   UNL A   1      46.926  27.969  26.573  1.00  0.00     0.023 A 
ATOM     60  C   UNL A   1      47.886  27.340  27.393  1.00  0.00     0.012 A 
ATOM     61  C   UNL A   1      47.143  28.042  25.184  1.00  0.00     0.148 A 
ATOM     62  C   UNL A   1      49.059  26.823  26.842  1.00  0.00     0.002 A 
ATOM     63  C   UNL A   1      48.293  27.486  24.638  1.00  0.00     0.091 A 
ATOM     64  F   UNL A   1      46.230  28.665  24.427  1.00  0.00    -0.205 F 
ATOM     65  C   UNL A   1      49.257  26.888  25.466  1.00  0.00     0.022 A 
BRANCH  63  66
ATOM     66  S   UNL A   1      48.607  27.453  22.870  1.00  0.00     0.127 S 
ATOM     67  O   UNL A   1      47.462  28.202  22.353  1.00  0.00    -0.237 OA
ATOM     68  O   UNL A   1      49.888  28.154  22.775  1.00  0.00    -0.237 OA
ATOM     69  O   UNL A   1      48.652  26.048  22.494  1.00  0.00    -0.744 OA
ENDBRANCH  63  66
ENDBRANCH  45  59
BRANCH  46  70
ATOM     70  C   UNL A   1      38.418  31.098  30.793  1.00  0.00     0.023 A 
ATOM     71  C   UNL A   1      38.247  30.883  32.175  1.00  0.00     0.012 A 
ATOM     72  C   UNL A   1      37.395  31.741  30.069  1.00  0.00     0.148 A 
ATOM     73  C   UNL A   1      37.066  31.263  32.814  1.00  0.00     0.002 A 
ATOM     74  C   UNL A   1      36.245  32.168  30.721  1.00  0.00     0.091 A 
ATOM     75  F   UNL A   1      37.568  31.923  28.752  1.00  0.00    -0.205 F 
ATOM     76  C   UNL A   1      36.070  31.912  32.091  1.00  0.00     0.022 A 
BRANCH  74  77
ATOM     77  S   UNL A   1      34.958  33.112  29.898  1.00  0.00     0.127 S 
ATOM     78  O   UNL A   1      35.725  34.196  29.289  1.00  0.00    -0.237 OA
ATOM     79  O   UNL A   1      34.424  32.130  28.955  1.00  0.00    -0.237 OA
ATOM     80  O   UNL A   1      34.028  33.510  30.946  1.00  0.00    -0.744 OA
ENDBRANCH  74  77
ENDBRANCH  46  70
BRANCH  58  81
ATOM     81  C   UNL A   1      44.710  33.993  29.864  1.00  0.00     0.023 A 
ATOM     82  C   UNL A   1      45.439  34.136  31.060  1.00  0.00     0.012 A 
ATOM     83  C   UNL A   1      44.601  35.091  28.986  1.00  0.00     0.148 A 
ATOM     84  C   UNL A   1      46.020  35.359  31.395  1.00  0.00     0.002 A 
ATOM     85  C   UNL A   1      45.228  36.290  29.300  1.00  0.00     0.091 A 
ATOM     86  F   UNL A   1      43.891  34.941  27.860  1.00  0.00    -0.205 F 
ATOM     87  C   UNL A   1      45.926  36.430  30.510  1.00  0.00     0.022 A 
BRANCH  85  88
ATOM     88  S   UNL A   1      45.248  37.691  28.175  1.00  0.00     0.127 S 
ATOM     89  O   UNL A   1      43.843  38.093  28.175  1.00  0.00    -0.237 OA
ATOM     90  O   UNL A   1      46.148  38.622  28.858  1.00  0.00    -0.237 OA
ATOM     91  O   UNL A   1      45.752  37.183  26.906  1.00  0.00    -0.744 OA
ENDBRANCH  85  88
ENDBRANCH  58  81
ENDBRANCH  32  33
ENDBRANCH  25  27
ENDBRANCH  24  25
ENDBRANCH   1  24
TORSDOF 17
ENDMDL
MODEL 3
REMARK VINA RESULT:     -10.5      5.420      9.611
REMARK SMILES C[NH2+][C@@]1(C(=O)OCCOC(=O)c2ccc(-c3c4nc(c(-c5cccc(S(=O)(=O)[O-])c5F)c5ccc([nH]5)c(-c5cccc(S(=O)(=O)[O-])c5F)c5nc(c(-c6cccc(S(=O)(=O)[O-])c6F)c6ccc3[nH]6)C=C5)C=C4)cc2)CC[C@H](Sc2ccc(C)c(C)c2)C1
REMARK SMILES IDX 8 1 7 2 6 3 4 4 5 5 3 6 75 7 87 8 76 9 77 10 2 11 1 12 78 15
REMARK SMILES IDX 79 16 80 17 86 18 81 19 84 20 82 21 85 22 83 23 9 24 10 25
REMARK SMILES IDX 11 26 12 27 13 28 74 29 14 30 73 31 15 32 16 33 17 34 67 35
REMARK SMILES IDX 18 36 72 37 66 38 68 39 19 40 71 41 65 42 64 43 20 45 52 46
REMARK SMILES IDX 32 47 51 48 33 49 36 50 50 51 69 52 34 53 35 54 49 56 70 57
REMARK SMILES IDX 37 58 21 59 22 60 30 61 23 62 25 63 31 64 24 65 26 66 27 67
REMARK SMILES IDX 28 68 29 69 53 70 54 71 62 72 55 73 57 74 63 75 56 76 58 77
REMARK SMILES IDX 59 78 60 79 61 80 38 81 39 82 47 83 40 84 42 85 48 86 41 87
REMARK SMILES IDX 43 88 44 89 45 90 46 91
REMARK H PARENT 2 13 2 14 68 44 36 55
REMARK Flexibility Score: inf
ROOT
ATOM      1  C   UNL A   1      36.784  20.798  24.849  1.00  0.00     0.275 C 
ENDROOT
BRANCH   1   2
ATOM      2  C   UNL A   1      35.269  20.770  25.046  1.00  0.00     0.274 C 
BRANCH   2   3
ATOM      3  O   UNL A   1      34.666  21.732  24.168  1.00  0.00    -0.457 OA
BRANCH   3   4
ATOM      4  C   UNL A   1      34.175  22.864  24.728  1.00  0.00     0.368 C 
ATOM      5  O   UNL A   1      34.873  23.711  25.279  1.00  0.00    -0.245 OA
BRANCH   4   6
ATOM      6  C   UNL A   1      32.616  22.936  24.661  1.00  0.00     0.195 C 
ATOM      7  C   UNL A   1      32.170  22.275  23.354  1.00  0.00     0.082 C 
ATOM      8  C   UNL A   1      32.045  24.363  24.480  1.00  0.00     0.096 C 
ATOM      9  C   UNL A   1      32.476  23.343  22.304  1.00  0.00     0.022 C 
ATOM     10  C   UNL A   1      32.116  24.679  22.970  1.00  0.00     0.059 C 
BRANCH   6  11
ATOM     11  N   UNL A   1      31.961  22.341  25.851  1.00  0.00    -0.335 N 
ATOM     12  C   UNL A   1      30.958  23.157  26.523  1.00  0.00     0.331 C 
ATOM     13  H   UNL A   1      31.507  21.477  25.555  1.00  0.00     0.347 HD
ATOM     14  H   UNL A   1      32.708  22.218  26.536  1.00  0.00     0.347 HD
ENDBRANCH   6  11
BRANCH  10  15
ATOM     15  S   UNL A   1      33.266  26.088  22.691  1.00  0.00    -0.122 SA
BRANCH  15  16
ATOM     16  C   UNL A   1      32.804  27.353  23.853  1.00  0.00     0.008 A 
ATOM     17  C   UNL A   1      31.611  28.067  23.824  1.00  0.00     0.015 A 
ATOM     18  C   UNL A   1      33.718  27.619  24.885  1.00  0.00     0.018 A 
ATOM     19  C   UNL A   1      31.368  29.073  24.762  1.00  0.00     0.005 A 
ATOM     20  C   UNL A   1      33.474  28.605  25.859  1.00  0.00    -0.047 A 
ATOM     21  C   UNL A   1      32.287  29.353  25.786  1.00  0.00    -0.048 A 
ATOM     22  C   UNL A   1      34.488  28.812  26.949  1.00  0.00     0.044 C 
ATOM     23  C   UNL A   1      31.952  30.461  26.745  1.00  0.00     0.044 C 
ENDBRANCH  15  16
ENDBRANCH  10  15
ENDBRANCH   4   6
ENDBRANCH   3   4
ENDBRANCH   2   3
ENDBRANCH   1   2
BRANCH   1  24
ATOM     24  O   UNL A   1      37.438  21.292  26.033  1.00  0.00    -0.458 OA
BRANCH  24  25
ATOM     25  C   UNL A   1      38.782  21.091  26.073  1.00  0.00     0.338 C 
ATOM     26  O   UNL A   1      39.388  20.099  25.714  1.00  0.00    -0.246 OA
BRANCH  25  27
ATOM     27  C   UNL A   1      39.446  22.325  26.536  1.00  0.00     0.060 A 
ATOM     28  C   UNL A   1      38.991  23.549  26.038  1.00  0.00     0.016 A 
ATOM     29  C   UNL A   1      40.522  22.282  27.424  1.00  0.00     0.016 A 
ATOM     30  C   UNL A   1      39.576  24.741  26.463  1.00  0.00     0.010 A 
ATOM     31  C   UNL A   1      41.137  23.474  27.818  1.00  0.00     0.010 A 
ATOM     32  C   UNL A   1      40.664  24.708  27.341  1.00  0.00    -0.014 A 
BRANCH  32  33
ATOM     33  C   UNL A   1      41.380  25.959  27.667  1.00  0.00     0.031 A 
ATOM     34  C   UNL A   1      40.658  27.027  28.434  1.00  0.00     0.074 A 
ATOM     35  C   UNL A   1      42.653  26.142  27.275  1.00  0.00     0.049 A 
ATOM     36  N   UNL A   1      41.084  28.201  28.817  1.00  0.00    -0.248 NA
ATOM     37  C   UNL A   1      39.271  26.728  28.827  1.00  0.00     0.031 C 
ATOM     38  C   UNL A   1      43.461  25.166  26.545  1.00  0.00     0.029 A 
ATOM     39  N   UNL A   1      43.482  27.228  27.417  1.00  0.00    -0.354 N 
ATOM     40  C   UNL A   1      40.018  28.788  29.486  1.00  0.00     0.074 A 
ATOM     41  C   UNL A   1      38.923  27.842  29.453  1.00  0.00     0.031 C 
ATOM     42  C   UNL A   1      44.659  25.712  26.270  1.00  0.00     0.029 A 
ATOM     43  C   UNL A   1      44.693  27.080  26.783  1.00  0.00     0.049 A 
ATOM     44  H   UNL A   1      43.233  28.034  27.924  1.00  0.00     0.167 HD
ATOM     45  C   UNL A   1      39.958  30.006  30.075  1.00  0.00     0.034 A 
ATOM     46  C   UNL A   1      45.700  27.962  26.614  1.00  0.00     0.034 A 
ATOM     47  C   UNL A   1      41.039  30.953  30.076  1.00  0.00     0.049 A 
ATOM     48  C   UNL A   1      45.580  29.336  27.225  1.00  0.00     0.074 A 
ATOM     49  C   UNL A   1      41.080  32.208  30.659  1.00  0.00     0.029 A 
ATOM     50  N   UNL A   1      42.256  30.766  29.440  1.00  0.00    -0.354 N 
ATOM     51  N   UNL A   1      44.612  29.837  27.955  1.00  0.00    -0.248 NA
ATOM     52  C   UNL A   1      46.707  30.258  27.015  1.00  0.00     0.031 C 
ATOM     53  C   UNL A   1      42.307  32.797  30.337  1.00  0.00     0.029 A 
ATOM     54  C   UNL A   1      43.049  31.890  29.597  1.00  0.00     0.049 A 
ATOM     55  H   UNL A   1      42.517  29.955  28.949  1.00  0.00     0.167 HD
ATOM     56  C   UNL A   1      45.029  31.112  28.324  1.00  0.00     0.074 A 
ATOM     57  C   UNL A   1      46.346  31.300  27.751  1.00  0.00     0.031 C 
ATOM     58  C   UNL A   1      44.379  32.045  29.063  1.00  0.00     0.034 A 
BRANCH  45  59
ATOM     59  C   UNL A   1      38.671  30.380  30.758  1.00  0.00     0.023 A 
ATOM     60  C   UNL A   1      38.445  29.988  32.094  1.00  0.00     0.012 A 
ATOM     61  C   UNL A   1      37.701  31.151  30.090  1.00  0.00     0.148 A 
ATOM     62  C   UNL A   1      37.258  30.327  32.741  1.00  0.00     0.002 A 
ATOM     63  C   UNL A   1      36.540  31.524  30.756  1.00  0.00     0.091 A 
ATOM     64  F   UNL A   1      37.925  31.493  28.814  1.00  0.00    -0.205 F 
ATOM     65  C   UNL A   1      36.311  31.102  32.076  1.00  0.00     0.022 A 
BRANCH  63  66
ATOM     66  S   UNL A   1      35.294  32.581  30.013  1.00  0.00     0.127 S 
ATOM     67  O   UNL A   1      34.831  31.754  28.899  1.00  0.00    -0.237 OA
ATOM     68  O   UNL A   1      34.330  32.729  31.104  1.00  0.00    -0.237 OA
ATOM     69  O   UNL A   1      35.979  33.808  29.634  1.00  0.00    -0.744 OA
ENDBRANCH  63  66
ENDBRANCH  45  59
BRANCH  46  70
ATOM     70  C   UNL A   1      46.918  27.576  25.848  1.00  0.00     0.023 A 
ATOM     71  C   UNL A   1      46.973  27.807  24.459  1.00  0.00     0.012 A 
ATOM     72  C   UNL A   1      48.019  26.970  26.485  1.00  0.00     0.148 A 
ATOM     73  C   UNL A   1      48.084  27.408  23.714  1.00  0.00     0.002 A 
ATOM     74  C   UNL A   1      49.145  26.626  25.748  1.00  0.00     0.091 A 
ATOM     75  F   UNL A   1      47.942  26.744  27.805  1.00  0.00    -0.205 F 
ATOM     76  C   UNL A   1      49.172  26.825  24.358  1.00  0.00     0.022 A 
BRANCH  74  77
ATOM     77  S   UNL A   1      50.638  25.977  26.507  1.00  0.00     0.127 S 
ATOM     78  O   UNL A   1      50.159  24.723  27.084  1.00  0.00    -0.237 OA
ATOM     79  O   UNL A   1      51.520  25.825  25.350  1.00  0.00    -0.237 OA
ATOM     80  O   UNL A   1      51.067  26.988  27.464  1.00  0.00    -0.744 OA
ENDBRANCH  74  77
ENDBRANCH  46  70
BRANCH  58  81
ATOM     81  C   UNL A   1      45.093  33.344  29.344  1.00  0.00     0.023 A 
ATOM     82  C   UNL A   1      45.909  33.473  30.485  1.00  0.00     0.012 A 
ATOM     83  C   UNL A   1      45.019  34.411  28.425  1.00  0.00     0.148 A 
ATOM     84  C   UNL A   1      46.612  34.654  30.725  1.00  0.00     0.002 A 
ATOM     85  C   UNL A   1      45.764  35.563  28.643  1.00  0.00     0.091 A 
ATOM     86  F   UNL A   1      44.225  34.277  27.353  1.00  0.00    -0.205 F 
ATOM     87  C   UNL A   1      46.549  35.692  29.799  1.00  0.00     0.022 A 
BRANCH  85  88
ATOM     88  S   UNL A   1      45.827  36.910  27.455  1.00  0.00     0.127 S 
ATOM     89  O   UNL A   1      46.698  37.866  28.135  1.00  0.00    -0.237 OA
ATOM     90  O   UNL A   1      46.426  36.263  26.286  1.00  0.00    -0.237 OA
ATOM     91  O   UNL A   1      44.450  37.346  27.265  1.00  0.00    -0.744 OA
ENDBRANCH  85  88
ENDBRANCH  58  81
ENDBRANCH  32  33
ENDBRANCH  25  27
ENDBRANCH  24  25
ENDBRANCH   1  24
TORSDOF 17
ENDMDL
