MODEL 1
REMARK VINA RESULT:     -11.7      0.000      0.000
REMARK SMILES Cc1ccc(CNc2ccc(C(=O)OCCOC(=O)c3ccc(-c4c5nc(c(-c6cccc(S(=O)(=O)[O-])c6F)c6ccc([nH]6)c(-c6cccc(S(=O)(=O)[O-])c6F)c6nc(c(-c7cccc(S(=O)(=O)[O-])c7F)c7ccc4[nH]7)C=C6)C=C5)cc3)cc2Br)cc1
REMARK SMILES IDX 15 1 14 2 12 3 13 4 11 5 8 6 9 7 84 8 10 9 83 10 85 11 7 12
REMARK SMILES IDX 6 14 5 15 1 16 2 17 3 18 87 19 4 20 86 21 16 22 17 23 18 24
REMARK SMILES IDX 19 25 20 26 21 27 82 28 22 29 81 30 23 31 24 32 25 33 75 34
REMARK SMILES IDX 26 35 80 36 74 37 76 38 27 39 79 40 73 41 72 42 28 44 60 45
REMARK SMILES IDX 40 46 59 47 41 48 44 49 58 50 77 51 42 52 43 53 57 55 78 56
REMARK SMILES IDX 45 57 29 58 30 59 38 60 31 61 33 62 39 63 32 64 34 65 35 66
REMARK SMILES IDX 36 67 37 68 61 69 62 70 70 71 63 72 65 73 71 74 64 75 66 76
REMARK SMILES IDX 67 77 68 78 69 79 46 80 47 81 55 82 48 83 50 84 56 85 49 86
REMARK SMILES IDX 51 87 52 88 53 89 54 90
REMARK H PARENT 7 13 76 43 44 54
REMARK Flexibility Score: inf
ROOT
ATOM      1  C   UNL A   1      37.215  21.320  24.654  1.00  0.00     0.275 C 
ENDROOT
BRANCH   1   2
ATOM      2  O   UNL A   1      36.070  22.170  24.676  1.00  0.00    -0.458 OA
BRANCH   2   3
ATOM      3  C   UNL A   1      35.900  23.009  23.633  1.00  0.00     0.338 C 
ATOM      4  O   UNL A   1      36.634  23.155  22.683  1.00  0.00    -0.246 OA
BRANCH   3   5
ATOM      5  C   UNL A   1      34.649  23.764  23.858  1.00  0.00     0.061 A 
ATOM      6  C   UNL A   1      32.317  25.272  24.373  1.00  0.00     0.049 A 
ATOM      7  C   UNL A   1      33.078  25.490  23.216  1.00  0.00     0.028 A 
ATOM      8  C   UNL A   1      32.767  24.272  25.267  1.00  0.00     0.042 A 
ATOM      9  C   UNL A   1      34.226  24.733  22.946  1.00  0.00     0.018 A 
ATOM     10  C   UNL A   1      33.923  23.526  25.020  1.00  0.00     0.033 A 
ATOM     11  Br  UNL A   1      31.806  23.892  26.868  1.00  0.00    -0.049 Br
BRANCH   6  12
ATOM     12  N   UNL A   1      31.195  26.026  24.684  1.00  0.00    -0.380 N 
ATOM     13  H   UNL A   1      30.511  25.607  25.254  1.00  0.00     0.160 HD
BRANCH  12  14
ATOM     14  C   UNL A   1      30.949  27.382  24.233  1.00  0.00     0.148 C 
BRANCH  14  15
ATOM     15  C   UNL A   1      31.643  28.350  25.164  1.00  0.00    -0.029 A 
ATOM     16  C   UNL A   1      33.631  31.230  27.694  1.00  0.00     0.044 C 
ATOM     17  C   UNL A   1      32.935  30.215  26.837  1.00  0.00    -0.051 A 
ATOM     18  C   UNL A   1      31.931  30.631  25.956  1.00  0.00     0.004 A 
ATOM     19  C   UNL A   1      33.274  28.858  26.892  1.00  0.00     0.004 A 
ATOM     20  C   UNL A   1      31.293  29.708  25.127  1.00  0.00     0.006 A 
ATOM     21  C   UNL A   1      32.631  27.931  26.063  1.00  0.00     0.006 A 
ENDBRANCH  14  15
ENDBRANCH  12  14
ENDBRANCH   6  12
ENDBRANCH   3   5
ENDBRANCH   2   3
ENDBRANCH   1   2
BRANCH   1  22
ATOM     22  C   UNL A   1      38.271  21.446  25.772  1.00  0.00     0.275 C 
BRANCH  22  23
ATOM     23  O   UNL A   1      38.846  22.716  26.198  1.00  0.00    -0.458 OA
BRANCH  23  24
ATOM     24  C   UNL A   1      39.874  23.034  27.021  1.00  0.00     0.338 C 
ATOM     25  O   UNL A   1      40.723  22.219  27.353  1.00  0.00    -0.246 OA
BRANCH  24  26
ATOM     26  C   UNL A   1      39.959  24.422  27.463  1.00  0.00     0.060 A 
ATOM     27  C   UNL A   1      40.603  25.384  26.665  1.00  0.00     0.016 A 
ATOM     28  C   UNL A   1      39.313  24.764  28.640  1.00  0.00     0.016 A 
ATOM     29  C   UNL A   1      40.501  26.735  26.997  1.00  0.00     0.010 A 
ATOM     30  C   UNL A   1      39.109  26.094  28.898  1.00  0.00     0.010 A 
ATOM     31  C   UNL A   1      39.738  27.081  28.109  1.00  0.00    -0.014 A 
BRANCH  31  32
ATOM     32  C   UNL A   1      39.802  28.369  28.787  1.00  0.00     0.031 A 
ATOM     33  C   UNL A   1      38.897  29.505  28.562  1.00  0.00     0.074 A 
ATOM     34  C   UNL A   1      40.576  28.285  29.891  1.00  0.00     0.049 A 
ATOM     35  N   UNL A   1      39.082  30.657  29.112  1.00  0.00    -0.248 NA
ATOM     36  C   UNL A   1      37.721  29.458  27.705  1.00  0.00     0.031 C 
ATOM     37  C   UNL A   1      40.505  29.022  31.135  1.00  0.00     0.029 A 
ATOM     38  N   UNL A   1      41.687  27.446  30.046  1.00  0.00    -0.354 N 
ATOM     39  C   UNL A   1      37.939  31.405  28.927  1.00  0.00     0.074 A 
ATOM     40  C   UNL A   1      37.160  30.649  27.970  1.00  0.00     0.031 C 
ATOM     41  C   UNL A   1      41.641  28.796  31.820  1.00  0.00     0.029 A 
ATOM     42  C   UNL A   1      42.551  28.089  30.925  1.00  0.00     0.049 A 
ATOM     43  H   UNL A   1      41.828  26.572  29.616  1.00  0.00     0.167 HD
ATOM     44  C   UNL A   1      37.730  32.489  29.732  1.00  0.00     0.034 A 
ATOM     45  C   UNL A   1      43.790  28.504  30.528  1.00  0.00     0.034 A 
ATOM     46  C   UNL A   1      38.860  32.665  30.661  1.00  0.00     0.049 A 
ATOM     47  C   UNL A   1      43.933  30.003  30.666  1.00  0.00     0.074 A 
ATOM     48  C   UNL A   1      39.055  32.260  31.972  1.00  0.00     0.029 A 
ATOM     49  N   UNL A   1      40.101  33.074  30.187  1.00  0.00    -0.354 N 
ATOM     50  N   UNL A   1      42.931  30.814  30.862  1.00  0.00    -0.248 NA
ATOM     51  C   UNL A   1      45.207  30.707  30.584  1.00  0.00     0.031 C 
ATOM     52  C   UNL A   1      40.444  32.342  32.255  1.00  0.00     0.029 A 
ATOM     53  C   UNL A   1      41.090  32.831  31.131  1.00  0.00     0.049 A 
ATOM     54  H   UNL A   1      40.257  33.480  29.303  1.00  0.00     0.167 HD
ATOM     55  C   UNL A   1      43.362  32.108  30.836  1.00  0.00     0.074 A 
ATOM     56  C   UNL A   1      44.808  31.984  30.731  1.00  0.00     0.031 C 
ATOM     57  C   UNL A   1      42.485  33.158  30.847  1.00  0.00     0.034 A 
BRANCH  44  58
ATOM     58  C   UNL A   1      36.401  33.207  29.945  1.00  0.00     0.023 A 
ATOM     59  C   UNL A   1      35.894  33.960  28.855  1.00  0.00     0.012 A 
ATOM     60  C   UNL A   1      35.630  33.251  31.129  1.00  0.00     0.148 A 
ATOM     61  C   UNL A   1      34.770  34.787  28.955  1.00  0.00     0.002 A 
ATOM     62  C   UNL A   1      34.530  34.116  31.248  1.00  0.00     0.091 A 
ATOM     63  F   UNL A   1      35.908  32.411  32.129  1.00  0.00    -0.205 F 
ATOM     64  C   UNL A   1      34.105  34.891  30.164  1.00  0.00     0.022 A 
BRANCH  62  65
ATOM     65  S   UNL A   1      33.634  34.355  32.794  1.00  0.00     0.127 S 
ATOM     66  O   UNL A   1      34.670  34.913  33.666  1.00  0.00    -0.237 OA
ATOM     67  O   UNL A   1      32.588  35.301  32.411  1.00  0.00    -0.237 OA
ATOM     68  O   UNL A   1      33.164  33.034  33.198  1.00  0.00    -0.744 OA
ENDBRANCH  62  65
ENDBRANCH  44  58
BRANCH  45  69
ATOM     69  C   UNL A   1      44.382  27.681  29.417  1.00  0.00     0.023 A 
ATOM     70  C   UNL A   1      44.739  26.341  29.719  1.00  0.00     0.012 A 
ATOM     71  C   UNL A   1      44.218  28.037  28.066  1.00  0.00     0.148 A 
ATOM     72  C   UNL A   1      44.807  25.365  28.719  1.00  0.00     0.002 A 
ATOM     73  C   UNL A   1      44.279  27.054  27.075  1.00  0.00     0.091 A 
ATOM     74  F   UNL A   1      43.924  29.307  27.761  1.00  0.00    -0.205 F 
ATOM     75  C   UNL A   1      44.548  25.716  27.400  1.00  0.00     0.022 A 
BRANCH  73  76
ATOM     76  S   UNL A   1      43.848  27.456  25.375  1.00  0.00     0.127 S 
ATOM     77  O   UNL A   1      43.357  26.181  24.849  1.00  0.00    -0.237 OA
ATOM     78  O   UNL A   1      42.814  28.472  25.510  1.00  0.00    -0.237 OA
ATOM     79  O   UNL A   1      45.132  27.889  24.834  1.00  0.00    -0.744 OA
ENDBRANCH  73  76
ENDBRANCH  45  69
BRANCH  57  80
ATOM     80  C   UNL A   1      42.859  34.599  30.585  1.00  0.00     0.023 A 
ATOM     81  C   UNL A   1      43.303  35.457  31.608  1.00  0.00     0.012 A 
ATOM     82  C   UNL A   1      42.928  35.098  29.258  1.00  0.00     0.148 A 
ATOM     83  C   UNL A   1      43.728  36.762  31.347  1.00  0.00     0.002 A 
ATOM     84  C   UNL A   1      43.468  36.352  28.993  1.00  0.00     0.091 A 
ATOM     85  F   UNL A   1      42.455  34.366  28.239  1.00  0.00    -0.205 F 
ATOM     86  C   UNL A   1      43.836  37.203  30.036  1.00  0.00     0.022 A 
BRANCH  84  87
ATOM     87  S   UNL A   1      43.865  36.832  27.307  1.00  0.00     0.127 S 
ATOM     88  O   UNL A   1      44.770  35.765  26.889  1.00  0.00    -0.237 OA
ATOM     89  O   UNL A   1      42.554  36.808  26.653  1.00  0.00    -0.237 OA
ATOM     90  O   UNL A   1      44.444  38.163  27.427  1.00  0.00    -0.744 OA
ENDBRANCH  84  87
ENDBRANCH  57  80
ENDBRANCH  31  32
ENDBRANCH  24  26
ENDBRANCH  23  24
ENDBRANCH  22  23
ENDBRANCH   1  22
TORSDOF 17
ENDMDL
MODEL 2
REMARK VINA RESULT:     -11.6      1.772      2.190
REMARK SMILES Cc1ccc(CNc2ccc(C(=O)OCCOC(=O)c3ccc(-c4c5nc(c(-c6cccc(S(=O)(=O)[O-])c6F)c6ccc([nH]6)c(-c6cccc(S(=O)(=O)[O-])c6F)c6nc(c(-c7cccc(S(=O)(=O)[O-])c7F)c7ccc4[nH]7)C=C6)C=C5)cc3)cc2Br)cc1
REMARK SMILES IDX 15 1 14 2 12 3 13 4 11 5 8 6 9 7 84 8 10 9 83 10 85 11 7 12
REMARK SMILES IDX 6 14 5 15 1 16 2 17 3 18 87 19 4 20 86 21 16 22 17 23 18 24
REMARK SMILES IDX 19 25 20 26 21 27 82 28 22 29 81 30 23 31 24 32 25 33 75 34
REMARK SMILES IDX 26 35 80 36 74 37 76 38 27 39 79 40 73 41 72 42 28 44 60 45
REMARK SMILES IDX 40 46 59 47 41 48 44 49 58 50 77 51 42 52 43 53 57 55 78 56
REMARK SMILES IDX 45 57 29 58 30 59 38 60 31 61 33 62 39 63 32 64 34 65 35 66
REMARK SMILES IDX 36 67 37 68 61 69 62 70 70 71 63 72 65 73 71 74 64 75 66 76
REMARK SMILES IDX 67 77 68 78 69 79 46 80 47 81 55 82 48 83 50 84 56 85 49 86
REMARK SMILES IDX 51 87 52 88 53 89 54 90
REMARK H PARENT 7 13 76 43 44 54
REMARK Flexibility Score: inf
ROOT
ATOM      1  C   UNL A   1      36.895  21.411  24.501  1.00  0.00     0.275 C 
ENDROOT
BRANCH   1   2
ATOM      2  O   UNL A   1      35.736  22.227  24.649  1.00  0.00    -0.458 OA
BRANCH   2   3
ATOM      3  C   UNL A   1      34.535  21.615  24.586  1.00  0.00     0.338 C 
ATOM      4  O   UNL A   1      34.310  20.431  24.680  1.00  0.00    -0.246 OA
BRANCH   3   5
ATOM      5  C   UNL A   1      33.508  22.653  24.350  1.00  0.00     0.061 A 
ATOM      6  C   UNL A   1      31.547  24.603  23.778  1.00  0.00     0.049 A 
ATOM      7  C   UNL A   1      31.215  23.419  24.451  1.00  0.00     0.028 A 
ATOM      8  C   UNL A   1      32.898  24.776  23.398  1.00  0.00     0.042 A 
ATOM      9  C   UNL A   1      32.187  22.455  24.753  1.00  0.00     0.018 A 
ATOM     10  C   UNL A   1      33.872  23.813  23.673  1.00  0.00     0.033 A 
ATOM     11  Br  UNL A   1      33.459  26.350  22.482  1.00  0.00    -0.049 Br
BRANCH   6  12
ATOM     12  N   UNL A   1      30.602  25.560  23.437  1.00  0.00    -0.380 N 
ATOM     13  H   UNL A   1      30.474  25.749  22.479  1.00  0.00     0.160 HD
BRANCH  12  14
ATOM     14  C   UNL A   1      29.790  26.305  24.378  1.00  0.00     0.148 C 
BRANCH  14  15
ATOM     15  C   UNL A   1      30.672  27.258  25.153  1.00  0.00    -0.029 A 
ATOM     16  C   UNL A   1      33.284  30.003  27.223  1.00  0.00     0.044 C 
ATOM     17  C   UNL A   1      32.360  29.051  26.525  1.00  0.00    -0.051 A 
ATOM     18  C   UNL A   1      31.953  29.324  25.215  1.00  0.00     0.004 A 
ATOM     19  C   UNL A   1      31.901  27.887  27.153  1.00  0.00     0.004 A 
ATOM     20  C   UNL A   1      31.119  28.436  24.536  1.00  0.00     0.006 A 
ATOM     21  C   UNL A   1      31.060  26.997  26.472  1.00  0.00     0.006 A 
ENDBRANCH  14  15
ENDBRANCH  12  14
ENDBRANCH   6  12
ENDBRANCH   3   5
ENDBRANCH   2   3
ENDBRANCH   1   2
BRANCH   1  22
ATOM     22  C   UNL A   1      38.043  21.538  25.525  1.00  0.00     0.275 C 
BRANCH  22  23
ATOM     23  O   UNL A   1      38.655  22.809  25.896  1.00  0.00    -0.458 OA
BRANCH  23  24
ATOM     24  C   UNL A   1      39.847  23.131  26.452  1.00  0.00     0.338 C 
ATOM     25  O   UNL A   1      40.788  22.350  26.482  1.00  0.00    -0.246 OA
BRANCH  24  26
ATOM     26  C   UNL A   1      39.986  24.486  26.976  1.00  0.00     0.060 A 
ATOM     27  C   UNL A   1      40.584  25.492  26.197  1.00  0.00     0.016 A 
ATOM     28  C   UNL A   1      39.432  24.756  28.217  1.00  0.00     0.016 A 
ATOM     29  C   UNL A   1      40.527  26.819  26.623  1.00  0.00     0.010 A 
ATOM     30  C   UNL A   1      39.267  26.068  28.575  1.00  0.00     0.010 A 
ATOM     31  C   UNL A   1      39.852  27.099  27.808  1.00  0.00    -0.014 A 
BRANCH  31  32
ATOM     32  C   UNL A   1      39.984  28.338  28.561  1.00  0.00     0.031 A 
ATOM     33  C   UNL A   1      39.014  29.442  28.579  1.00  0.00     0.074 A 
ATOM     34  C   UNL A   1      40.939  28.216  29.509  1.00  0.00     0.049 A 
ATOM     35  N   UNL A   1      39.249  30.560  29.177  1.00  0.00    -0.248 NA
ATOM     36  C   UNL A   1      37.711  29.397  27.932  1.00  0.00     0.031 C 
ATOM     37  C   UNL A   1      41.056  28.861  30.800  1.00  0.00     0.029 A 
ATOM     38  N   UNL A   1      42.090  27.424  29.411  1.00  0.00    -0.354 N 
ATOM     39  C   UNL A   1      38.064  31.262  29.245  1.00  0.00     0.074 A 
ATOM     40  C   UNL A   1      37.161  30.537  28.377  1.00  0.00     0.031 C 
ATOM     41  C   UNL A   1      42.300  28.644  31.265  1.00  0.00     0.029 A 
ATOM     42  C   UNL A   1      43.068  28.046  30.178  1.00  0.00     0.049 A 
ATOM     43  H   UNL A   1      42.187  26.589  28.898  1.00  0.00     0.167 HD
ATOM     44  C   UNL A   1      37.957  32.277  30.154  1.00  0.00     0.034 A 
ATOM     45  C   UNL A   1      44.205  28.547  29.611  1.00  0.00     0.034 A 
ATOM     46  C   UNL A   1      39.223  32.444  30.889  1.00  0.00     0.049 A 
ATOM     47  C   UNL A   1      44.315  30.038  29.837  1.00  0.00     0.074 A 
ATOM     48  C   UNL A   1      39.654  31.959  32.115  1.00  0.00     0.029 A 
ATOM     49  N   UNL A   1      40.349  32.944  30.246  1.00  0.00    -0.354 N 
ATOM     50  N   UNL A   1      43.332  30.784  30.260  1.00  0.00    -0.248 NA
ATOM     51  C   UNL A   1      45.529  30.808  29.595  1.00  0.00     0.031 C 
ATOM     52  C   UNL A   1      41.067  32.089  32.164  1.00  0.00     0.029 A 
ATOM     53  C   UNL A   1      41.493  32.685  30.989  1.00  0.00     0.049 A 
ATOM     54  H   UNL A   1      40.336  33.417  29.382  1.00  0.00     0.167 HD
ATOM     55  C   UNL A   1      43.706  32.096  30.261  1.00  0.00     0.074 A 
ATOM     56  C   UNL A   1      45.116  32.051  29.904  1.00  0.00     0.031 C 
ATOM     57  C   UNL A   1      42.806  33.099  30.499  1.00  0.00     0.034 A 
BRANCH  44  58
ATOM     58  C   UNL A   1      36.659  32.914  30.641  1.00  0.00     0.023 A 
ATOM     59  C   UNL A   1      36.237  32.589  31.955  1.00  0.00     0.012 A 
ATOM     60  C   UNL A   1      35.793  33.760  29.912  1.00  0.00     0.148 A 
ATOM     61  C   UNL A   1      34.997  32.977  32.476  1.00  0.00     0.002 A 
ATOM     62  C   UNL A   1      34.530  34.112  30.412  1.00  0.00     0.091 A 
ATOM     63  F   UNL A   1      36.206  34.290  28.758  1.00  0.00    -0.205 F 
ATOM     64  C   UNL A   1      34.127  33.713  31.691  1.00  0.00     0.022 A 
BRANCH  62  65
ATOM     65  S   UNL A   1      33.311  35.024  29.446  1.00  0.00     0.127 S 
ATOM     66  O   UNL A   1      32.914  34.036  28.441  1.00  0.00    -0.237 OA
ATOM     67  O   UNL A   1      32.283  35.328  30.439  1.00  0.00    -0.237 OA
ATOM     68  O   UNL A   1      34.012  36.181  28.898  1.00  0.00    -0.744 OA
ENDBRANCH  62  65
ENDBRANCH  44  58
BRANCH  45  69
ATOM     69  C   UNL A   1      44.627  27.833  28.357  1.00  0.00     0.023 A 
ATOM     70  C   UNL A   1      44.357  28.474  27.120  1.00  0.00     0.012 A 
ATOM     71  C   UNL A   1      45.595  26.811  28.379  1.00  0.00     0.148 A 
ATOM     72  C   UNL A   1      45.112  28.194  25.977  1.00  0.00     0.002 A 
ATOM     73  C   UNL A   1      46.349  26.544  27.234  1.00  0.00     0.091 A 
ATOM     74  F   UNL A   1      45.831  26.166  29.528  1.00  0.00    -0.205 F 
ATOM     75  C   UNL A   1      46.129  27.248  26.041  1.00  0.00     0.022 A 
BRANCH  73  76
ATOM     76  S   UNL A   1      47.738  25.402  27.313  1.00  0.00     0.127 S 
ATOM     77  O   UNL A   1      47.108  24.144  27.715  1.00  0.00    -0.237 OA
ATOM     78  O   UNL A   1      48.257  25.391  25.952  1.00  0.00    -0.237 OA
ATOM     79  O   UNL A   1      48.578  26.022  28.334  1.00  0.00    -0.744 OA
ENDBRANCH  73  76
ENDBRANCH  45  69
BRANCH  57  80
ATOM     80  C   UNL A   1      43.076  34.571  30.289  1.00  0.00     0.023 A 
ATOM     81  C   UNL A   1      43.455  35.423  31.344  1.00  0.00     0.012 A 
ATOM     82  C   UNL A   1      43.114  35.119  28.981  1.00  0.00     0.148 A 
ATOM     83  C   UNL A   1      43.787  36.763  31.129  1.00  0.00     0.002 A 
ATOM     84  C   UNL A   1      43.564  36.417  28.762  1.00  0.00     0.091 A 
ATOM     85  F   UNL A   1      42.698  34.391  27.935  1.00  0.00    -0.205 F 
ATOM     86  C   UNL A   1      43.867  37.256  29.835  1.00  0.00     0.022 A 
BRANCH  84  87
ATOM     87  S   UNL A   1      43.931  36.981  27.095  1.00  0.00     0.127 S 
ATOM     88  O   UNL A   1      44.728  35.877  26.565  1.00  0.00    -0.237 OA
ATOM     89  O   UNL A   1      42.598  37.109  26.501  1.00  0.00    -0.237 OA
ATOM     90  O   UNL A   1      44.623  38.250  27.278  1.00  0.00    -0.744 OA
ENDBRANCH  84  87
ENDBRANCH  57  80
ENDBRANCH  31  32
ENDBRANCH  24  26
ENDBRANCH  23  24
ENDBRANCH  22  23
ENDBRANCH   1  22
TORSDOF 17
ENDMDL
MODEL 3
REMARK VINA RESULT:     -11.5      8.742     12.537
REMARK SMILES Cc1ccc(CNc2ccc(C(=O)OCCOC(=O)c3ccc(-c4c5nc(c(-c6cccc(S(=O)(=O)[O-])c6F)c6ccc([nH]6)c(-c6cccc(S(=O)(=O)[O-])c6F)c6nc(c(-c7cccc(S(=O)(=O)[O-])c7F)c7ccc4[nH]7)C=C6)C=C5)cc3)cc2Br)cc1
REMARK SMILES IDX 15 1 14 2 12 3 13 4 11 5 8 6 9 7 84 8 10 9 83 10 85 11 7 12
REMARK SMILES IDX 6 14 5 15 1 16 2 17 3 18 87 19 4 20 86 21 16 22 17 23 18 24
REMARK SMILES IDX 19 25 20 26 21 27 82 28 22 29 81 30 23 31 24 32 25 33 75 34
REMARK SMILES IDX 26 35 80 36 74 37 76 38 27 39 79 40 73 41 72 42 28 44 60 45
REMARK SMILES IDX 40 46 59 47 41 48 44 49 58 50 77 51 42 52 43 53 57 55 78 56
REMARK SMILES IDX 45 57 29 58 30 59 38 60 31 61 33 62 39 63 32 64 34 65 35 66
REMARK SMILES IDX 36 67 37 68 61 69 62 70 70 71 63 72 65 73 71 74 64 75 66 76
REMARK SMILES IDX 67 77 68 78 69 79 46 80 47 81 55 82 48 83 50 84 56 85 49 86
REMARK SMILES IDX 51 87 52 88 53 89 54 90
REMARK H PARENT 7 13 76 43 44 54
REMARK Flexibility Score: inf
ROOT
ATOM      1  C   UNL A   1      46.320  20.521  38.379  1.00  0.00     0.275 C 
ENDROOT
BRANCH   1   2
ATOM      2  O   UNL A   1      46.007  19.138  38.235  1.00  0.00    -0.458 OA
BRANCH   2   3
ATOM      3  C   UNL A   1      46.508  18.288  39.156  1.00  0.00     0.338 C 
ATOM      4  O   UNL A   1      47.672  18.113  39.434  1.00  0.00    -0.246 OA
BRANCH   3   5
ATOM      5  C   UNL A   1      45.374  17.565  39.771  1.00  0.00     0.061 A 
ATOM      6  C   UNL A   1      43.155  16.293  40.969  1.00  0.00     0.049 A 
ATOM      7  C   UNL A   1      43.325  16.292  39.577  1.00  0.00     0.028 A 
ATOM      8  C   UNL A   1      44.136  16.958  41.741  1.00  0.00     0.042 A 
ATOM      9  C   UNL A   1      44.434  16.906  38.978  1.00  0.00     0.018 A 
ATOM     10  C   UNL A   1      45.233  17.594  41.155  1.00  0.00     0.033 A 
ATOM     11  Br  UNL A   1      44.003  17.019  43.641  1.00  0.00    -0.049 Br
BRANCH   6  12
ATOM     12  N   UNL A   1      42.053  15.722  41.588  1.00  0.00    -0.380 N 
ATOM     13  H   UNL A   1      41.631  16.229  42.319  1.00  0.00     0.160 HD
BRANCH  12  14
ATOM     14  C   UNL A   1      41.476  14.437  41.247  1.00  0.00     0.148 C 
BRANCH  14  15
ATOM     15  C   UNL A   1      41.997  13.387  42.202  1.00  0.00    -0.029 A 
ATOM     16  C   UNL A   1      43.357  10.287  44.882  1.00  0.00     0.044 C 
ATOM     17  C   UNL A   1      42.908  11.376  43.955  1.00  0.00    -0.051 A 
ATOM     18  C   UNL A   1      42.432  11.044  42.682  1.00  0.00     0.004 A 
ATOM     19  C   UNL A   1      42.946  12.723  44.338  1.00  0.00     0.004 A 
ATOM     20  C   UNL A   1      41.980  12.039  41.816  1.00  0.00     0.006 A 
ATOM     21  C   UNL A   1      42.496  13.722  43.466  1.00  0.00     0.006 A 
ENDBRANCH  14  15
ENDBRANCH  12  14
ENDBRANCH   6  12
ENDBRANCH   3   5
ENDBRANCH   2   3
ENDBRANCH   1   2
BRANCH   1  22
ATOM     22  C   UNL A   1      46.703  21.342  37.129  1.00  0.00     0.275 C 
BRANCH  22  23
ATOM     23  O   UNL A   1      45.737  21.791  36.133  1.00  0.00    -0.458 OA
BRANCH  23  24
ATOM     24  C   UNL A   1      45.833  22.053  34.808  1.00  0.00     0.338 C 
ATOM     25  O   UNL A   1      46.333  21.264  34.019  1.00  0.00    -0.246 OA
BRANCH  24  26
ATOM     26  C   UNL A   1      45.260  23.312  34.342  1.00  0.00     0.060 A 
ATOM     27  C   UNL A   1      46.013  24.498  34.395  1.00  0.00     0.016 A 
ATOM     28  C   UNL A   1      43.998  23.273  33.771  1.00  0.00     0.016 A 
ATOM     29  C   UNL A   1      45.535  25.647  33.764  1.00  0.00     0.010 A 
ATOM     30  C   UNL A   1      43.587  24.362  33.048  1.00  0.00     0.010 A 
ATOM     31  C   UNL A   1      44.326  25.563  33.079  1.00  0.00    -0.014 A 
BRANCH  31  32
ATOM     32  C   UNL A   1      43.529  26.711  32.668  1.00  0.00     0.031 A 
ATOM     33  C   UNL A   1      42.576  27.443  33.514  1.00  0.00     0.074 A 
ATOM     34  C   UNL A   1      44.014  27.239  31.523  1.00  0.00     0.049 A 
ATOM     35  N   UNL A   1      41.817  28.378  33.052  1.00  0.00    -0.248 NA
ATOM     36  C   UNL A   1      42.384  27.194  34.935  1.00  0.00     0.031 C 
ATOM     37  C   UNL A   1      43.985  28.605  31.043  1.00  0.00     0.029 A 
ATOM     38  N   UNL A   1      44.645  26.524  30.498  1.00  0.00    -0.354 N 
ATOM     39  C   UNL A   1      41.255  29.038  34.125  1.00  0.00     0.074 A 
ATOM     40  C   UNL A   1      41.566  28.206  35.267  1.00  0.00     0.031 C 
ATOM     41  C   UNL A   1      44.337  28.599  29.745  1.00  0.00     0.029 A 
ATOM     42  C   UNL A   1      44.380  27.205  29.315  1.00  0.00     0.049 A 
ATOM     43  H   UNL A   1      45.173  25.698  30.596  1.00  0.00     0.167 HD
ATOM     44  C   UNL A   1      40.736  30.286  33.925  1.00  0.00     0.034 A 
ATOM     45  C   UNL A   1      43.644  26.636  28.316  1.00  0.00     0.034 A 
ATOM     46  C   UNL A   1      40.858  30.673  32.509  1.00  0.00     0.049 A 
ATOM     47  C   UNL A   1      42.393  27.439  28.037  1.00  0.00     0.074 A 
ATOM     48  C   UNL A   1      41.808  31.421  31.831  1.00  0.00     0.029 A 
ATOM     49  N   UNL A   1      40.090  30.040  31.539  1.00  0.00    -0.354 N 
ATOM     50  N   UNL A   1      41.938  28.373  28.823  1.00  0.00    -0.248 NA
ATOM     51  C   UNL A   1      41.553  27.247  26.861  1.00  0.00     0.031 C 
ATOM     52  C   UNL A   1      41.663  31.159  30.443  1.00  0.00     0.029 A 
ATOM     53  C   UNL A   1      40.603  30.284  30.272  1.00  0.00     0.049 A 
ATOM     54  H   UNL A   1      39.291  29.494  31.725  1.00  0.00     0.167 HD
ATOM     55  C   UNL A   1      40.742  28.837  28.358  1.00  0.00     0.074 A 
ATOM     56  C   UNL A   1      40.580  28.149  27.087  1.00  0.00     0.031 C 
ATOM     57  C   UNL A   1      39.973  29.700  29.090  1.00  0.00     0.034 A 
BRANCH  44  58
ATOM     58  C   UNL A   1      40.418  31.311  35.010  1.00  0.00     0.023 A 
ATOM     59  C   UNL A   1      41.461  32.194  35.386  1.00  0.00     0.012 A 
ATOM     60  C   UNL A   1      39.208  31.453  35.726  1.00  0.00     0.148 A 
ATOM     61  C   UNL A   1      41.359  33.080  36.465  1.00  0.00     0.002 A 
ATOM     62  C   UNL A   1      39.118  32.304  36.838  1.00  0.00     0.091 A 
ATOM     63  F   UNL A   1      38.111  30.819  35.302  1.00  0.00    -0.205 F 
ATOM     64  C   UNL A   1      40.196  33.112  37.214  1.00  0.00     0.022 A 
BRANCH  62  65
ATOM     65  S   UNL A   1      37.664  32.378  37.902  1.00  0.00     0.127 S 
ATOM     66  O   UNL A   1      36.720  33.138  37.079  1.00  0.00    -0.237 OA
ATOM     67  O   UNL A   1      37.322  30.968  38.071  1.00  0.00    -0.237 OA
ATOM     68  O   UNL A   1      38.084  33.069  39.116  1.00  0.00    -0.744 OA
ENDBRANCH  62  65
ENDBRANCH  44  58
BRANCH  45  69
ATOM     69  C   UNL A   1      43.733  25.136  28.272  1.00  0.00     0.023 A 
ATOM     70  C   UNL A   1      42.764  24.404  29.007  1.00  0.00     0.012 A 
ATOM     71  C   UNL A   1      44.439  24.468  27.255  1.00  0.00     0.148 A 
ATOM     72  C   UNL A   1      42.425  23.093  28.658  1.00  0.00     0.002 A 
ATOM     73  C   UNL A   1      44.087  23.160  26.908  1.00  0.00     0.091 A 
ATOM     74  F   UNL A   1      45.387  25.130  26.580  1.00  0.00    -0.205 F 
ATOM     75  C   UNL A   1      43.067  22.480  27.589  1.00  0.00     0.022 A 
BRANCH  73  76
ATOM     76  S   UNL A   1      44.826  22.379  25.465  1.00  0.00     0.127 S 
ATOM     77  O   UNL A   1      44.531  23.327  24.389  1.00  0.00    -0.237 OA
ATOM     78  O   UNL A   1      46.241  22.295  25.802  1.00  0.00    -0.237 OA
ATOM     79  O   UNL A   1      44.089  21.121  25.394  1.00  0.00    -0.744 OA
ENDBRANCH  73  76
ENDBRANCH  45  69
BRANCH  57  80
ATOM     80  C   UNL A   1      38.545  30.074  28.764  1.00  0.00     0.023 A 
ATOM     81  C   UNL A   1      37.622  29.139  28.258  1.00  0.00     0.012 A 
ATOM     82  C   UNL A   1      38.036  31.353  29.108  1.00  0.00     0.148 A 
ATOM     83  C   UNL A   1      36.282  29.468  28.038  1.00  0.00     0.002 A 
ATOM     84  C   UNL A   1      36.678  31.634  29.002  1.00  0.00     0.091 A 
ATOM     85  F   UNL A   1      38.868  32.317  29.526  1.00  0.00    -0.205 F 
ATOM     86  C   UNL A   1      35.802  30.709  28.434  1.00  0.00     0.022 A 
BRANCH  84  87
ATOM     87  S   UNL A   1      35.997  33.119  29.753  1.00  0.00     0.127 S 
ATOM     88  O   UNL A   1      34.559  32.886  29.646  1.00  0.00    -0.237 OA
ATOM     89  O   UNL A   1      36.524  33.054  31.119  1.00  0.00    -0.237 OA
ATOM     90  O   UNL A   1      36.537  34.215  28.960  1.00  0.00    -0.744 OA
ENDBRANCH  84  87
ENDBRANCH  57  80
ENDBRANCH  31  32
ENDBRANCH  24  26
ENDBRANCH  23  24
ENDBRANCH  22  23
ENDBRANCH   1  22
TORSDOF 17
ENDMDL
