MODEL 1
REMARK VINA RESULT:     -10.9      0.000      0.000
REMARK SMILES CCCc1n[nH]c(C(=O)NC2(CC(=O)OCCOC(=O)c3ccc(-c4c5nc(c(-c6cccc(S(=O)(=O)[O-])c6F)c6ccc([nH]6)c(-c6cccc(S(=O)(=O)[O-])c6F)c6nc(c(-c7cccc(S(=O)(=O)[O-])c7F)c7ccc4[nH]7)C=C6)C=C5)cc3)CCC2)n1
REMARK SMILES IDX 16 1 15 2 13 3 14 4 12 5 11 6 84 7 86 8 85 9 10 10 8 11 9 12
REMARK SMILES IDX 7 14 4 15 5 16 87 17 6 18 3 20 2 21 1 22 17 23 18 24 19 25
REMARK SMILES IDX 20 26 21 27 22 28 83 29 23 30 82 31 24 32 25 33 26 34 76 35
REMARK SMILES IDX 27 36 81 37 75 38 77 39 28 40 80 41 74 42 73 43 29 45 61 46
REMARK SMILES IDX 41 47 60 48 42 49 45 50 59 51 78 52 43 53 44 54 58 56 79 57
REMARK SMILES IDX 46 58 30 59 31 60 39 61 32 62 34 63 40 64 33 65 35 66 36 67
REMARK SMILES IDX 37 68 38 69 62 70 63 71 71 72 64 73 66 74 72 75 65 76 67 77
REMARK SMILES IDX 68 78 69 79 70 80 47 81 48 82 56 83 49 84 51 85 57 86 50 87
REMARK SMILES IDX 52 88 53 89 54 90 55 91
REMARK H PARENT 10 13 6 19 77 44 45 55
REMARK Flexibility Score: inf
ROOT
ATOM      1  C   UNL A   1      35.992  21.439  24.609  1.00  0.00     0.274 C 
ENDROOT
BRANCH   1   2
ATOM      2  O   UNL A   1      35.648  22.769  25.051  1.00  0.00    -0.462 OA
BRANCH   2   3
ATOM      3  C   UNL A   1      34.333  23.058  25.184  1.00  0.00     0.308 C 
ATOM      4  O   UNL A   1      33.801  24.074  24.751  1.00  0.00    -0.252 OA
BRANCH   3   5
ATOM      5  C   UNL A   1      33.565  22.043  25.998  1.00  0.00     0.151 C 
BRANCH   5   6
ATOM      6  C   UNL A   1      32.235  21.487  25.454  1.00  0.00     0.051 C 
ATOM      7  C   UNL A   1      32.374  20.009  24.990  1.00  0.00     0.029 C 
ATOM      8  C   UNL A   1      31.885  21.759  23.939  1.00  0.00     0.029 C 
ATOM      9  C   UNL A   1      32.733  20.525  23.590  1.00  0.00     0.005 C 
BRANCH   6  10
ATOM     10  N   UNL A   1      31.114  21.865  26.353  1.00  0.00    -0.343 N 
ATOM     11  C   UNL A   1      30.451  23.026  26.711  1.00  0.00     0.289 C 
ATOM     12  O   UNL A   1      29.545  22.906  27.541  1.00  0.00    -0.266 OA
ATOM     13  H   UNL A   1      30.744  21.080  26.820  1.00  0.00     0.164 HD
BRANCH  11  14
ATOM     14  C   UNL A   1      30.813  24.340  26.246  1.00  0.00     0.214 A 
ATOM     15  C   UNL A   1      31.253  26.392  26.021  1.00  0.00     0.151 A 
ATOM     16  N   UNL A   1      30.710  26.086  24.838  1.00  0.00    -0.158 NA
ATOM     17  N   UNL A   1      31.410  25.331  26.875  1.00  0.00    -0.207 NA
ATOM     18  N   UNL A   1      30.507  24.764  24.980  1.00  0.00    -0.255 N 
ATOM     19  H   UNL A   1      30.180  24.173  24.264  1.00  0.00     0.192 HD
BRANCH  15  20
ATOM     20  C   UNL A   1      31.570  27.785  26.432  1.00  0.00     0.079 C 
BRANCH  20  21
ATOM     21  C   UNL A   1      33.034  27.990  26.840  1.00  0.00     0.005 C 
ATOM     22  C   UNL A   1      33.669  29.252  26.272  1.00  0.00     0.004 C 
ENDBRANCH  20  21
ENDBRANCH  15  20
ENDBRANCH  11  14
ENDBRANCH   6  10
ENDBRANCH   5   6
ENDBRANCH   3   5
ENDBRANCH   2   3
ENDBRANCH   1   2
BRANCH   1  23
ATOM     23  C   UNL A   1      37.471  21.133  24.853  1.00  0.00     0.275 C 
BRANCH  23  24
ATOM     24  O   UNL A   1      37.908  21.641  26.125  1.00  0.00    -0.458 OA
BRANCH  24  25
ATOM     25  C   UNL A   1      39.233  21.490  26.357  1.00  0.00     0.338 C 
ATOM     26  O   UNL A   1      39.918  20.524  26.062  1.00  0.00    -0.246 OA
BRANCH  25  27
ATOM     27  C   UNL A   1      39.798  22.745  26.864  1.00  0.00     0.060 A 
ATOM     28  C   UNL A   1      39.390  23.941  26.266  1.00  0.00     0.016 A 
ATOM     29  C   UNL A   1      40.777  22.741  27.855  1.00  0.00     0.016 A 
ATOM     30  C   UNL A   1      39.970  25.146  26.649  1.00  0.00     0.010 A 
ATOM     31  C   UNL A   1      41.344  23.955  28.253  1.00  0.00     0.010 A 
ATOM     32  C   UNL A   1      40.952  25.161  27.646  1.00  0.00    -0.014 A 
BRANCH  32  33
ATOM     33  C   UNL A   1      41.573  26.444  28.052  1.00  0.00     0.031 A 
ATOM     34  C   UNL A   1      40.750  27.490  28.745  1.00  0.00     0.074 A 
ATOM     35  C   UNL A   1      42.868  26.670  27.769  1.00  0.00     0.049 A 
ATOM     36  N   UNL A   1      41.079  28.711  29.073  1.00  0.00    -0.248 NA
ATOM     37  C   UNL A   1      39.374  27.117  29.111  1.00  0.00     0.031 C 
ATOM     38  C   UNL A   1      43.766  25.722  27.107  1.00  0.00     0.029 A 
ATOM     39  N   UNL A   1      43.649  27.779  27.978  1.00  0.00    -0.354 N 
ATOM     40  C   UNL A   1      39.943  29.272  29.640  1.00  0.00     0.074 A 
ATOM     41  C   UNL A   1      38.914  28.253  29.618  1.00  0.00     0.031 C 
ATOM     42  C   UNL A   1      44.969  26.296  26.947  1.00  0.00     0.029 A 
ATOM     43  C   UNL A   1      44.915  27.663  27.454  1.00  0.00     0.049 A 
ATOM     44  H   UNL A   1      43.333  28.580  28.456  1.00  0.00     0.167 HD
ATOM     45  C   UNL A   1      39.778  30.517  30.146  1.00  0.00     0.034 A 
ATOM     46  C   UNL A   1      45.909  28.567  27.366  1.00  0.00     0.034 A 
ATOM     47  C   UNL A   1      40.819  31.507  30.207  1.00  0.00     0.049 A 
ATOM     48  C   UNL A   1      45.698  29.943  27.934  1.00  0.00     0.074 A 
ATOM     49  C   UNL A   1      40.763  32.783  30.743  1.00  0.00     0.029 A 
ATOM     50  N   UNL A   1      42.105  31.335  29.720  1.00  0.00    -0.354 N 
ATOM     51  N   UNL A   1      44.646  30.428  28.549  1.00  0.00    -0.248 NA
ATOM     52  C   UNL A   1      46.815  30.890  27.817  1.00  0.00     0.031 C 
ATOM     53  C   UNL A   1      42.014  33.385  30.572  1.00  0.00     0.029 A 
ATOM     54  C   UNL A   1      42.852  32.481  29.938  1.00  0.00     0.049 A 
ATOM     55  H   UNL A   1      42.439  30.518  29.284  1.00  0.00     0.167 HD
ATOM     56  C   UNL A   1      44.982  31.726  28.915  1.00  0.00     0.074 A 
ATOM     57  C   UNL A   1      46.345  31.943  28.473  1.00  0.00     0.031 C 
ATOM     58  C   UNL A   1      44.226  32.660  29.541  1.00  0.00     0.034 A 
BRANCH  45  59
ATOM     59  C   UNL A   1      38.427  30.870  30.707  1.00  0.00     0.023 A 
ATOM     60  C   UNL A   1      38.134  30.566  32.051  1.00  0.00     0.012 A 
ATOM     61  C   UNL A   1      37.474  31.552  29.926  1.00  0.00     0.148 A 
ATOM     62  C   UNL A   1      36.902  30.916  32.604  1.00  0.00     0.002 A 
ATOM     63  C   UNL A   1      36.262  31.929  30.494  1.00  0.00     0.091 A 
ATOM     64  F   UNL A   1      37.762  31.809  28.642  1.00  0.00    -0.205 F 
ATOM     65  C   UNL A   1      35.972  31.605  31.830  1.00  0.00     0.022 A 
BRANCH  63  66
ATOM     66  S   UNL A   1      35.031  32.879  29.594  1.00  0.00     0.127 S 
ATOM     67  O   UNL A   1      34.625  31.931  28.558  1.00  0.00    -0.237 OA
ATOM     68  O   UNL A   1      34.017  33.130  30.620  1.00  0.00    -0.237 OA
ATOM     69  O   UNL A   1      35.718  34.073  29.121  1.00  0.00    -0.744 OA
ENDBRANCH  63  66
ENDBRANCH  45  59
BRANCH  46  70
ATOM     70  C   UNL A   1      47.206  28.180  26.743  1.00  0.00     0.023 A 
ATOM     71  C   UNL A   1      48.315  27.917  27.569  1.00  0.00     0.012 A 
ATOM     72  C   UNL A   1      47.335  28.029  25.348  1.00  0.00     0.148 A 
ATOM     73  C   UNL A   1      49.536  27.528  27.015  1.00  0.00     0.002 A 
ATOM     74  C   UNL A   1      48.537  27.588  24.808  1.00  0.00     0.091 A 
ATOM     75  F   UNL A   1      46.274  28.306  24.577  1.00  0.00    -0.205 F 
ATOM     76  C   UNL A   1      49.643  27.351  25.638  1.00  0.00     0.022 A 
BRANCH  74  77
ATOM     77  S   UNL A   1      48.715  27.207  23.061  1.00  0.00     0.127 S 
ATOM     78  O   UNL A   1      50.153  27.366  22.864  1.00  0.00    -0.237 OA
ATOM     79  O   UNL A   1      48.233  25.827  22.996  1.00  0.00    -0.237 OA
ATOM     80  O   UNL A   1      47.865  28.166  22.368  1.00  0.00    -0.744 OA
ENDBRANCH  74  77
ENDBRANCH  46  70
BRANCH  58  81
ATOM     81  C   UNL A   1      44.856  34.001  29.805  1.00  0.00     0.023 A 
ATOM     82  C   UNL A   1      45.616  34.190  30.977  1.00  0.00     0.012 A 
ATOM     83  C   UNL A   1      44.759  35.045  28.866  1.00  0.00     0.148 A 
ATOM     84  C   UNL A   1      46.251  35.408  31.221  1.00  0.00     0.002 A 
ATOM     85  C   UNL A   1      45.428  36.243  29.097  1.00  0.00     0.091 A 
ATOM     86  F   UNL A   1      44.013  34.854  27.768  1.00  0.00    -0.205 F 
ATOM     87  C   UNL A   1      46.166  36.429  30.276  1.00  0.00     0.022 A 
BRANCH  85  88
ATOM     88  S   UNL A   1      45.442  37.575  27.891  1.00  0.00     0.127 S 
ATOM     89  O   UNL A   1      45.978  36.902  26.708  1.00  0.00    -0.237 OA
ATOM     90  O   UNL A   1      44.026  37.932  27.798  1.00  0.00    -0.237 OA
ATOM     91  O   UNL A   1      46.286  38.616  28.461  1.00  0.00    -0.744 OA
ENDBRANCH  85  88
ENDBRANCH  58  81
ENDBRANCH  32  33
ENDBRANCH  25  27
ENDBRANCH  24  25
ENDBRANCH  23  24
ENDBRANCH   1  23
TORSDOF 19
ENDMDL
MODEL 2
REMARK VINA RESULT:     -10.7      5.245     10.090
REMARK SMILES CCCc1n[nH]c(C(=O)NC2(CC(=O)OCCOC(=O)c3ccc(-c4c5nc(c(-c6cccc(S(=O)(=O)[O-])c6F)c6ccc([nH]6)c(-c6cccc(S(=O)(=O)[O-])c6F)c6nc(c(-c7cccc(S(=O)(=O)[O-])c7F)c7ccc4[nH]7)C=C6)C=C5)cc3)CCC2)n1
REMARK SMILES IDX 16 1 15 2 13 3 14 4 12 5 11 6 84 7 86 8 85 9 10 10 8 11 9 12
REMARK SMILES IDX 7 14 4 15 5 16 87 17 6 18 3 20 2 21 1 22 17 23 18 24 19 25
REMARK SMILES IDX 20 26 21 27 22 28 83 29 23 30 82 31 24 32 25 33 26 34 76 35
REMARK SMILES IDX 27 36 81 37 75 38 77 39 28 40 80 41 74 42 73 43 29 45 61 46
REMARK SMILES IDX 41 47 60 48 42 49 45 50 59 51 78 52 43 53 44 54 58 56 79 57
REMARK SMILES IDX 46 58 30 59 31 60 39 61 32 62 34 63 40 64 33 65 35 66 36 67
REMARK SMILES IDX 37 68 38 69 62 70 63 71 71 72 64 73 66 74 72 75 65 76 67 77
REMARK SMILES IDX 68 78 69 79 70 80 47 81 48 82 56 83 49 84 51 85 57 86 50 87
REMARK SMILES IDX 52 88 53 89 54 90 55 91
REMARK H PARENT 10 13 6 19 77 44 45 55
REMARK Flexibility Score: inf
ROOT
ATOM      1  C   UNL A   1      31.179  30.232  25.279  1.00  0.00     0.274 C 
ENDROOT
BRANCH   1   2
ATOM      2  O   UNL A   1      31.128  28.883  24.766  1.00  0.00    -0.462 OA
BRANCH   2   3
ATOM      3  C   UNL A   1      31.633  28.672  23.528  1.00  0.00     0.308 C 
ATOM      4  O   UNL A   1      31.180  29.169  22.502  1.00  0.00    -0.252 OA
BRANCH   3   5
ATOM      5  C   UNL A   1      32.778  27.687  23.497  1.00  0.00     0.151 C 
BRANCH   5   6
ATOM      6  C   UNL A   1      32.478  26.176  23.532  1.00  0.00     0.051 C 
ATOM      7  C   UNL A   1      33.630  25.345  22.900  1.00  0.00     0.029 C 
ATOM      8  C   UNL A   1      31.613  25.567  22.361  1.00  0.00     0.029 C 
ATOM      9  C   UNL A   1      32.914  25.457  21.547  1.00  0.00     0.005 C 
BRANCH   6  10
ATOM     10  N   UNL A   1      31.948  25.788  24.866  1.00  0.00    -0.343 N 
ATOM     11  C   UNL A   1      32.284  24.894  25.866  1.00  0.00     0.289 C 
ATOM     12  O   UNL A   1      31.540  24.870  26.852  1.00  0.00    -0.266 OA
ATOM     13  H   UNL A   1      31.143  26.305  25.099  1.00  0.00     0.164 HD
BRANCH  11  14
ATOM     14  C   UNL A   1      33.371  23.953  25.779  1.00  0.00     0.214 A 
ATOM     15  C   UNL A   1      35.228  22.970  25.578  1.00  0.00     0.151 A 
ATOM     16  N   UNL A   1      34.382  22.097  25.023  1.00  0.00    -0.158 NA
ATOM     17  N   UNL A   1      34.635  24.077  26.127  1.00  0.00    -0.207 NA
ATOM     18  N   UNL A   1      33.203  22.710  25.228  1.00  0.00    -0.255 N 
ATOM     19  H   UNL A   1      32.327  22.316  25.011  1.00  0.00     0.192 HD
BRANCH  15  20
ATOM     20  C   UNL A   1      36.705  22.818  25.519  1.00  0.00     0.079 C 
BRANCH  20  21
ATOM     21  C   UNL A   1      37.185  21.885  24.399  1.00  0.00     0.005 C 
ATOM     22  C   UNL A   1      37.448  20.455  24.850  1.00  0.00     0.004 C 
ENDBRANCH  20  21
ENDBRANCH  15  20
ENDBRANCH  11  14
ENDBRANCH   6  10
ENDBRANCH   5   6
ENDBRANCH   3   5
ENDBRANCH   2   3
ENDBRANCH   1   2
BRANCH   1  23
ATOM     23  C   UNL A   1      31.883  30.288  26.635  1.00  0.00     0.275 C 
BRANCH  23  24
ATOM     24  O   UNL A   1      33.286  30.568  26.487  1.00  0.00    -0.458 OA
BRANCH  24  25
ATOM     25  C   UNL A   1      33.739  31.568  27.278  1.00  0.00     0.338 C 
ATOM     26  O   UNL A   1      33.126  32.570  27.607  1.00  0.00    -0.246 OA
BRANCH  25  27
ATOM     27  C   UNL A   1      35.038  31.201  27.853  1.00  0.00     0.060 A 
ATOM     28  C   UNL A   1      35.199  29.902  28.342  1.00  0.00     0.016 A 
ATOM     29  C   UNL A   1      36.054  32.145  27.986  1.00  0.00     0.016 A 
ATOM     30  C   UNL A   1      36.380  29.540  28.982  1.00  0.00     0.010 A 
ATOM     31  C   UNL A   1      37.247  31.773  28.612  1.00  0.00     0.010 A 
ATOM     32  C   UNL A   1      37.412  30.473  29.122  1.00  0.00    -0.014 A 
BRANCH  32  33
ATOM     33  C   UNL A   1      38.669  30.088  29.806  1.00  0.00     0.031 A 
ATOM     34  C   UNL A   1      39.588  29.081  29.180  1.00  0.00     0.074 A 
ATOM     35  C   UNL A   1      38.961  30.628  31.004  1.00  0.00     0.049 A 
ATOM     36  N   UNL A   1      40.667  28.533  29.672  1.00  0.00    -0.248 NA
ATOM     37  C   UNL A   1      39.245  28.625  27.823  1.00  0.00     0.031 C 
ATOM     38  C   UNL A   1      38.146  31.622  31.703  1.00  0.00     0.029 A 
ATOM     39  N   UNL A   1      40.011  30.396  31.856  1.00  0.00    -0.354 N 
ATOM     40  C   UNL A   1      41.109  27.634  28.712  1.00  0.00     0.074 A 
ATOM     41  C   UNL A   1      40.182  27.713  27.601  1.00  0.00     0.031 C 
ATOM     42  C   UNL A   1      38.715  31.901  32.887  1.00  0.00     0.029 A 
ATOM     43  C   UNL A   1      39.908  31.077  33.047  1.00  0.00     0.049 A 
ATOM     44  H   UNL A   1      40.763  29.800  31.637  1.00  0.00     0.167 HD
ATOM     45  C   UNL A   1      42.195  26.826  28.748  1.00  0.00     0.034 A 
ATOM     46  C   UNL A   1      40.673  31.018  34.154  1.00  0.00     0.034 A 
ATOM     47  C   UNL A   1      43.136  26.788  29.834  1.00  0.00     0.049 A 
ATOM     48  C   UNL A   1      41.872  30.111  34.167  1.00  0.00     0.074 A 
ATOM     49  C   UNL A   1      44.293  26.036  29.944  1.00  0.00     0.029 A 
ATOM     50  N   UNL A   1      43.033  27.533  30.999  1.00  0.00    -0.354 N 
ATOM     51  N   UNL A   1      42.327  29.334  33.214  1.00  0.00    -0.248 NA
ATOM     52  C   UNL A   1      42.676  30.088  35.397  1.00  0.00     0.031 C 
ATOM     53  C   UNL A   1      44.885  26.321  31.179  1.00  0.00     0.029 A 
ATOM     54  C   UNL A   1      44.101  27.257  31.835  1.00  0.00     0.049 A 
ATOM     55  H   UNL A   1      42.306  28.165  31.201  1.00  0.00     0.167 HD
ATOM     56  C   UNL A   1      43.483  28.749  33.718  1.00  0.00     0.074 A 
ATOM     57  C   UNL A   1      43.671  29.281  35.052  1.00  0.00     0.031 C 
ATOM     58  C   UNL A   1      44.303  27.839  33.138  1.00  0.00     0.034 A 
BRANCH  45  59
ATOM     59  C   UNL A   1      42.445  25.939  27.558  1.00  0.00     0.023 A 
ATOM     60  C   UNL A   1      43.189  26.433  26.469  1.00  0.00     0.012 A 
ATOM     61  C   UNL A   1      41.999  24.603  27.544  1.00  0.00     0.148 A 
ATOM     62  C   UNL A   1      43.465  25.619  25.371  1.00  0.00     0.002 A 
ATOM     63  C   UNL A   1      42.308  23.787  26.462  1.00  0.00     0.091 A 
ATOM     64  F   UNL A   1      41.271  24.159  28.578  1.00  0.00    -0.205 F 
ATOM     65  C   UNL A   1      43.034  24.294  25.372  1.00  0.00     0.022 A 
BRANCH  63  66
ATOM     66  S   UNL A   1      41.854  22.048  26.408  1.00  0.00     0.127 S 
ATOM     67  O   UNL A   1      40.406  22.127  26.225  1.00  0.00    -0.237 OA
ATOM     68  O   UNL A   1      42.590  21.570  25.236  1.00  0.00    -0.237 OA
ATOM     69  O   UNL A   1      42.300  21.481  27.672  1.00  0.00    -0.744 OA
ENDBRANCH  63  66
ENDBRANCH  45  59
BRANCH  46  70
ATOM     70  C   UNL A   1      40.341  31.875  35.327  1.00  0.00     0.023 A 
ATOM     71  C   UNL A   1      41.063  33.064  35.537  1.00  0.00     0.012 A 
ATOM     72  C   UNL A   1      39.290  31.543  36.204  1.00  0.00     0.148 A 
ATOM     73  C   UNL A   1      40.757  33.899  36.613  1.00  0.00     0.002 A 
ATOM     74  C   UNL A   1      38.955  32.407  37.241  1.00  0.00     0.091 A 
ATOM     75  F   UNL A   1      38.628  30.394  36.001  1.00  0.00    -0.205 F 
ATOM     76  C   UNL A   1      39.696  33.578  37.456  1.00  0.00     0.022 A 
BRANCH  74  77
ATOM     77  S   UNL A   1      37.519  32.131  38.285  1.00  0.00     0.127 S 
ATOM     78  O   UNL A   1      38.021  32.529  39.597  1.00  0.00    -0.237 OA
ATOM     79  O   UNL A   1      36.533  33.040  37.701  1.00  0.00    -0.237 OA
ATOM     80  O   UNL A   1      37.192  30.720  38.128  1.00  0.00    -0.744 OA
ENDBRANCH  74  77
ENDBRANCH  46  70
BRANCH  58  81
ATOM     81  C   UNL A   1      45.492  27.370  33.932  1.00  0.00     0.023 A 
ATOM     82  C   UNL A   1      46.699  28.094  33.865  1.00  0.00     0.012 A 
ATOM     83  C   UNL A   1      45.396  26.262  34.795  1.00  0.00     0.148 A 
ATOM     84  C   UNL A   1      47.800  27.708  34.629  1.00  0.00     0.002 A 
ATOM     85  C   UNL A   1      46.485  25.907  35.584  1.00  0.00     0.091 A 
ATOM     86  F   UNL A   1      44.246  25.571  34.828  1.00  0.00    -0.205 F 
ATOM     87  C   UNL A   1      47.690  26.623  35.495  1.00  0.00     0.022 A 
BRANCH  85  88
ATOM     88  S   UNL A   1      46.397  24.577  36.790  1.00  0.00     0.127 S 
ATOM     89  O   UNL A   1      47.739  24.613  37.371  1.00  0.00    -0.237 OA
ATOM     90  O   UNL A   1      45.334  25.034  37.686  1.00  0.00    -0.237 OA
ATOM     91  O   UNL A   1      46.069  23.378  36.033  1.00  0.00    -0.744 OA
ENDBRANCH  85  88
ENDBRANCH  58  81
ENDBRANCH  32  33
ENDBRANCH  25  27
ENDBRANCH  24  25
ENDBRANCH  23  24
ENDBRANCH   1  23
TORSDOF 19
ENDMDL
MODEL 3
REMARK VINA RESULT:     -10.6      5.140      9.965
REMARK SMILES CCCc1n[nH]c(C(=O)NC2(CC(=O)OCCOC(=O)c3ccc(-c4c5nc(c(-c6cccc(S(=O)(=O)[O-])c6F)c6ccc([nH]6)c(-c6cccc(S(=O)(=O)[O-])c6F)c6nc(c(-c7cccc(S(=O)(=O)[O-])c7F)c7ccc4[nH]7)C=C6)C=C5)cc3)CCC2)n1
REMARK SMILES IDX 16 1 15 2 13 3 14 4 12 5 11 6 84 7 86 8 85 9 10 10 8 11 9 12
REMARK SMILES IDX 7 14 4 15 5 16 87 17 6 18 3 20 2 21 1 22 17 23 18 24 19 25
REMARK SMILES IDX 20 26 21 27 22 28 83 29 23 30 82 31 24 32 25 33 26 34 76 35
REMARK SMILES IDX 27 36 81 37 75 38 77 39 28 40 80 41 74 42 73 43 29 45 61 46
REMARK SMILES IDX 41 47 60 48 42 49 45 50 59 51 78 52 43 53 44 54 58 56 79 57
REMARK SMILES IDX 46 58 30 59 31 60 39 61 32 62 34 63 40 64 33 65 35 66 36 67
REMARK SMILES IDX 37 68 38 69 62 70 63 71 71 72 64 73 66 74 72 75 65 76 67 77
REMARK SMILES IDX 68 78 69 79 70 80 47 81 48 82 56 83 49 84 51 85 57 86 50 87
REMARK SMILES IDX 52 88 53 89 54 90 55 91
REMARK H PARENT 10 13 6 19 77 44 45 55
REMARK Flexibility Score: inf
ROOT
ATOM      1  C   UNL A   1      31.433  29.105  24.211  1.00  0.00     0.274 C 
ENDROOT
BRANCH   1   2
ATOM      2  O   UNL A   1      30.975  27.806  24.644  1.00  0.00    -0.462 OA
BRANCH   2   3
ATOM      3  C   UNL A   1      31.883  26.802  24.658  1.00  0.00     0.308 C 
ATOM      4  O   UNL A   1      32.975  26.866  25.213  1.00  0.00    -0.252 OA
BRANCH   3   5
ATOM      5  C   UNL A   1      31.470  25.594  23.851  1.00  0.00     0.151 C 
BRANCH   5   6
ATOM      6  C   UNL A   1      32.214  24.260  24.051  1.00  0.00     0.051 C 
ATOM      7  C   UNL A   1      33.599  24.260  23.345  1.00  0.00     0.029 C 
ATOM      8  C   UNL A   1      31.888  23.078  23.057  1.00  0.00     0.029 C 
ATOM      9  C   UNL A   1      32.916  23.694  22.092  1.00  0.00     0.005 C 
BRANCH   6  10
ATOM     10  N   UNL A   1      32.120  23.827  25.469  1.00  0.00    -0.343 N 
ATOM     11  C   UNL A   1      32.386  22.680  26.196  1.00  0.00     0.289 C 
ATOM     12  O   UNL A   1      32.144  22.730  27.406  1.00  0.00    -0.266 OA
ATOM     13  H   UNL A   1      31.776  24.547  26.046  1.00  0.00     0.164 HD
BRANCH  11  14
ATOM     14  C   UNL A   1      32.832  21.440  25.616  1.00  0.00     0.214 A 
ATOM     15  C   UNL A   1      33.151  19.430  25.055  1.00  0.00     0.151 A 
ATOM     16  N   UNL A   1      34.384  19.942  24.994  1.00  0.00    -0.158 NA
ATOM     17  N   UNL A   1      32.165  20.336  25.349  1.00  0.00    -0.207 NA
ATOM     18  N   UNL A   1      34.144  21.233  25.283  1.00  0.00    -0.255 N 
ATOM     19  H   UNL A   1      34.826  21.943  25.258  1.00  0.00     0.192 HD
BRANCH  15  20
ATOM     20  C   UNL A   1      32.869  17.977  24.921  1.00  0.00     0.079 C 
BRANCH  20  21
ATOM     21  C   UNL A   1      33.236  17.401  23.547  1.00  0.00     0.005 C 
ATOM     22  C   UNL A   1      32.535  18.081  22.379  1.00  0.00     0.004 C 
ENDBRANCH  20  21
ENDBRANCH  15  20
ENDBRANCH  11  14
ENDBRANCH   6  10
ENDBRANCH   5   6
ENDBRANCH   3   5
ENDBRANCH   2   3
ENDBRANCH   1   2
BRANCH   1  23
ATOM     23  C   UNL A   1      31.540  30.080  25.385  1.00  0.00     0.275 C 
BRANCH  23  24
ATOM     24  O   UNL A   1      32.882  30.142  25.895  1.00  0.00    -0.458 OA
BRANCH  24  25
ATOM     25  C   UNL A   1      33.101  31.159  26.761  1.00  0.00     0.338 C 
ATOM     26  O   UNL A   1      32.364  32.108  26.969  1.00  0.00    -0.246 OA
BRANCH  25  27
ATOM     27  C   UNL A   1      34.291  30.878  27.572  1.00  0.00     0.060 A 
ATOM     28  C   UNL A   1      35.148  31.939  27.875  1.00  0.00     0.016 A 
ATOM     29  C   UNL A   1      34.603  29.576  27.957  1.00  0.00     0.016 A 
ATOM     30  C   UNL A   1      36.336  31.702  28.558  1.00  0.00     0.010 A 
ATOM     31  C   UNL A   1      35.788  29.343  28.662  1.00  0.00     0.010 A 
ATOM     32  C   UNL A   1      36.665  30.402  28.956  1.00  0.00    -0.014 A 
BRANCH  32  33
ATOM     33  C   UNL A   1      37.932  30.149  29.682  1.00  0.00     0.031 A 
ATOM     34  C   UNL A   1      38.977  29.257  29.081  1.00  0.00     0.074 A 
ATOM     35  C   UNL A   1      38.121  30.702  30.894  1.00  0.00     0.049 A 
ATOM     36  N   UNL A   1      40.092  28.824  29.607  1.00  0.00    -0.248 NA
ATOM     37  C   UNL A   1      38.734  28.782  27.709  1.00  0.00     0.031 C 
ATOM     38  C   UNL A   1      37.177  31.593  31.571  1.00  0.00     0.029 A 
ATOM     39  N   UNL A   1      39.159  30.577  31.782  1.00  0.00    -0.354 N 
ATOM     40  C   UNL A   1      40.663  27.991  28.656  1.00  0.00     0.074 A 
ATOM     41  C   UNL A   1      39.773  27.981  27.514  1.00  0.00     0.031 C 
ATOM     42  C   UNL A   1      37.671  31.918  32.777  1.00  0.00     0.029 A 
ATOM     43  C   UNL A   1      38.941  31.228  32.973  1.00  0.00     0.049 A 
ATOM     44  H   UNL A   1      39.980  30.070  31.585  1.00  0.00     0.167 HD
ATOM     45  C   UNL A   1      41.830  27.306  28.724  1.00  0.00     0.034 A 
ATOM     46  C   UNL A   1      39.668  31.240  34.107  1.00  0.00     0.034 A 
ATOM     47  C   UNL A   1      42.731  27.358  29.844  1.00  0.00     0.049 A 
ATOM     48  C   UNL A   1      40.959  30.470  34.155  1.00  0.00     0.074 A 
ATOM     49  C   UNL A   1      43.960  26.737  29.989  1.00  0.00     0.029 A 
ATOM     50  N   UNL A   1      42.506  28.073  31.009  1.00  0.00    -0.354 N 
ATOM     51  N   UNL A   1      41.530  29.759  33.213  1.00  0.00    -0.248 NA
ATOM     52  C   UNL A   1      41.717  30.520  35.413  1.00  0.00     0.031 C 
ATOM     53  C   UNL A   1      44.473  27.070  31.247  1.00  0.00     0.029 A 
ATOM     54  C   UNL A   1      43.568  27.907  31.882  1.00  0.00     0.049 A 
ATOM     55  H   UNL A   1      41.707  28.620  31.191  1.00  0.00     0.167 HD
ATOM     56  C   UNL A   1      42.725  29.298  33.753  1.00  0.00     0.074 A 
ATOM     57  C   UNL A   1      42.807  29.831  35.098  1.00  0.00     0.031 C 
ATOM     58  C   UNL A   1      43.659  28.491  33.195  1.00  0.00     0.034 A 
BRANCH  45  59
ATOM     59  C   UNL A   1      42.218  26.467  27.537  1.00  0.00     0.023 A 
ATOM     60  C   UNL A   1      42.947  27.051  26.483  1.00  0.00     0.012 A 
ATOM     61  C   UNL A   1      41.914  25.092  27.492  1.00  0.00     0.148 A 
ATOM     62  C   UNL A   1      43.350  26.284  25.390  1.00  0.00     0.002 A 
ATOM     63  C   UNL A   1      42.349  24.327  26.416  1.00  0.00     0.091 A 
ATOM     64  F   UNL A   1      41.197  24.560  28.492  1.00  0.00    -0.205 F 
ATOM     65  C   UNL A   1      43.059  24.922  25.361  1.00  0.00     0.022 A 
BRANCH  63  66
ATOM     66  S   UNL A   1      42.081  22.552  26.326  1.00  0.00     0.127 S 
ATOM     67  O   UNL A   1      40.625  22.468  26.418  1.00  0.00    -0.237 OA
ATOM     68  O   UNL A   1      42.628  22.220  25.009  1.00  0.00    -0.237 OA
ATOM     69  O   UNL A   1      42.818  21.982  27.445  1.00  0.00    -0.744 OA
ENDBRANCH  63  66
ENDBRANCH  45  59
BRANCH  46  70
ATOM     70  C   UNL A   1      39.204  32.041  35.274  1.00  0.00     0.023 A 
ATOM     71  C   UNL A   1      38.315  31.460  36.197  1.00  0.00     0.012 A 
ATOM     72  C   UNL A   1      39.670  33.351  35.499  1.00  0.00     0.148 A 
ATOM     73  C   UNL A   1      37.882  32.177  37.314  1.00  0.00     0.002 A 
ATOM     74  C   UNL A   1      39.279  34.038  36.642  1.00  0.00     0.091 A 
ATOM     75  F   UNL A   1      40.499  33.896  34.596  1.00  0.00    -0.205 F 
ATOM     76  C   UNL A   1      38.374  33.459  37.543  1.00  0.00     0.022 A 
BRANCH  74  77
ATOM     77  S   UNL A   1      39.972  35.639  37.076  1.00  0.00     0.127 S 
ATOM     78  O   UNL A   1      41.389  35.321  37.229  1.00  0.00    -0.237 OA
ATOM     79  O   UNL A   1      39.645  36.445  35.900  1.00  0.00    -0.237 OA
ATOM     80  O   UNL A   1      39.274  36.046  38.288  1.00  0.00    -0.744 OA
ENDBRANCH  74  77
ENDBRANCH  46  70
BRANCH  58  81
ATOM     81  C   UNL A   1      44.865  28.145  34.028  1.00  0.00     0.023 A 
ATOM     82  C   UNL A   1      45.992  28.991  33.999  1.00  0.00     0.012 A 
ATOM     83  C   UNL A   1      44.856  27.031  34.889  1.00  0.00     0.148 A 
ATOM     84  C   UNL A   1      47.102  28.719  34.798  1.00  0.00     0.002 A 
ATOM     85  C   UNL A   1      45.950  26.789  35.712  1.00  0.00     0.091 A 
ATOM     86  F   UNL A   1      43.784  26.225  34.884  1.00  0.00    -0.205 F 
ATOM     87  C   UNL A   1      47.076  27.626  35.662  1.00  0.00     0.022 A 
BRANCH  85  88
ATOM     88  S   UNL A   1      45.962  25.454  36.916  1.00  0.00     0.127 S 
ATOM     89  O   UNL A   1      47.196  25.727  37.652  1.00  0.00    -0.237 OA
ATOM     90  O   UNL A   1      44.734  25.702  37.673  1.00  0.00    -0.237 OA
ATOM     91  O   UNL A   1      45.949  24.222  36.140  1.00  0.00    -0.744 OA
ENDBRANCH  85  88
ENDBRANCH  58  81
ENDBRANCH  32  33
ENDBRANCH  25  27
ENDBRANCH  24  25
ENDBRANCH  23  24
ENDBRANCH   1  23
TORSDOF 19
ENDMDL
