MODEL 1
REMARK VINA RESULT:     -10.7      0.000      0.000
REMARK SMILES CC(=O)c1nnn(-c2ccc(C(=O)OCCOC(=O)c3ccc(-c4c5nc(c(-c6cccc(S(=O)(=O)[O-])c6F)c6ccc([nH]6)c(-c6cccc(S(=O)(=O)[O-])c6F)c6nc(c(-c7cccc(S(=O)(=O)[O-])c7F)c7ccc4[nH]7)C=C6)C=C5)cc3)cc2)c1C
REMARK SMILES IDX 16 1 15 2 14 3 12 4 13 5 11 6 8 7 9 8 84 9 10 10 83 11 7 12
REMARK SMILES IDX 4 13 5 14 85 15 6 16 86 17 2 18 1 19 3 20 17 21 18 22 19 23
REMARK SMILES IDX 20 24 21 25 82 26 22 27 81 28 23 29 24 30 25 31 75 32 26 33
REMARK SMILES IDX 80 34 74 35 76 36 27 37 79 38 73 39 72 40 28 42 60 43 40 44
REMARK SMILES IDX 59 45 41 46 44 47 58 48 77 49 42 50 43 51 57 53 78 54 45 55
REMARK SMILES IDX 29 56 30 57 38 58 31 59 33 60 39 61 32 62 34 63 35 64 36 65
REMARK SMILES IDX 37 66 61 67 62 68 70 69 63 70 65 71 71 72 64 73 66 74 67 75
REMARK SMILES IDX 68 76 69 77 46 78 47 79 55 80 48 81 50 82 56 83 49 84 51 85
REMARK SMILES IDX 52 86 53 87 54 88
REMARK H PARENT 76 41 44 52
REMARK Flexibility Score: inf
ROOT
ATOM      1  C   UNL A   1      34.592  34.114  28.246  1.00  0.00     0.275 C 
ENDROOT
BRANCH   1   2
ATOM      2  C   UNL A   1      34.049  35.202  29.159  1.00  0.00     0.275 C 
BRANCH   2   3
ATOM      3  O   UNL A   1      33.256  34.639  30.217  1.00  0.00    -0.458 OA
BRANCH   3   4
ATOM      4  C   UNL A   1      33.510  35.102  31.469  1.00  0.00     0.338 C 
ATOM      5  O   UNL A   1      32.872  35.952  32.073  1.00  0.00    -0.246 OA
BRANCH   4   6
ATOM      6  C   UNL A   1      34.673  34.391  32.056  1.00  0.00     0.060 A 
ATOM      7  C   UNL A   1      36.655  33.056  33.465  1.00  0.00     0.067 A 
ATOM      8  C   UNL A   1      35.649  32.307  32.853  1.00  0.00     0.029 A 
ATOM      9  C   UNL A   1      36.762  34.437  33.248  1.00  0.00     0.029 A 
ATOM     10  C   UNL A   1      34.639  32.988  32.167  1.00  0.00     0.018 A 
ATOM     11  C   UNL A   1      35.776  35.102  32.534  1.00  0.00     0.018 A 
BRANCH   7  12
ATOM     12  N   UNL A   1      37.458  32.473  34.463  1.00  0.00    -0.217 N 
ATOM     13  C   UNL A   1      39.044  31.417  35.523  1.00  0.00     0.151 A 
ATOM     14  N   UNL A   1      37.991  31.645  36.378  1.00  0.00    -0.126 NA
ATOM     15  C   UNL A   1      38.761  32.015  34.304  1.00  0.00     0.073 A 
ATOM     16  N   UNL A   1      37.093  32.397  35.753  1.00  0.00    -0.061 NA
ATOM     17  C   UNL A   1      39.537  32.254  33.060  1.00  0.00     0.069 C 
BRANCH  13  18
ATOM     18  C   UNL A   1      40.231  30.690  35.961  1.00  0.00     0.181 C 
ATOM     19  C   UNL A   1      41.550  31.415  36.024  1.00  0.00     0.095 C 
ATOM     20  O   UNL A   1      40.182  29.500  36.275  1.00  0.00    -0.293 OA
ENDBRANCH  13  18
ENDBRANCH   7  12
ENDBRANCH   4   6
ENDBRANCH   3   4
ENDBRANCH   2   3
ENDBRANCH   1   2
BRANCH   1  21
ATOM     21  O   UNL A   1      35.272  33.120  29.004  1.00  0.00    -0.458 OA
BRANCH  21  22
ATOM     22  C   UNL A   1      35.506  31.961  28.351  1.00  0.00     0.338 C 
ATOM     23  O   UNL A   1      34.893  31.512  27.396  1.00  0.00    -0.246 OA
BRANCH  22  24
ATOM     24  C   UNL A   1      36.499  31.190  29.096  1.00  0.00     0.060 A 
ATOM     25  C   UNL A   1      37.550  31.904  29.681  1.00  0.00     0.016 A 
ATOM     26  C   UNL A   1      36.549  29.803  28.900  1.00  0.00     0.016 A 
ATOM     27  C   UNL A   1      38.745  31.252  29.875  1.00  0.00     0.010 A 
ATOM     28  C   UNL A   1      37.744  29.160  29.076  1.00  0.00     0.010 A 
ATOM     29  C   UNL A   1      38.843  29.916  29.475  1.00  0.00    -0.014 A 
BRANCH  29  30
ATOM     30  C   UNL A   1      40.138  29.283  29.520  1.00  0.00     0.031 A 
ATOM     31  C   UNL A   1      40.647  29.106  30.897  1.00  0.00     0.074 A 
ATOM     32  C   UNL A   1      40.707  28.787  28.406  1.00  0.00     0.049 A 
ATOM     33  N   UNL A   1      41.689  29.649  31.430  1.00  0.00    -0.248 NA
ATOM     34  C   UNL A   1      39.790  28.381  31.848  1.00  0.00     0.031 C 
ATOM     35  C   UNL A   1      40.110  28.644  27.072  1.00  0.00     0.029 A 
ATOM     36  N   UNL A   1      41.894  28.143  28.280  1.00  0.00    -0.354 N 
ATOM     37  C   UNL A   1      41.736  29.148  32.729  1.00  0.00     0.074 A 
ATOM     38  C   UNL A   1      40.450  28.564  32.990  1.00  0.00     0.031 C 
ATOM     39  C   UNL A   1      40.813  27.722  26.376  1.00  0.00     0.029 A 
ATOM     40  C   UNL A   1      41.965  27.319  27.163  1.00  0.00     0.049 A 
ATOM     41  H   UNL A   1      42.636  28.249  28.919  1.00  0.00     0.167 HD
ATOM     42  C   UNL A   1      42.914  29.018  33.394  1.00  0.00     0.034 A 
ATOM     43  C   UNL A   1      42.843  26.302  26.980  1.00  0.00     0.034 A 
ATOM     44  C   UNL A   1      43.963  29.771  32.760  1.00  0.00     0.049 A 
ATOM     45  C   UNL A   1      43.958  26.505  27.938  1.00  0.00     0.074 A 
ATOM     46  C   UNL A   1      44.167  31.106  32.475  1.00  0.00     0.029 A 
ATOM     47  N   UNL A   1      44.834  29.068  31.963  1.00  0.00    -0.354 N 
ATOM     48  N   UNL A   1      44.794  27.503  27.869  1.00  0.00    -0.248 NA
ATOM     49  C   UNL A   1      43.865  25.855  29.238  1.00  0.00     0.031 C 
ATOM     50  C   UNL A   1      44.805  31.111  31.201  1.00  0.00     0.029 A 
ATOM     51  C   UNL A   1      45.006  29.785  30.811  1.00  0.00     0.049 A 
ATOM     52  H   UNL A   1      45.257  28.206  32.181  1.00  0.00     0.167 HD
ATOM     53  C   UNL A   1      44.984  27.888  29.191  1.00  0.00     0.074 A 
ATOM     54  C   UNL A   1      44.476  26.775  29.991  1.00  0.00     0.031 C 
ATOM     55  C   UNL A   1      45.251  29.187  29.517  1.00  0.00     0.034 A 
BRANCH  42  56
ATOM     56  C   UNL A   1      43.223  27.929  34.391  1.00  0.00     0.023 A 
ATOM     57  C   UNL A   1      43.581  28.337  35.695  1.00  0.00     0.012 A 
ATOM     58  C   UNL A   1      43.454  26.575  34.056  1.00  0.00     0.148 A 
ATOM     59  C   UNL A   1      44.192  27.459  36.594  1.00  0.00     0.002 A 
ATOM     60  C   UNL A   1      43.986  25.686  34.980  1.00  0.00     0.091 A 
ATOM     61  F   UNL A   1      43.296  26.155  32.797  1.00  0.00    -0.205 F 
ATOM     62  C   UNL A   1      44.390  26.131  36.241  1.00  0.00     0.022 A 
BRANCH  60  63
ATOM     63  S   UNL A   1      44.216  23.948  34.586  1.00  0.00     0.127 S 
ATOM     64  O   UNL A   1      42.836  23.483  34.495  1.00  0.00    -0.237 OA
ATOM     65  O   UNL A   1      44.932  24.023  33.311  1.00  0.00    -0.237 OA
ATOM     66  O   UNL A   1      45.009  23.402  35.680  1.00  0.00    -0.744 OA
ENDBRANCH  60  63
ENDBRANCH  42  56
BRANCH  43  67
ATOM     67  C   UNL A   1      42.640  25.017  26.272  1.00  0.00     0.023 A 
ATOM     68  C   UNL A   1      43.566  24.608  25.292  1.00  0.00     0.012 A 
ATOM     69  C   UNL A   1      41.698  24.070  26.734  1.00  0.00     0.148 A 
ATOM     70  C   UNL A   1      43.567  23.295  24.805  1.00  0.00     0.002 A 
ATOM     71  C   UNL A   1      41.697  22.769  26.241  1.00  0.00     0.091 A 
ATOM     72  F   UNL A   1      40.864  24.417  27.723  1.00  0.00    -0.205 F 
ATOM     73  C   UNL A   1      42.638  22.374  25.284  1.00  0.00     0.022 A 
BRANCH  71  74
ATOM     74  S   UNL A   1      40.543  21.521  26.829  1.00  0.00     0.127 S 
ATOM     75  O   UNL A   1      40.974  20.335  26.088  1.00  0.00    -0.237 OA
ATOM     76  O   UNL A   1      40.834  21.489  28.259  1.00  0.00    -0.237 OA
ATOM     77  O   UNL A   1      39.215  22.003  26.464  1.00  0.00    -0.744 OA
ENDBRANCH  71  74
ENDBRANCH  43  67
BRANCH  55  78
ATOM     78  C   UNL A   1      45.569  30.152  28.404  1.00  0.00     0.023 A 
ATOM     79  C   UNL A   1      44.572  30.913  27.759  1.00  0.00     0.012 A 
ATOM     80  C   UNL A   1      46.919  30.458  28.170  1.00  0.00     0.148 A 
ATOM     81  C   UNL A   1      44.917  31.951  26.890  1.00  0.00     0.002 A 
ATOM     82  C   UNL A   1      47.257  31.525  27.347  1.00  0.00     0.091 A 
ATOM     83  F   UNL A   1      47.852  29.726  28.797  1.00  0.00    -0.205 F 
ATOM     84  C   UNL A   1      46.259  32.270  26.698  1.00  0.00     0.022 A 
BRANCH  82  85
ATOM     85  S   UNL A   1      48.957  32.073  27.182  1.00  0.00     0.127 S 
ATOM     86  O   UNL A   1      49.333  32.321  28.571  1.00  0.00    -0.237 OA
ATOM     87  O   UNL A   1      49.605  30.912  26.570  1.00  0.00    -0.237 OA
ATOM     88  O   UNL A   1      48.917  33.251  26.322  1.00  0.00    -0.744 OA
ENDBRANCH  82  85
ENDBRANCH  55  78
ENDBRANCH  29  30
ENDBRANCH  22  24
ENDBRANCH  21  22
ENDBRANCH   1  21
TORSDOF 16
ENDMDL
MODEL 2
REMARK VINA RESULT:     -10.4      3.816      6.388
REMARK SMILES CC(=O)c1nnn(-c2ccc(C(=O)OCCOC(=O)c3ccc(-c4c5nc(c(-c6cccc(S(=O)(=O)[O-])c6F)c6ccc([nH]6)c(-c6cccc(S(=O)(=O)[O-])c6F)c6nc(c(-c7cccc(S(=O)(=O)[O-])c7F)c7ccc4[nH]7)C=C6)C=C5)cc3)cc2)c1C
REMARK SMILES IDX 16 1 15 2 14 3 12 4 13 5 11 6 8 7 9 8 84 9 10 10 83 11 7 12
REMARK SMILES IDX 4 13 5 14 85 15 6 16 86 17 2 18 1 19 3 20 17 21 18 22 19 23
REMARK SMILES IDX 20 24 21 25 82 26 22 27 81 28 23 29 24 30 25 31 75 32 26 33
REMARK SMILES IDX 80 34 74 35 76 36 27 37 79 38 73 39 72 40 28 42 60 43 40 44
REMARK SMILES IDX 59 45 41 46 44 47 58 48 77 49 42 50 43 51 57 53 78 54 45 55
REMARK SMILES IDX 29 56 30 57 38 58 31 59 33 60 39 61 32 62 34 63 35 64 36 65
REMARK SMILES IDX 37 66 61 67 62 68 70 69 63 70 65 71 71 72 64 73 66 74 67 75
REMARK SMILES IDX 68 76 69 77 46 78 47 79 55 80 48 81 50 82 56 83 49 84 51 85
REMARK SMILES IDX 52 86 53 87 54 88
REMARK H PARENT 76 41 44 52
REMARK Flexibility Score: inf
ROOT
ATOM      1  C   UNL A   1      33.338  30.827  27.285  1.00  0.00     0.275 C 
ENDROOT
BRANCH   1   2
ATOM      2  C   UNL A   1      32.680  30.012  26.183  1.00  0.00     0.275 C 
BRANCH   2   3
ATOM      3  O   UNL A   1      33.052  28.626  26.275  1.00  0.00    -0.458 OA
BRANCH   3   4
ATOM      4  C   UNL A   1      32.155  27.803  26.876  1.00  0.00     0.338 C 
ATOM      5  O   UNL A   1      31.293  28.128  27.680  1.00  0.00    -0.246 OA
BRANCH   4   6
ATOM      6  C   UNL A   1      32.323  26.411  26.387  1.00  0.00     0.060 A 
ATOM      7  C   UNL A   1      32.680  23.719  25.823  1.00  0.00     0.067 A 
ATOM      8  C   UNL A   1      31.395  24.175  26.119  1.00  0.00     0.029 A 
ATOM      9  C   UNL A   1      33.746  24.614  25.655  1.00  0.00     0.029 A 
ATOM     10  C   UNL A   1      31.227  25.529  26.428  1.00  0.00     0.018 A 
ATOM     11  C   UNL A   1      33.564  25.962  25.927  1.00  0.00     0.018 A 
BRANCH   7  12
ATOM     12  N   UNL A   1      32.968  22.342  25.881  1.00  0.00    -0.217 N 
ATOM     13  C   UNL A   1      33.084  20.207  25.455  1.00  0.00     0.151 A 
ATOM     14  N   UNL A   1      33.540  20.448  26.730  1.00  0.00    -0.126 NA
ATOM     15  C   UNL A   1      32.787  21.422  24.855  1.00  0.00     0.073 A 
ATOM     16  N   UNL A   1      33.582  21.760  26.925  1.00  0.00    -0.061 NA
ATOM     17  C   UNL A   1      32.414  21.836  23.478  1.00  0.00     0.069 C 
BRANCH  13  18
ATOM     18  C   UNL A   1      33.013  18.852  24.920  1.00  0.00     0.181 C 
ATOM     19  C   UNL A   1      34.267  18.212  24.382  1.00  0.00     0.095 C 
ATOM     20  O   UNL A   1      31.956  18.220  24.892  1.00  0.00    -0.293 OA
ENDBRANCH  13  18
ENDBRANCH   7  12
ENDBRANCH   4   6
ENDBRANCH   3   4
ENDBRANCH   2   3
ENDBRANCH   1   2
BRANCH   1  21
ATOM     21  O   UNL A   1      34.743  30.594  27.306  1.00  0.00    -0.458 OA
BRANCH  21  22
ATOM     22  C   UNL A   1      35.477  31.571  27.882  1.00  0.00     0.338 C 
ATOM     23  O   UNL A   1      35.435  32.767  27.644  1.00  0.00    -0.246 OA
BRANCH  22  24
ATOM     24  C   UNL A   1      36.510  30.958  28.714  1.00  0.00     0.060 A 
ATOM     25  C   UNL A   1      37.602  31.759  29.065  1.00  0.00     0.016 A 
ATOM     26  C   UNL A   1      36.538  29.560  28.819  1.00  0.00     0.016 A 
ATOM     27  C   UNL A   1      38.802  31.139  29.322  1.00  0.00     0.010 A 
ATOM     28  C   UNL A   1      37.737  28.945  29.055  1.00  0.00     0.010 A 
ATOM     29  C   UNL A   1      38.865  29.746  29.213  1.00  0.00    -0.014 A 
BRANCH  29  30
ATOM     30  C   UNL A   1      40.156  29.112  29.314  1.00  0.00     0.031 A 
ATOM     31  C   UNL A   1      40.623  28.969  30.711  1.00  0.00     0.074 A 
ATOM     32  C   UNL A   1      40.757  28.585  28.231  1.00  0.00     0.049 A 
ATOM     33  N   UNL A   1      41.650  29.524  31.260  1.00  0.00    -0.248 NA
ATOM     34  C   UNL A   1      39.734  28.271  31.654  1.00  0.00     0.031 C 
ATOM     35  C   UNL A   1      40.199  28.409  26.885  1.00  0.00     0.029 A 
ATOM     36  N   UNL A   1      41.945  27.935  28.158  1.00  0.00    -0.354 N 
ATOM     37  C   UNL A   1      41.656  29.056  32.572  1.00  0.00     0.074 A 
ATOM     38  C   UNL A   1      40.361  28.482  32.810  1.00  0.00     0.031 C 
ATOM     39  C   UNL A   1      40.920  27.468  26.234  1.00  0.00     0.029 A 
ATOM     40  C   UNL A   1      42.046  27.082  27.065  1.00  0.00     0.049 A 
ATOM     41  H   UNL A   1      42.667  28.055  28.816  1.00  0.00     0.167 HD
ATOM     42  C   UNL A   1      42.813  28.941  33.276  1.00  0.00     0.034 A 
ATOM     43  C   UNL A   1      42.925  26.058  26.936  1.00  0.00     0.034 A 
ATOM     44  C   UNL A   1      43.883  29.674  32.655  1.00  0.00     0.049 A 
ATOM     45  C   UNL A   1      44.013  26.283  27.921  1.00  0.00     0.074 A 
ATOM     46  C   UNL A   1      44.101  31.000  32.341  1.00  0.00     0.029 A 
ATOM     47  N   UNL A   1      44.775  28.948  31.903  1.00  0.00    -0.354 N 
ATOM     48  N   UNL A   1      44.853  27.277  27.852  1.00  0.00    -0.248 NA
ATOM     49  C   UNL A   1      43.878  25.667  29.234  1.00  0.00     0.031 C 
ATOM     50  C   UNL A   1      44.777  30.971  31.088  1.00  0.00     0.029 A 
ATOM     51  C   UNL A   1      44.985  29.634  30.738  1.00  0.00     0.049 A 
ATOM     52  H   UNL A   1      45.189  28.091  32.156  1.00  0.00     0.167 HD
ATOM     53  C   UNL A   1      45.005  27.696  29.169  1.00  0.00     0.074 A 
ATOM     54  C   UNL A   1      44.469  26.605  29.981  1.00  0.00     0.031 C 
ATOM     55  C   UNL A   1      45.266  29.002  29.469  1.00  0.00     0.034 A 
BRANCH  42  56
ATOM     56  C   UNL A   1      43.088  27.878  34.310  1.00  0.00     0.023 A 
ATOM     57  C   UNL A   1      43.357  28.316  35.625  1.00  0.00     0.012 A 
ATOM     58  C   UNL A   1      43.372  26.524  34.014  1.00  0.00     0.148 A 
ATOM     59  C   UNL A   1      43.934  27.470  36.575  1.00  0.00     0.002 A 
ATOM     60  C   UNL A   1      43.869  25.665  34.986  1.00  0.00     0.091 A 
ATOM     61  F   UNL A   1      43.300  26.079  32.757  1.00  0.00    -0.205 F 
ATOM     62  C   UNL A   1      44.185  26.141  36.260  1.00  0.00     0.022 A 
BRANCH  60  63
ATOM     63  S   UNL A   1      44.165  23.927  34.638  1.00  0.00     0.127 S 
ATOM     64  O   UNL A   1      44.752  23.473  35.895  1.00  0.00    -0.237 OA
ATOM     65  O   UNL A   1      42.811  23.440  34.373  1.00  0.00    -0.237 OA
ATOM     66  O   UNL A   1      45.041  23.907  33.474  1.00  0.00    -0.744 OA
ENDBRANCH  60  63
ENDBRANCH  42  56
BRANCH  43  67
ATOM     67  C   UNL A   1      42.740  24.755  26.255  1.00  0.00     0.023 A 
ATOM     68  C   UNL A   1      43.700  24.312  25.325  1.00  0.00     0.012 A 
ATOM     69  C   UNL A   1      41.772  23.829  26.706  1.00  0.00     0.148 A 
ATOM     70  C   UNL A   1      43.709  22.986  24.875  1.00  0.00     0.002 A 
ATOM     71  C   UNL A   1      41.779  22.515  26.248  1.00  0.00     0.091 A 
ATOM     72  F   UNL A   1      40.903  24.209  27.651  1.00  0.00    -0.205 F 
ATOM     73  C   UNL A   1      42.754  22.086  25.341  1.00  0.00     0.022 A 
BRANCH  71  74
ATOM     74  S   UNL A   1      40.591  21.292  26.824  1.00  0.00     0.127 S 
ATOM     75  O   UNL A   1      40.860  21.262  28.262  1.00  0.00    -0.237 OA
ATOM     76  O   UNL A   1      39.321  21.906  26.451  1.00  0.00    -0.237 OA
ATOM     77  O   UNL A   1      40.925  20.055  26.128  1.00  0.00    -0.744 OA
ENDBRANCH  71  74
ENDBRANCH  43  67
BRANCH  55  78
ATOM     78  C   UNL A   1      45.621  29.937  28.341  1.00  0.00     0.023 A 
ATOM     79  C   UNL A   1      44.649  30.697  27.659  1.00  0.00     0.012 A 
ATOM     80  C   UNL A   1      46.980  30.217  28.127  1.00  0.00     0.148 A 
ATOM     81  C   UNL A   1      45.027  31.711  26.774  1.00  0.00     0.002 A 
ATOM     82  C   UNL A   1      47.351  31.260  27.287  1.00  0.00     0.091 A 
ATOM     83  F   UNL A   1      47.889  29.485  28.789  1.00  0.00    -0.205 F 
ATOM     84  C   UNL A   1      46.377  32.005  26.602  1.00  0.00     0.022 A 
BRANCH  82  85
ATOM     85  S   UNL A   1      49.061  31.778  27.144  1.00  0.00     0.127 S 
ATOM     86  O   UNL A   1      49.689  30.599  26.554  1.00  0.00    -0.237 OA
ATOM     87  O   UNL A   1      48.967  32.933  26.250  1.00  0.00    -0.237 OA
ATOM     88  O   UNL A   1      49.495  32.109  28.497  1.00  0.00    -0.744 OA
ENDBRANCH  82  85
ENDBRANCH  55  78
ENDBRANCH  29  30
ENDBRANCH  22  24
ENDBRANCH  21  22
ENDBRANCH   1  21
TORSDOF 16
ENDMDL
MODEL 3
REMARK VINA RESULT:     -10.4      3.188     11.166
REMARK SMILES CC(=O)c1nnn(-c2ccc(C(=O)OCCOC(=O)c3ccc(-c4c5nc(c(-c6cccc(S(=O)(=O)[O-])c6F)c6ccc([nH]6)c(-c6cccc(S(=O)(=O)[O-])c6F)c6nc(c(-c7cccc(S(=O)(=O)[O-])c7F)c7ccc4[nH]7)C=C6)C=C5)cc3)cc2)c1C
REMARK SMILES IDX 16 1 15 2 14 3 12 4 13 5 11 6 8 7 9 8 84 9 10 10 83 11 7 12
REMARK SMILES IDX 4 13 5 14 85 15 6 16 86 17 2 18 1 19 3 20 17 21 18 22 19 23
REMARK SMILES IDX 20 24 21 25 82 26 22 27 81 28 23 29 24 30 25 31 75 32 26 33
REMARK SMILES IDX 80 34 74 35 76 36 27 37 79 38 73 39 72 40 28 42 60 43 40 44
REMARK SMILES IDX 59 45 41 46 44 47 58 48 77 49 42 50 43 51 57 53 78 54 45 55
REMARK SMILES IDX 29 56 30 57 38 58 31 59 33 60 39 61 32 62 34 63 35 64 36 65
REMARK SMILES IDX 37 66 61 67 62 68 70 69 63 70 65 71 71 72 64 73 66 74 67 75
REMARK SMILES IDX 68 76 69 77 46 78 47 79 55 80 48 81 50 82 56 83 49 84 51 85
REMARK SMILES IDX 52 86 53 87 54 88
REMARK H PARENT 76 41 44 52
REMARK Flexibility Score: inf
ROOT
ATOM      1  C   UNL A   1      40.877  20.830  27.512  1.00  0.00     0.275 C 
ENDROOT
BRANCH   1   2
ATOM      2  C   UNL A   1      41.647  20.024  26.478  1.00  0.00     0.275 C 
BRANCH   2   3
ATOM      3  O   UNL A   1      43.045  20.356  26.503  1.00  0.00    -0.458 OA
BRANCH   3   4
ATOM      4  C   UNL A   1      43.717  20.213  25.331  1.00  0.00     0.338 C 
ATOM      5  O   UNL A   1      43.782  19.201  24.648  1.00  0.00    -0.246 OA
BRANCH   4   6
ATOM      6  C   UNL A   1      44.350  21.497  24.940  1.00  0.00     0.060 A 
ATOM      7  C   UNL A   1      45.600  23.945  24.564  1.00  0.00     0.067 A 
ATOM      8  C   UNL A   1      46.385  22.792  24.595  1.00  0.00     0.029 A 
ATOM      9  C   UNL A   1      44.200  23.869  24.562  1.00  0.00     0.029 A 
ATOM     10  C   UNL A   1      45.750  21.564  24.811  1.00  0.00     0.018 A 
ATOM     11  C   UNL A   1      43.576  22.643  24.739  1.00  0.00     0.018 A 
BRANCH   7  12
ATOM     12  N   UNL A   1      46.199  25.208  24.733  1.00  0.00    -0.217 N 
ATOM     13  C   UNL A   1      46.636  27.253  25.351  1.00  0.00     0.151 A 
ATOM     14  N   UNL A   1      47.471  26.895  24.318  1.00  0.00    -0.126 NA
ATOM     15  C   UNL A   1      45.862  26.154  25.694  1.00  0.00     0.073 A 
ATOM     16  N   UNL A   1      47.277  25.612  24.041  1.00  0.00    -0.061 NA
ATOM     17  C   UNL A   1      44.912  25.858  26.797  1.00  0.00     0.069 C 
BRANCH  13  18
ATOM     18  C   UNL A   1      46.685  28.589  25.935  1.00  0.00     0.181 C 
ATOM     19  C   UNL A   1      47.016  28.735  27.398  1.00  0.00     0.095 C 
ATOM     20  O   UNL A   1      46.458  29.597  25.266  1.00  0.00    -0.293 OA
ENDBRANCH  13  18
ENDBRANCH   7  12
ENDBRANCH   4   6
ENDBRANCH   3   4
ENDBRANCH   2   3
ENDBRANCH   1   2
BRANCH   1  21
ATOM     21  O   UNL A   1      41.333  22.178  27.534  1.00  0.00    -0.458 OA
BRANCH  21  22
ATOM     22  C   UNL A   1      40.388  23.107  27.275  1.00  0.00     0.338 C 
ATOM     23  O   UNL A   1      39.266  22.919  26.832  1.00  0.00    -0.246 OA
BRANCH  22  24
ATOM     24  C   UNL A   1      40.981  24.436  27.409  1.00  0.00     0.060 A 
ATOM     25  C   UNL A   1      41.887  24.625  28.458  1.00  0.00     0.016 A 
ATOM     26  C   UNL A   1      40.377  25.506  26.734  1.00  0.00     0.016 A 
ATOM     27  C   UNL A   1      42.024  25.892  28.973  1.00  0.00     0.010 A 
ATOM     28  C   UNL A   1      40.498  26.763  27.260  1.00  0.00     0.010 A 
ATOM     29  C   UNL A   1      41.248  26.918  28.423  1.00  0.00    -0.014 A 
BRANCH  29  30
ATOM     30  C   UNL A   1      41.262  28.207  29.070  1.00  0.00     0.031 A 
ATOM     31  C   UNL A   1      42.260  29.133  28.492  1.00  0.00     0.074 A 
ATOM     32  C   UNL A   1      40.339  28.530  29.994  1.00  0.00     0.049 A 
ATOM     33  N   UNL A   1      43.302  29.632  29.067  1.00  0.00    -0.248 NA
ATOM     34  C   UNL A   1      42.187  29.388  27.044  1.00  0.00     0.031 C 
ATOM     35  C   UNL A   1      39.137  27.776  30.372  1.00  0.00     0.029 A 
ATOM     36  N   UNL A   1      40.194  29.696  30.671  1.00  0.00    -0.354 N 
ATOM     37  C   UNL A   1      43.892  30.447  28.105  1.00  0.00     0.074 A 
ATOM     38  C   UNL A   1      43.301  30.090  26.845  1.00  0.00     0.031 C 
ATOM     39  C   UNL A   1      38.267  28.617  30.977  1.00  0.00     0.029 A 
ATOM     40  C   UNL A   1      38.903  29.913  31.137  1.00  0.00     0.049 A 
ATOM     41  H   UNL A   1      40.933  30.329  30.818  1.00  0.00     0.167 HD
ATOM     42  C   UNL A   1      44.630  31.534  28.456  1.00  0.00     0.034 A 
ATOM     43  C   UNL A   1      38.382  31.109  31.505  1.00  0.00     0.034 A 
ATOM     44  C   UNL A   1      44.999  31.494  29.845  1.00  0.00     0.049 A 
ATOM     45  C   UNL A   1      39.519  32.032  31.744  1.00  0.00     0.074 A 
ATOM     46  C   UNL A   1      45.732  30.629  30.633  1.00  0.00     0.029 A 
ATOM     47  N   UNL A   1      44.254  32.262  30.705  1.00  0.00    -0.354 N 
ATOM     48  N   UNL A   1      40.377  31.881  32.715  1.00  0.00    -0.248 NA
ATOM     49  C   UNL A   1      39.971  32.856  30.632  1.00  0.00     0.031 C 
ATOM     50  C   UNL A   1      45.045  30.604  31.880  1.00  0.00     0.029 A 
ATOM     51  C   UNL A   1      43.972  31.495  31.802  1.00  0.00     0.049 A 
ATOM     52  H   UNL A   1      43.973  33.195  30.560  1.00  0.00     0.167 HD
ATOM     53  C   UNL A   1      41.604  32.201  32.147  1.00  0.00     0.074 A 
ATOM     54  C   UNL A   1      41.280  32.895  30.901  1.00  0.00     0.031 C 
ATOM     55  C   UNL A   1      42.758  31.612  32.579  1.00  0.00     0.034 A 
BRANCH  42  56
ATOM     56  C   UNL A   1      44.708  32.812  27.660  1.00  0.00     0.023 A 
ATOM     57  C   UNL A   1      45.859  33.003  26.864  1.00  0.00     0.012 A 
ATOM     58  C   UNL A   1      43.875  33.937  27.862  1.00  0.00     0.148 A 
ATOM     59  C   UNL A   1      46.195  34.258  26.350  1.00  0.00     0.002 A 
ATOM     60  C   UNL A   1      44.169  35.163  27.281  1.00  0.00     0.091 A 
ATOM     61  F   UNL A   1      42.864  33.879  28.733  1.00  0.00    -0.205 F 
ATOM     62  C   UNL A   1      45.346  35.339  26.551  1.00  0.00     0.022 A 
BRANCH  60  63
ATOM     63  S   UNL A   1      43.078  36.578  27.474  1.00  0.00     0.127 S 
ATOM     64  O   UNL A   1      43.140  36.801  28.915  1.00  0.00    -0.237 OA
ATOM     65  O   UNL A   1      43.753  37.589  26.659  1.00  0.00    -0.237 OA
ATOM     66  O   UNL A   1      41.790  36.152  26.944  1.00  0.00    -0.744 OA
ENDBRANCH  60  63
ENDBRANCH  42  56
BRANCH  43  67
ATOM     67  C   UNL A   1      36.991  31.599  31.363  1.00  0.00     0.023 A 
ATOM     68  C   UNL A   1      36.311  32.103  32.489  1.00  0.00     0.012 A 
ATOM     69  C   UNL A   1      36.422  31.820  30.088  1.00  0.00     0.148 A 
ATOM     70  C   UNL A   1      35.117  32.822  32.347  1.00  0.00     0.002 A 
ATOM     71  C   UNL A   1      35.231  32.528  29.953  1.00  0.00     0.091 A 
ATOM     72  F   UNL A   1      37.095  31.420  29.001  1.00  0.00    -0.205 F 
ATOM     73  C   UNL A   1      34.581  33.040  31.081  1.00  0.00     0.022 A 
BRANCH  71  74
ATOM     74  S   UNL A   1      34.493  32.867  28.348  1.00  0.00     0.127 S 
ATOM     75  O   UNL A   1      33.412  33.788  28.700  1.00  0.00    -0.237 OA
ATOM     76  O   UNL A   1      35.606  33.476  27.626  1.00  0.00    -0.237 OA
ATOM     77  O   UNL A   1      34.038  31.578  27.839  1.00  0.00    -0.744 OA
ENDBRANCH  71  74
ENDBRANCH  43  67
BRANCH  55  78
ATOM     78  C   UNL A   1      42.709  30.787  33.839  1.00  0.00     0.023 A 
ATOM     79  C   UNL A   1      42.745  31.370  35.123  1.00  0.00     0.012 A 
ATOM     80  C   UNL A   1      42.392  29.425  33.718  1.00  0.00     0.148 A 
ATOM     81  C   UNL A   1      42.480  30.606  36.262  1.00  0.00     0.002 A 
ATOM     82  C   UNL A   1      42.078  28.681  34.848  1.00  0.00     0.091 A 
ATOM     83  F   UNL A   1      42.359  28.890  32.488  1.00  0.00    -0.205 F 
ATOM     84  C   UNL A   1      42.127  29.266  36.123  1.00  0.00     0.022 A 
BRANCH  82  85
ATOM     85  S   UNL A   1      41.474  26.997  34.717  1.00  0.00     0.127 S 
ATOM     86  O   UNL A   1      40.348  27.147  33.798  1.00  0.00    -0.237 OA
ATOM     87  O   UNL A   1      42.629  26.291  34.160  1.00  0.00    -0.237 OA
ATOM     88  O   UNL A   1      41.127  26.589  36.074  1.00  0.00    -0.744 OA
ENDBRANCH  82  85
ENDBRANCH  55  78
ENDBRANCH  29  30
ENDBRANCH  22  24
ENDBRANCH  21  22
ENDBRANCH   1  21
TORSDOF 16
ENDMDL
