MODEL 1
REMARK VINA RESULT:     -10.5      0.000      0.000
REMARK SMILES CC(C)COc1ccc(CC(=O)OCCOC(=O)c2ccc(-c3c4nc(c(-c5cccc(S(=O)(=O)[O-])c5F)c5ccc([nH]5)c(-c5cccc(S(=O)(=O)[O-])c5F)c5nc(c(-c6cccc(S(=O)(=O)[O-])c6F)c6ccc3[nH]6)C=C5)C=C4)cc2)cc1
REMARK SMILES IDX 14 1 13 2 11 3 12 4 10 5 9 6 6 7 7 8 83 9 8 10 82 11 5 12
REMARK SMILES IDX 4 13 2 14 1 15 3 16 15 17 16 18 17 19 18 20 19 21 20 22
REMARK SMILES IDX 81 23 21 24 80 25 22 26 23 27 24 28 74 29 25 30 79 31 73 32
REMARK SMILES IDX 75 33 26 34 78 35 72 36 71 37 27 39 59 40 39 41 58 42 40 43
REMARK SMILES IDX 43 44 57 45 76 46 41 47 42 48 56 50 77 51 44 52 28 53 29 54
REMARK SMILES IDX 37 55 30 56 32 57 38 58 31 59 33 60 34 61 35 62 36 63 60 64
REMARK SMILES IDX 61 65 69 66 62 67 64 68 70 69 63 70 65 71 66 72 67 73 68 74
REMARK SMILES IDX 45 75 46 76 54 77 47 78 49 79 55 80 48 81 50 82 51 83 52 84
REMARK SMILES IDX 53 85
REMARK H PARENT 75 38 43 49
REMARK Flexibility Score: inf
ROOT
ATOM      1  C   UNL A   1      31.544  28.552  27.645  1.00  0.00     0.274 C 
ENDROOT
BRANCH   1   2
ATOM      2  O   UNL A   1      31.149  27.354  26.952  1.00  0.00    -0.462 OA
BRANCH   2   3
ATOM      3  C   UNL A   1      32.075  26.811  26.121  1.00  0.00     0.310 C 
ATOM      4  O   UNL A   1      33.279  26.768  26.354  1.00  0.00    -0.252 OA
BRANCH   3   5
ATOM      5  C   UNL A   1      31.503  26.329  24.810  1.00  0.00     0.158 C 
BRANCH   5   6
ATOM      6  C   UNL A   1      30.639  27.294  24.037  1.00  0.00    -0.037 A 
ATOM      7  C   UNL A   1      29.102  28.946  22.396  1.00  0.00     0.119 A 
ATOM      8  C   UNL A   1      28.485  27.917  23.099  1.00  0.00     0.047 A 
ATOM      9  C   UNL A   1      30.452  29.228  22.587  1.00  0.00     0.047 A 
ATOM     10  C   UNL A   1      29.256  27.090  23.918  1.00  0.00     0.008 A 
ATOM     11  C   UNL A   1      31.223  28.392  23.391  1.00  0.00     0.008 A 
BRANCH   7  12
ATOM     12  O   UNL A   1      28.410  29.708  21.496  1.00  0.00    -0.493 OA
BRANCH  12  13
ATOM     13  C   UNL A   1      29.027  30.996  21.298  1.00  0.00     0.232 C 
BRANCH  13  14
ATOM     14  C   UNL A   1      28.058  32.151  21.639  1.00  0.00     0.020 C 
ATOM     15  C   UNL A   1      28.674  33.128  22.649  1.00  0.00     0.011 C 
ATOM     16  C   UNL A   1      27.670  32.927  20.380  1.00  0.00     0.011 C 
ENDBRANCH  13  14
ENDBRANCH  12  13
ENDBRANCH   7  12
ENDBRANCH   5   6
ENDBRANCH   3   5
ENDBRANCH   2   3
ENDBRANCH   1   2
BRANCH   1  17
ATOM     17  C   UNL A   1      31.435  29.780  26.742  1.00  0.00     0.275 C 
BRANCH  17  18
ATOM     18  O   UNL A   1      32.734  30.242  26.331  1.00  0.00    -0.458 OA
BRANCH  18  19
ATOM     19  C   UNL A   1      33.198  31.317  27.007  1.00  0.00     0.338 C 
ATOM     20  O   UNL A   1      32.611  32.357  27.245  1.00  0.00    -0.246 OA
BRANCH  19  21
ATOM     21  C   UNL A   1      34.550  31.042  27.509  1.00  0.00     0.060 A 
ATOM     22  C   UNL A   1      34.939  29.712  27.686  1.00  0.00     0.016 A 
ATOM     23  C   UNL A   1      35.369  32.086  27.937  1.00  0.00     0.016 A 
ATOM     24  C   UNL A   1      36.131  29.417  28.340  1.00  0.00     0.010 A 
ATOM     25  C   UNL A   1      36.580  31.788  28.568  1.00  0.00     0.010 A 
ATOM     26  C   UNL A   1      36.952  30.453  28.806  1.00  0.00    -0.014 A 
BRANCH  26  27
ATOM     27  C   UNL A   1      38.163  30.140  29.604  1.00  0.00     0.031 A 
ATOM     28  C   UNL A   1      39.203  29.205  29.049  1.00  0.00     0.074 A 
ATOM     29  C   UNL A   1      38.328  30.687  30.823  1.00  0.00     0.049 A 
ATOM     30  N   UNL A   1      40.290  28.751  29.615  1.00  0.00    -0.248 NA
ATOM     31  C   UNL A   1      38.986  28.711  27.679  1.00  0.00     0.031 C 
ATOM     32  C   UNL A   1      37.392  31.607  31.469  1.00  0.00     0.029 A 
ATOM     33  N   UNL A   1      39.334  30.531  31.744  1.00  0.00    -0.354 N 
ATOM     34  C   UNL A   1      40.863  27.882  28.693  1.00  0.00     0.074 A 
ATOM     35  C   UNL A   1      40.004  27.874  27.528  1.00  0.00     0.031 C 
ATOM     36  C   UNL A   1      37.863  31.927  32.685  1.00  0.00     0.029 A 
ATOM     37  C   UNL A   1      39.114  31.212  32.917  1.00  0.00     0.049 A 
ATOM     38  H   UNL A   1      40.137  29.986  31.578  1.00  0.00     0.167 HD
ATOM     39  C   UNL A   1      42.010  27.171  28.799  1.00  0.00     0.034 A 
ATOM     40  C   UNL A   1      39.833  31.243  34.057  1.00  0.00     0.034 A 
ATOM     41  C   UNL A   1      42.892  27.220  29.933  1.00  0.00     0.049 A 
ATOM     42  C   UNL A   1      41.119  30.464  34.136  1.00  0.00     0.074 A 
ATOM     43  C   UNL A   1      44.094  26.560  30.119  1.00  0.00     0.029 A 
ATOM     44  N   UNL A   1      42.674  27.981  31.070  1.00  0.00    -0.354 N 
ATOM     45  N   UNL A   1      41.690  29.721  33.219  1.00  0.00    -0.248 NA
ATOM     46  C   UNL A   1      41.873  30.551  35.395  1.00  0.00     0.031 C 
ATOM     47  C   UNL A   1      44.605  26.925  31.370  1.00  0.00     0.029 A 
ATOM     48  C   UNL A   1      43.721  27.814  31.960  1.00  0.00     0.049 A 
ATOM     49  H   UNL A   1      41.889  28.555  31.223  1.00  0.00     0.167 HD
ATOM     50  C   UNL A   1      42.883  29.278  33.778  1.00  0.00     0.074 A 
ATOM     51  C   UNL A   1      42.964  29.853  35.105  1.00  0.00     0.031 C 
ATOM     52  C   UNL A   1      43.819  28.451  33.248  1.00  0.00     0.034 A 
BRANCH  39  53
ATOM     53  C   UNL A   1      42.404  26.306  27.631  1.00  0.00     0.023 A 
ATOM     54  C   UNL A   1      43.218  26.846  26.616  1.00  0.00     0.012 A 
ATOM     55  C   UNL A   1      42.017  24.954  27.563  1.00  0.00     0.148 A 
ATOM     56  C   UNL A   1      43.623  26.060  25.539  1.00  0.00     0.002 A 
ATOM     57  C   UNL A   1      42.454  24.167  26.503  1.00  0.00     0.091 A 
ATOM     58  F   UNL A   1      41.219  24.466  28.524  1.00  0.00    -0.205 F 
ATOM     59  C   UNL A   1      43.250  24.719  25.487  1.00  0.00     0.022 A 
BRANCH  57  60
ATOM     60  S   UNL A   1      42.075  22.414  26.394  1.00  0.00     0.127 S 
ATOM     61  O   UNL A   1      42.852  22.015  25.222  1.00  0.00    -0.237 OA
ATOM     62  O   UNL A   1      42.587  21.901  27.667  1.00  0.00    -0.237 OA
ATOM     63  O   UNL A   1      40.627  22.332  26.252  1.00  0.00    -0.744 OA
ENDBRANCH  57  60
ENDBRANCH  39  53
BRANCH  40  64
ATOM     64  C   UNL A   1      39.378  32.090  35.194  1.00  0.00     0.023 A 
ATOM     65  C   UNL A   1      38.488  31.550  36.143  1.00  0.00     0.012 A 
ATOM     66  C   UNL A   1      39.850  33.406  35.366  1.00  0.00     0.148 A 
ATOM     67  C   UNL A   1      38.062  32.311  37.231  1.00  0.00     0.002 A 
ATOM     68  C   UNL A   1      39.462  34.141  36.480  1.00  0.00     0.091 A 
ATOM     69  F   UNL A   1      40.676  33.913  34.440  1.00  0.00    -0.205 F 
ATOM     70  C   UNL A   1      38.558  33.601  37.408  1.00  0.00     0.022 A 
BRANCH  68  71
ATOM     71  S   UNL A   1      40.164  35.754  36.843  1.00  0.00     0.127 S 
ATOM     72  O   UNL A   1      39.611  36.571  35.767  1.00  0.00    -0.237 OA
ATOM     73  O   UNL A   1      39.621  36.037  38.173  1.00  0.00    -0.237 OA
ATOM     74  O   UNL A   1      41.608  35.556  36.822  1.00  0.00    -0.744 OA
ENDBRANCH  68  71
ENDBRANCH  40  64
BRANCH  52  75
ATOM     75  C   UNL A   1      45.028  28.138  34.087  1.00  0.00     0.023 A 
ATOM     76  C   UNL A   1      46.149  28.987  34.029  1.00  0.00     0.012 A 
ATOM     77  C   UNL A   1      45.025  27.055  34.986  1.00  0.00     0.148 A 
ATOM     78  C   UNL A   1      47.260  28.749  34.837  1.00  0.00     0.002 A 
ATOM     79  C   UNL A   1      46.121  26.845  35.816  1.00  0.00     0.091 A 
ATOM     80  F   UNL A   1      43.959  26.241  35.011  1.00  0.00    -0.205 F 
ATOM     81  C   UNL A   1      47.242  27.686  35.739  1.00  0.00     0.022 A 
BRANCH  79  82
ATOM     82  S   UNL A   1      46.130  25.546  37.058  1.00  0.00     0.127 S 
ATOM     83  O   UNL A   1      44.955  25.884  37.857  1.00  0.00    -0.237 OA
ATOM     84  O   UNL A   1      45.991  24.332  36.252  1.00  0.00    -0.237 OA
ATOM     85  O   UNL A   1      47.415  25.667  37.736  1.00  0.00    -0.744 OA
ENDBRANCH  79  82
ENDBRANCH  52  75
ENDBRANCH  26  27
ENDBRANCH  19  21
ENDBRANCH  18  19
ENDBRANCH  17  18
ENDBRANCH   1  17
TORSDOF 18
ENDMDL
MODEL 2
REMARK VINA RESULT:     -10.3      5.021      8.010
REMARK SMILES CC(C)COc1ccc(CC(=O)OCCOC(=O)c2ccc(-c3c4nc(c(-c5cccc(S(=O)(=O)[O-])c5F)c5ccc([nH]5)c(-c5cccc(S(=O)(=O)[O-])c5F)c5nc(c(-c6cccc(S(=O)(=O)[O-])c6F)c6ccc3[nH]6)C=C5)C=C4)cc2)cc1
REMARK SMILES IDX 14 1 13 2 11 3 12 4 10 5 9 6 6 7 7 8 83 9 8 10 82 11 5 12
REMARK SMILES IDX 4 13 2 14 1 15 3 16 15 17 16 18 17 19 18 20 19 21 20 22
REMARK SMILES IDX 81 23 21 24 80 25 22 26 23 27 24 28 74 29 25 30 79 31 73 32
REMARK SMILES IDX 75 33 26 34 78 35 72 36 71 37 27 39 59 40 39 41 58 42 40 43
REMARK SMILES IDX 43 44 57 45 76 46 41 47 42 48 56 50 77 51 44 52 28 53 29 54
REMARK SMILES IDX 37 55 30 56 32 57 38 58 31 59 33 60 34 61 35 62 36 63 60 64
REMARK SMILES IDX 61 65 69 66 62 67 64 68 70 69 63 70 65 71 66 72 67 73 68 74
REMARK SMILES IDX 45 75 46 76 54 77 47 78 49 79 55 80 48 81 50 82 51 83 52 84
REMARK SMILES IDX 53 85
REMARK H PARENT 75 38 43 49
REMARK Flexibility Score: inf
ROOT
ATOM      1  C   UNL A   1      36.791  20.558  24.963  1.00  0.00     0.274 C 
ENDROOT
BRANCH   1   2
ATOM      2  O   UNL A   1      37.087  21.931  24.650  1.00  0.00    -0.462 OA
BRANCH   2   3
ATOM      3  C   UNL A   1      36.314  22.506  23.694  1.00  0.00     0.310 C 
ATOM      4  O   UNL A   1      36.740  22.974  22.643  1.00  0.00    -0.252 OA
BRANCH   3   5
ATOM      5  C   UNL A   1      34.857  22.608  24.074  1.00  0.00     0.158 C 
BRANCH   5   6
ATOM      6  C   UNL A   1      34.273  23.993  24.208  1.00  0.00    -0.037 A 
ATOM      7  C   UNL A   1      33.428  26.644  24.404  1.00  0.00     0.119 A 
ATOM      8  C   UNL A   1      33.226  25.949  23.217  1.00  0.00     0.047 A 
ATOM      9  C   UNL A   1      33.944  26.001  25.526  1.00  0.00     0.047 A 
ATOM     10  C   UNL A   1      33.652  24.624  23.119  1.00  0.00     0.008 A 
ATOM     11  C   UNL A   1      34.384  24.683  25.423  1.00  0.00     0.008 A 
BRANCH   7  12
ATOM     12  O   UNL A   1      33.133  27.975  24.510  1.00  0.00    -0.493 OA
BRANCH  12  13
ATOM     13  C   UNL A   1      31.826  28.190  25.080  1.00  0.00     0.232 C 
BRANCH  13  14
ATOM     14  C   UNL A   1      31.899  29.040  26.369  1.00  0.00     0.020 C 
ATOM     15  C   UNL A   1      31.577  28.206  27.616  1.00  0.00     0.011 C 
ATOM     16  C   UNL A   1      33.287  29.658  26.538  1.00  0.00     0.011 C 
ENDBRANCH  13  14
ENDBRANCH  12  13
ENDBRANCH   7  12
ENDBRANCH   5   6
ENDBRANCH   3   5
ENDBRANCH   2   3
ENDBRANCH   1   2
BRANCH   1  17
ATOM     17  C   UNL A   1      38.057  19.783  25.324  1.00  0.00     0.275 C 
BRANCH  17  18
ATOM     18  O   UNL A   1      39.205  20.650  25.365  1.00  0.00    -0.458 OA
BRANCH  18  19
ATOM     19  C   UNL A   1      39.935  20.577  26.501  1.00  0.00     0.338 C 
ATOM     20  O   UNL A   1      40.358  19.576  27.050  1.00  0.00    -0.246 OA
BRANCH  19  21
ATOM     21  C   UNL A   1      40.234  21.930  26.987  1.00  0.00     0.060 A 
ATOM     22  C   UNL A   1      39.621  23.015  26.358  1.00  0.00     0.016 A 
ATOM     23  C   UNL A   1      41.217  22.130  27.955  1.00  0.00     0.016 A 
ATOM     24  C   UNL A   1      40.027  24.313  26.658  1.00  0.00     0.010 A 
ATOM     25  C   UNL A   1      41.603  23.434  28.276  1.00  0.00     0.010 A 
ATOM     26  C   UNL A   1      41.037  24.532  27.605  1.00  0.00    -0.014 A 
BRANCH  26  27
ATOM     27  C   UNL A   1      41.549  25.905  27.841  1.00  0.00     0.031 A 
ATOM     28  C   UNL A   1      42.929  26.278  27.372  1.00  0.00     0.074 A 
ATOM     29  C   UNL A   1      40.784  26.811  28.478  1.00  0.00     0.049 A 
ATOM     30  N   UNL A   1      43.584  27.396  27.542  1.00  0.00    -0.248 NA
ATOM     31  C   UNL A   1      43.672  25.255  26.616  1.00  0.00     0.031 C 
ATOM     32  C   UNL A   1      39.432  26.569  28.979  1.00  0.00     0.029 A 
ATOM     33  N   UNL A   1      41.044  28.111  28.828  1.00  0.00    -0.354 N 
ATOM     34  C   UNL A   1      44.831  27.198  26.960  1.00  0.00     0.074 A 
ATOM     35  C   UNL A   1      44.841  25.853  26.428  1.00  0.00     0.031 C 
ATOM     36  C   UNL A   1      38.984  27.682  29.582  1.00  0.00     0.029 A 
ATOM     37  C   UNL A   1      40.027  28.703  29.537  1.00  0.00     0.049 A 
ATOM     38  H   UNL A   1      41.880  28.577  28.592  1.00  0.00     0.167 HD
ATOM     39  C   UNL A   1      45.867  28.065  26.861  1.00  0.00     0.034 A 
ATOM     40  C   UNL A   1      39.950  29.925  30.101  1.00  0.00     0.034 A 
ATOM     41  C   UNL A   1      45.838  29.420  27.341  1.00  0.00     0.049 A 
ATOM     42  C   UNL A   1      41.105  30.878  29.950  1.00  0.00     0.074 A 
ATOM     43  C   UNL A   1      46.827  30.384  27.257  1.00  0.00     0.029 A 
ATOM     44  N   UNL A   1      44.761  30.006  27.985  1.00  0.00    -0.354 N 
ATOM     45  N   UNL A   1      42.240  30.704  29.316  1.00  0.00    -0.248 NA
ATOM     46  C   UNL A   1      40.959  32.204  30.566  1.00  0.00     0.031 C 
ATOM     47  C   UNL A   1      46.345  31.557  27.849  1.00  0.00     0.029 A 
ATOM     48  C   UNL A   1      45.055  31.322  28.299  1.00  0.00     0.049 A 
ATOM     49  H   UNL A   1      43.911  29.554  28.190  1.00  0.00     0.167 HD
ATOM     50  C   UNL A   1      42.928  31.905  29.431  1.00  0.00     0.074 A 
ATOM     51  C   UNL A   1      42.074  32.808  30.176  1.00  0.00     0.031 C 
ATOM     52  C   UNL A   1      44.166  32.227  28.979  1.00  0.00     0.034 A 
BRANCH  39  53
ATOM     53  C   UNL A   1      47.112  27.586  26.163  1.00  0.00     0.023 A 
ATOM     54  C   UNL A   1      47.270  27.837  24.786  1.00  0.00     0.012 A 
ATOM     55  C   UNL A   1      48.141  26.939  26.873  1.00  0.00     0.148 A 
ATOM     56  C   UNL A   1      48.426  27.432  24.120  1.00  0.00     0.002 A 
ATOM     57  C   UNL A   1      49.306  26.569  26.209  1.00  0.00     0.091 A 
ATOM     58  F   UNL A   1      47.959  26.683  28.177  1.00  0.00    -0.205 F 
ATOM     59  C   UNL A   1      49.447  26.807  24.833  1.00  0.00     0.022 A 
BRANCH  57  60
ATOM     60  S   UNL A   1      50.697  25.820  27.064  1.00  0.00     0.127 S 
ATOM     61  O   UNL A   1      50.791  26.651  28.263  1.00  0.00    -0.237 OA
ATOM     62  O   UNL A   1      50.224  24.456  27.303  1.00  0.00    -0.237 OA
ATOM     63  O   UNL A   1      51.822  25.912  26.141  1.00  0.00    -0.744 OA
ENDBRANCH  57  60
ENDBRANCH  39  53
BRANCH  40  64
ATOM     64  C   UNL A   1      38.705  30.334  30.809  1.00  0.00     0.023 A 
ATOM     65  C   UNL A   1      38.568  30.049  32.182  1.00  0.00     0.012 A 
ATOM     66  C   UNL A   1      37.680  31.038  30.148  1.00  0.00     0.148 A 
ATOM     67  C   UNL A   1      37.424  30.439  32.878  1.00  0.00     0.002 A 
ATOM     68  C   UNL A   1      36.566  31.469  30.860  1.00  0.00     0.091 A 
ATOM     69  F   UNL A   1      37.815  31.278  28.836  1.00  0.00    -0.205 F 
ATOM     70  C   UNL A   1      36.430  31.160  32.222  1.00  0.00     0.022 A 
BRANCH  68  71
ATOM     71  S   UNL A   1      35.312  32.518  30.114  1.00  0.00     0.127 S 
ATOM     72  O   UNL A   1      34.784  31.652  29.063  1.00  0.00    -0.237 OA
ATOM     73  O   UNL A   1      34.399  32.755  31.233  1.00  0.00    -0.237 OA
ATOM     74  O   UNL A   1      36.025  33.707  29.667  1.00  0.00    -0.744 OA
ENDBRANCH  68  71
ENDBRANCH  40  64
BRANCH  52  75
ATOM     75  C   UNL A   1      44.665  33.621  29.247  1.00  0.00     0.023 A 
ATOM     76  C   UNL A   1      45.540  33.847  30.326  1.00  0.00     0.012 A 
ATOM     77  C   UNL A   1      44.334  34.686  28.389  1.00  0.00     0.148 A 
ATOM     78  C   UNL A   1      46.059  35.120  30.562  1.00  0.00     0.002 A 
ATOM     79  C   UNL A   1      44.885  35.945  28.608  1.00  0.00     0.091 A 
ATOM     80  F   UNL A   1      43.479  34.459  27.380  1.00  0.00    -0.205 F 
ATOM     81  C   UNL A   1      45.742  36.165  29.698  1.00  0.00     0.022 A 
BRANCH  79  82
ATOM     82  S   UNL A   1      44.585  37.315  27.485  1.00  0.00     0.127 S 
ATOM     83  O   UNL A   1      45.742  37.237  26.598  1.00  0.00    -0.237 OA
ATOM     84  O   UNL A   1      43.313  36.945  26.862  1.00  0.00    -0.237 OA
ATOM     85  O   UNL A   1      44.511  38.500  28.331  1.00  0.00    -0.744 OA
ENDBRANCH  79  82
ENDBRANCH  52  75
ENDBRANCH  26  27
ENDBRANCH  19  21
ENDBRANCH  18  19
ENDBRANCH  17  18
ENDBRANCH   1  17
TORSDOF 18
ENDMDL
MODEL 3
REMARK VINA RESULT:     -10.3      1.915      8.849
REMARK SMILES CC(C)COc1ccc(CC(=O)OCCOC(=O)c2ccc(-c3c4nc(c(-c5cccc(S(=O)(=O)[O-])c5F)c5ccc([nH]5)c(-c5cccc(S(=O)(=O)[O-])c5F)c5nc(c(-c6cccc(S(=O)(=O)[O-])c6F)c6ccc3[nH]6)C=C5)C=C4)cc2)cc1
REMARK SMILES IDX 14 1 13 2 11 3 12 4 10 5 9 6 6 7 7 8 83 9 8 10 82 11 5 12
REMARK SMILES IDX 4 13 2 14 1 15 3 16 15 17 16 18 17 19 18 20 19 21 20 22
REMARK SMILES IDX 81 23 21 24 80 25 22 26 23 27 24 28 74 29 25 30 79 31 73 32
REMARK SMILES IDX 75 33 26 34 78 35 72 36 71 37 27 39 59 40 39 41 58 42 40 43
REMARK SMILES IDX 43 44 57 45 76 46 41 47 42 48 56 50 77 51 44 52 28 53 29 54
REMARK SMILES IDX 37 55 30 56 32 57 38 58 31 59 33 60 34 61 35 62 36 63 60 64
REMARK SMILES IDX 61 65 69 66 62 67 64 68 70 69 63 70 65 71 66 72 67 73 68 74
REMARK SMILES IDX 45 75 46 76 54 77 47 78 49 79 55 80 48 81 50 82 51 83 52 84
REMARK SMILES IDX 53 85
REMARK H PARENT 75 38 43 49
REMARK Flexibility Score: inf
ROOT
ATOM      1  C   UNL A   1      31.103  30.306  25.156  1.00  0.00     0.274 C 
ENDROOT
BRANCH   1   2
ATOM      2  O   UNL A   1      32.320  29.654  24.747  1.00  0.00    -0.462 OA
BRANCH   2   3
ATOM      3  C   UNL A   1      32.283  28.299  24.694  1.00  0.00     0.310 C 
ATOM      4  O   UNL A   1      31.256  27.629  24.714  1.00  0.00    -0.252 OA
BRANCH   3   5
ATOM      5  C   UNL A   1      33.649  27.656  24.698  1.00  0.00     0.158 C 
BRANCH   5   6
ATOM      6  C   UNL A   1      33.704  26.148  24.685  1.00  0.00    -0.037 A 
ATOM      7  C   UNL A   1      34.061  23.381  24.666  1.00  0.00     0.119 A 
ATOM      8  C   UNL A   1      33.781  24.026  25.866  1.00  0.00     0.047 A 
ATOM      9  C   UNL A   1      34.055  24.083  23.463  1.00  0.00     0.047 A 
ATOM     10  C   UNL A   1      33.605  25.411  25.874  1.00  0.00     0.008 A 
ATOM     11  C   UNL A   1      33.896  25.467  23.474  1.00  0.00     0.008 A 
BRANCH   7  12
ATOM     12  O   UNL A   1      34.353  22.047  24.626  1.00  0.00    -0.493 OA
BRANCH  12  13
ATOM     13  C   UNL A   1      33.528  21.289  25.534  1.00  0.00     0.232 C 
BRANCH  13  14
ATOM     14  C   UNL A   1      33.140  19.915  24.943  1.00  0.00     0.020 C 
ATOM     15  C   UNL A   1      32.309  20.064  23.662  1.00  0.00     0.011 C 
ATOM     16  C   UNL A   1      34.385  19.087  24.626  1.00  0.00     0.011 C 
ENDBRANCH  13  14
ENDBRANCH  12  13
ENDBRANCH   7  12
ENDBRANCH   5   6
ENDBRANCH   3   5
ENDBRANCH   2   3
ENDBRANCH   1   2
BRANCH   1  17
ATOM     17  C   UNL A   1      31.382  31.441  26.140  1.00  0.00     0.275 C 
BRANCH  17  18
ATOM     18  O   UNL A   1      32.435  31.090  27.055  1.00  0.00    -0.458 OA
BRANCH  18  19
ATOM     19  C   UNL A   1      33.260  32.107  27.393  1.00  0.00     0.338 C 
ATOM     20  O   UNL A   1      33.007  33.298  27.406  1.00  0.00    -0.246 OA
BRANCH  19  21
ATOM     21  C   UNL A   1      34.554  31.570  27.834  1.00  0.00     0.060 A 
ATOM     22  C   UNL A   1      34.645  30.209  28.134  1.00  0.00     0.016 A 
ATOM     23  C   UNL A   1      35.624  32.428  28.087  1.00  0.00     0.016 A 
ATOM     24  C   UNL A   1      35.793  29.705  28.739  1.00  0.00     0.010 A 
ATOM     25  C   UNL A   1      36.787  31.915  28.667  1.00  0.00     0.010 A 
ATOM     26  C   UNL A   1      36.866  30.559  29.030  1.00  0.00    -0.014 A 
BRANCH  26  27
ATOM     27  C   UNL A   1      38.041  30.047  29.778  1.00  0.00     0.031 A 
ATOM     28  C   UNL A   1      38.297  30.520  31.183  1.00  0.00     0.074 A 
ATOM     29  C   UNL A   1      38.879  29.166  29.199  1.00  0.00     0.049 A 
ATOM     30  N   UNL A   1      39.301  30.250  31.975  1.00  0.00    -0.248 NA
ATOM     31  C   UNL A   1      37.294  31.423  31.772  1.00  0.00     0.031 C 
ATOM     32  C   UNL A   1      38.736  28.633  27.844  1.00  0.00     0.029 A 
ATOM     33  N   UNL A   1      40.025  28.580  29.671  1.00  0.00    -0.354 N 
ATOM     34  C   UNL A   1      39.078  30.982  33.135  1.00  0.00     0.074 A 
ATOM     35  C   UNL A   1      37.842  31.709  32.946  1.00  0.00     0.031 C 
ATOM     36  C   UNL A   1      39.763  27.806  27.591  1.00  0.00     0.029 A 
ATOM     37  C   UNL A   1      40.650  27.774  28.750  1.00  0.00     0.049 A 
ATOM     38  H   UNL A   1      40.367  28.723  30.584  1.00  0.00     0.167 HD
ATOM     39  C   UNL A   1      39.826  31.031  34.263  1.00  0.00     0.034 A 
ATOM     40  C   UNL A   1      41.814  27.100  28.826  1.00  0.00     0.034 A 
ATOM     41  C   UNL A   1      41.026  30.268  34.473  1.00  0.00     0.049 A 
ATOM     42  C   UNL A   1      42.611  27.150  30.103  1.00  0.00     0.074 A 
ATOM     43  C   UNL A   1      41.835  30.227  35.595  1.00  0.00     0.029 A 
ATOM     44  N   UNL A   1      41.585  29.405  33.545  1.00  0.00    -0.354 N 
ATOM     45  N   UNL A   1      42.335  27.776  31.222  1.00  0.00    -0.248 NA
ATOM     46  C   UNL A   1      43.861  26.378  30.138  1.00  0.00     0.031 C 
ATOM     47  C   UNL A   1      42.883  29.333  35.346  1.00  0.00     0.029 A 
ATOM     48  C   UNL A   1      42.724  28.817  34.069  1.00  0.00     0.049 A 
ATOM     49  H   UNL A   1      41.225  29.233  32.645  1.00  0.00     0.167 HD
ATOM     50  C   UNL A   1      43.360  27.450  32.102  1.00  0.00     0.074 A 
ATOM     51  C   UNL A   1      44.251  26.553  31.394  1.00  0.00     0.031 C 
ATOM     52  C   UNL A   1      43.559  27.872  33.375  1.00  0.00     0.034 A 
BRANCH  39  53
ATOM     53  C   UNL A   1      39.340  31.912  35.383  1.00  0.00     0.023 A 
ATOM     54  C   UNL A   1      38.397  31.407  36.299  1.00  0.00     0.012 A 
ATOM     55  C   UNL A   1      39.852  33.212  35.561  1.00  0.00     0.148 A 
ATOM     56  C   UNL A   1      37.952  32.189  37.363  1.00  0.00     0.002 A 
ATOM     57  C   UNL A   1      39.429  33.974  36.645  1.00  0.00     0.091 A 
ATOM     58  F   UNL A   1      40.727  33.686  34.663  1.00  0.00    -0.205 F 
ATOM     59  C   UNL A   1      38.475  33.468  37.542  1.00  0.00     0.022 A 
BRANCH  57  60
ATOM     60  S   UNL A   1      40.101  35.604  36.988  1.00  0.00     0.127 S 
ATOM     61  O   UNL A   1      39.519  35.896  38.297  1.00  0.00    -0.237 OA
ATOM     62  O   UNL A   1      41.543  35.354  37.005  1.00  0.00    -0.237 OA
ATOM     63  O   UNL A   1      39.652  36.454  35.893  1.00  0.00    -0.744 OA
ENDBRANCH  57  60
ENDBRANCH  39  53
BRANCH  40  64
ATOM     64  C   UNL A   1      42.263  26.270  27.674  1.00  0.00     0.023 A 
ATOM     65  C   UNL A   1      43.156  26.821  26.734  1.00  0.00     0.012 A 
ATOM     66  C   UNL A   1      41.849  24.932  27.525  1.00  0.00     0.148 A 
ATOM     67  C   UNL A   1      43.612  26.062  25.657  1.00  0.00     0.002 A 
ATOM     68  C   UNL A   1      42.349  24.165  26.478  1.00  0.00     0.091 A 
ATOM     69  F   UNL A   1      40.979  24.431  28.413  1.00  0.00    -0.205 F 
ATOM     70  C   UNL A   1      43.220  24.731  25.535  1.00  0.00     0.022 A 
BRANCH  68  71
ATOM     71  S   UNL A   1      41.994  22.410  26.336  1.00  0.00     0.127 S 
ATOM     72  O   UNL A   1      42.500  21.898  27.607  1.00  0.00    -0.237 OA
ATOM     73  O   UNL A   1      40.536  22.397  26.204  1.00  0.00    -0.237 OA
ATOM     74  O   UNL A   1      42.702  21.972  25.140  1.00  0.00    -0.744 OA
ENDBRANCH  68  71
ENDBRANCH  40  64
BRANCH  52  75
ATOM     75  C   UNL A   1      44.768  27.349  34.103  1.00  0.00     0.023 A 
ATOM     76  C   UNL A   1      45.969  28.082  34.066  1.00  0.00     0.012 A 
ATOM     77  C   UNL A   1      44.693  26.180  34.883  1.00  0.00     0.148 A 
ATOM     78  C   UNL A   1      47.087  27.646  34.776  1.00  0.00     0.002 A 
ATOM     79  C   UNL A   1      45.801  25.771  35.619  1.00  0.00     0.091 A 
ATOM     80  F   UNL A   1      43.549  25.480  34.887  1.00  0.00    -0.205 F 
ATOM     81  C   UNL A   1      47.000  26.499  35.562  1.00  0.00     0.022 A 
BRANCH  79  82
ATOM     82  S   UNL A   1      45.732  24.350  36.716  1.00  0.00     0.127 S 
ATOM     83  O   UNL A   1      47.107  24.279  37.204  1.00  0.00    -0.237 OA
ATOM     84  O   UNL A   1      44.750  24.766  37.719  1.00  0.00    -0.237 OA
ATOM     85  O   UNL A   1      45.296  23.237  35.882  1.00  0.00    -0.744 OA
ENDBRANCH  79  82
ENDBRANCH  52  75
ENDBRANCH  26  27
ENDBRANCH  19  21
ENDBRANCH  18  19
ENDBRANCH  17  18
ENDBRANCH   1  17
TORSDOF 18
ENDMDL
