MODEL 1
REMARK VINA RESULT:     -11.6      0.000      0.000
REMARK SMILES O=C(OCCOC(=O)C1(NC(=O)c2ccncc2Cl)CCCCC1)c1ccc(-c2c3nc(c(-c4cccc(S(=O)(=O)[O-])c4F)c4ccc([nH]4)c(-c4cccc(S(=O)(=O)[O-])c4F)c4nc(c(-c5cccc(S(=O)(=O)[O-])c5F)c5ccc2[nH]5)C=C4)C=C3)cc1
REMARK SMILES IDX 4 1 3 2 2 3 1 4 25 5 26 6 87 7 27 8 86 9 28 10 29 11 30 12
REMARK SMILES IDX 80 13 31 14 85 15 79 16 81 17 32 18 84 19 78 20 77 21 33 23
REMARK SMILES IDX 65 24 45 25 64 26 46 27 49 28 63 29 82 30 47 31 48 32 62 34
REMARK SMILES IDX 83 35 50 36 34 37 35 38 43 39 36 40 38 41 44 42 37 43 39 44
REMARK SMILES IDX 40 45 41 46 42 47 66 48 67 49 75 50 68 51 70 52 76 53 69 54
REMARK SMILES IDX 71 55 72 56 73 57 74 58 51 59 52 60 60 61 53 62 55 63 61 64
REMARK SMILES IDX 54 65 56 66 57 67 58 68 59 69 5 70 6 71 7 72 8 73 9 74 20 75
REMARK SMILES IDX 24 76 21 77 23 78 22 79 10 80 11 81 12 83 13 84 14 85 18 86
REMARK SMILES IDX 15 87 17 88 19 89 16 90
REMARK H PARENT 81 22 49 33 10 82
REMARK Flexibility Score: inf
ROOT
ATOM      1  C   UNL A   1      31.802  29.730  26.383  1.00  0.00     0.275 C 
ENDROOT
BRANCH   1   2
ATOM      2  O   UNL A   1      33.043  30.446  26.283  1.00  0.00    -0.458 OA
BRANCH   2   3
ATOM      3  C   UNL A   1      33.596  31.300  27.178  1.00  0.00     0.338 C 
ATOM      4  O   UNL A   1      33.112  32.420  27.319  1.00  0.00    -0.246 OA
BRANCH   3   5
ATOM      5  C   UNL A   1      34.871  30.987  27.882  1.00  0.00     0.060 A 
ATOM      6  C   UNL A   1      35.969  31.848  27.985  1.00  0.00     0.016 A 
ATOM      7  C   UNL A   1      34.959  29.714  28.466  1.00  0.00     0.016 A 
ATOM      8  C   UNL A   1      37.092  31.493  28.738  1.00  0.00     0.010 A 
ATOM      9  C   UNL A   1      36.078  29.354  29.221  1.00  0.00     0.010 A 
ATOM     10  C   UNL A   1      37.153  30.245  29.360  1.00  0.00    -0.014 A 
BRANCH  10  11
ATOM     11  C   UNL A   1      38.422  29.776  29.957  1.00  0.00     0.031 A 
ATOM     12  C   UNL A   1      38.794  30.347  31.295  1.00  0.00     0.074 A 
ATOM     13  C   UNL A   1      39.223  28.897  29.324  1.00  0.00     0.049 A 
ATOM     14  N   UNL A   1      39.850  30.128  32.028  1.00  0.00    -0.248 NA
ATOM     15  C   UNL A   1      37.848  31.320  31.876  1.00  0.00     0.031 C 
ATOM     16  C   UNL A   1      38.962  28.296  28.015  1.00  0.00     0.029 A 
ATOM     17  N   UNL A   1      40.441  28.381  29.684  1.00  0.00    -0.354 N 
ATOM     18  C   UNL A   1      39.699  30.945  33.141  1.00  0.00     0.074 A 
ATOM     19  C   UNL A   1      38.508  31.735  32.942  1.00  0.00     0.031 C 
ATOM     20  C   UNL A   1      40.017  27.543  27.655  1.00  0.00     0.029 A 
ATOM     21  C   UNL A   1      41.014  27.582  28.720  1.00  0.00     0.049 A 
ATOM     22  H   UNL A   1      40.867  28.565  30.552  1.00  0.00     0.167 HD
ATOM     23  C   UNL A   1      40.441  30.980  34.271  1.00  0.00     0.034 A 
ATOM     24  C   UNL A   1      42.203  26.948  28.717  1.00  0.00     0.034 A 
ATOM     25  C   UNL A   1      41.589  30.147  34.470  1.00  0.00     0.049 A 
ATOM     26  C   UNL A   1      43.032  27.002  29.978  1.00  0.00     0.074 A 
ATOM     27  C   UNL A   1      42.385  30.018  35.589  1.00  0.00     0.029 A 
ATOM     28  N   UNL A   1      42.099  29.290  33.504  1.00  0.00    -0.354 N 
ATOM     29  N   UNL A   1      42.793  27.657  31.092  1.00  0.00    -0.248 NA
ATOM     30  C   UNL A   1      44.247  26.178  30.016  1.00  0.00     0.031 C 
ATOM     31  C   UNL A   1      43.385  29.083  35.296  1.00  0.00     0.029 A 
ATOM     32  C   UNL A   1      43.199  28.619  34.000  1.00  0.00     0.049 A 
ATOM     33  H   UNL A   1      41.731  29.177  32.598  1.00  0.00     0.167 HD
ATOM     34  C   UNL A   1      43.784  27.268  31.986  1.00  0.00     0.074 A 
ATOM     35  C   UNL A   1      44.635  26.331  31.276  1.00  0.00     0.031 C 
ATOM     36  C   UNL A   1      43.972  27.640  33.276  1.00  0.00     0.034 A 
BRANCH  23  37
ATOM     37  C   UNL A   1      39.958  31.902  35.359  1.00  0.00     0.023 A 
ATOM     38  C   UNL A   1      40.565  33.170  35.506  1.00  0.00     0.012 A 
ATOM     39  C   UNL A   1      38.991  31.489  36.291  1.00  0.00     0.148 A 
ATOM     40  C   UNL A   1      40.280  33.974  36.610  1.00  0.00     0.002 A 
ATOM     41  C   UNL A   1      38.675  32.319  37.362  1.00  0.00     0.091 A 
ATOM     42  F   UNL A   1      38.439  30.276  36.148  1.00  0.00    -0.205 F 
ATOM     43  C   UNL A   1      39.334  33.547  37.536  1.00  0.00     0.022 A 
BRANCH  41  44
ATOM     44  S   UNL A   1      37.430  31.891  38.583  1.00  0.00     0.127 S 
ATOM     45  O   UNL A   1      38.144  32.140  39.834  1.00  0.00    -0.237 OA
ATOM     46  O   UNL A   1      36.368  32.854  38.286  1.00  0.00    -0.237 OA
ATOM     47  O   UNL A   1      37.077  30.502  38.325  1.00  0.00    -0.744 OA
ENDBRANCH  41  44
ENDBRANCH  23  37
BRANCH  24  48
ATOM     48  C   UNL A   1      42.617  26.113  27.551  1.00  0.00     0.023 A 
ATOM     49  C   UNL A   1      43.430  26.678  26.550  1.00  0.00     0.012 A 
ATOM     50  C   UNL A   1      42.233  24.761  27.435  1.00  0.00     0.148 A 
ATOM     51  C   UNL A   1      43.829  25.928  25.442  1.00  0.00     0.002 A 
ATOM     52  C   UNL A   1      42.662  24.008  26.344  1.00  0.00     0.091 A 
ATOM     53  F   UNL A   1      41.460  24.238  28.397  1.00  0.00    -0.205 F 
ATOM     54  C   UNL A   1      43.449  24.593  25.341  1.00  0.00     0.022 A 
BRANCH  52  55
ATOM     55  S   UNL A   1      42.301  22.255  26.169  1.00  0.00     0.127 S 
ATOM     56  O   UNL A   1      42.816  21.718  27.431  1.00  0.00    -0.237 OA
ATOM     57  O   UNL A   1      40.840  22.261  26.058  1.00  0.00    -0.237 OA
ATOM     58  O   UNL A   1      42.997  21.825  24.971  1.00  0.00    -0.744 OA
ENDBRANCH  52  55
ENDBRANCH  24  48
BRANCH  36  59
ATOM     59  C   UNL A   1      45.093  26.986  34.034  1.00  0.00     0.023 A 
ATOM     60  C   UNL A   1      46.368  27.583  34.058  1.00  0.00     0.012 A 
ATOM     61  C   UNL A   1      44.838  25.850  34.825  1.00  0.00     0.148 A 
ATOM     62  C   UNL A   1      47.380  27.045  34.852  1.00  0.00     0.002 A 
ATOM     63  C   UNL A   1      45.834  25.352  35.653  1.00  0.00     0.091 A 
ATOM     64  F   UNL A   1      43.622  25.287  34.763  1.00  0.00    -0.205 F 
ATOM     65  C   UNL A   1      47.108  25.941  35.661  1.00  0.00     0.022 A 
BRANCH  63  66
ATOM     66  S   UNL A   1      45.529  24.014  36.812  1.00  0.00     0.127 S 
ATOM     67  O   UNL A   1      46.853  23.822  37.400  1.00  0.00    -0.237 OA
ATOM     68  O   UNL A   1      44.539  24.604  37.714  1.00  0.00    -0.237 OA
ATOM     69  O   UNL A   1      45.027  22.903  36.015  1.00  0.00    -0.744 OA
ENDBRANCH  63  66
ENDBRANCH  36  59
ENDBRANCH  10  11
ENDBRANCH   3   5
ENDBRANCH   2   3
ENDBRANCH   1   2
BRANCH   1  70
ATOM     70  C   UNL A   1      31.835  28.433  27.195  1.00  0.00     0.274 C 
BRANCH  70  71
ATOM     71  O   UNL A   1      32.432  27.328  26.501  1.00  0.00    -0.460 OA
BRANCH  71  72
ATOM     72  C   UNL A   1      31.632  26.219  26.408  1.00  0.00     0.331 C 
ATOM     73  O   UNL A   1      30.424  26.245  26.624  1.00  0.00    -0.249 OA
BRANCH  72  74
ATOM     74  C   UNL A   1      32.401  24.959  25.895  1.00  0.00     0.138 C 
ATOM     75  C   UNL A   1      33.914  25.193  25.832  1.00  0.00     0.040 C 
ATOM     76  C   UNL A   1      32.110  23.875  26.974  1.00  0.00     0.040 C 
ATOM     77  C   UNL A   1      34.755  23.927  25.686  1.00  0.00     0.003 C 
ATOM     78  C   UNL A   1      33.002  22.633  26.921  1.00  0.00     0.003 C 
ATOM     79  C   UNL A   1      34.483  22.971  26.835  1.00  0.00     0.000 C 
BRANCH  74  80
ATOM     80  N   UNL A   1      31.922  24.478  24.574  1.00  0.00    -0.336 N 
ATOM     81  C   UNL A   1      32.252  24.955  23.326  1.00  0.00     0.253 C 
ATOM     82  H   UNL A   1      31.289  23.723  24.593  1.00  0.00     0.165 HD
ATOM     83  O   UNL A   1      32.334  24.199  22.362  1.00  0.00    -0.269 OA
BRANCH  81  84
ATOM     84  C   UNL A   1      32.331  26.405  23.097  1.00  0.00     0.061 A 
ATOM     85  C   UNL A   1      33.609  26.951  22.939  1.00  0.00     0.035 A 
ATOM     86  C   UNL A   1      31.215  27.236  23.121  1.00  0.00     0.072 A 
ATOM     87  C   UNL A   1      33.720  28.313  22.737  1.00  0.00     0.112 A 
ATOM     88  C   UNL A   1      31.436  28.590  22.910  1.00  0.00     0.132 A 
ATOM     89  Cl  UNL A   1      29.612  26.669  23.363  1.00  0.00    -0.082 Cl
ATOM     90  N   UNL A   1      32.660  29.147  22.704  1.00  0.00    -0.263 NA
ENDBRANCH  81  84
ENDBRANCH  74  80
ENDBRANCH  72  74
ENDBRANCH  71  72
ENDBRANCH  70  71
ENDBRANCH   1  70
TORSDOF 16
ENDMDL
MODEL 2
REMARK VINA RESULT:     -11.5      5.237     10.256
REMARK SMILES O=C(OCCOC(=O)C1(NC(=O)c2ccncc2Cl)CCCCC1)c1ccc(-c2c3nc(c(-c4cccc(S(=O)(=O)[O-])c4F)c4ccc([nH]4)c(-c4cccc(S(=O)(=O)[O-])c4F)c4nc(c(-c5cccc(S(=O)(=O)[O-])c5F)c5ccc2[nH]5)C=C4)C=C3)cc1
REMARK SMILES IDX 4 1 3 2 2 3 1 4 25 5 26 6 87 7 27 8 86 9 28 10 29 11 30 12
REMARK SMILES IDX 80 13 31 14 85 15 79 16 81 17 32 18 84 19 78 20 77 21 33 23
REMARK SMILES IDX 65 24 45 25 64 26 46 27 49 28 63 29 82 30 47 31 48 32 62 34
REMARK SMILES IDX 83 35 50 36 34 37 35 38 43 39 36 40 38 41 44 42 37 43 39 44
REMARK SMILES IDX 40 45 41 46 42 47 66 48 67 49 75 50 68 51 70 52 76 53 69 54
REMARK SMILES IDX 71 55 72 56 73 57 74 58 51 59 52 60 60 61 53 62 55 63 61 64
REMARK SMILES IDX 54 65 56 66 57 67 58 68 59 69 5 70 6 71 7 72 8 73 9 74 20 75
REMARK SMILES IDX 24 76 21 77 23 78 22 79 10 80 11 81 12 83 13 84 14 85 18 86
REMARK SMILES IDX 15 87 17 88 19 89 16 90
REMARK H PARENT 81 22 49 33 10 82
REMARK Flexibility Score: inf
ROOT
ATOM      1  C   UNL A   1      36.517  21.140  24.733  1.00  0.00     0.275 C 
ENDROOT
BRANCH   1   2
ATOM      2  O   UNL A   1      37.306  21.458  25.891  1.00  0.00    -0.458 OA
BRANCH   2   3
ATOM      3  C   UNL A   1      38.655  21.474  26.011  1.00  0.00     0.338 C 
ATOM      4  O   UNL A   1      39.285  20.430  25.862  1.00  0.00    -0.246 OA
BRANCH   3   5
ATOM      5  C   UNL A   1      39.391  22.683  26.476  1.00  0.00     0.060 A 
ATOM      6  C   UNL A   1      40.339  22.704  27.505  1.00  0.00     0.016 A 
ATOM      7  C   UNL A   1      39.078  23.887  25.827  1.00  0.00     0.016 A 
ATOM      8  C   UNL A   1      41.036  23.876  27.815  1.00  0.00     0.010 A 
ATOM      9  C   UNL A   1      39.772  25.060  26.131  1.00  0.00     0.010 A 
ATOM     10  C   UNL A   1      40.757  25.060  27.131  1.00  0.00    -0.014 A 
BRANCH  10  11
ATOM     11  C   UNL A   1      41.318  26.342  27.608  1.00  0.00     0.031 A 
ATOM     12  C   UNL A   1      42.758  26.617  27.279  1.00  0.00     0.074 A 
ATOM     13  C   UNL A   1      40.585  27.215  28.326  1.00  0.00     0.049 A 
ATOM     14  N   UNL A   1      43.499  27.643  27.589  1.00  0.00    -0.248 NA
ATOM     15  C   UNL A   1      43.462  25.574  26.509  1.00  0.00     0.031 C 
ATOM     16  C   UNL A   1      39.186  27.035  28.714  1.00  0.00     0.029 A 
ATOM     17  N   UNL A   1      40.929  28.417  28.889  1.00  0.00    -0.354 N 
ATOM     18  C   UNL A   1      44.754  27.358  27.066  1.00  0.00     0.074 A 
ATOM     19  C   UNL A   1      44.701  26.028  26.510  1.00  0.00     0.031 C 
ATOM     20  C   UNL A   1      38.810  28.059  29.503  1.00  0.00     0.029 A 
ATOM     21  C   UNL A   1      39.931  28.981  29.650  1.00  0.00     0.049 A 
ATOM     22  H   UNL A   1      41.810  28.837  28.761  1.00  0.00     0.167 HD
ATOM     23  C   UNL A   1      45.838  28.164  26.981  1.00  0.00     0.034 A 
ATOM     24  C   UNL A   1      39.930  30.122  30.368  1.00  0.00     0.034 A 
ATOM     25  C   UNL A   1      45.850  29.501  27.491  1.00  0.00     0.049 A 
ATOM     26  C   UNL A   1      41.148  31.010  30.279  1.00  0.00     0.074 A 
ATOM     27  C   UNL A   1      46.843  30.454  27.406  1.00  0.00     0.029 A 
ATOM     28  N   UNL A   1      44.794  30.073  28.189  1.00  0.00    -0.354 N 
ATOM     29  N   UNL A   1      42.277  30.796  29.641  1.00  0.00    -0.248 NA
ATOM     30  C   UNL A   1      41.070  32.320  30.936  1.00  0.00     0.031 C 
ATOM     31  C   UNL A   1      46.388  31.605  28.061  1.00  0.00     0.029 A 
ATOM     32  C   UNL A   1      45.105  31.371  28.538  1.00  0.00     0.049 A 
ATOM     33  H   UNL A   1      43.948  29.618  28.405  1.00  0.00     0.167 HD
ATOM     34  C   UNL A   1      43.013  31.969  29.758  1.00  0.00     0.074 A 
ATOM     35  C   UNL A   1      42.205  32.885  30.542  1.00  0.00     0.031 C 
ATOM     36  C   UNL A   1      44.237  32.270  29.259  1.00  0.00     0.034 A 
BRANCH  23  37
ATOM     37  C   UNL A   1      47.030  27.604  26.252  1.00  0.00     0.023 A 
ATOM     38  C   UNL A   1      48.055  26.972  26.992  1.00  0.00     0.012 A 
ATOM     39  C   UNL A   1      47.193  27.787  24.868  1.00  0.00     0.148 A 
ATOM     40  C   UNL A   1      49.256  26.610  26.383  1.00  0.00     0.002 A 
ATOM     41  C   UNL A   1      48.374  27.378  24.258  1.00  0.00     0.091 A 
ATOM     42  F   UNL A   1      46.220  28.406  24.184  1.00  0.00    -0.205 F 
ATOM     43  C   UNL A   1      49.414  26.812  25.016  1.00  0.00     0.022 A 
BRANCH  41  44
ATOM     44  S   UNL A   1      48.659  27.540  22.493  1.00  0.00     0.127 S 
ATOM     45  O   UNL A   1      49.916  28.286  22.463  1.00  0.00    -0.237 OA
ATOM     46  O   UNL A   1      48.769  26.142  22.071  1.00  0.00    -0.237 OA
ATOM     47  O   UNL A   1      47.498  28.243  21.964  1.00  0.00    -0.744 OA
ENDBRANCH  41  44
ENDBRANCH  23  37
BRANCH  24  48
ATOM     48  C   UNL A   1      38.710  30.549  31.116  1.00  0.00     0.023 A 
ATOM     49  C   UNL A   1      38.610  30.267  32.492  1.00  0.00     0.012 A 
ATOM     50  C   UNL A   1      37.663  31.251  30.484  1.00  0.00     0.148 A 
ATOM     51  C   UNL A   1      37.479  30.645  33.220  1.00  0.00     0.002 A 
ATOM     52  C   UNL A   1      36.554  31.656  31.223  1.00  0.00     0.091 A 
ATOM     53  F   UNL A   1      37.776  31.513  29.175  1.00  0.00    -0.205 F 
ATOM     54  C   UNL A   1      36.454  31.343  32.588  1.00  0.00     0.022 A 
BRANCH  52  55
ATOM     55  S   UNL A   1      35.221  32.639  30.521  1.00  0.00     0.127 S 
ATOM     56  O   UNL A   1      35.925  33.867  30.145  1.00  0.00    -0.237 OA
ATOM     57  O   UNL A   1      34.800  31.806  29.391  1.00  0.00    -0.237 OA
ATOM     58  O   UNL A   1      34.233  32.776  31.573  1.00  0.00    -0.744 OA
ENDBRANCH  52  55
ENDBRANCH  24  48
BRANCH  36  59
ATOM     59  C   UNL A   1      44.756  33.663  29.476  1.00  0.00     0.023 A 
ATOM     60  C   UNL A   1      45.499  33.965  30.633  1.00  0.00     0.012 A 
ATOM     61  C   UNL A   1      44.611  34.633  28.465  1.00  0.00     0.148 A 
ATOM     62  C   UNL A   1      46.080  35.223  30.785  1.00  0.00     0.002 A 
ATOM     63  C   UNL A   1      45.237  35.864  28.600  1.00  0.00     0.091 A 
ATOM     64  F   UNL A   1      43.877  34.327  27.385  1.00  0.00    -0.205 F 
ATOM     65  C   UNL A   1      45.963  36.164  29.763  1.00  0.00     0.022 A 
BRANCH  63  66
ATOM     66  S   UNL A   1      45.238  37.082  27.280  1.00  0.00     0.127 S 
ATOM     67  O   UNL A   1      45.961  38.190  27.899  1.00  0.00    -0.237 OA
ATOM     68  O   UNL A   1      45.970  36.389  26.219  1.00  0.00    -0.237 OA
ATOM     69  O   UNL A   1      43.836  37.338  26.974  1.00  0.00    -0.744 OA
ENDBRANCH  63  66
ENDBRANCH  36  59
ENDBRANCH  10  11
ENDBRANCH   3   5
ENDBRANCH   2   3
ENDBRANCH   1   2
BRANCH   1  70
ATOM     70  C   UNL A   1      36.224  22.299  23.777  1.00  0.00     0.274 C 
BRANCH  70  71
ATOM     71  O   UNL A   1      35.370  23.309  24.334  1.00  0.00    -0.460 OA
BRANCH  71  72
ATOM     72  C   UNL A   1      34.491  23.863  23.441  1.00  0.00     0.331 C 
ATOM     73  O   UNL A   1      34.370  23.464  22.286  1.00  0.00    -0.249 OA
BRANCH  72  74
ATOM     74  C   UNL A   1      33.592  24.968  24.083  1.00  0.00     0.138 C 
ATOM     75  C   UNL A   1      34.066  25.354  25.488  1.00  0.00     0.040 C 
ATOM     76  C   UNL A   1      33.775  26.196  23.141  1.00  0.00     0.040 C 
ATOM     77  C   UNL A   1      33.473  26.651  26.033  1.00  0.00     0.003 C 
ATOM     78  C   UNL A   1      33.282  27.534  23.696  1.00  0.00     0.003 C 
ATOM     79  C   UNL A   1      33.788  27.813  25.104  1.00  0.00     0.000 C 
BRANCH  74  80
ATOM     80  N   UNL A   1      32.154  24.598  24.132  1.00  0.00    -0.336 N 
ATOM     81  C   UNL A   1      31.555  23.617  24.889  1.00  0.00     0.253 C 
ATOM     82  H   UNL A   1      31.553  25.120  23.552  1.00  0.00     0.165 HD
ATOM     83  O   UNL A   1      30.421  23.766  25.335  1.00  0.00    -0.269 OA
BRANCH  81  84
ATOM     84  C   UNL A   1      32.200  22.303  25.019  1.00  0.00     0.061 A 
ATOM     85  C   UNL A   1      32.136  21.454  23.908  1.00  0.00     0.035 A 
ATOM     86  C   UNL A   1      32.776  21.857  26.205  1.00  0.00     0.072 A 
ATOM     87  C   UNL A   1      32.719  20.205  24.002  1.00  0.00     0.112 A 
ATOM     88  C   UNL A   1      33.333  20.585  26.194  1.00  0.00     0.132 A 
ATOM     89  Cl  UNL A   1      32.855  22.801  27.637  1.00  0.00    -0.082 Cl
ATOM     90  N   UNL A   1      33.331  19.754  25.117  1.00  0.00    -0.263 NA
ENDBRANCH  81  84
ENDBRANCH  74  80
ENDBRANCH  72  74
ENDBRANCH  71  72
ENDBRANCH  70  71
ENDBRANCH   1  70
TORSDOF 16
ENDMDL
MODEL 3
REMARK VINA RESULT:     -11.4      2.280      2.694
REMARK SMILES O=C(OCCOC(=O)C1(NC(=O)c2ccncc2Cl)CCCCC1)c1ccc(-c2c3nc(c(-c4cccc(S(=O)(=O)[O-])c4F)c4ccc([nH]4)c(-c4cccc(S(=O)(=O)[O-])c4F)c4nc(c(-c5cccc(S(=O)(=O)[O-])c5F)c5ccc2[nH]5)C=C4)C=C3)cc1
REMARK SMILES IDX 4 1 3 2 2 3 1 4 25 5 26 6 87 7 27 8 86 9 28 10 29 11 30 12
REMARK SMILES IDX 80 13 31 14 85 15 79 16 81 17 32 18 84 19 78 20 77 21 33 23
REMARK SMILES IDX 65 24 45 25 64 26 46 27 49 28 63 29 82 30 47 31 48 32 62 34
REMARK SMILES IDX 83 35 50 36 34 37 35 38 43 39 36 40 38 41 44 42 37 43 39 44
REMARK SMILES IDX 40 45 41 46 42 47 66 48 67 49 75 50 68 51 70 52 76 53 69 54
REMARK SMILES IDX 71 55 72 56 73 57 74 58 51 59 52 60 60 61 53 62 55 63 61 64
REMARK SMILES IDX 54 65 56 66 57 67 58 68 59 69 5 70 6 71 7 72 8 73 9 74 20 75
REMARK SMILES IDX 24 76 21 77 23 78 22 79 10 80 11 81 12 83 13 84 14 85 18 86
REMARK SMILES IDX 15 87 17 88 19 89 16 90
REMARK H PARENT 81 22 49 33 10 82
REMARK Flexibility Score: inf
ROOT
ATOM      1  C   UNL A   1      32.222  29.650  26.993  1.00  0.00     0.275 C 
ENDROOT
BRANCH   1   2
ATOM      2  O   UNL A   1      33.633  29.871  26.843  1.00  0.00    -0.458 OA
BRANCH   2   3
ATOM      3  C   UNL A   1      34.450  30.639  27.603  1.00  0.00     0.338 C 
ATOM      4  O   UNL A   1      34.146  31.808  27.821  1.00  0.00    -0.246 OA
BRANCH   3   5
ATOM      5  C   UNL A   1      35.787  30.161  28.053  1.00  0.00     0.060 A 
ATOM      6  C   UNL A   1      36.952  30.171  27.276  1.00  0.00     0.016 A 
ATOM      7  C   UNL A   1      35.856  29.648  29.357  1.00  0.00     0.016 A 
ATOM      8  C   UNL A   1      38.179  29.776  27.816  1.00  0.00     0.010 A 
ATOM      9  C   UNL A   1      37.079  29.253  29.903  1.00  0.00     0.010 A 
ATOM     10  C   UNL A   1      38.250  29.315  29.131  1.00  0.00    -0.014 A 
BRANCH  10  11
ATOM     11  C   UNL A   1      39.490  28.680  29.629  1.00  0.00     0.031 A 
ATOM     12  C   UNL A   1      40.135  29.306  30.832  1.00  0.00     0.074 A 
ATOM     13  C   UNL A   1      40.034  27.609  29.020  1.00  0.00     0.049 A 
ATOM     14  N   UNL A   1      41.229  28.969  31.457  1.00  0.00    -0.248 NA
ATOM     15  C   UNL A   1      39.459  30.490  31.394  1.00  0.00     0.031 C 
ATOM     16  C   UNL A   1      39.495  26.938  27.836  1.00  0.00     0.029 A 
ATOM     17  N   UNL A   1      41.183  26.915  29.296  1.00  0.00    -0.354 N 
ATOM     18  C   UNL A   1      41.375  29.908  32.470  1.00  0.00     0.074 A 
ATOM     19  C   UNL A   1      40.320  30.881  32.315  1.00  0.00     0.031 C 
ATOM     20  C   UNL A   1      40.347  25.969  27.451  1.00  0.00     0.029 A 
ATOM     21  C   UNL A   1      41.473  25.930  28.378  1.00  0.00     0.049 A 
ATOM     22  H   UNL A   1      41.750  27.104  30.078  1.00  0.00     0.167 HD
ATOM     23  C   UNL A   1      42.261  29.919  33.491  1.00  0.00     0.034 A 
ATOM     24  C   UNL A   1      42.524  25.089  28.315  1.00  0.00     0.034 A 
ATOM     25  C   UNL A   1      43.265  28.913  33.656  1.00  0.00     0.049 A 
ATOM     26  C   UNL A   1      43.516  25.116  29.452  1.00  0.00     0.074 A 
ATOM     27  C   UNL A   1      44.175  28.752  34.681  1.00  0.00     0.029 A 
ATOM     28  N   UNL A   1      43.484  27.882  32.751  1.00  0.00    -0.354 N 
ATOM     29  N   UNL A   1      43.548  25.913  30.496  1.00  0.00    -0.248 NA
ATOM     30  C   UNL A   1      44.565  24.089  29.449  1.00  0.00     0.031 C 
ATOM     31  C   UNL A   1      44.950  27.623  34.391  1.00  0.00     0.029 A 
ATOM     32  C   UNL A   1      44.510  27.073  33.194  1.00  0.00     0.049 A 
ATOM     33  H   UNL A   1      42.980  27.749  31.916  1.00  0.00     0.167 HD
ATOM     34  C   UNL A   1      44.572  25.439  31.309  1.00  0.00     0.074 A 
ATOM     35  C   UNL A   1      45.144  24.294  30.626  1.00  0.00     0.031 C 
ATOM     36  C   UNL A   1      44.998  25.899  32.512  1.00  0.00     0.034 A 
BRANCH  23  37
ATOM     37  C   UNL A   1      42.097  31.020  34.505  1.00  0.00     0.023 A 
ATOM     38  C   UNL A   1      41.208  30.833  35.588  1.00  0.00     0.012 A 
ATOM     39  C   UNL A   1      42.729  32.265  34.341  1.00  0.00     0.148 A 
ATOM     40  C   UNL A   1      40.886  31.890  36.439  1.00  0.00     0.002 A 
ATOM     41  C   UNL A   1      42.440  33.301  35.224  1.00  0.00     0.091 A 
ATOM     42  F   UNL A   1      43.553  32.434  33.298  1.00  0.00    -0.205 F 
ATOM     43  C   UNL A   1      41.504  33.123  36.256  1.00  0.00     0.022 A 
BRANCH  41  44
ATOM     44  S   UNL A   1      43.222  34.913  35.113  1.00  0.00     0.127 S 
ATOM     45  O   UNL A   1      42.630  35.609  36.255  1.00  0.00    -0.237 OA
ATOM     46  O   UNL A   1      44.638  34.578  35.272  1.00  0.00    -0.237 OA
ATOM     47  O   UNL A   1      42.868  35.440  33.803  1.00  0.00    -0.744 OA
ENDBRANCH  41  44
ENDBRANCH  23  37
BRANCH  24  48
ATOM     48  C   UNL A   1      42.624  24.078  27.220  1.00  0.00     0.023 A 
ATOM     49  C   UNL A   1      43.319  24.404  26.040  1.00  0.00     0.012 A 
ATOM     50  C   UNL A   1      42.059  22.792  27.347  1.00  0.00     0.148 A 
ATOM     51  C   UNL A   1      43.425  23.485  24.993  1.00  0.00     0.002 A 
ATOM     52  C   UNL A   1      42.197  21.868  26.314  1.00  0.00     0.091 A 
ATOM     53  F   UNL A   1      41.403  22.497  28.478  1.00  0.00    -0.205 F 
ATOM     54  C   UNL A   1      42.868  22.216  25.132  1.00  0.00     0.022 A 
BRANCH  52  55
ATOM     55  S   UNL A   1      41.594  20.177  26.433  1.00  0.00     0.127 S 
ATOM     56  O   UNL A   1      42.218  19.557  25.261  1.00  0.00    -0.237 OA
ATOM     57  O   UNL A   1      42.152  19.752  27.719  1.00  0.00    -0.237 OA
ATOM     58  O   UNL A   1      40.147  20.269  26.401  1.00  0.00    -0.744 OA
ENDBRANCH  52  55
ENDBRANCH  24  48
BRANCH  36  59
ATOM     59  C   UNL A   1      46.084  25.129  33.208  1.00  0.00     0.023 A 
ATOM     60  C   UNL A   1      47.425  25.537  33.086  1.00  0.00     0.012 A 
ATOM     61  C   UNL A   1      45.749  24.080  34.086  1.00  0.00     0.148 A 
ATOM     62  C   UNL A   1      48.423  24.899  33.820  1.00  0.00     0.002 A 
ATOM     63  C   UNL A   1      46.741  23.484  34.853  1.00  0.00     0.091 A 
ATOM     64  F   UNL A   1      44.467  23.694  34.164  1.00  0.00    -0.205 F 
ATOM     65  C   UNL A   1      48.079  23.886  34.715  1.00  0.00     0.022 A 
BRANCH  63  66
ATOM     66  S   UNL A   1      46.365  22.261  36.113  1.00  0.00     0.127 S 
ATOM     67  O   UNL A   1      45.816  21.169  35.313  1.00  0.00    -0.237 OA
ATOM     68  O   UNL A   1      47.683  21.994  36.690  1.00  0.00    -0.237 OA
ATOM     69  O   UNL A   1      45.429  22.904  37.026  1.00  0.00    -0.744 OA
ENDBRANCH  63  66
ENDBRANCH  36  59
ENDBRANCH  10  11
ENDBRANCH   3   5
ENDBRANCH   2   3
ENDBRANCH   1   2
BRANCH   1  70
ATOM     70  C   UNL A   1      31.792  28.211  27.292  1.00  0.00     0.274 C 
BRANCH  70  71
ATOM     71  O   UNL A   1      32.536  27.221  26.567  1.00  0.00    -0.460 OA
BRANCH  71  72
ATOM     72  C   UNL A   1      31.911  26.007  26.462  1.00  0.00     0.331 C 
ATOM     73  O   UNL A   1      30.748  25.820  26.811  1.00  0.00    -0.249 OA
BRANCH  72  74
ATOM     74  C   UNL A   1      32.795  24.929  25.756  1.00  0.00     0.138 C 
ATOM     75  C   UNL A   1      34.245  25.395  25.584  1.00  0.00     0.040 C 
ATOM     76  C   UNL A   1      32.773  23.720  26.738  1.00  0.00     0.040 C 
ATOM     77  C   UNL A   1      35.238  24.289  25.233  1.00  0.00     0.003 C 
ATOM     78  C   UNL A   1      33.823  22.638  26.477  1.00  0.00     0.003 C 
ATOM     79  C   UNL A   1      35.224  23.203  26.297  1.00  0.00     0.000 C 
BRANCH  74  80
ATOM     80  N   UNL A   1      32.256  24.501  24.439  1.00  0.00    -0.336 N 
ATOM     81  C   UNL A   1      32.232  25.210  23.260  1.00  0.00     0.253 C 
ATOM     82  H   UNL A   1      31.867  23.596  24.405  1.00  0.00     0.165 HD
ATOM     83  O   UNL A   1      32.359  24.643  22.179  1.00  0.00    -0.269 OA
BRANCH  81  84
ATOM     84  C   UNL A   1      31.871  26.635  23.274  1.00  0.00     0.061 A 
ATOM     85  C   UNL A   1      32.915  27.553  23.115  1.00  0.00     0.035 A 
ATOM     86  C   UNL A   1      30.578  27.084  23.520  1.00  0.00     0.072 A 
ATOM     87  C   UNL A   1      32.612  28.901  23.138  1.00  0.00     0.112 A 
ATOM     88  C   UNL A   1      30.380  28.458  23.524  1.00  0.00     0.132 A 
ATOM     89  Cl  UNL A   1      29.241  26.038  23.782  1.00  0.00    -0.082 Cl
ATOM     90  N   UNL A   1      31.363  29.378  23.325  1.00  0.00    -0.263 NA
ENDBRANCH  81  84
ENDBRANCH  74  80
ENDBRANCH  72  74
ENDBRANCH  71  72
ENDBRANCH  70  71
ENDBRANCH   1  70
TORSDOF 16
ENDMDL
