MODEL 1
REMARK VINA RESULT:     -11.2      0.000      0.000
REMARK SMILES O=C(OCCOC(=O)[C@H]1CCCN(C(=O)C2CC[NH+](Cc3ccco3)CC2)C1)c1ccc(-c2c3nc(c(-c4cccc(S(=O)(=O)[O-])c4F)c4ccc([nH]4)c(-c4cccc(S(=O)(=O)[O-])c4F)c4nc(c(-c5cccc(S(=O)(=O)[O-])c5F)c5ccc2[nH]5)C=C4)C=C3)cc1
REMARK SMILES IDX 5 1 4 2 3 3 2 4 1 5 29 6 30 7 91 8 31 9 90 10 32 11 33 12
REMARK SMILES IDX 34 13 84 14 35 15 89 16 83 17 85 18 36 19 88 20 82 21 81 22
REMARK SMILES IDX 37 24 69 25 49 26 68 27 50 28 53 29 67 30 86 31 51 32 52 33
REMARK SMILES IDX 66 35 87 36 54 37 38 38 39 39 47 40 40 41 42 42 48 43 41 44
REMARK SMILES IDX 43 45 44 46 45 47 46 48 70 49 71 50 79 51 72 52 74 53 80 54
REMARK SMILES IDX 73 55 75 56 76 57 77 58 78 59 55 60 56 61 64 62 57 63 59 64
REMARK SMILES IDX 65 65 58 66 60 67 61 68 62 69 63 70 6 71 7 72 8 73 9 74
REMARK SMILES IDX 10 75 28 76 11 77 13 78 12 79 14 80 15 81 16 82 17 83 27 84
REMARK SMILES IDX 18 85 26 86 19 87 20 89 21 90 22 91 25 92 23 93 24 94
REMARK H PARENT 85 23 53 34 19 88
REMARK Flexibility Score: inf
ROOT
ATOM      1  C   UNL A   1      32.892  30.887  27.192  1.00  0.00     0.274 C 
ENDROOT
BRANCH   1   2
ATOM      2  C   UNL A   1      32.112  32.207  27.229  1.00  0.00     0.275 C 
BRANCH   2   3
ATOM      3  O   UNL A   1      32.965  33.358  27.340  1.00  0.00    -0.458 OA
BRANCH   3   4
ATOM      4  C   UNL A   1      33.255  33.965  28.521  1.00  0.00     0.338 C 
ATOM      5  O   UNL A   1      32.535  34.860  28.952  1.00  0.00    -0.246 OA
BRANCH   4   6
ATOM      6  C   UNL A   1      34.599  33.765  29.133  1.00  0.00     0.060 A 
ATOM      7  C   UNL A   1      35.812  34.173  28.563  1.00  0.00     0.016 A 
ATOM      8  C   UNL A   1      34.637  32.989  30.295  1.00  0.00     0.016 A 
ATOM      9  C   UNL A   1      37.046  33.846  29.170  1.00  0.00     0.010 A 
ATOM     10  C   UNL A   1      35.851  32.709  30.923  1.00  0.00     0.010 A 
ATOM     11  C   UNL A   1      37.080  33.103  30.354  1.00  0.00    -0.014 A 
BRANCH  11  12
ATOM     12  C   UNL A   1      38.312  32.506  30.954  1.00  0.00     0.031 A 
ATOM     13  C   UNL A   1      38.681  31.124  30.497  1.00  0.00     0.074 A 
ATOM     14  C   UNL A   1      39.014  33.053  31.970  1.00  0.00     0.049 A 
ATOM     15  N   UNL A   1      39.530  30.288  31.024  1.00  0.00    -0.248 NA
ATOM     16  C   UNL A   1      38.023  30.629  29.272  1.00  0.00     0.031 C 
ATOM     17  C   UNL A   1      38.921  34.421  32.449  1.00  0.00     0.029 A 
ATOM     18  N   UNL A   1      39.847  32.451  32.898  1.00  0.00    -0.354 N 
ATOM     19  C   UNL A   1      39.596  29.232  30.132  1.00  0.00     0.074 A 
ATOM     20  C   UNL A   1      38.551  29.423  29.154  1.00  0.00     0.031 C 
ATOM     21  C   UNL A   1      39.442  34.491  33.691  1.00  0.00     0.029 A 
ATOM     22  C   UNL A   1      39.930  33.177  34.076  1.00  0.00     0.049 A 
ATOM     23  H   UNL A   1      40.325  31.605  32.739  1.00  0.00     0.167 HD
ATOM     24  C   UNL A   1      40.563  28.291  30.041  1.00  0.00     0.034 A 
ATOM     25  C   UNL A   1      40.263  32.777  35.325  1.00  0.00     0.034 A 
ATOM     26  C   UNL A   1      41.602  28.148  31.014  1.00  0.00     0.049 A 
ATOM     27  C   UNL A   1      40.988  31.468  35.446  1.00  0.00     0.074 A 
ATOM     28  C   UNL A   1      42.756  27.392  30.967  1.00  0.00     0.029 A 
ATOM     29  N   UNL A   1      41.579  28.776  32.249  1.00  0.00    -0.354 N 
ATOM     30  N   UNL A   1      41.193  30.568  34.518  1.00  0.00    -0.248 NA
ATOM     31  C   UNL A   1      41.680  31.203  36.716  1.00  0.00     0.031 C 
ATOM     32  C   UNL A   1      43.419  27.545  32.194  1.00  0.00     0.029 A 
ATOM     33  C   UNL A   1      42.681  28.408  32.991  1.00  0.00     0.049 A 
ATOM     34  H   UNL A   1      40.876  29.395  32.553  1.00  0.00     0.167 HD
ATOM     35  C   UNL A   1      42.198  29.754  35.017  1.00  0.00     0.074 A 
ATOM     36  C   UNL A   1      42.433  30.160  36.388  1.00  0.00     0.031 C 
ATOM     37  C   UNL A   1      42.940  28.847  34.338  1.00  0.00     0.034 A 
BRANCH  24  38
ATOM     38  C   UNL A   1      40.588  27.511  28.760  1.00  0.00     0.023 A 
ATOM     39  C   UNL A   1      39.666  26.448  28.611  1.00  0.00     0.012 A 
ATOM     40  C   UNL A   1      41.551  27.737  27.768  1.00  0.00     0.148 A 
ATOM     41  C   UNL A   1      39.757  25.571  27.534  1.00  0.00     0.002 A 
ATOM     42  C   UNL A   1      41.614  26.878  26.676  1.00  0.00     0.091 A 
ATOM     43  F   UNL A   1      42.424  28.741  27.938  1.00  0.00    -0.205 F 
ATOM     44  C   UNL A   1      40.733  25.786  26.568  1.00  0.00     0.022 A 
BRANCH  42  45
ATOM     45  S   UNL A   1      42.815  27.077  25.359  1.00  0.00     0.127 S 
ATOM     46  O   UNL A   1      42.675  25.811  24.641  1.00  0.00    -0.237 OA
ATOM     47  O   UNL A   1      42.296  28.244  24.645  1.00  0.00    -0.237 OA
ATOM     48  O   UNL A   1      44.097  27.287  26.016  1.00  0.00    -0.744 OA
ENDBRANCH  42  45
ENDBRANCH  24  38
BRANCH  25  49
ATOM     49  C   UNL A   1      40.003  33.595  36.551  1.00  0.00     0.023 A 
ATOM     50  C   UNL A   1      38.758  33.553  37.201  1.00  0.00     0.012 A 
ATOM     51  C   UNL A   1      40.994  34.474  37.050  1.00  0.00     0.148 A 
ATOM     52  C   UNL A   1      38.514  34.337  38.334  1.00  0.00     0.002 A 
ATOM     53  C   UNL A   1      40.751  35.245  38.186  1.00  0.00     0.091 A 
ATOM     54  F   UNL A   1      42.163  34.537  36.395  1.00  0.00    -0.205 F 
ATOM     55  C   UNL A   1      39.508  35.176  38.830  1.00  0.00     0.022 A 
BRANCH  53  56
ATOM     56  S   UNL A   1      41.976  36.342  38.921  1.00  0.00     0.127 S 
ATOM     57  O   UNL A   1      43.049  35.417  39.279  1.00  0.00    -0.237 OA
ATOM     58  O   UNL A   1      42.275  37.229  37.800  1.00  0.00    -0.237 OA
ATOM     59  O   UNL A   1      41.307  36.972  40.054  1.00  0.00    -0.744 OA
ENDBRANCH  53  56
ENDBRANCH  25  49
BRANCH  37  60
ATOM     60  C   UNL A   1      44.196  28.358  34.986  1.00  0.00     0.023 A 
ATOM     61  C   UNL A   1      45.381  29.110  34.937  1.00  0.00     0.012 A 
ATOM     62  C   UNL A   1      44.141  27.179  35.758  1.00  0.00     0.148 A 
ATOM     63  C   UNL A   1      46.497  28.695  35.660  1.00  0.00     0.002 A 
ATOM     64  C   UNL A   1      45.234  26.806  36.521  1.00  0.00     0.091 A 
ATOM     65  F   UNL A   1      43.007  26.462  35.748  1.00  0.00    -0.205 F 
ATOM     66  C   UNL A   1      46.418  27.559  36.467  1.00  0.00     0.022 A 
BRANCH  64  67
ATOM     67  S   UNL A   1      45.170  25.439  37.683  1.00  0.00     0.127 S 
ATOM     68  O   UNL A   1      44.121  25.877  38.604  1.00  0.00    -0.237 OA
ATOM     69  O   UNL A   1      44.795  24.321  36.818  1.00  0.00    -0.237 OA
ATOM     70  O   UNL A   1      46.501  25.336  38.264  1.00  0.00    -0.744 OA
ENDBRANCH  64  67
ENDBRANCH  37  60
ENDBRANCH  11  12
ENDBRANCH   4   6
ENDBRANCH   3   4
ENDBRANCH   2   3
ENDBRANCH   1   2
BRANCH   1  71
ATOM     71  O   UNL A   1      32.614  30.184  25.976  1.00  0.00    -0.462 OA
BRANCH  71  72
ATOM     72  C   UNL A   1      33.182  28.954  25.815  1.00  0.00     0.310 C 
ATOM     73  O   UNL A   1      34.275  28.639  26.271  1.00  0.00    -0.252 OA
BRANCH  72  74
ATOM     74  C   UNL A   1      32.250  27.989  25.087  1.00  0.00     0.119 C 
ATOM     75  C   UNL A   1      31.416  28.744  24.058  1.00  0.00     0.019 C 
ATOM     76  C   UNL A   1      32.998  26.796  24.478  1.00  0.00     0.134 C 
ATOM     77  C   UNL A   1      30.527  27.807  23.287  1.00  0.00     0.022 C 
ATOM     78  N   UNL A   1      32.253  26.031  23.444  1.00  0.00    -0.342 N 
ATOM     79  C   UNL A   1      31.402  26.810  22.563  1.00  0.00     0.119 C 
BRANCH  78  80
ATOM     80  C   UNL A   1      32.700  24.735  23.179  1.00  0.00     0.226 C 
ATOM     81  O   UNL A   1      33.916  24.571  22.966  1.00  0.00    -0.275 OA
BRANCH  80  82
ATOM     82  C   UNL A   1      31.810  23.440  23.109  1.00  0.00     0.090 C 
ATOM     83  C   UNL A   1      30.939  23.399  24.384  1.00  0.00     0.075 C 
ATOM     84  C   UNL A   1      32.323  21.995  22.946  1.00  0.00     0.075 C 
ATOM     85  C   UNL A   1      31.793  23.031  25.597  1.00  0.00     0.263 C 
ATOM     86  C   UNL A   1      32.955  21.429  24.235  1.00  0.00     0.263 C 
ATOM     87  N   UNL A   1      33.105  22.525  25.183  1.00  0.00    -0.329 N 
ATOM     88  H   UNL A   1      33.588  23.270  24.680  1.00  0.00     0.348 HD
BRANCH  87  89
ATOM     89  C   UNL A   1      34.005  22.261  26.295  1.00  0.00     0.338 C 
BRANCH  89  90
ATOM     90  C   UNL A   1      35.409  22.656  25.931  1.00  0.00     0.157 A 
ATOM     91  C   UNL A   1      36.026  23.872  25.693  1.00  0.00     0.052 A 
ATOM     92  O   UNL A   1      36.339  21.657  25.843  1.00  0.00    -0.463 OA
ATOM     93  C   UNL A   1      37.398  23.605  25.487  1.00  0.00     0.042 A 
ATOM     94  C   UNL A   1      37.539  22.245  25.605  1.00  0.00     0.195 A 
ENDBRANCH  89  90
ENDBRANCH  87  89
ENDBRANCH  80  82
ENDBRANCH  78  80
ENDBRANCH  72  74
ENDBRANCH  71  72
ENDBRANCH   1  71
TORSDOF 18
ENDMDL
MODEL 2
REMARK VINA RESULT:     -11.2      5.318      9.275
REMARK SMILES O=C(OCCOC(=O)[C@H]1CCCN(C(=O)C2CC[NH+](Cc3ccco3)CC2)C1)c1ccc(-c2c3nc(c(-c4cccc(S(=O)(=O)[O-])c4F)c4ccc([nH]4)c(-c4cccc(S(=O)(=O)[O-])c4F)c4nc(c(-c5cccc(S(=O)(=O)[O-])c5F)c5ccc2[nH]5)C=C4)C=C3)cc1
REMARK SMILES IDX 5 1 4 2 3 3 2 4 1 5 29 6 30 7 91 8 31 9 90 10 32 11 33 12
REMARK SMILES IDX 34 13 84 14 35 15 89 16 83 17 85 18 36 19 88 20 82 21 81 22
REMARK SMILES IDX 37 24 69 25 49 26 68 27 50 28 53 29 67 30 86 31 51 32 52 33
REMARK SMILES IDX 66 35 87 36 54 37 38 38 39 39 47 40 40 41 42 42 48 43 41 44
REMARK SMILES IDX 43 45 44 46 45 47 46 48 70 49 71 50 79 51 72 52 74 53 80 54
REMARK SMILES IDX 73 55 75 56 76 57 77 58 78 59 55 60 56 61 64 62 57 63 59 64
REMARK SMILES IDX 65 65 58 66 60 67 61 68 62 69 63 70 6 71 7 72 8 73 9 74
REMARK SMILES IDX 10 75 28 76 11 77 13 78 12 79 14 80 15 81 16 82 17 83 27 84
REMARK SMILES IDX 18 85 26 86 19 87 20 89 21 90 22 91 25 92 23 93 24 94
REMARK H PARENT 85 23 53 34 19 88
REMARK Flexibility Score: inf
ROOT
ATOM      1  C   UNL A   1      38.062  21.782  25.377  1.00  0.00     0.274 C 
ENDROOT
BRANCH   1   2
ATOM      2  C   UNL A   1      38.675  20.381  25.255  1.00  0.00     0.275 C 
BRANCH   2   3
ATOM      3  O   UNL A   1      39.471  20.017  26.394  1.00  0.00    -0.458 OA
BRANCH   3   4
ATOM      4  C   UNL A   1      40.815  20.203  26.461  1.00  0.00     0.338 C 
ATOM      5  O   UNL A   1      41.574  19.240  26.509  1.00  0.00    -0.246 OA
BRANCH   4   6
ATOM      6  C   UNL A   1      41.350  21.557  26.785  1.00  0.00     0.060 A 
ATOM      7  C   UNL A   1      41.254  22.182  28.035  1.00  0.00     0.016 A 
ATOM      8  C   UNL A   1      41.857  22.292  25.710  1.00  0.00     0.016 A 
ATOM      9  C   UNL A   1      41.698  23.510  28.219  1.00  0.00     0.010 A 
ATOM     10  C   UNL A   1      42.344  23.585  25.901  1.00  0.00     0.010 A 
ATOM     11  C   UNL A   1      42.243  24.231  27.151  1.00  0.00    -0.014 A 
BRANCH  11  12
ATOM     12  C   UNL A   1      42.528  25.698  27.166  1.00  0.00     0.031 A 
ATOM     13  C   UNL A   1      43.971  26.104  27.085  1.00  0.00     0.074 A 
ATOM     14  C   UNL A   1      41.606  26.657  27.400  1.00  0.00     0.049 A 
ATOM     15  N   UNL A   1      44.509  27.266  27.327  1.00  0.00    -0.248 NA
ATOM     16  C   UNL A   1      44.930  25.070  26.647  1.00  0.00     0.031 C 
ATOM     17  C   UNL A   1      40.162  26.499  27.358  1.00  0.00     0.029 A 
ATOM     18  N   UNL A   1      41.767  27.944  27.884  1.00  0.00    -0.354 N 
ATOM     19  C   UNL A   1      45.836  27.132  26.956  1.00  0.00     0.074 A 
ATOM     20  C   UNL A   1      46.073  25.734  26.684  1.00  0.00     0.031 C 
ATOM     21  C   UNL A   1      39.587  27.520  28.024  1.00  0.00     0.029 A 
ATOM     22  C   UNL A   1      40.624  28.416  28.510  1.00  0.00     0.049 A 
ATOM     23  H   UNL A   1      42.599  28.464  27.794  1.00  0.00     0.167 HD
ATOM     24  C   UNL A   1      46.720  28.121  26.691  1.00  0.00     0.034 A 
ATOM     25  C   UNL A   1      40.477  29.387  29.441  1.00  0.00     0.034 A 
ATOM     26  C   UNL A   1      46.441  29.501  26.946  1.00  0.00     0.049 A 
ATOM     27  C   UNL A   1      41.614  30.355  29.594  1.00  0.00     0.074 A 
ATOM     28  C   UNL A   1      47.135  30.628  26.555  1.00  0.00     0.029 A 
ATOM     29  N   UNL A   1      45.365  29.932  27.707  1.00  0.00    -0.354 N 
ATOM     30  N   UNL A   1      42.810  30.288  29.069  1.00  0.00    -0.248 NA
ATOM     31  C   UNL A   1      41.330  31.611  30.305  1.00  0.00     0.031 C 
ATOM     32  C   UNL A   1      46.487  31.743  27.107  1.00  0.00     0.029 A 
ATOM     33  C   UNL A   1      45.385  31.305  27.825  1.00  0.00     0.049 A 
ATOM     34  H   UNL A   1      44.685  29.342  28.106  1.00  0.00     0.167 HD
ATOM     35  C   UNL A   1      43.338  31.562  29.200  1.00  0.00     0.074 A 
ATOM     36  C   UNL A   1      42.406  32.327  30.004  1.00  0.00     0.031 C 
ATOM     37  C   UNL A   1      44.432  32.071  28.586  1.00  0.00     0.034 A 
BRANCH  24  38
ATOM     38  C   UNL A   1      47.953  27.704  25.947  1.00  0.00     0.023 A 
ATOM     39  C   UNL A   1      49.138  27.489  26.690  1.00  0.00     0.012 A 
ATOM     40  C   UNL A   1      47.988  27.625  24.548  1.00  0.00     0.148 A 
ATOM     41  C   UNL A   1      50.355  27.283  26.047  1.00  0.00     0.002 A 
ATOM     42  C   UNL A   1      49.201  27.383  23.913  1.00  0.00     0.091 A 
ATOM     43  F   UNL A   1      46.856  27.848  23.864  1.00  0.00    -0.205 F 
ATOM     44  C   UNL A   1      50.386  27.233  24.658  1.00  0.00     0.022 A 
BRANCH  42  45
ATOM     45  S   UNL A   1      49.353  27.273  22.129  1.00  0.00     0.127 S 
ATOM     46  O   UNL A   1      48.793  28.556  21.708  1.00  0.00    -0.237 OA
ATOM     47  O   UNL A   1      50.800  27.151  21.952  1.00  0.00    -0.237 OA
ATOM     48  O   UNL A   1      48.592  26.096  21.736  1.00  0.00    -0.744 OA
ENDBRANCH  42  45
ENDBRANCH  24  38
BRANCH  25  49
ATOM     49  C   UNL A   1      39.234  29.569  30.255  1.00  0.00     0.023 A 
ATOM     50  C   UNL A   1      38.985  28.775  31.387  1.00  0.00     0.012 A 
ATOM     51  C   UNL A   1      38.255  30.513  29.866  1.00  0.00     0.148 A 
ATOM     52  C   UNL A   1      37.812  28.936  32.131  1.00  0.00     0.002 A 
ATOM     53  C   UNL A   1      37.091  30.678  30.617  1.00  0.00     0.091 A 
ATOM     54  F   UNL A   1      38.484  31.235  28.759  1.00  0.00    -0.205 F 
ATOM     55  C   UNL A   1      36.869  29.888  31.752  1.00  0.00     0.022 A 
BRANCH  53  56
ATOM     56  S   UNL A   1      35.822  31.897  30.226  1.00  0.00     0.127 S 
ATOM     57  O   UNL A   1      35.180  31.313  29.051  1.00  0.00    -0.237 OA
ATOM     58  O   UNL A   1      35.017  31.873  31.445  1.00  0.00    -0.237 OA
ATOM     59  O   UNL A   1      36.541  33.142  29.977  1.00  0.00    -0.744 OA
ENDBRANCH  53  56
ENDBRANCH  25  49
BRANCH  37  60
ATOM     60  C   UNL A   1      44.599  33.557  28.591  1.00  0.00     0.023 A 
ATOM     61  C   UNL A   1      43.948  34.365  27.645  1.00  0.00     0.012 A 
ATOM     62  C   UNL A   1      45.328  34.150  29.642  1.00  0.00     0.148 A 
ATOM     63  C   UNL A   1      44.015  35.753  27.754  1.00  0.00     0.002 A 
ATOM     64  C   UNL A   1      45.339  35.528  29.778  1.00  0.00     0.091 A 
ATOM     65  F   UNL A   1      45.974  33.349  30.503  1.00  0.00    -0.205 F 
ATOM     66  C   UNL A   1      44.689  36.333  28.829  1.00  0.00     0.022 A 
BRANCH  64  67
ATOM     67  S   UNL A   1      46.069  36.344  31.201  1.00  0.00     0.127 S 
ATOM     68  O   UNL A   1      45.794  37.752  30.913  1.00  0.00    -0.237 OA
ATOM     69  O   UNL A   1      45.291  35.783  32.306  1.00  0.00    -0.237 OA
ATOM     70  O   UNL A   1      47.478  35.976  31.205  1.00  0.00    -0.744 OA
ENDBRANCH  64  67
ENDBRANCH  37  60
ENDBRANCH  11  12
ENDBRANCH   4   6
ENDBRANCH   3   4
ENDBRANCH   2   3
ENDBRANCH   1   2
BRANCH   1  71
ATOM     71  O   UNL A   1      37.000  21.939  24.430  1.00  0.00    -0.462 OA
BRANCH  71  72
ATOM     72  C   UNL A   1      35.722  21.859  24.898  1.00  0.00     0.310 C 
ATOM     73  O   UNL A   1      35.430  21.516  26.038  1.00  0.00    -0.252 OA
BRANCH  72  74
ATOM     74  C   UNL A   1      34.707  22.344  23.866  1.00  0.00     0.119 C 
ATOM     75  C   UNL A   1      33.338  21.742  24.156  1.00  0.00     0.019 C 
ATOM     76  C   UNL A   1      34.667  23.874  23.755  1.00  0.00     0.134 C 
ATOM     77  C   UNL A   1      32.306  22.248  23.184  1.00  0.00     0.022 C 
ATOM     78  N   UNL A   1      33.469  24.438  23.081  1.00  0.00    -0.342 N 
ATOM     79  C   UNL A   1      32.215  23.749  23.328  1.00  0.00     0.119 C 
BRANCH  78  80
ATOM     80  C   UNL A   1      33.580  25.740  22.590  1.00  0.00     0.226 C 
ATOM     81  O   UNL A   1      33.507  25.905  21.357  1.00  0.00    -0.275 OA
BRANCH  80  82
ATOM     82  C   UNL A   1      33.802  27.042  23.444  1.00  0.00     0.090 C 
ATOM     83  C   UNL A   1      32.903  26.942  24.696  1.00  0.00     0.075 C 
ATOM     84  C   UNL A   1      33.619  28.492  22.952  1.00  0.00     0.075 C 
ATOM     85  C   UNL A   1      31.440  27.159  24.314  1.00  0.00     0.263 C 
ATOM     86  C   UNL A   1      32.137  28.900  22.812  1.00  0.00     0.263 C 
ATOM     87  N   UNL A   1      31.324  27.700  22.956  1.00  0.00    -0.329 N 
ATOM     88  H   UNL A   1      31.712  27.014  22.309  1.00  0.00     0.348 HD
BRANCH  87  89
ATOM     89  C   UNL A   1      29.950  27.826  22.496  1.00  0.00     0.338 C 
BRANCH  89  90
ATOM     90  C   UNL A   1      29.515  29.265  22.551  1.00  0.00     0.157 A 
ATOM     91  C   UNL A   1      29.320  30.163  23.585  1.00  0.00     0.052 A 
ATOM     92  O   UNL A   1      29.293  29.899  21.359  1.00  0.00    -0.463 OA
ATOM     93  C   UNL A   1      29.000  31.407  22.997  1.00  0.00     0.042 A 
ATOM     94  C   UNL A   1      29.013  31.196  21.640  1.00  0.00     0.195 A 
ENDBRANCH  89  90
ENDBRANCH  87  89
ENDBRANCH  80  82
ENDBRANCH  78  80
ENDBRANCH  72  74
ENDBRANCH  71  72
ENDBRANCH   1  71
TORSDOF 18
ENDMDL
MODEL 3
REMARK VINA RESULT:     -11.2      1.816      2.485
REMARK SMILES O=C(OCCOC(=O)[C@H]1CCCN(C(=O)C2CC[NH+](Cc3ccco3)CC2)C1)c1ccc(-c2c3nc(c(-c4cccc(S(=O)(=O)[O-])c4F)c4ccc([nH]4)c(-c4cccc(S(=O)(=O)[O-])c4F)c4nc(c(-c5cccc(S(=O)(=O)[O-])c5F)c5ccc2[nH]5)C=C4)C=C3)cc1
REMARK SMILES IDX 5 1 4 2 3 3 2 4 1 5 29 6 30 7 91 8 31 9 90 10 32 11 33 12
REMARK SMILES IDX 34 13 84 14 35 15 89 16 83 17 85 18 36 19 88 20 82 21 81 22
REMARK SMILES IDX 37 24 69 25 49 26 68 27 50 28 53 29 67 30 86 31 51 32 52 33
REMARK SMILES IDX 66 35 87 36 54 37 38 38 39 39 47 40 40 41 42 42 48 43 41 44
REMARK SMILES IDX 43 45 44 46 45 47 46 48 70 49 71 50 79 51 72 52 74 53 80 54
REMARK SMILES IDX 73 55 75 56 76 57 77 58 78 59 55 60 56 61 64 62 57 63 59 64
REMARK SMILES IDX 65 65 58 66 60 67 61 68 62 69 63 70 6 71 7 72 8 73 9 74
REMARK SMILES IDX 10 75 28 76 11 77 13 78 12 79 14 80 15 81 16 82 17 83 27 84
REMARK SMILES IDX 18 85 26 86 19 87 20 89 21 90 22 91 25 92 23 93 24 94
REMARK H PARENT 85 23 53 34 19 88
REMARK Flexibility Score: inf
ROOT
ATOM      1  C   UNL A   1      32.272  30.717  26.425  1.00  0.00     0.274 C 
ENDROOT
BRANCH   1   2
ATOM      2  C   UNL A   1      33.114  31.530  27.416  1.00  0.00     0.275 C 
BRANCH   2   3
ATOM      3  O   UNL A   1      32.742  32.917  27.462  1.00  0.00    -0.458 OA
BRANCH   3   4
ATOM      4  C   UNL A   1      33.153  33.772  28.435  1.00  0.00     0.338 C 
ATOM      5  O   UNL A   1      32.545  34.817  28.640  1.00  0.00    -0.246 OA
BRANCH   4   6
ATOM      6  C   UNL A   1      34.506  33.597  29.037  1.00  0.00     0.060 A 
ATOM      7  C   UNL A   1      35.713  33.960  28.425  1.00  0.00     0.016 A 
ATOM      8  C   UNL A   1      34.556  32.889  30.241  1.00  0.00     0.016 A 
ATOM      9  C   UNL A   1      36.953  33.658  29.031  1.00  0.00     0.010 A 
ATOM     10  C   UNL A   1      35.778  32.635  30.865  1.00  0.00     0.010 A 
ATOM     11  C   UNL A   1      37.000  32.985  30.256  1.00  0.00    -0.014 A 
BRANCH  11  12
ATOM     12  C   UNL A   1      38.237  32.414  30.869  1.00  0.00     0.031 A 
ATOM     13  C   UNL A   1      38.641  31.040  30.417  1.00  0.00     0.074 A 
ATOM     14  C   UNL A   1      38.916  32.974  31.895  1.00  0.00     0.049 A 
ATOM     15  N   UNL A   1      39.501  30.222  30.954  1.00  0.00    -0.248 NA
ATOM     16  C   UNL A   1      38.008  30.533  29.183  1.00  0.00     0.031 C 
ATOM     17  C   UNL A   1      38.788  34.340  32.374  1.00  0.00     0.029 A 
ATOM     18  N   UNL A   1      39.749  32.389  32.832  1.00  0.00    -0.354 N 
ATOM     19  C   UNL A   1      39.600  29.168  30.061  1.00  0.00     0.074 A 
ATOM     20  C   UNL A   1      38.563  29.338  29.071  1.00  0.00     0.031 C 
ATOM     21  C   UNL A   1      39.293  34.419  33.621  1.00  0.00     0.029 A 
ATOM     22  C   UNL A   1      39.804  33.115  34.012  1.00  0.00     0.049 A 
ATOM     23  H   UNL A   1      40.247  31.553  32.678  1.00  0.00     0.167 HD
ATOM     24  C   UNL A   1      40.587  28.247  29.981  1.00  0.00     0.034 A 
ATOM     25  C   UNL A   1      40.130  32.721  35.264  1.00  0.00     0.034 A 
ATOM     26  C   UNL A   1      41.617  28.125  30.967  1.00  0.00     0.049 A 
ATOM     27  C   UNL A   1      40.880  31.427  35.393  1.00  0.00     0.074 A 
ATOM     28  C   UNL A   1      42.788  27.393  30.933  1.00  0.00     0.029 A 
ATOM     29  N   UNL A   1      41.566  28.751  32.202  1.00  0.00    -0.354 N 
ATOM     30  N   UNL A   1      41.115  30.533  34.468  1.00  0.00    -0.248 NA
ATOM     31  C   UNL A   1      41.562  31.176  36.671  1.00  0.00     0.031 C 
ATOM     32  C   UNL A   1      43.432  27.559  32.169  1.00  0.00     0.029 A 
ATOM     33  C   UNL A   1      42.666  28.406  32.957  1.00  0.00     0.049 A 
ATOM     34  H   UNL A   1      40.847  29.355  32.498  1.00  0.00     0.167 HD
ATOM     35  C   UNL A   1      42.131  29.739  34.977  1.00  0.00     0.074 A 
ATOM     36  C   UNL A   1      42.340  30.150  36.351  1.00  0.00     0.031 C 
ATOM     37  C   UNL A   1      42.900  28.849  34.307  1.00  0.00     0.034 A 
BRANCH  24  38
ATOM     38  C   UNL A   1      40.644  27.470  28.700  1.00  0.00     0.023 A 
ATOM     39  C   UNL A   1      39.756  26.378  28.546  1.00  0.00     0.012 A 
ATOM     40  C   UNL A   1      41.606  27.726  27.714  1.00  0.00     0.148 A 
ATOM     41  C   UNL A   1      39.881  25.505  27.469  1.00  0.00     0.002 A 
ATOM     42  C   UNL A   1      41.701  26.870  26.622  1.00  0.00     0.091 A 
ATOM     43  F   UNL A   1      42.446  28.756  27.890  1.00  0.00    -0.205 F 
ATOM     44  C   UNL A   1      40.856  25.751  26.509  1.00  0.00     0.022 A 
BRANCH  42  45
ATOM     45  S   UNL A   1      42.903  27.106  25.312  1.00  0.00     0.127 S 
ATOM     46  O   UNL A   1      42.338  28.251  24.599  1.00  0.00    -0.237 OA
ATOM     47  O   UNL A   1      44.123  27.398  26.066  1.00  0.00    -0.237 OA
ATOM     48  O   UNL A   1      42.934  25.856  24.568  1.00  0.00    -0.744 OA
ENDBRANCH  42  45
ENDBRANCH  24  38
BRANCH  25  49
ATOM     49  C   UNL A   1      39.837  33.532  36.488  1.00  0.00     0.023 A 
ATOM     50  C   UNL A   1      40.398  34.808  36.664  1.00  0.00     0.012 A 
ATOM     51  C   UNL A   1      39.030  33.003  37.522  1.00  0.00     0.148 A 
ATOM     52  C   UNL A   1      40.138  35.552  37.819  1.00  0.00     0.002 A 
ATOM     53  C   UNL A   1      38.764  33.752  38.668  1.00  0.00     0.091 A 
ATOM     54  F   UNL A   1      38.536  31.766  37.362  1.00  0.00    -0.205 F 
ATOM     55  C   UNL A   1      39.319  35.030  38.817  1.00  0.00     0.022 A 
BRANCH  53  56
ATOM     56  S   UNL A   1      37.700  33.178  40.004  1.00  0.00     0.127 S 
ATOM     57  O   UNL A   1      37.735  34.304  40.936  1.00  0.00    -0.237 OA
ATOM     58  O   UNL A   1      36.431  32.998  39.302  1.00  0.00    -0.237 OA
ATOM     59  O   UNL A   1      38.319  31.954  40.499  1.00  0.00    -0.744 OA
ENDBRANCH  53  56
ENDBRANCH  25  49
BRANCH  37  60
ATOM     60  C   UNL A   1      44.158  28.386  34.970  1.00  0.00     0.023 A 
ATOM     61  C   UNL A   1      45.308  29.192  34.993  1.00  0.00     0.012 A 
ATOM     62  C   UNL A   1      44.135  27.170  35.684  1.00  0.00     0.148 A 
ATOM     63  C   UNL A   1      46.421  28.792  35.730  1.00  0.00     0.002 A 
ATOM     64  C   UNL A   1      45.221  26.810  36.462  1.00  0.00     0.091 A 
ATOM     65  F   UNL A   1      43.036  26.404  35.605  1.00  0.00    -0.205 F 
ATOM     66  C   UNL A   1      46.370  27.616  36.480  1.00  0.00     0.022 A 
BRANCH  64  67
ATOM     67  S   UNL A   1      45.187  25.387  37.556  1.00  0.00     0.127 S 
ATOM     68  O   UNL A   1      46.532  25.417  38.130  1.00  0.00    -0.237 OA
ATOM     69  O   UNL A   1      44.117  25.744  38.488  1.00  0.00    -0.237 OA
ATOM     70  O   UNL A   1      44.897  24.233  36.716  1.00  0.00    -0.744 OA
ENDBRANCH  64  67
ENDBRANCH  37  60
ENDBRANCH  11  12
ENDBRANCH   4   6
ENDBRANCH   3   4
ENDBRANCH   2   3
ENDBRANCH   1   2
BRANCH   1  71
ATOM     71  O   UNL A   1      33.054  29.657  25.867  1.00  0.00    -0.462 OA
BRANCH  71  72
ATOM     72  C   UNL A   1      32.465  28.868  24.922  1.00  0.00     0.310 C 
ATOM     73  O   UNL A   1      32.402  29.156  23.732  1.00  0.00    -0.252 OA
BRANCH  72  74
ATOM     74  C   UNL A   1      31.984  27.544  25.508  1.00  0.00     0.119 C 
ATOM     75  C   UNL A   1      30.628  27.172  24.917  1.00  0.00     0.019 C 
ATOM     76  C   UNL A   1      33.020  26.422  25.355  1.00  0.00     0.134 C 
ATOM     77  C   UNL A   1      30.156  25.841  25.437  1.00  0.00     0.022 C 
ATOM     78  N   UNL A   1      32.503  25.040  25.535  1.00  0.00    -0.342 N 
ATOM     79  C   UNL A   1      31.163  24.790  25.035  1.00  0.00     0.119 C 
BRANCH  78  80
ATOM     80  C   UNL A   1      33.444  24.051  25.823  1.00  0.00     0.226 C 
ATOM     81  O   UNL A   1      33.361  23.470  26.921  1.00  0.00    -0.275 OA
BRANCH  80  82
ATOM     82  C   UNL A   1      34.627  23.593  24.892  1.00  0.00     0.090 C 
ATOM     83  C   UNL A   1      34.010  22.993  23.610  1.00  0.00     0.075 C 
ATOM     84  C   UNL A   1      35.753  22.612  25.274  1.00  0.00     0.075 C 
ATOM     85  C   UNL A   1      33.402  21.623  23.906  1.00  0.00     0.263 C 
ATOM     86  C   UNL A   1      35.287  21.142  25.317  1.00  0.00     0.263 C 
ATOM     87  N   UNL A   1      33.833  21.127  25.217  1.00  0.00    -0.329 N 
ATOM     88  H   UNL A   1      33.494  21.776  25.928  1.00  0.00     0.348 HD
BRANCH  87  89
ATOM     89  C   UNL A   1      33.200  19.876  25.603  1.00  0.00     0.338 C 
BRANCH  89  90
ATOM     90  C   UNL A   1      33.404  18.840  24.532  1.00  0.00     0.157 A 
ATOM     91  C   UNL A   1      34.371  17.876  24.309  1.00  0.00     0.052 A 
ATOM     92  O   UNL A   1      32.444  18.743  23.562  1.00  0.00    -0.463 OA
ATOM     93  C   UNL A   1      33.963  17.135  23.177  1.00  0.00     0.042 A 
ATOM     94  C   UNL A   1      32.777  17.693  22.770  1.00  0.00     0.195 A 
ENDBRANCH  89  90
ENDBRANCH  87  89
ENDBRANCH  80  82
ENDBRANCH  78  80
ENDBRANCH  72  74
ENDBRANCH  71  72
ENDBRANCH   1  71
TORSDOF 18
ENDMDL
