MODEL 1
REMARK VINA RESULT:     -12.2      0.000      0.000
REMARK SMILES O=C(OCCOC(=O)c1cccc(S(=O)(=O)Nc2ccccc2N2CCOCC2)c1)c1ccc(-c2c3nc(c(-c4cccc(S(=O)(=O)[O-])c4F)c4ccc([nH]4)c(-c4cccc(S(=O)(=O)[O-])c4F)c4nc(c(-c5cccc(S(=O)(=O)[O-])c5F)c5ccc2[nH]5)C=C4)C=C3)cc1
REMARK SMILES IDX 5 1 4 2 3 3 2 4 1 5 31 6 32 7 93 8 33 9 92 10 34 11 35 12
REMARK SMILES IDX 36 13 86 14 37 15 91 16 85 17 87 18 38 19 90 20 84 21 83 22
REMARK SMILES IDX 39 24 71 25 51 26 70 27 52 28 55 29 69 30 88 31 53 32 54 33
REMARK SMILES IDX 68 35 89 36 56 37 40 38 41 39 49 40 42 41 44 42 50 43 43 44
REMARK SMILES IDX 45 45 46 46 47 47 48 48 72 49 73 50 81 51 74 52 76 53 82 54
REMARK SMILES IDX 75 55 77 56 78 57 79 58 80 59 57 60 58 61 66 62 59 63 61 64
REMARK SMILES IDX 67 65 60 66 62 67 63 68 64 69 65 70 6 71 7 72 8 73 9 74
REMARK SMILES IDX 10 75 30 76 11 77 13 78 12 79 14 80 15 81 16 82 17 83 18 85
REMARK SMILES IDX 19 86 23 87 20 88 22 89 21 90 24 91 25 92 29 93 26 94 28 95
REMARK SMILES IDX 27 96
REMARK H PARENT 87 23 55 34 17 84
REMARK Flexibility Score: inf
ROOT
ATOM      1  C   UNL A   1      38.597  21.043  25.235  1.00  0.00     0.275 C 
ENDROOT
BRANCH   1   2
ATOM      2  C   UNL A   1      38.993  19.709  25.869  1.00  0.00     0.275 C 
BRANCH   2   3
ATOM      3  O   UNL A   1      40.345  19.276  25.628  1.00  0.00    -0.458 OA
BRANCH   3   4
ATOM      4  C   UNL A   1      41.501  19.601  26.257  1.00  0.00     0.338 C 
ATOM      5  O   UNL A   1      42.166  18.695  26.757  1.00  0.00    -0.246 OA
BRANCH   4   6
ATOM      6  C   UNL A   1      41.949  21.015  26.501  1.00  0.00     0.060 A 
ATOM      7  C   UNL A   1      42.258  21.971  25.527  1.00  0.00     0.016 A 
ATOM      8  C   UNL A   1      42.017  21.417  27.842  1.00  0.00     0.016 A 
ATOM      9  C   UNL A   1      42.530  23.312  25.865  1.00  0.00     0.010 A 
ATOM     10  C   UNL A   1      42.259  22.756  28.181  1.00  0.00     0.010 A 
ATOM     11  C   UNL A   1      42.529  23.727  27.194  1.00  0.00    -0.014 A 
BRANCH  11  12
ATOM     12  C   UNL A   1      43.034  25.063  27.632  1.00  0.00     0.031 A 
ATOM     13  C   UNL A   1      41.993  26.097  27.930  1.00  0.00     0.074 A 
ATOM     14  C   UNL A   1      44.327  25.425  27.814  1.00  0.00     0.049 A 
ATOM     15  N   UNL A   1      42.157  27.365  28.169  1.00  0.00    -0.248 NA
ATOM     16  C   UNL A   1      40.596  25.631  28.058  1.00  0.00     0.031 C 
ATOM     17  C   UNL A   1      45.483  24.541  27.844  1.00  0.00     0.029 A 
ATOM     18  N   UNL A   1      44.899  26.692  27.867  1.00  0.00    -0.354 N 
ATOM     19  C   UNL A   1      40.921  27.822  28.568  1.00  0.00     0.074 A 
ATOM     20  C   UNL A   1      39.973  26.748  28.392  1.00  0.00     0.031 C 
ATOM     21  C   UNL A   1      46.603  25.278  27.689  1.00  0.00     0.029 A 
ATOM     22  C   UNL A   1      46.237  26.665  27.486  1.00  0.00     0.049 A 
ATOM     23  H   UNL A   1      44.418  27.506  28.140  1.00  0.00     0.167 HD
ATOM     24  C   UNL A   1      40.638  29.001  29.154  1.00  0.00     0.034 A 
ATOM     25  C   UNL A   1      46.993  27.614  26.878  1.00  0.00     0.034 A 
ATOM     26  C   UNL A   1      41.597  30.047  29.337  1.00  0.00     0.049 A 
ATOM     27  C   UNL A   1      46.537  29.025  27.063  1.00  0.00     0.074 A 
ATOM     28  C   UNL A   1      41.454  31.241  30.015  1.00  0.00     0.029 A 
ATOM     29  N   UNL A   1      42.866  30.043  28.783  1.00  0.00    -0.354 N 
ATOM     30  N   UNL A   1      45.413  29.446  27.580  1.00  0.00    -0.248 NA
ATOM     31  C   UNL A   1      47.519  30.085  26.791  1.00  0.00     0.031 C 
ATOM     32  C   UNL A   1      42.612  31.995  29.805  1.00  0.00     0.029 A 
ATOM     33  C   UNL A   1      43.492  31.248  29.038  1.00  0.00     0.049 A 
ATOM     34  H   UNL A   1      43.263  29.294  28.283  1.00  0.00     0.167 HD
ATOM     35  C   UNL A   1      45.610  30.787  27.849  1.00  0.00     0.074 A 
ATOM     36  C   UNL A   1      46.921  31.134  27.341  1.00  0.00     0.031 C 
ATOM     37  C   UNL A   1      44.796  31.611  28.546  1.00  0.00     0.034 A 
BRANCH  24  38
ATOM     38  C   UNL A   1      39.248  29.174  29.666  1.00  0.00     0.023 A 
ATOM     39  C   UNL A   1      38.916  28.736  30.966  1.00  0.00     0.012 A 
ATOM     40  C   UNL A   1      38.274  29.763  28.849  1.00  0.00     0.148 A 
ATOM     41  C   UNL A   1      37.612  28.860  31.434  1.00  0.00     0.002 A 
ATOM     42  C   UNL A   1      36.989  29.922  29.339  1.00  0.00     0.091 A 
ATOM     43  F   UNL A   1      38.621  30.131  27.608  1.00  0.00    -0.205 F 
ATOM     44  C   UNL A   1      36.652  29.462  30.624  1.00  0.00     0.022 A 
BRANCH  42  45
ATOM     45  S   UNL A   1      35.701  30.733  28.394  1.00  0.00     0.127 S 
ATOM     46  O   UNL A   1      36.444  31.819  27.753  1.00  0.00    -0.237 OA
ATOM     47  O   UNL A   1      35.276  29.665  27.491  1.00  0.00    -0.237 OA
ATOM     48  O   UNL A   1      34.698  31.162  29.359  1.00  0.00    -0.744 OA
ENDBRANCH  42  45
ENDBRANCH  24  38
BRANCH  25  49
ATOM     49  C   UNL A   1      48.268  27.357  26.125  1.00  0.00     0.023 A 
ATOM     50  C   UNL A   1      49.464  27.124  26.826  1.00  0.00     0.012 A 
ATOM     51  C   UNL A   1      48.331  27.485  24.711  1.00  0.00     0.148 A 
ATOM     52  C   UNL A   1      50.684  27.021  26.147  1.00  0.00     0.002 A 
ATOM     53  C   UNL A   1      49.540  27.309  24.035  1.00  0.00     0.091 A 
ATOM     54  F   UNL A   1      47.223  27.840  24.049  1.00  0.00    -0.205 F 
ATOM     55  C   UNL A   1      50.722  27.098  24.757  1.00  0.00     0.022 A 
BRANCH  53  56
ATOM     56  S   UNL A   1      49.705  27.298  22.238  1.00  0.00     0.127 S 
ATOM     57  O   UNL A   1      51.107  26.918  22.063  1.00  0.00    -0.237 OA
ATOM     58  O   UNL A   1      48.741  26.258  21.871  1.00  0.00    -0.237 OA
ATOM     59  O   UNL A   1      49.377  28.638  21.781  1.00  0.00    -0.744 OA
ENDBRANCH  53  56
ENDBRANCH  25  49
BRANCH  37  60
ATOM     60  C   UNL A   1      45.318  32.969  28.886  1.00  0.00     0.023 A 
ATOM     61  C   UNL A   1      46.083  33.166  30.048  1.00  0.00     0.012 A 
ATOM     62  C   UNL A   1      45.109  34.039  27.992  1.00  0.00     0.148 A 
ATOM     63  C   UNL A   1      46.624  34.418  30.324  1.00  0.00     0.002 A 
ATOM     64  C   UNL A   1      45.704  35.263  28.241  1.00  0.00     0.091 A 
ATOM     65  F   UNL A   1      44.347  33.828  26.908  1.00  0.00    -0.205 F 
ATOM     66  C   UNL A   1      46.451  35.459  29.414  1.00  0.00     0.022 A 
BRANCH  64  67
ATOM     67  S   UNL A   1      45.633  36.623  27.071  1.00  0.00     0.127 S 
ATOM     68  O   UNL A   1      46.267  36.036  25.892  1.00  0.00    -0.237 OA
ATOM     69  O   UNL A   1      44.193  36.841  26.947  1.00  0.00    -0.237 OA
ATOM     70  O   UNL A   1      46.366  37.725  27.680  1.00  0.00    -0.744 OA
ENDBRANCH  64  67
ENDBRANCH  37  60
ENDBRANCH  11  12
ENDBRANCH   4   6
ENDBRANCH   3   4
ENDBRANCH   2   3
ENDBRANCH   1   2
BRANCH   1  71
ATOM     71  O   UNL A   1      37.442  21.628  25.837  1.00  0.00    -0.458 OA
BRANCH  71  72
ATOM     72  C   UNL A   1      36.294  21.485  25.129  1.00  0.00     0.338 C 
ATOM     73  O   UNL A   1      35.778  20.432  24.795  1.00  0.00    -0.246 OA
BRANCH  72  74
ATOM     74  C   UNL A   1      35.701  22.807  24.832  1.00  0.00     0.061 A 
ATOM     75  C   UNL A   1      35.638  23.769  25.851  1.00  0.00     0.016 A 
ATOM     76  C   UNL A   1      35.142  23.065  23.583  1.00  0.00     0.038 A 
ATOM     77  C   UNL A   1      35.010  24.990  25.616  1.00  0.00     0.002 A 
ATOM     78  C   UNL A   1      34.337  24.178  23.438  1.00  0.00     0.088 A 
ATOM     79  C   UNL A   1      34.328  25.179  24.421  1.00  0.00     0.022 A 
BRANCH  78  80
ATOM     80  S   UNL A   1      33.225  24.428  22.099  1.00  0.00     0.261 S 
ATOM     81  O   UNL A   1      33.467  25.764  21.632  1.00  0.00    -0.201 OA
ATOM     82  O   UNL A   1      33.526  23.324  21.217  1.00  0.00    -0.201 OA
BRANCH  80  83
ATOM     83  N   UNL A   1      31.564  24.423  22.510  1.00  0.00    -0.278 N 
ATOM     84  H   UNL A   1      30.911  24.498  21.778  1.00  0.00     0.180 HD
BRANCH  83  85
ATOM     85  C   UNL A   1      31.057  24.318  23.855  1.00  0.00     0.072 A 
ATOM     86  C   UNL A   1      31.042  23.008  24.380  1.00  0.00     0.029 A 
ATOM     87  C   UNL A   1      30.618  25.401  24.649  1.00  0.00     0.061 A 
ATOM     88  C   UNL A   1      30.796  22.758  25.725  1.00  0.00     0.002 A 
ATOM     89  C   UNL A   1      30.358  25.106  26.010  1.00  0.00     0.028 A 
ATOM     90  C   UNL A   1      30.478  23.819  26.551  1.00  0.00     0.002 A 
BRANCH  87  91
ATOM     91  N   UNL A   1      30.579  26.713  24.186  1.00  0.00    -0.365 N 
ATOM     92  C   UNL A   1      29.402  27.206  23.416  1.00  0.00     0.145 C 
ATOM     93  C   UNL A   1      31.249  27.779  24.949  1.00  0.00     0.145 C 
ATOM     94  C   UNL A   1      29.716  28.529  22.667  1.00  0.00     0.181 C 
ATOM     95  C   UNL A   1      31.579  28.944  24.018  1.00  0.00     0.181 C 
ATOM     96  O   UNL A   1      30.358  29.505  23.519  1.00  0.00    -0.378 OA
ENDBRANCH  87  91
ENDBRANCH  83  85
ENDBRANCH  80  83
ENDBRANCH  78  80
ENDBRANCH  72  74
ENDBRANCH  71  72
ENDBRANCH   1  71
TORSDOF 18
ENDMDL
MODEL 2
REMARK VINA RESULT:     -12.0      0.870      7.284
REMARK SMILES O=C(OCCOC(=O)c1cccc(S(=O)(=O)Nc2ccccc2N2CCOCC2)c1)c1ccc(-c2c3nc(c(-c4cccc(S(=O)(=O)[O-])c4F)c4ccc([nH]4)c(-c4cccc(S(=O)(=O)[O-])c4F)c4nc(c(-c5cccc(S(=O)(=O)[O-])c5F)c5ccc2[nH]5)C=C4)C=C3)cc1
REMARK SMILES IDX 5 1 4 2 3 3 2 4 1 5 31 6 32 7 93 8 33 9 92 10 34 11 35 12
REMARK SMILES IDX 36 13 86 14 37 15 91 16 85 17 87 18 38 19 90 20 84 21 83 22
REMARK SMILES IDX 39 24 71 25 51 26 70 27 52 28 55 29 69 30 88 31 53 32 54 33
REMARK SMILES IDX 68 35 89 36 56 37 40 38 41 39 49 40 42 41 44 42 50 43 43 44
REMARK SMILES IDX 45 45 46 46 47 47 48 48 72 49 73 50 81 51 74 52 76 53 82 54
REMARK SMILES IDX 75 55 77 56 78 57 79 58 80 59 57 60 58 61 66 62 59 63 61 64
REMARK SMILES IDX 67 65 60 66 62 67 63 68 64 69 65 70 6 71 7 72 8 73 9 74
REMARK SMILES IDX 10 75 30 76 11 77 13 78 12 79 14 80 15 81 16 82 17 83 18 85
REMARK SMILES IDX 19 86 23 87 20 88 22 89 21 90 24 91 25 92 29 93 26 94 28 95
REMARK SMILES IDX 27 96
REMARK H PARENT 87 23 55 34 17 84
REMARK Flexibility Score: inf
ROOT
ATOM      1  C   UNL A   1      38.202  20.221  24.717  1.00  0.00     0.275 C 
ENDROOT
BRANCH   1   2
ATOM      2  C   UNL A   1      38.893  19.246  25.671  1.00  0.00     0.275 C 
BRANCH   2   3
ATOM      3  O   UNL A   1      40.318  19.404  25.807  1.00  0.00    -0.458 OA
BRANCH   3   4
ATOM      4  C   UNL A   1      41.051  20.004  26.777  1.00  0.00     0.338 C 
ATOM      5  O   UNL A   1      41.327  19.354  27.784  1.00  0.00    -0.246 OA
BRANCH   4   6
ATOM      6  C   UNL A   1      41.429  21.459  26.757  1.00  0.00     0.060 A 
ATOM      7  C   UNL A   1      41.891  22.185  25.653  1.00  0.00     0.016 A 
ATOM      8  C   UNL A   1      41.256  22.157  27.960  1.00  0.00     0.016 A 
ATOM      9  C   UNL A   1      42.081  23.581  25.711  1.00  0.00     0.010 A 
ATOM     10  C   UNL A   1      41.416  23.549  28.014  1.00  0.00     0.010 A 
ATOM     11  C   UNL A   1      41.841  24.285  26.888  1.00  0.00    -0.014 A 
BRANCH  11  12
ATOM     12  C   UNL A   1      42.242  25.711  27.082  1.00  0.00     0.031 A 
ATOM     13  C   UNL A   1      43.706  26.006  26.965  1.00  0.00     0.074 A 
ATOM     14  C   UNL A   1      41.423  26.762  27.323  1.00  0.00     0.049 A 
ATOM     15  N   UNL A   1      44.332  27.111  27.243  1.00  0.00    -0.248 NA
ATOM     16  C   UNL A   1      44.563  24.951  26.384  1.00  0.00     0.031 C 
ATOM     17  C   UNL A   1      39.971  26.776  27.220  1.00  0.00     0.029 A 
ATOM     18  N   UNL A   1      41.711  28.014  27.855  1.00  0.00    -0.354 N 
ATOM     19  C   UNL A   1      45.618  26.924  26.783  1.00  0.00     0.074 A 
ATOM     20  C   UNL A   1      45.740  25.552  26.353  1.00  0.00     0.031 C 
ATOM     21  C   UNL A   1      39.495  27.862  27.866  1.00  0.00     0.029 A 
ATOM     22  C   UNL A   1      40.599  28.576  28.475  1.00  0.00     0.049 A 
ATOM     23  H   UNL A   1      42.592  28.450  27.800  1.00  0.00     0.167 HD
ATOM     24  C   UNL A   1      46.569  27.864  26.619  1.00  0.00     0.034 A 
ATOM     25  C   UNL A   1      40.521  29.424  29.531  1.00  0.00     0.034 A 
ATOM     26  C   UNL A   1      46.422  29.224  27.035  1.00  0.00     0.049 A 
ATOM     27  C   UNL A   1      41.730  30.268  29.777  1.00  0.00     0.074 A 
ATOM     28  C   UNL A   1      47.273  30.289  26.822  1.00  0.00     0.029 A 
ATOM     29  N   UNL A   1      45.370  29.691  27.806  1.00  0.00    -0.354 N 
ATOM     30  N   UNL A   1      42.908  30.166  29.223  1.00  0.00    -0.248 NA
ATOM     31  C   UNL A   1      41.551  31.461  30.617  1.00  0.00     0.031 C 
ATOM     32  C   UNL A   1      46.774  31.386  27.532  1.00  0.00     0.029 A 
ATOM     33  C   UNL A   1      45.589  31.012  28.144  1.00  0.00     0.049 A 
ATOM     34  H   UNL A   1      44.585  29.161  28.073  1.00  0.00     0.167 HD
ATOM     35  C   UNL A   1      43.554  31.354  29.506  1.00  0.00     0.074 A 
ATOM     36  C   UNL A   1      42.678  32.117  30.371  1.00  0.00     0.031 C 
ATOM     37  C   UNL A   1      44.729  31.790  28.999  1.00  0.00     0.034 A 
BRANCH  24  38
ATOM     38  C   UNL A   1      47.815  27.434  25.922  1.00  0.00     0.023 A 
ATOM     39  C   UNL A   1      48.877  26.870  26.661  1.00  0.00     0.012 A 
ATOM     40  C   UNL A   1      47.931  27.600  24.536  1.00  0.00     0.148 A 
ATOM     41  C   UNL A   1      50.057  26.502  26.022  1.00  0.00     0.002 A 
ATOM     42  C   UNL A   1      49.091  27.191  23.901  1.00  0.00     0.091 A 
ATOM     43  F   UNL A   1      46.915  28.173  23.876  1.00  0.00    -0.205 F 
ATOM     44  C   UNL A   1      50.159  26.654  24.642  1.00  0.00     0.022 A 
BRANCH  42  45
ATOM     45  S   UNL A   1      49.296  27.295  22.125  1.00  0.00     0.127 S 
ATOM     46  O   UNL A   1      50.751  27.220  21.991  1.00  0.00    -0.237 OA
ATOM     47  O   UNL A   1      48.577  26.107  21.671  1.00  0.00    -0.237 OA
ATOM     48  O   UNL A   1      48.708  28.565  21.720  1.00  0.00    -0.744 OA
ENDBRANCH  42  45
ENDBRANCH  24  38
BRANCH  25  49
ATOM     49  C   UNL A   1      39.306  29.628  30.392  1.00  0.00     0.023 A 
ATOM     50  C   UNL A   1      39.063  28.771  31.479  1.00  0.00     0.012 A 
ATOM     51  C   UNL A   1      38.309  30.581  30.052  1.00  0.00     0.148 A 
ATOM     52  C   UNL A   1      37.870  28.855  32.206  1.00  0.00     0.002 A 
ATOM     53  C   UNL A   1      37.154  30.709  30.826  1.00  0.00     0.091 A 
ATOM     54  F   UNL A   1      38.471  31.309  28.940  1.00  0.00    -0.205 F 
ATOM     55  C   UNL A   1      36.926  29.830  31.892  1.00  0.00     0.022 A 
BRANCH  53  56
ATOM     56  S   UNL A   1      35.901  31.984  30.576  1.00  0.00     0.127 S 
ATOM     57  O   UNL A   1      36.711  33.201  30.522  1.00  0.00    -0.237 OA
ATOM     58  O   UNL A   1      35.331  31.572  29.291  1.00  0.00    -0.237 OA
ATOM     59  O   UNL A   1      34.995  31.906  31.710  1.00  0.00    -0.744 OA
ENDBRANCH  53  56
ENDBRANCH  25  49
BRANCH  37  60
ATOM     60  C   UNL A   1      45.126  33.200  29.293  1.00  0.00     0.023 A 
ATOM     61  C   UNL A   1      45.894  33.498  30.432  1.00  0.00     0.012 A 
ATOM     62  C   UNL A   1      44.797  34.221  28.380  1.00  0.00     0.148 A 
ATOM     63  C   UNL A   1      46.320  34.803  30.665  1.00  0.00     0.002 A 
ATOM     64  C   UNL A   1      45.278  35.503  28.585  1.00  0.00     0.091 A 
ATOM     65  F   UNL A   1      44.035  33.911  27.320  1.00  0.00    -0.205 F 
ATOM     66  C   UNL A   1      46.029  35.799  29.735  1.00  0.00     0.022 A 
BRANCH  64  67
ATOM     67  S   UNL A   1      45.053  36.819  27.386  1.00  0.00     0.127 S 
ATOM     68  O   UNL A   1      43.672  36.600  26.959  1.00  0.00    -0.237 OA
ATOM     69  O   UNL A   1      45.257  38.013  28.205  1.00  0.00    -0.237 OA
ATOM     70  O   UNL A   1      46.057  36.609  26.353  1.00  0.00    -0.744 OA
ENDBRANCH  64  67
ENDBRANCH  37  60
ENDBRANCH  11  12
ENDBRANCH   4   6
ENDBRANCH   3   4
ENDBRANCH   2   3
ENDBRANCH   1   2
BRANCH   1  71
ATOM     71  O   UNL A   1      37.339  21.140  25.386  1.00  0.00    -0.458 OA
BRANCH  71  72
ATOM     72  C   UNL A   1      36.053  21.136  24.955  1.00  0.00     0.338 C 
ATOM     73  O   UNL A   1      35.354  20.152  24.776  1.00  0.00    -0.246 OA
BRANCH  72  74
ATOM     74  C   UNL A   1      35.569  22.520  24.755  1.00  0.00     0.061 A 
ATOM     75  C   UNL A   1      35.552  23.399  25.848  1.00  0.00     0.016 A 
ATOM     76  C   UNL A   1      35.064  22.919  23.520  1.00  0.00     0.038 A 
ATOM     77  C   UNL A   1      35.024  24.680  25.701  1.00  0.00     0.002 A 
ATOM     78  C   UNL A   1      34.349  24.099  23.450  1.00  0.00     0.088 A 
ATOM     79  C   UNL A   1      34.390  25.015  24.511  1.00  0.00     0.022 A 
BRANCH  78  80
ATOM     80  S   UNL A   1      33.294  24.540  22.115  1.00  0.00     0.261 S 
ATOM     81  O   UNL A   1      33.703  25.856  21.710  1.00  0.00    -0.201 OA
ATOM     82  O   UNL A   1      33.472  23.447  21.187  1.00  0.00    -0.201 OA
BRANCH  80  83
ATOM     83  N   UNL A   1      31.639  24.719  22.511  1.00  0.00    -0.278 N 
ATOM     84  H   UNL A   1      31.018  24.955  21.785  1.00  0.00     0.180 HD
BRANCH  83  85
ATOM     85  C   UNL A   1      31.095  24.548  23.834  1.00  0.00     0.072 A 
ATOM     86  C   UNL A   1      31.058  23.213  24.290  1.00  0.00     0.029 A 
ATOM     87  C   UNL A   1      30.638  25.592  24.669  1.00  0.00     0.061 A 
ATOM     88  C   UNL A   1      30.774  22.896  25.614  1.00  0.00     0.002 A 
ATOM     89  C   UNL A   1      30.339  25.229  26.005  1.00  0.00     0.028 A 
ATOM     90  C   UNL A   1      30.437  23.915  26.483  1.00  0.00     0.002 A 
BRANCH  87  91
ATOM     91  N   UNL A   1      30.618  26.926  24.274  1.00  0.00    -0.365 N 
ATOM     92  C   UNL A   1      29.495  27.449  23.445  1.00  0.00     0.145 C 
ATOM     93  C   UNL A   1      31.218  27.955  25.138  1.00  0.00     0.145 C 
ATOM     94  C   UNL A   1      29.849  28.812  22.791  1.00  0.00     0.181 C 
ATOM     95  C   UNL A   1      31.602  29.170  24.297  1.00  0.00     0.181 C 
ATOM     96  O   UNL A   1      30.415  29.747  23.738  1.00  0.00    -0.378 OA
ENDBRANCH  87  91
ENDBRANCH  83  85
ENDBRANCH  80  83
ENDBRANCH  78  80
ENDBRANCH  72  74
ENDBRANCH  71  72
ENDBRANCH   1  71
TORSDOF 18
ENDMDL
MODEL 3
REMARK VINA RESULT:     -11.9      5.616      9.310
REMARK SMILES O=C(OCCOC(=O)c1cccc(S(=O)(=O)Nc2ccccc2N2CCOCC2)c1)c1ccc(-c2c3nc(c(-c4cccc(S(=O)(=O)[O-])c4F)c4ccc([nH]4)c(-c4cccc(S(=O)(=O)[O-])c4F)c4nc(c(-c5cccc(S(=O)(=O)[O-])c5F)c5ccc2[nH]5)C=C4)C=C3)cc1
REMARK SMILES IDX 5 1 4 2 3 3 2 4 1 5 31 6 32 7 93 8 33 9 92 10 34 11 35 12
REMARK SMILES IDX 36 13 86 14 37 15 91 16 85 17 87 18 38 19 90 20 84 21 83 22
REMARK SMILES IDX 39 24 71 25 51 26 70 27 52 28 55 29 69 30 88 31 53 32 54 33
REMARK SMILES IDX 68 35 89 36 56 37 40 38 41 39 49 40 42 41 44 42 50 43 43 44
REMARK SMILES IDX 45 45 46 46 47 47 48 48 72 49 73 50 81 51 74 52 76 53 82 54
REMARK SMILES IDX 75 55 77 56 78 57 79 58 80 59 57 60 58 61 66 62 59 63 61 64
REMARK SMILES IDX 67 65 60 66 62 67 63 68 64 69 65 70 6 71 7 72 8 73 9 74
REMARK SMILES IDX 10 75 30 76 11 77 13 78 12 79 14 80 15 81 16 82 17 83 18 85
REMARK SMILES IDX 19 86 23 87 20 88 22 89 21 90 24 91 25 92 29 93 26 94 28 95
REMARK SMILES IDX 27 96
REMARK H PARENT 87 23 55 34 17 84
REMARK Flexibility Score: inf
ROOT
ATOM      1  C   UNL A   1      32.112  30.947  26.962  1.00  0.00     0.275 C 
ENDROOT
BRANCH   1   2
ATOM      2  C   UNL A   1      31.565  32.370  26.856  1.00  0.00     0.275 C 
BRANCH   2   3
ATOM      3  O   UNL A   1      32.535  33.427  26.978  1.00  0.00    -0.458 OA
BRANCH   3   4
ATOM      4  C   UNL A   1      33.214  33.882  28.061  1.00  0.00     0.338 C 
ATOM      5  O   UNL A   1      32.904  34.978  28.523  1.00  0.00    -0.246 OA
BRANCH   4   6
ATOM      6  C   UNL A   1      34.414  33.190  28.643  1.00  0.00     0.060 A 
ATOM      7  C   UNL A   1      35.701  33.147  28.093  1.00  0.00     0.016 A 
ATOM      8  C   UNL A   1      34.223  32.563  29.882  1.00  0.00     0.016 A 
ATOM      9  C   UNL A   1      36.788  32.589  28.795  1.00  0.00     0.010 A 
ATOM     10  C   UNL A   1      35.307  32.032  30.596  1.00  0.00     0.010 A 
ATOM     11  C   UNL A   1      36.611  32.029  30.057  1.00  0.00    -0.014 A 
BRANCH  11  12
ATOM     12  C   UNL A   1      37.661  31.221  30.746  1.00  0.00     0.031 A 
ATOM     13  C   UNL A   1      38.158  31.758  32.052  1.00  0.00     0.074 A 
ATOM     14  C   UNL A   1      38.188  30.045  30.327  1.00  0.00     0.049 A 
ATOM     15  N   UNL A   1      39.164  31.347  32.766  1.00  0.00    -0.248 NA
ATOM     16  C   UNL A   1      37.374  32.844  32.677  1.00  0.00     0.031 C 
ATOM     17  C   UNL A   1      37.693  29.204  29.248  1.00  0.00     0.029 A 
ATOM     18  N   UNL A   1      39.376  29.420  30.692  1.00  0.00    -0.354 N 
ATOM     19  C   UNL A   1      39.075  32.042  33.952  1.00  0.00     0.074 A 
ATOM     20  C   UNL A   1      38.021  33.018  33.816  1.00  0.00     0.031 C 
ATOM     21  C   UNL A   1      38.657  28.325  28.898  1.00  0.00     0.029 A 
ATOM     22  C   UNL A   1      39.846  28.585  29.682  1.00  0.00     0.049 A 
ATOM     23  H   UNL A   1      39.829  29.550  31.556  1.00  0.00     0.167 HD
ATOM     24  C   UNL A   1      39.738  31.789  35.097  1.00  0.00     0.034 A 
ATOM     25  C   UNL A   1      41.117  28.243  29.350  1.00  0.00     0.034 A 
ATOM     26  C   UNL A   1      40.768  30.803  35.217  1.00  0.00     0.049 A 
ATOM     27  C   UNL A   1      42.124  28.341  30.450  1.00  0.00     0.074 A 
ATOM     28  C   UNL A   1      41.432  30.382  36.351  1.00  0.00     0.029 A 
ATOM     29  N   UNL A   1      41.322  30.124  34.144  1.00  0.00    -0.354 N 
ATOM     30  N   UNL A   1      41.977  28.881  31.631  1.00  0.00    -0.248 NA
ATOM     31  C   UNL A   1      43.385  27.607  30.267  1.00  0.00     0.031 C 
ATOM     32  C   UNL A   1      42.445  29.504  35.954  1.00  0.00     0.029 A 
ATOM     33  C   UNL A   1      42.375  29.343  34.579  1.00  0.00     0.049 A 
ATOM     34  H   UNL A   1      41.013  30.189  33.213  1.00  0.00     0.167 HD
ATOM     35  C   UNL A   1      43.038  28.418  32.384  1.00  0.00     0.074 A 
ATOM     36  C   UNL A   1      43.879  27.640  31.499  1.00  0.00     0.031 C 
ATOM     37  C   UNL A   1      43.221  28.560  33.716  1.00  0.00     0.034 A 
BRANCH  24  38
ATOM     38  C   UNL A   1      39.319  32.570  36.296  1.00  0.00     0.023 A 
ATOM     39  C   UNL A   1      38.356  32.041  37.181  1.00  0.00     0.012 A 
ATOM     40  C   UNL A   1      39.877  33.833  36.533  1.00  0.00     0.148 A 
ATOM     41  C   UNL A   1      37.933  32.781  38.280  1.00  0.00     0.002 A 
ATOM     42  C   UNL A   1      39.483  34.546  37.652  1.00  0.00     0.091 A 
ATOM     43  F   UNL A   1      40.760  34.316  35.648  1.00  0.00    -0.205 F 
ATOM     44  C   UNL A   1      38.504  34.028  38.521  1.00  0.00     0.022 A 
BRANCH  42  45
ATOM     45  S   UNL A   1      40.198  36.132  38.076  1.00  0.00     0.127 S 
ATOM     46  O   UNL A   1      41.586  35.764  38.359  1.00  0.00    -0.237 OA
ATOM     47  O   UNL A   1      40.005  36.886  36.839  1.00  0.00    -0.237 OA
ATOM     48  O   UNL A   1      39.448  36.624  39.223  1.00  0.00    -0.744 OA
ENDBRANCH  42  45
ENDBRANCH  24  38
BRANCH  25  49
ATOM     49  C   UNL A   1      41.550  27.707  28.015  1.00  0.00     0.023 A 
ATOM     50  C   UNL A   1      41.646  28.569  26.909  1.00  0.00     0.012 A 
ATOM     51  C   UNL A   1      41.729  26.314  27.800  1.00  0.00     0.148 A 
ATOM     52  C   UNL A   1      41.911  28.066  25.629  1.00  0.00     0.002 A 
ATOM     53  C   UNL A   1      42.065  25.828  26.534  1.00  0.00     0.091 A 
ATOM     54  F   UNL A   1      41.506  25.474  28.818  1.00  0.00    -0.205 F 
ATOM     55  C   UNL A   1      42.135  26.704  25.444  1.00  0.00     0.022 A 
BRANCH  53  56
ATOM     56  S   UNL A   1      42.464  24.103  26.183  1.00  0.00     0.127 S 
ATOM     57  O   UNL A   1      42.974  24.181  24.814  1.00  0.00    -0.237 OA
ATOM     58  O   UNL A   1      43.484  23.836  27.200  1.00  0.00    -0.237 OA
ATOM     59  O   UNL A   1      41.229  23.351  26.331  1.00  0.00    -0.744 OA
ENDBRANCH  53  56
ENDBRANCH  25  49
BRANCH  37  60
ATOM     60  C   UNL A   1      44.341  27.794  34.343  1.00  0.00     0.023 A 
ATOM     61  C   UNL A   1      45.617  28.371  34.460  1.00  0.00     0.012 A 
ATOM     62  C   UNL A   1      44.092  26.520  34.892  1.00  0.00     0.148 A 
ATOM     63  C   UNL A   1      46.639  27.681  35.106  1.00  0.00     0.002 A 
ATOM     64  C   UNL A   1      45.095  25.868  35.589  1.00  0.00     0.091 A 
ATOM     65  F   UNL A   1      42.873  25.983  34.736  1.00  0.00    -0.205 F 
ATOM     66  C   UNL A   1      46.373  26.441  35.686  1.00  0.00     0.022 A 
BRANCH  64  67
ATOM     67  S   UNL A   1      44.812  24.327  36.465  1.00  0.00     0.127 S 
ATOM     68  O   UNL A   1      46.176  23.830  36.640  1.00  0.00    -0.237 OA
ATOM     69  O   UNL A   1      44.168  24.790  37.693  1.00  0.00    -0.237 OA
ATOM     70  O   UNL A   1      43.967  23.515  35.601  1.00  0.00    -0.744 OA
ENDBRANCH  64  67
ENDBRANCH  37  60
ENDBRANCH  11  12
ENDBRANCH   4   6
ENDBRANCH   3   4
ENDBRANCH   2   3
ENDBRANCH   1   2
BRANCH   1  71
ATOM     71  O   UNL A   1      32.525  30.411  25.705  1.00  0.00    -0.458 OA
BRANCH  71  72
ATOM     72  C   UNL A   1      31.735  29.423  25.216  1.00  0.00     0.338 C 
ATOM     73  O   UNL A   1      30.770  29.566  24.484  1.00  0.00    -0.246 OA
BRANCH  72  74
ATOM     74  C   UNL A   1      32.222  28.100  25.664  1.00  0.00     0.061 A 
ATOM     75  C   UNL A   1      33.592  27.811  25.568  1.00  0.00     0.016 A 
ATOM     76  C   UNL A   1      31.325  27.129  26.100  1.00  0.00     0.038 A 
ATOM     77  C   UNL A   1      34.060  26.545  25.908  1.00  0.00     0.002 A 
ATOM     78  C   UNL A   1      31.769  25.826  26.217  1.00  0.00     0.088 A 
ATOM     79  C   UNL A   1      33.143  25.542  26.197  1.00  0.00     0.022 A 
BRANCH  78  80
ATOM     80  S   UNL A   1      30.712  24.426  26.330  1.00  0.00     0.261 S 
ATOM     81  O   UNL A   1      31.294  23.573  27.329  1.00  0.00    -0.201 OA
ATOM     82  O   UNL A   1      29.420  25.015  26.594  1.00  0.00    -0.201 OA
BRANCH  80  83
ATOM     83  N   UNL A   1      30.641  23.442  24.931  1.00  0.00    -0.278 N 
ATOM     84  H   UNL A   1      30.065  22.645  24.961  1.00  0.00     0.180 HD
BRANCH  83  85
ATOM     85  C   UNL A   1      31.368  23.701  23.714  1.00  0.00     0.072 A 
ATOM     86  C   UNL A   1      30.956  24.856  23.015  1.00  0.00     0.029 A 
ATOM     87  C   UNL A   1      32.433  22.918  23.216  1.00  0.00     0.061 A 
ATOM     88  C   UNL A   1      31.689  25.372  21.951  1.00  0.00     0.002 A 
ATOM     89  C   UNL A   1      33.144  23.464  22.121  1.00  0.00     0.028 A 
ATOM     90  C   UNL A   1      32.806  24.684  21.519  1.00  0.00     0.002 A 
BRANCH  87  91
ATOM     91  N   UNL A   1      32.871  21.752  23.839  1.00  0.00    -0.365 N 
ATOM     92  C   UNL A   1      32.306  20.430  23.446  1.00  0.00     0.145 C 
ATOM     93  C   UNL A   1      34.257  21.659  24.325  1.00  0.00     0.145 C 
ATOM     94  C   UNL A   1      32.619  19.334  24.499  1.00  0.00     0.181 C 
ATOM     95  C   UNL A   1      34.341  20.611  25.433  1.00  0.00     0.181 C 
ATOM     96  O   UNL A   1      34.011  19.327  24.890  1.00  0.00    -0.378 OA
ENDBRANCH  87  91
ENDBRANCH  83  85
ENDBRANCH  80  83
ENDBRANCH  78  80
ENDBRANCH  72  74
ENDBRANCH  71  72
ENDBRANCH   1  71
TORSDOF 18
ENDMDL
