MODEL 1
REMARK VINA RESULT:     -11.9      0.000      0.000
REMARK SMILES C[C@]([NH2+]C[C@H]1Cc2ccccc2O1)(C(=O)OCCOC(=O)c1ccc(-c2c3nc(c(-c4cccc(S(=O)(=O)[O-])c4F)c4ccc([nH]4)c(-c4cccc(S(=O)(=O)[O-])c4F)c4nc(c(-c5cccc(S(=O)(=O)[O-])c5F)c5ccc2[nH]5)C=C4)C=C3)cc1)C(F)(F)F
REMARK SMILES IDX 17 1 16 2 14 3 15 4 2 5 1 6 85 7 86 8 87 9 88 10 3 11 4 14
REMARK SMILES IDX 5 15 6 16 13 17 7 18 12 19 8 20 11 21 9 22 10 23 18 24 19 25
REMARK SMILES IDX 20 26 21 27 22 28 23 29 84 30 24 31 83 32 25 33 26 34 27 35
REMARK SMILES IDX 77 36 28 37 82 38 76 39 78 40 29 41 81 42 75 43 74 44 30 46
REMARK SMILES IDX 62 47 42 48 61 49 43 50 46 51 60 52 79 53 44 54 45 55 59 57
REMARK SMILES IDX 80 58 47 59 31 60 32 61 40 62 33 63 35 64 41 65 34 66 36 67
REMARK SMILES IDX 37 68 38 69 39 70 63 71 64 72 72 73 65 74 67 75 73 76 66 77
REMARK SMILES IDX 68 78 69 79 70 80 71 81 48 82 49 83 57 84 50 85 52 86 58 87
REMARK SMILES IDX 51 88 53 89 54 90 55 91 56 92
REMARK H PARENT 3 12 3 13 78 45 46 56
REMARK Flexibility Score: inf
ROOT
ATOM      1  C   UNL A   1      35.440  21.871  25.478  1.00  0.00     0.274 C 
ENDROOT
BRANCH   1   2
ATOM      2  O   UNL A   1      34.386  21.844  24.488  1.00  0.00    -0.457 OA
BRANCH   2   3
ATOM      3  C   UNL A   1      34.283  22.915  23.646  1.00  0.00     0.377 C 
ATOM      4  O   UNL A   1      35.175  23.232  22.870  1.00  0.00    -0.244 OA
BRANCH   3   5
ATOM      5  C   UNL A   1      32.996  23.728  23.876  1.00  0.00     0.287 C 
ATOM      6  C   UNL A   1      33.047  24.960  22.961  1.00  0.00     0.103 C 
BRANCH   5   7
ATOM      7  C   UNL A   1      31.807  22.851  23.388  1.00  0.00     0.455 C 
ATOM      8  F   UNL A   1      32.138  22.118  22.300  1.00  0.00    -0.164 F 
ATOM      9  F   UNL A   1      31.457  21.953  24.350  1.00  0.00    -0.164 F 
ATOM     10  F   UNL A   1      30.690  23.549  23.102  1.00  0.00    -0.164 F 
ENDBRANCH   5   7
BRANCH   5  11
ATOM     11  N   UNL A   1      32.768  24.085  25.318  1.00  0.00    -0.322 N 
ATOM     12  H   UNL A   1      33.232  23.367  25.877  1.00  0.00     0.347 HD
ATOM     13  H   UNL A   1      31.753  24.147  25.388  1.00  0.00     0.347 HD
BRANCH  11  14
ATOM     14  C   UNL A   1      33.220  25.374  25.830  1.00  0.00     0.307 C 
BRANCH  14  15
ATOM     15  C   UNL A   1      32.050  26.174  26.461  1.00  0.00     0.232 C 
ATOM     16  C   UNL A   1      32.106  27.698  26.245  1.00  0.00     0.090 C 
ATOM     17  O   UNL A   1      30.797  25.680  25.897  1.00  0.00    -0.484 OA
ATOM     18  C   UNL A   1      31.179  27.814  25.101  1.00  0.00    -0.002 A 
ATOM     19  C   UNL A   1      30.442  26.647  24.990  1.00  0.00     0.123 A 
ATOM     20  C   UNL A   1      30.956  28.888  24.259  1.00  0.00     0.007 A 
ATOM     21  C   UNL A   1      29.448  26.506  24.044  1.00  0.00     0.047 A 
ATOM     22  C   UNL A   1      29.968  28.760  23.282  1.00  0.00     0.001 A 
ATOM     23  C   UNL A   1      29.215  27.577  23.179  1.00  0.00     0.004 A 
ENDBRANCH  14  15
ENDBRANCH  11  14
ENDBRANCH   5  11
ENDBRANCH   3   5
ENDBRANCH   2   3
ENDBRANCH   1   2
BRANCH   1  24
ATOM     24  C   UNL A   1      36.532  20.839  25.186  1.00  0.00     0.275 C 
BRANCH  24  25
ATOM     25  O   UNL A   1      37.797  21.471  24.930  1.00  0.00    -0.458 OA
BRANCH  25  26
ATOM     26  C   UNL A   1      38.797  21.086  25.752  1.00  0.00     0.338 C 
ATOM     27  O   UNL A   1      39.312  19.979  25.823  1.00  0.00    -0.246 OA
BRANCH  26  28
ATOM     28  C   UNL A   1      39.352  22.250  26.449  1.00  0.00     0.060 A 
ATOM     29  C   UNL A   1      38.775  23.479  26.152  1.00  0.00     0.016 A 
ATOM     30  C   UNL A   1      40.507  22.181  27.223  1.00  0.00     0.016 A 
ATOM     31  C   UNL A   1      39.406  24.659  26.515  1.00  0.00     0.010 A 
ATOM     32  C   UNL A   1      41.099  23.374  27.664  1.00  0.00     0.010 A 
ATOM     33  C   UNL A   1      40.583  24.625  27.272  1.00  0.00    -0.014 A 
BRANCH  33  34
ATOM     34  C   UNL A   1      41.291  25.900  27.574  1.00  0.00     0.031 A 
ATOM     35  C   UNL A   1      40.639  26.941  28.447  1.00  0.00     0.074 A 
ATOM     36  C   UNL A   1      42.542  26.107  27.115  1.00  0.00     0.049 A 
ATOM     37  N   UNL A   1      41.052  28.145  28.745  1.00  0.00    -0.248 NA
ATOM     38  C   UNL A   1      39.345  26.586  29.056  1.00  0.00     0.031 C 
ATOM     39  C   UNL A   1      43.305  25.170  26.287  1.00  0.00     0.029 A 
ATOM     40  N   UNL A   1      43.399  27.167  27.289  1.00  0.00    -0.354 N 
ATOM     41  C   UNL A   1      40.041  28.718  29.506  1.00  0.00     0.074 A 
ATOM     42  C   UNL A   1      38.997  27.725  29.640  1.00  0.00     0.031 C 
ATOM     43  C   UNL A   1      44.526  25.676  26.061  1.00  0.00     0.029 A 
ATOM     44  C   UNL A   1      44.614  27.000  26.666  1.00  0.00     0.049 A 
ATOM     45  H   UNL A   1      43.165  27.968  27.811  1.00  0.00     0.167 HD
ATOM     46  C   UNL A   1      39.990  29.955  30.056  1.00  0.00     0.034 A 
ATOM     47  C   UNL A   1      45.674  27.827  26.574  1.00  0.00     0.034 A 
ATOM     48  C   UNL A   1      41.066  30.907  30.008  1.00  0.00     0.049 A 
ATOM     49  C   UNL A   1      45.606  29.178  27.230  1.00  0.00     0.074 A 
ATOM     50  C   UNL A   1      41.117  32.177  30.558  1.00  0.00     0.029 A 
ATOM     51  N   UNL A   1      42.291  30.686  29.400  1.00  0.00    -0.354 N 
ATOM     52  N   UNL A   1      44.650  29.692  27.964  1.00  0.00    -0.248 NA
ATOM     53  C   UNL A   1      46.769  30.062  27.051  1.00  0.00     0.031 C 
ATOM     54  C   UNL A   1      42.379  32.720  30.289  1.00  0.00     0.029 A 
ATOM     55  C   UNL A   1      43.111  31.789  29.569  1.00  0.00     0.049 A 
ATOM     56  H   UNL A   1      42.543  29.864  28.919  1.00  0.00     0.167 HD
ATOM     57  C   UNL A   1      45.096  30.953  28.342  1.00  0.00     0.074 A 
ATOM     58  C   UNL A   1      46.424  31.111  27.785  1.00  0.00     0.031 C 
ATOM     59  C   UNL A   1      44.451  31.906  29.057  1.00  0.00     0.034 A 
BRANCH  46  60
ATOM     60  C   UNL A   1      38.734  30.339  30.790  1.00  0.00     0.023 A 
ATOM     61  C   UNL A   1      38.581  29.987  32.145  1.00  0.00     0.012 A 
ATOM     62  C   UNL A   1      37.728  31.092  30.152  1.00  0.00     0.148 A 
ATOM     63  C   UNL A   1      37.434  30.355  32.847  1.00  0.00     0.002 A 
ATOM     64  C   UNL A   1      36.603  31.485  30.869  1.00  0.00     0.091 A 
ATOM     65  F   UNL A   1      37.876  31.393  28.853  1.00  0.00    -0.205 F 
ATOM     66  C   UNL A   1      36.451  31.113  32.213  1.00  0.00     0.022 A 
BRANCH  64  67
ATOM     67  S   UNL A   1      35.325  32.518  30.141  1.00  0.00     0.127 S 
ATOM     68  O   UNL A   1      36.096  33.683  29.709  1.00  0.00    -0.237 OA
ATOM     69  O   UNL A   1      34.824  31.682  29.050  1.00  0.00    -0.237 OA
ATOM     70  O   UNL A   1      34.360  32.755  31.207  1.00  0.00    -0.744 OA
ENDBRANCH  64  67
ENDBRANCH  46  60
BRANCH  47  71
ATOM     71  C   UNL A   1      46.903  27.378  25.860  1.00  0.00     0.023 A 
ATOM     72  C   UNL A   1      47.798  26.506  26.510  1.00  0.00     0.012 A 
ATOM     73  C   UNL A   1      47.164  27.759  24.530  1.00  0.00     0.148 A 
ATOM     74  C   UNL A   1      48.934  26.033  25.852  1.00  0.00     0.002 A 
ATOM     75  C   UNL A   1      48.265  27.236  23.861  1.00  0.00     0.091 A 
ATOM     76  F   UNL A   1      46.322  28.617  23.933  1.00  0.00    -0.205 F 
ATOM     77  C   UNL A   1      49.159  26.384  24.524  1.00  0.00     0.022 A 
BRANCH  75  78
ATOM     78  S   UNL A   1      48.521  27.528  22.107  1.00  0.00     0.127 S 
ATOM     79  O   UNL A   1      47.279  28.194  21.726  1.00  0.00    -0.237 OA
ATOM     80  O   UNL A   1      49.707  28.388  22.101  1.00  0.00    -0.237 OA
ATOM     81  O   UNL A   1      48.747  26.207  21.534  1.00  0.00    -0.744 OA
ENDBRANCH  75  78
ENDBRANCH  47  71
BRANCH  59  82
ATOM     82  C   UNL A   1      45.172  33.206  29.285  1.00  0.00     0.023 A 
ATOM     83  C   UNL A   1      46.013  33.339  30.407  1.00  0.00     0.012 A 
ATOM     84  C   UNL A   1      45.074  34.265  28.363  1.00  0.00     0.148 A 
ATOM     85  C   UNL A   1      46.728  34.516  30.621  1.00  0.00     0.002 A 
ATOM     86  C   UNL A   1      45.817  35.424  28.564  1.00  0.00     0.091 A 
ATOM     87  F   UNL A   1      44.249  34.131  27.314  1.00  0.00    -0.205 F 
ATOM     88  C   UNL A   1      46.640  35.553  29.695  1.00  0.00     0.022 A 
BRANCH  86  89
ATOM     89  S   UNL A   1      45.813  36.768  27.372  1.00  0.00     0.127 S 
ATOM     90  O   UNL A   1      46.401  36.127  26.197  1.00  0.00    -0.237 OA
ATOM     91  O   UNL A   1      44.389  37.080  27.247  1.00  0.00    -0.237 OA
ATOM     92  O   UNL A   1      46.605  37.828  27.980  1.00  0.00    -0.744 OA
ENDBRANCH  86  89
ENDBRANCH  59  82
ENDBRANCH  33  34
ENDBRANCH  26  28
ENDBRANCH  25  26
ENDBRANCH  24  25
ENDBRANCH   1  24
TORSDOF 18
ENDMDL
MODEL 2
REMARK VINA RESULT:     -11.9      1.452      2.090
REMARK SMILES C[C@]([NH2+]C[C@H]1Cc2ccccc2O1)(C(=O)OCCOC(=O)c1ccc(-c2c3nc(c(-c4cccc(S(=O)(=O)[O-])c4F)c4ccc([nH]4)c(-c4cccc(S(=O)(=O)[O-])c4F)c4nc(c(-c5cccc(S(=O)(=O)[O-])c5F)c5ccc2[nH]5)C=C4)C=C3)cc1)C(F)(F)F
REMARK SMILES IDX 17 1 16 2 14 3 15 4 2 5 1 6 85 7 86 8 87 9 88 10 3 11 4 14
REMARK SMILES IDX 5 15 6 16 13 17 7 18 12 19 8 20 11 21 9 22 10 23 18 24 19 25
REMARK SMILES IDX 20 26 21 27 22 28 23 29 84 30 24 31 83 32 25 33 26 34 27 35
REMARK SMILES IDX 77 36 28 37 82 38 76 39 78 40 29 41 81 42 75 43 74 44 30 46
REMARK SMILES IDX 62 47 42 48 61 49 43 50 46 51 60 52 79 53 44 54 45 55 59 57
REMARK SMILES IDX 80 58 47 59 31 60 32 61 40 62 33 63 35 64 41 65 34 66 36 67
REMARK SMILES IDX 37 68 38 69 39 70 63 71 64 72 72 73 65 74 67 75 73 76 66 77
REMARK SMILES IDX 68 78 69 79 70 80 71 81 48 82 49 83 57 84 50 85 52 86 58 87
REMARK SMILES IDX 51 88 53 89 54 90 55 91 56 92
REMARK H PARENT 3 12 3 13 78 45 46 56
REMARK Flexibility Score: inf
ROOT
ATOM      1  C   UNL A   1      35.659  20.524  24.967  1.00  0.00     0.274 C 
ENDROOT
BRANCH   1   2
ATOM      2  O   UNL A   1      34.747  21.385  24.248  1.00  0.00    -0.457 OA
BRANCH   2   3
ATOM      3  C   UNL A   1      33.852  22.110  24.982  1.00  0.00     0.377 C 
ATOM      4  O   UNL A   1      33.086  21.594  25.785  1.00  0.00    -0.244 OA
BRANCH   3   5
ATOM      5  C   UNL A   1      33.837  23.600  24.596  1.00  0.00     0.287 C 
ATOM      6  C   UNL A   1      32.545  24.218  25.149  1.00  0.00     0.103 C 
BRANCH   5   7
ATOM      7  C   UNL A   1      35.020  24.279  25.345  1.00  0.00     0.455 C 
ATOM      8  F   UNL A   1      34.741  25.564  25.664  1.00  0.00    -0.164 F 
ATOM      9  F   UNL A   1      35.258  23.644  26.526  1.00  0.00    -0.164 F 
ATOM     10  F   UNL A   1      36.185  24.256  24.666  1.00  0.00    -0.164 F 
ENDBRANCH   5   7
BRANCH   5  11
ATOM     11  N   UNL A   1      34.007  23.833  23.121  1.00  0.00    -0.322 N 
ATOM     12  H   UNL A   1      34.562  23.056  22.761  1.00  0.00     0.347 HD
ATOM     13  H   UNL A   1      34.421  24.764  23.075  1.00  0.00     0.347 HD
BRANCH  11  14
ATOM     14  C   UNL A   1      32.834  23.945  22.261  1.00  0.00     0.307 C 
BRANCH  14  15
ATOM     15  C   UNL A   1      32.846  25.273  21.457  1.00  0.00     0.232 C 
ATOM     16  C   UNL A   1      31.546  26.096  21.532  1.00  0.00     0.090 C 
ATOM     17  O   UNL A   1      33.939  26.103  21.954  1.00  0.00    -0.484 OA
ATOM     18  C   UNL A   1      31.934  27.067  22.574  1.00  0.00    -0.002 A 
ATOM     19  C   UNL A   1      33.309  27.044  22.732  1.00  0.00     0.123 A 
ATOM     20  C   UNL A   1      31.144  27.950  23.288  1.00  0.00     0.007 A 
ATOM     21  C   UNL A   1      33.954  27.903  23.596  1.00  0.00     0.047 A 
ATOM     22  C   UNL A   1      31.774  28.816  24.183  1.00  0.00     0.001 A 
ATOM     23  C   UNL A   1      33.171  28.796  24.332  1.00  0.00     0.004 A 
ENDBRANCH  14  15
ENDBRANCH  11  14
ENDBRANCH   5  11
ENDBRANCH   3   5
ENDBRANCH   2   3
ENDBRANCH   1   2
BRANCH   1  24
ATOM     24  C   UNL A   1      37.121  20.907  24.730  1.00  0.00     0.275 C 
BRANCH  24  25
ATOM     25  O   UNL A   1      37.612  21.775  25.766  1.00  0.00    -0.458 OA
BRANCH  25  26
ATOM     26  C   UNL A   1      38.896  21.562  26.120  1.00  0.00     0.338 C 
ATOM     27  O   UNL A   1      39.611  20.626  25.786  1.00  0.00    -0.246 OA
BRANCH  26  28
ATOM     28  C   UNL A   1      39.425  22.731  26.829  1.00  0.00     0.060 A 
ATOM     29  C   UNL A   1      38.838  23.953  26.523  1.00  0.00     0.016 A 
ATOM     30  C   UNL A   1      40.567  22.675  27.623  1.00  0.00     0.016 A 
ATOM     31  C   UNL A   1      39.449  25.140  26.900  1.00  0.00     0.010 A 
ATOM     32  C   UNL A   1      41.137  23.874  28.077  1.00  0.00     0.010 A 
ATOM     33  C   UNL A   1      40.612  25.119  27.677  1.00  0.00    -0.014 A 
BRANCH  33  34
ATOM     34  C   UNL A   1      41.299  26.402  27.994  1.00  0.00     0.031 A 
ATOM     35  C   UNL A   1      40.601  27.453  28.817  1.00  0.00     0.074 A 
ATOM     36  C   UNL A   1      42.571  26.609  27.593  1.00  0.00     0.049 A 
ATOM     37  N   UNL A   1      40.994  28.664  29.117  1.00  0.00    -0.248 NA
ATOM     38  C   UNL A   1      39.280  27.101  29.368  1.00  0.00     0.031 C 
ATOM     39  C   UNL A   1      43.376  25.663  26.818  1.00  0.00     0.029 A 
ATOM     40  N   UNL A   1      43.413  27.675  27.792  1.00  0.00    -0.354 N 
ATOM     41  C   UNL A   1      39.944  29.244  29.818  1.00  0.00     0.074 A 
ATOM     42  C   UNL A   1      38.900  28.247  29.916  1.00  0.00     0.031 C 
ATOM     43  C   UNL A   1      44.605  26.171  26.644  1.00  0.00     0.029 A 
ATOM     44  C   UNL A   1      44.658  27.505  27.232  1.00  0.00     0.049 A 
ATOM     45  H   UNL A   1      43.151  28.483  28.290  1.00  0.00     0.167 HD
ATOM     46  C   UNL A   1      39.861  30.488  30.346  1.00  0.00     0.034 A 
ATOM     47  C   UNL A   1      45.718  28.336  27.178  1.00  0.00     0.034 A 
ATOM     48  C   UNL A   1      40.935  31.445  30.336  1.00  0.00     0.049 A 
ATOM     49  C   UNL A   1      45.612  29.696  27.809  1.00  0.00     0.074 A 
ATOM     50  C   UNL A   1      40.953  32.723  30.868  1.00  0.00     0.029 A 
ATOM     51  N   UNL A   1      42.189  31.220  29.792  1.00  0.00    -0.354 N 
ATOM     52  N   UNL A   1      44.619  30.217  28.488  1.00  0.00    -0.248 NA
ATOM     53  C   UNL A   1      46.778  30.583  27.674  1.00  0.00     0.031 C 
ATOM     54  C   UNL A   1      42.224  33.268  30.652  1.00  0.00     0.029 A 
ATOM     55  C   UNL A   1      42.994  32.330  29.983  1.00  0.00     0.049 A 
ATOM     56  H   UNL A   1      42.467  30.393  29.336  1.00  0.00     0.167 HD
ATOM     57  C   UNL A   1      45.040  31.486  28.868  1.00  0.00     0.074 A 
ATOM     58  C   UNL A   1      46.394  31.642  28.375  1.00  0.00     0.031 C 
ATOM     59  C   UNL A   1      44.358  32.446  29.536  1.00  0.00     0.034 A 
BRANCH  46  60
ATOM     60  C   UNL A   1      38.569  30.878  31.012  1.00  0.00     0.023 A 
ATOM     61  C   UNL A   1      38.396  30.647  32.390  1.00  0.00     0.012 A 
ATOM     62  C   UNL A   1      37.546  31.516  30.282  1.00  0.00     0.148 A 
ATOM     63  C   UNL A   1      37.215  31.023  33.029  1.00  0.00     0.002 A 
ATOM     64  C   UNL A   1      36.386  31.919  30.933  1.00  0.00     0.091 A 
ATOM     65  F   UNL A   1      37.715  31.700  28.965  1.00  0.00    -0.205 F 
ATOM     66  C   UNL A   1      36.215  31.668  32.303  1.00  0.00     0.022 A 
BRANCH  64  67
ATOM     67  S   UNL A   1      35.080  32.815  30.082  1.00  0.00     0.127 S 
ATOM     68  O   UNL A   1      34.156  33.103  31.177  1.00  0.00    -0.237 OA
ATOM     69  O   UNL A   1      35.787  33.984  29.559  1.00  0.00    -0.237 OA
ATOM     70  O   UNL A   1      34.587  31.904  29.057  1.00  0.00    -0.744 OA
ENDBRANCH  64  67
ENDBRANCH  46  60
BRANCH  47  71
ATOM     71  C   UNL A   1      46.982  27.882  26.533  1.00  0.00     0.023 A 
ATOM     72  C   UNL A   1      47.964  27.244  27.314  1.00  0.00     0.012 A 
ATOM     73  C   UNL A   1      47.195  28.025  25.148  1.00  0.00     0.148 A 
ATOM     74  C   UNL A   1      49.139  26.768  26.730  1.00  0.00     0.002 A 
ATOM     75  C   UNL A   1      48.340  27.495  24.564  1.00  0.00     0.091 A 
ATOM     76  F   UNL A   1      46.267  28.665  24.421  1.00  0.00    -0.205 F 
ATOM     77  C   UNL A   1      49.320  26.879  25.354  1.00  0.00     0.022 A 
BRANCH  75  78
ATOM     78  S   UNL A   1      48.555  27.469  22.780  1.00  0.00     0.127 S 
ATOM     79  O   UNL A   1      49.887  28.049  22.628  1.00  0.00    -0.237 OA
ATOM     80  O   UNL A   1      48.468  26.040  22.474  1.00  0.00    -0.237 OA
ATOM     81  O   UNL A   1      47.446  28.255  22.255  1.00  0.00    -0.744 OA
ENDBRANCH  75  78
ENDBRANCH  47  71
BRANCH  59  82
ATOM     82  C   UNL A   1      45.061  33.753  29.778  1.00  0.00     0.023 A 
ATOM     83  C   UNL A   1      45.815  33.920  30.956  1.00  0.00     0.012 A 
ATOM     84  C   UNL A   1      45.034  34.784  28.821  1.00  0.00     0.148 A 
ATOM     85  C   UNL A   1      46.513  35.103  31.188  1.00  0.00     0.002 A 
ATOM     86  C   UNL A   1      45.761  35.949  29.043  1.00  0.00     0.091 A 
ATOM     87  F   UNL A   1      44.290  34.618  27.717  1.00  0.00    -0.205 F 
ATOM     88  C   UNL A   1      46.496  36.112  30.228  1.00  0.00     0.022 A 
BRANCH  86  89
ATOM     89  S   UNL A   1      45.849  37.256  27.814  1.00  0.00     0.127 S 
ATOM     90  O   UNL A   1      44.461  37.711  27.761  1.00  0.00    -0.237 OA
ATOM     91  O   UNL A   1      46.779  38.208  28.423  1.00  0.00    -0.237 OA
ATOM     92  O   UNL A   1      46.355  36.619  26.605  1.00  0.00    -0.744 OA
ENDBRANCH  86  89
ENDBRANCH  59  82
ENDBRANCH  33  34
ENDBRANCH  26  28
ENDBRANCH  25  26
ENDBRANCH  24  25
ENDBRANCH   1  24
TORSDOF 18
ENDMDL
MODEL 3
REMARK VINA RESULT:     -11.5      1.583      7.784
REMARK SMILES C[C@]([NH2+]C[C@H]1Cc2ccccc2O1)(C(=O)OCCOC(=O)c1ccc(-c2c3nc(c(-c4cccc(S(=O)(=O)[O-])c4F)c4ccc([nH]4)c(-c4cccc(S(=O)(=O)[O-])c4F)c4nc(c(-c5cccc(S(=O)(=O)[O-])c5F)c5ccc2[nH]5)C=C4)C=C3)cc1)C(F)(F)F
REMARK SMILES IDX 17 1 16 2 14 3 15 4 2 5 1 6 85 7 86 8 87 9 88 10 3 11 4 14
REMARK SMILES IDX 5 15 6 16 13 17 7 18 12 19 8 20 11 21 9 22 10 23 18 24 19 25
REMARK SMILES IDX 20 26 21 27 22 28 23 29 84 30 24 31 83 32 25 33 26 34 27 35
REMARK SMILES IDX 77 36 28 37 82 38 76 39 78 40 29 41 81 42 75 43 74 44 30 46
REMARK SMILES IDX 62 47 42 48 61 49 43 50 46 51 60 52 79 53 44 54 45 55 59 57
REMARK SMILES IDX 80 58 47 59 31 60 32 61 40 62 33 63 35 64 41 65 34 66 36 67
REMARK SMILES IDX 37 68 38 69 39 70 63 71 64 72 72 73 65 74 67 75 73 76 66 77
REMARK SMILES IDX 68 78 69 79 70 80 71 81 48 82 49 83 57 84 50 85 52 86 58 87
REMARK SMILES IDX 51 88 53 89 54 90 55 91 56 92
REMARK H PARENT 3 12 3 13 78 45 46 56
REMARK Flexibility Score: inf
ROOT
ATOM      1  C   UNL A   1      35.897  21.332  25.753  1.00  0.00     0.274 C 
ENDROOT
BRANCH   1   2
ATOM      2  O   UNL A   1      35.029  21.975  24.793  1.00  0.00    -0.457 OA
BRANCH   2   3
ATOM      3  C   UNL A   1      34.481  23.177  25.144  1.00  0.00     0.377 C 
ATOM      4  O   UNL A   1      35.086  24.010  25.805  1.00  0.00    -0.244 OA
BRANCH   3   5
ATOM      5  C   UNL A   1      33.004  23.300  24.724  1.00  0.00     0.287 C 
ATOM      6  C   UNL A   1      32.794  22.432  23.476  1.00  0.00     0.103 C 
BRANCH   5   7
ATOM      7  C   UNL A   1      32.151  22.671  25.863  1.00  0.00     0.455 C 
ATOM      8  F   UNL A   1      32.124  23.459  26.963  1.00  0.00    -0.164 F 
ATOM      9  F   UNL A   1      30.855  22.542  25.465  1.00  0.00    -0.164 F 
ATOM     10  F   UNL A   1      32.553  21.440  26.235  1.00  0.00    -0.164 F 
ENDBRANCH   5   7
BRANCH   5  11
ATOM     11  N   UNL A   1      32.562  24.723  24.523  1.00  0.00    -0.322 N 
ATOM     12  H   UNL A   1      33.388  25.252  24.241  1.00  0.00     0.347 HD
ATOM     13  H   UNL A   1      32.135  24.965  25.417  1.00  0.00     0.347 HD
BRANCH  11  14
ATOM     14  C   UNL A   1      31.515  25.031  23.556  1.00  0.00     0.307 C 
BRANCH  14  15
ATOM     15  C   UNL A   1      30.359  25.835  24.209  1.00  0.00     0.232 C 
ATOM     16  C   UNL A   1      30.388  25.891  25.748  1.00  0.00     0.090 C 
ATOM     17  O   UNL A   1      30.406  27.204  23.703  1.00  0.00    -0.484 OA
ATOM     18  C   UNL A   1      31.017  27.215  25.930  1.00  0.00    -0.002 A 
ATOM     19  C   UNL A   1      30.955  27.918  24.739  1.00  0.00     0.123 A 
ATOM     20  C   UNL A   1      31.549  27.783  27.073  1.00  0.00     0.007 A 
ATOM     21  C   UNL A   1      31.410  29.216  24.640  1.00  0.00     0.047 A 
ATOM     22  C   UNL A   1      32.033  29.090  26.990  1.00  0.00     0.001 A 
ATOM     23  C   UNL A   1      31.959  29.804  25.782  1.00  0.00     0.004 A 
ENDBRANCH  14  15
ENDBRANCH  11  14
ENDBRANCH   5  11
ENDBRANCH   3   5
ENDBRANCH   2   3
ENDBRANCH   1   2
BRANCH   1  24
ATOM     24  C   UNL A   1      37.001  20.517  25.075  1.00  0.00     0.275 C 
BRANCH  24  25
ATOM     25  O   UNL A   1      38.223  21.268  24.976  1.00  0.00    -0.458 OA
BRANCH  25  26
ATOM     26  C   UNL A   1      39.141  20.982  25.924  1.00  0.00     0.338 C 
ATOM     27  O   UNL A   1      39.701  19.911  26.113  1.00  0.00    -0.246 OA
BRANCH  26  28
ATOM     28  C   UNL A   1      39.552  22.208  26.614  1.00  0.00     0.060 A 
ATOM     29  C   UNL A   1      38.940  23.384  26.196  1.00  0.00     0.016 A 
ATOM     30  C   UNL A   1      40.621  22.247  27.504  1.00  0.00     0.016 A 
ATOM     31  C   UNL A   1      39.461  24.616  26.561  1.00  0.00     0.010 A 
ATOM     32  C   UNL A   1      41.095  23.493  27.942  1.00  0.00     0.010 A 
ATOM     33  C   UNL A   1      40.552  24.690  27.435  1.00  0.00    -0.014 A 
BRANCH  33  34
ATOM     34  C   UNL A   1      41.150  26.019  27.741  1.00  0.00     0.031 A 
ATOM     35  C   UNL A   1      42.516  26.375  27.215  1.00  0.00     0.074 A 
ATOM     36  C   UNL A   1      40.450  26.934  28.443  1.00  0.00     0.049 A 
ATOM     37  N   UNL A   1      43.240  27.438  27.450  1.00  0.00    -0.248 NA
ATOM     38  C   UNL A   1      43.160  25.403  26.315  1.00  0.00     0.031 C 
ATOM     39  C   UNL A   1      39.104  26.733  28.984  1.00  0.00     0.029 A 
ATOM     40  N   UNL A   1      40.766  28.218  28.812  1.00  0.00    -0.354 N 
ATOM     41  C   UNL A   1      44.448  27.230  26.797  1.00  0.00     0.074 A 
ATOM     42  C   UNL A   1      44.357  25.944  26.139  1.00  0.00     0.031 C 
ATOM     43  C   UNL A   1      38.695  27.864  29.578  1.00  0.00     0.029 A 
ATOM     44  C   UNL A   1      39.771  28.848  29.522  1.00  0.00     0.049 A 
ATOM     45  H   UNL A   1      41.624  28.646  28.588  1.00  0.00     0.167 HD
ATOM     46  C   UNL A   1      45.532  28.040  26.736  1.00  0.00     0.034 A 
ATOM     47  C   UNL A   1      39.733  30.073  30.084  1.00  0.00     0.034 A 
ATOM     48  C   UNL A   1      45.588  29.360  27.306  1.00  0.00     0.049 A 
ATOM     49  C   UNL A   1      40.934  30.968  29.965  1.00  0.00     0.074 A 
ATOM     50  C   UNL A   1      46.634  30.266  27.274  1.00  0.00     0.029 A 
ATOM     51  N   UNL A   1      44.548  29.974  27.983  1.00  0.00    -0.354 N 
ATOM     52  N   UNL A   1      42.058  30.761  29.324  1.00  0.00    -0.248 NA
ATOM     53  C   UNL A   1      40.860  32.271  30.644  1.00  0.00     0.031 C 
ATOM     54  C   UNL A   1      46.221  31.433  27.928  1.00  0.00     0.029 A 
ATOM     55  C   UNL A   1      44.920  31.251  28.367  1.00  0.00     0.049 A 
ATOM     56  H   UNL A   1      43.672  29.562  28.165  1.00  0.00     0.167 HD
ATOM     57  C   UNL A   1      42.821  31.907  29.512  1.00  0.00     0.074 A 
ATOM     58  C   UNL A   1      42.017  32.821  30.298  1.00  0.00     0.031 C 
ATOM     59  C   UNL A   1      44.085  32.168  29.099  1.00  0.00     0.034 A 
BRANCH  46  60
ATOM     60  C   UNL A   1      46.741  27.533  25.998  1.00  0.00     0.023 A 
ATOM     61  C   UNL A   1      46.862  27.763  24.614  1.00  0.00     0.012 A 
ATOM     62  C   UNL A   1      47.780  26.872  26.684  1.00  0.00     0.148 A 
ATOM     63  C   UNL A   1      47.987  27.321  23.918  1.00  0.00     0.002 A 
ATOM     64  C   UNL A   1      48.913  26.466  25.989  1.00  0.00     0.091 A 
ATOM     65  F   UNL A   1      47.635  26.635  27.996  1.00  0.00    -0.205 F 
ATOM     66  C   UNL A   1      49.016  26.683  24.607  1.00  0.00     0.022 A 
BRANCH  64  67
ATOM     67  S   UNL A   1      50.311  25.696  26.817  1.00  0.00     0.127 S 
ATOM     68  O   UNL A   1      49.714  24.458  27.316  1.00  0.00    -0.237 OA
ATOM     69  O   UNL A   1      51.266  25.513  25.724  1.00  0.00    -0.237 OA
ATOM     70  O   UNL A   1      50.737  26.651  27.833  1.00  0.00    -0.744 OA
ENDBRANCH  64  67
ENDBRANCH  46  60
BRANCH  47  71
ATOM     71  C   UNL A   1      38.495  30.532  30.775  1.00  0.00     0.023 A 
ATOM     72  C   UNL A   1      38.363  30.327  32.162  1.00  0.00     0.012 A 
ATOM     73  C   UNL A   1      37.477  31.218  30.085  1.00  0.00     0.148 A 
ATOM     74  C   UNL A   1      37.236  30.785  32.845  1.00  0.00     0.002 A 
ATOM     75  C   UNL A   1      36.385  31.725  30.782  1.00  0.00     0.091 A 
ATOM     76  F   UNL A   1      37.598  31.378  28.759  1.00  0.00    -0.205 F 
ATOM     77  C   UNL A   1      36.256  31.498  32.159  1.00  0.00     0.022 A 
BRANCH  75  78
ATOM     78  S   UNL A   1      35.172  32.782  29.983  1.00  0.00     0.127 S 
ATOM     79  O   UNL A   1      34.647  31.905  28.940  1.00  0.00    -0.237 OA
ATOM     80  O   UNL A   1      34.238  33.069  31.074  1.00  0.00    -0.237 OA
ATOM     81  O   UNL A   1      35.925  33.944  29.530  1.00  0.00    -0.744 OA
ENDBRANCH  75  78
ENDBRANCH  47  71
BRANCH  59  82
ATOM     82  C   UNL A   1      44.680  33.494  29.485  1.00  0.00     0.023 A 
ATOM     83  C   UNL A   1      45.424  33.592  30.677  1.00  0.00     0.012 A 
ATOM     84  C   UNL A   1      44.562  34.618  28.646  1.00  0.00     0.148 A 
ATOM     85  C   UNL A   1      46.024  34.797  31.039  1.00  0.00     0.002 A 
ATOM     86  C   UNL A   1      45.192  35.807  28.997  1.00  0.00     0.091 A 
ATOM     87  F   UNL A   1      43.828  34.513  27.529  1.00  0.00    -0.205 F 
ATOM     88  C   UNL A   1      45.918  35.900  30.195  1.00  0.00     0.022 A 
BRANCH  86  89
ATOM     89  S   UNL A   1      45.164  37.245  27.919  1.00  0.00     0.127 S 
ATOM     90  O   UNL A   1      45.771  36.716  26.700  1.00  0.00    -0.237 OA
ATOM     91  O   UNL A   1      43.734  37.536  27.811  1.00  0.00    -0.237 OA
ATOM     92  O   UNL A   1      45.930  38.268  28.618  1.00  0.00    -0.744 OA
ENDBRANCH  86  89
ENDBRANCH  59  82
ENDBRANCH  33  34
ENDBRANCH  26  28
ENDBRANCH  25  26
ENDBRANCH  24  25
ENDBRANCH   1  24
TORSDOF 18
ENDMDL
