MODEL 1
REMARK VINA RESULT:     -11.3      0.000      0.000
REMARK SMILES CC(C)CC[C@H](C(=O)OCCOC(=O)c1ccc(-c2c3nc(c(-c4cccc(S(=O)(=O)[O-])c4F)c4ccc([nH]4)c(-c4cccc(S(=O)(=O)[O-])c4F)c4nc(c(-c5cccc(S(=O)(=O)[O-])c5F)c5ccc2[nH]5)C=C4)C=C3)cc1)c1ccc(F)cc1
REMARK SMILES IDX 10 1 9 2 7 3 8 4 6 5 5 6 4 7 2 8 1 9 3 10 78 11 79 12 84 13
REMARK SMILES IDX 80 14 83 15 81 16 82 17 11 18 12 19 13 20 14 21 15 22 16 23
REMARK SMILES IDX 77 24 17 25 76 26 18 27 19 28 20 29 70 30 21 31 75 32 69 33
REMARK SMILES IDX 71 34 22 35 74 36 68 37 67 38 23 40 55 41 35 42 54 43 36 44
REMARK SMILES IDX 39 45 53 46 72 47 37 48 38 49 52 51 73 52 40 53 24 54 25 55
REMARK SMILES IDX 33 56 26 57 28 58 34 59 27 60 29 61 30 62 31 63 32 64 56 65
REMARK SMILES IDX 57 66 65 67 58 68 60 69 66 70 59 71 61 72 62 73 63 74 64 75
REMARK SMILES IDX 41 76 42 77 50 78 43 79 45 80 51 81 44 82 46 83 47 84 48 85
REMARK SMILES IDX 49 86
REMARK H PARENT 71 39 39 50
REMARK Flexibility Score: inf
ROOT
ATOM      1  C   UNL A   1      36.499  19.535  25.002  1.00  0.00     0.274 C 
ENDROOT
BRANCH   1   2
ATOM      2  O   UNL A   1      35.959  20.827  24.656  1.00  0.00    -0.462 OA
BRANCH   2   3
ATOM      3  C   UNL A   1      34.818  21.186  25.325  1.00  0.00     0.313 C 
ATOM      4  O   UNL A   1      34.829  21.566  26.487  1.00  0.00    -0.252 OA
BRANCH   3   5
ATOM      5  C   UNL A   1      33.580  20.987  24.438  1.00  0.00     0.129 C 
BRANCH   5   6
ATOM      6  C   UNL A   1      32.528  20.008  25.052  1.00  0.00     0.020 C 
BRANCH   6   7
ATOM      7  C   UNL A   1      32.530  18.516  24.686  1.00  0.00     0.004 C 
BRANCH   7   8
ATOM      8  C   UNL A   1      33.296  18.121  23.412  1.00  0.00    -0.017 C 
ATOM      9  C   UNL A   1      34.039  16.796  23.555  1.00  0.00     0.007 C 
ATOM     10  C   UNL A   1      32.341  18.089  22.218  1.00  0.00     0.007 C 
ENDBRANCH   7   8
ENDBRANCH   6   7
ENDBRANCH   5   6
BRANCH   5  11
ATOM     11  C   UNL A   1      32.899  22.259  23.873  1.00  0.00    -0.034 A 
ATOM     12  C   UNL A   1      31.717  22.821  24.390  1.00  0.00     0.007 A 
ATOM     13  C   UNL A   1      33.514  22.951  22.803  1.00  0.00     0.007 A 
ATOM     14  C   UNL A   1      31.143  23.969  23.832  1.00  0.00     0.039 A 
ATOM     15  C   UNL A   1      32.936  24.094  22.239  1.00  0.00     0.039 A 
ATOM     16  C   UNL A   1      31.749  24.588  22.754  1.00  0.00     0.123 A 
ATOM     17  F   UNL A   1      31.191  25.676  22.209  1.00  0.00    -0.207 F 
ENDBRANCH   5  11
ENDBRANCH   3   5
ENDBRANCH   2   3
ENDBRANCH   1   2
BRANCH   1  18
ATOM     18  C   UNL A   1      38.028  19.526  25.012  1.00  0.00     0.275 C 
BRANCH  18  19
ATOM     19  O   UNL A   1      38.559  20.769  25.492  1.00  0.00    -0.458 OA
BRANCH  19  20
ATOM     20  C   UNL A   1      39.691  20.644  26.234  1.00  0.00     0.338 C 
ATOM     21  O   UNL A   1      40.354  19.639  26.392  1.00  0.00    -0.246 OA
BRANCH  20  22
ATOM     22  C   UNL A   1      40.129  21.982  26.679  1.00  0.00     0.060 A 
ATOM     23  C   UNL A   1      39.484  23.090  26.118  1.00  0.00     0.016 A 
ATOM     24  C   UNL A   1      41.152  22.152  27.614  1.00  0.00     0.016 A 
ATOM     25  C   UNL A   1      39.845  24.377  26.505  1.00  0.00     0.010 A 
ATOM     26  C   UNL A   1      41.540  23.443  27.973  1.00  0.00     0.010 A 
ATOM     27  C   UNL A   1      40.893  24.557  27.412  1.00  0.00    -0.014 A 
BRANCH  27  28
ATOM     28  C   UNL A   1      41.415  25.917  27.656  1.00  0.00     0.031 A 
ATOM     29  C   UNL A   1      42.792  26.252  27.168  1.00  0.00     0.074 A 
ATOM     30  C   UNL A   1      40.672  26.830  28.306  1.00  0.00     0.049 A 
ATOM     31  N   UNL A   1      43.467  27.362  27.294  1.00  0.00    -0.248 NA
ATOM     32  C   UNL A   1      43.504  25.189  26.439  1.00  0.00     0.031 C 
ATOM     33  C   UNL A   1      39.317  26.613  28.806  1.00  0.00     0.029 A 
ATOM     34  N   UNL A   1      40.967  28.118  28.674  1.00  0.00    -0.354 N 
ATOM     35  C   UNL A   1      44.692  27.127  26.684  1.00  0.00     0.074 A 
ATOM     36  C   UNL A   1      44.667  25.769  26.186  1.00  0.00     0.031 C 
ATOM     37  C   UNL A   1      38.900  27.727  29.432  1.00  0.00     0.029 A 
ATOM     38  C   UNL A   1      39.973  28.719  29.408  1.00  0.00     0.049 A 
ATOM     39  H   UNL A   1      41.810  28.567  28.434  1.00  0.00     0.167 HD
ATOM     40  C   UNL A   1      45.743  27.968  26.550  1.00  0.00     0.034 A 
ATOM     41  C   UNL A   1      39.952  29.923  30.012  1.00  0.00     0.034 A 
ATOM     42  C   UNL A   1      45.767  29.308  27.069  1.00  0.00     0.049 A 
ATOM     43  C   UNL A   1      41.158  30.820  29.894  1.00  0.00     0.074 A 
ATOM     44  C   UNL A   1      46.781  30.245  26.986  1.00  0.00     0.029 A 
ATOM     45  N   UNL A   1      44.738  29.894  27.791  1.00  0.00    -0.354 N 
ATOM     46  N   UNL A   1      42.274  30.627  29.231  1.00  0.00    -0.248 NA
ATOM     47  C   UNL A   1      41.096  32.113  30.593  1.00  0.00     0.031 C 
ATOM     48  C   UNL A   1      46.378  31.385  27.686  1.00  0.00     0.029 A 
ATOM     49  C   UNL A   1      45.097  31.175  28.172  1.00  0.00     0.049 A 
ATOM     50  H   UNL A   1      43.879  29.463  28.000  1.00  0.00     0.167 HD
ATOM     51  C   UNL A   1      43.028  31.784  29.401  1.00  0.00     0.074 A 
ATOM     52  C   UNL A   1      42.234  32.680  30.214  1.00  0.00     0.031 C 
ATOM     53  C   UNL A   1      44.270  32.073  28.939  1.00  0.00     0.034 A 
BRANCH  40  54
ATOM     54  C   UNL A   1      46.951  27.451  25.820  1.00  0.00     0.023 A 
ATOM     55  C   UNL A   1      47.873  26.622  26.492  1.00  0.00     0.012 A 
ATOM     56  C   UNL A   1      47.166  27.769  24.466  1.00  0.00     0.148 A 
ATOM     57  C   UNL A   1      49.009  26.148  25.836  1.00  0.00     0.002 A 
ATOM     58  C   UNL A   1      48.276  27.256  23.807  1.00  0.00     0.091 A 
ATOM     59  F   UNL A   1      46.292  28.581  23.854  1.00  0.00    -0.205 F 
ATOM     60  C   UNL A   1      49.204  26.457  24.494  1.00  0.00     0.022 A 
BRANCH  58  61
ATOM     61  S   UNL A   1      48.581  27.539  22.060  1.00  0.00     0.127 S 
ATOM     62  O   UNL A   1      48.740  26.173  21.564  1.00  0.00    -0.237 OA
ATOM     63  O   UNL A   1      47.348  28.202  21.636  1.00  0.00    -0.237 OA
ATOM     64  O   UNL A   1      49.774  28.371  21.990  1.00  0.00    -0.744 OA
ENDBRANCH  58  61
ENDBRANCH  40  54
BRANCH  41  65
ATOM     65  C   UNL A   1      38.746  30.366  30.770  1.00  0.00     0.023 A 
ATOM     66  C   UNL A   1      38.619  30.025  32.130  1.00  0.00     0.012 A 
ATOM     67  C   UNL A   1      37.725  31.115  30.152  1.00  0.00     0.148 A 
ATOM     68  C   UNL A   1      37.481  30.390  32.853  1.00  0.00     0.002 A 
ATOM     69  C   UNL A   1      36.621  31.523  30.892  1.00  0.00     0.091 A 
ATOM     70  F   UNL A   1      37.855  31.415  28.852  1.00  0.00    -0.205 F 
ATOM     71  C   UNL A   1      36.488  31.145  32.237  1.00  0.00     0.022 A 
BRANCH  69  72
ATOM     72  S   UNL A   1      35.349  32.596  30.215  1.00  0.00     0.127 S 
ATOM     73  O   UNL A   1      36.104  33.814  29.932  1.00  0.00    -0.237 OA
ATOM     74  O   UNL A   1      34.921  31.847  29.033  1.00  0.00    -0.237 OA
ATOM     75  O   UNL A   1      34.335  32.710  31.255  1.00  0.00    -0.744 OA
ENDBRANCH  69  72
ENDBRANCH  41  65
BRANCH  53  76
ATOM     76  C   UNL A   1      44.840  33.432  29.259  1.00  0.00     0.023 A 
ATOM     77  C   UNL A   1      45.560  33.629  30.454  1.00  0.00     0.012 A 
ATOM     78  C   UNL A   1      44.735  34.488  28.331  1.00  0.00     0.148 A 
ATOM     79  C   UNL A   1      46.140  34.867  30.734  1.00  0.00     0.002 A 
ATOM     80  C   UNL A   1      45.360  35.700  28.594  1.00  0.00     0.091 A 
ATOM     81  F   UNL A   1      44.032  34.284  27.208  1.00  0.00    -0.205 F 
ATOM     82  C   UNL A   1      46.052  35.896  29.800  1.00  0.00     0.022 A 
BRANCH  80  83
ATOM     83  S   UNL A   1      45.387  37.047  27.405  1.00  0.00     0.127 S 
ATOM     84  O   UNL A   1      43.963  37.344  27.259  1.00  0.00    -0.237 OA
ATOM     85  O   UNL A   1      46.153  38.071  28.116  1.00  0.00    -0.237 OA
ATOM     86  O   UNL A   1      46.041  36.521  26.215  1.00  0.00    -0.744 OA
ENDBRANCH  80  83
ENDBRANCH  53  76
ENDBRANCH  27  28
ENDBRANCH  20  22
ENDBRANCH  19  20
ENDBRANCH  18  19
ENDBRANCH   1  18
TORSDOF 18
ENDMDL
MODEL 2
REMARK VINA RESULT:     -11.1      1.341      1.709
REMARK SMILES CC(C)CC[C@H](C(=O)OCCOC(=O)c1ccc(-c2c3nc(c(-c4cccc(S(=O)(=O)[O-])c4F)c4ccc([nH]4)c(-c4cccc(S(=O)(=O)[O-])c4F)c4nc(c(-c5cccc(S(=O)(=O)[O-])c5F)c5ccc2[nH]5)C=C4)C=C3)cc1)c1ccc(F)cc1
REMARK SMILES IDX 10 1 9 2 7 3 8 4 6 5 5 6 4 7 2 8 1 9 3 10 78 11 79 12 84 13
REMARK SMILES IDX 80 14 83 15 81 16 82 17 11 18 12 19 13 20 14 21 15 22 16 23
REMARK SMILES IDX 77 24 17 25 76 26 18 27 19 28 20 29 70 30 21 31 75 32 69 33
REMARK SMILES IDX 71 34 22 35 74 36 68 37 67 38 23 40 55 41 35 42 54 43 36 44
REMARK SMILES IDX 39 45 53 46 72 47 37 48 38 49 52 51 73 52 40 53 24 54 25 55
REMARK SMILES IDX 33 56 26 57 28 58 34 59 27 60 29 61 30 62 31 63 32 64 56 65
REMARK SMILES IDX 57 66 65 67 58 68 60 69 66 70 59 71 61 72 62 73 63 74 64 75
REMARK SMILES IDX 41 76 42 77 50 78 43 79 45 80 51 81 44 82 46 83 47 84 48 85
REMARK SMILES IDX 49 86
REMARK H PARENT 71 39 39 50
REMARK Flexibility Score: inf
ROOT
ATOM      1  C   UNL A   1      36.148  20.339  24.982  1.00  0.00     0.274 C 
ENDROOT
BRANCH   1   2
ATOM      2  O   UNL A   1      35.495  21.264  25.875  1.00  0.00    -0.462 OA
BRANCH   2   3
ATOM      3  C   UNL A   1      34.131  21.149  25.948  1.00  0.00     0.313 C 
ATOM      4  O   UNL A   1      33.529  21.113  27.011  1.00  0.00    -0.252 OA
BRANCH   3   5
ATOM      5  C   UNL A   1      33.519  21.020  24.545  1.00  0.00     0.129 C 
BRANCH   5   6
ATOM      6  C   UNL A   1      32.525  19.822  24.409  1.00  0.00     0.020 C 
BRANCH   6   7
ATOM      7  C   UNL A   1      32.982  18.381  24.686  1.00  0.00     0.004 C 
BRANCH   7   8
ATOM      8  C   UNL A   1      32.899  17.395  23.508  1.00  0.00    -0.017 C 
ATOM      9  C   UNL A   1      32.516  18.072  22.195  1.00  0.00     0.007 C 
ATOM     10  C   UNL A   1      34.220  16.637  23.370  1.00  0.00     0.007 C 
ENDBRANCH   7   8
ENDBRANCH   6   7
ENDBRANCH   5   6
BRANCH   5  11
ATOM     11  C   UNL A   1      32.939  22.305  23.902  1.00  0.00    -0.034 A 
ATOM     12  C   UNL A   1      31.655  22.814  24.171  1.00  0.00     0.007 A 
ATOM     13  C   UNL A   1      33.751  23.064  23.028  1.00  0.00     0.007 A 
ATOM     14  C   UNL A   1      31.181  23.977  23.553  1.00  0.00     0.039 A 
ATOM     15  C   UNL A   1      33.275  24.222  22.402  1.00  0.00     0.039 A 
ATOM     16  C   UNL A   1      31.989  24.664  22.665  1.00  0.00     0.123 A 
ATOM     17  F   UNL A   1      31.530  25.767  22.061  1.00  0.00    -0.207 F 
ENDBRANCH   5  11
ENDBRANCH   3   5
ENDBRANCH   2   3
ENDBRANCH   1   2
BRANCH   1  18
ATOM     18  C   UNL A   1      37.669  20.491  24.996  1.00  0.00     0.275 C 
BRANCH  18  19
ATOM     19  O   UNL A   1      38.116  21.221  26.147  1.00  0.00    -0.458 OA
BRANCH  19  20
ATOM     20  C   UNL A   1      39.460  21.181  26.347  1.00  0.00     0.338 C 
ATOM     21  O   UNL A   1      40.215  20.274  26.061  1.00  0.00    -0.246 OA
BRANCH  20  22
ATOM     22  C   UNL A   1      39.921  22.509  26.797  1.00  0.00     0.060 A 
ATOM     23  C   UNL A   1      39.269  23.630  26.272  1.00  0.00     0.016 A 
ATOM     24  C   UNL A   1      40.975  22.658  27.701  1.00  0.00     0.016 A 
ATOM     25  C   UNL A   1      39.652  24.908  26.665  1.00  0.00     0.010 A 
ATOM     26  C   UNL A   1      41.385  23.941  28.066  1.00  0.00     0.010 A 
ATOM     27  C   UNL A   1      40.730  25.068  27.541  1.00  0.00    -0.014 A 
BRANCH  27  28
ATOM     28  C   UNL A   1      41.269  26.420  27.788  1.00  0.00     0.031 A 
ATOM     29  C   UNL A   1      42.625  26.757  27.244  1.00  0.00     0.074 A 
ATOM     30  C   UNL A   1      40.563  27.324  28.488  1.00  0.00     0.049 A 
ATOM     31  N   UNL A   1      43.312  27.862  27.361  1.00  0.00    -0.248 NA
ATOM     32  C   UNL A   1      43.298  25.705  26.464  1.00  0.00     0.031 C 
ATOM     33  C   UNL A   1      39.230  27.104  29.044  1.00  0.00     0.029 A 
ATOM     34  N   UNL A   1      40.881  28.603  28.867  1.00  0.00    -0.354 N 
ATOM     35  C   UNL A   1      44.506  27.633  26.692  1.00  0.00     0.074 A 
ATOM     36  C   UNL A   1      44.451  26.285  26.169  1.00  0.00     0.031 C 
ATOM     37  C   UNL A   1      38.848  28.207  29.709  1.00  0.00     0.029 A 
ATOM     38  C   UNL A   1      39.925  29.194  29.656  1.00  0.00     0.049 A 
ATOM     39  H   UNL A   1      41.714  29.053  28.598  1.00  0.00     0.167 HD
ATOM     40  C   UNL A   1      45.555  28.471  26.527  1.00  0.00     0.034 A 
ATOM     41  C   UNL A   1      39.938  30.387  30.284  1.00  0.00     0.034 A 
ATOM     42  C   UNL A   1      45.611  29.800  27.070  1.00  0.00     0.049 A 
ATOM     43  C   UNL A   1      41.143  31.280  30.128  1.00  0.00     0.074 A 
ATOM     44  C   UNL A   1      46.625  30.733  26.959  1.00  0.00     0.029 A 
ATOM     45  N   UNL A   1      44.619  30.377  27.848  1.00  0.00    -0.354 N 
ATOM     46  N   UNL A   1      42.227  31.094  29.412  1.00  0.00    -0.248 NA
ATOM     47  C   UNL A   1      41.120  32.559  30.854  1.00  0.00     0.031 C 
ATOM     48  C   UNL A   1      46.261  31.862  27.698  1.00  0.00     0.029 A 
ATOM     49  C   UNL A   1      45.002  31.648  28.238  1.00  0.00     0.049 A 
ATOM     50  H   UNL A   1      43.767  29.946  28.088  1.00  0.00     0.167 HD
ATOM     51  C   UNL A   1      42.994  32.243  29.570  1.00  0.00     0.074 A 
ATOM     52  C   UNL A   1      42.243  33.128  30.436  1.00  0.00     0.031 C 
ATOM     53  C   UNL A   1      44.216  32.536  29.058  1.00  0.00     0.034 A 
BRANCH  40  54
ATOM     54  C   UNL A   1      46.726  27.962  25.733  1.00  0.00     0.023 A 
ATOM     55  C   UNL A   1      46.741  28.113  24.332  1.00  0.00     0.012 A 
ATOM     56  C   UNL A   1      47.820  27.349  26.375  1.00  0.00     0.148 A 
ATOM     57  C   UNL A   1      47.810  27.631  23.577  1.00  0.00     0.002 A 
ATOM     58  C   UNL A   1      48.901  26.912  25.621  1.00  0.00     0.091 A 
ATOM     59  F   UNL A   1      47.773  27.190  27.705  1.00  0.00    -0.205 F 
ATOM     60  C   UNL A   1      48.892  27.040  24.223  1.00  0.00     0.022 A 
BRANCH  58  61
ATOM     61  S   UNL A   1      50.373  26.200  26.363  1.00  0.00     0.127 S 
ATOM     62  O   UNL A   1      50.789  27.264  27.275  1.00  0.00    -0.237 OA
ATOM     63  O   UNL A   1      49.840  25.007  27.021  1.00  0.00    -0.237 OA
ATOM     64  O   UNL A   1      51.288  25.929  25.263  1.00  0.00    -0.744 OA
ENDBRANCH  58  61
ENDBRANCH  40  54
BRANCH  41  65
ATOM     65  C   UNL A   1      38.770  30.821  31.104  1.00  0.00     0.023 A 
ATOM     66  C   UNL A   1      38.793  30.630  32.498  1.00  0.00     0.012 A 
ATOM     67  C   UNL A   1      37.638  31.414  30.512  1.00  0.00     0.148 A 
ATOM     68  C   UNL A   1      37.696  30.988  33.285  1.00  0.00     0.002 A 
ATOM     69  C   UNL A   1      36.572  31.820  31.307  1.00  0.00     0.091 A 
ATOM     70  F   UNL A   1      37.626  31.573  29.181  1.00  0.00    -0.205 F 
ATOM     71  C   UNL A   1      36.591  31.589  32.692  1.00  0.00     0.022 A 
BRANCH  69  72
ATOM     72  S   UNL A   1      35.157  32.708  30.647  1.00  0.00     0.127 S 
ATOM     73  O   UNL A   1      34.243  32.704  31.786  1.00  0.00    -0.237 OA
ATOM     74  O   UNL A   1      35.742  34.012  30.330  1.00  0.00    -0.237 OA
ATOM     75  O   UNL A   1      34.720  31.946  29.485  1.00  0.00    -0.744 OA
ENDBRANCH  69  72
ENDBRANCH  41  65
BRANCH  53  76
ATOM     76  C   UNL A   1      44.808  33.885  29.379  1.00  0.00     0.023 A 
ATOM     77  C   UNL A   1      45.563  34.061  30.554  1.00  0.00     0.012 A 
ATOM     78  C   UNL A   1      44.686  34.953  28.467  1.00  0.00     0.148 A 
ATOM     79  C   UNL A   1      46.162  35.290  30.833  1.00  0.00     0.002 A 
ATOM     80  C   UNL A   1      45.330  36.157  28.725  1.00  0.00     0.091 A 
ATOM     81  F   UNL A   1      43.950  34.769  27.362  1.00  0.00    -0.205 F 
ATOM     82  C   UNL A   1      46.058  36.332  29.914  1.00  0.00     0.022 A 
BRANCH  80  83
ATOM     83  S   UNL A   1      45.336  37.518  27.553  1.00  0.00     0.127 S 
ATOM     84  O   UNL A   1      46.023  36.922  26.408  1.00  0.00    -0.237 OA
ATOM     85  O   UNL A   1      43.907  37.757  27.349  1.00  0.00    -0.237 OA
ATOM     86  O   UNL A   1      46.045  38.609  28.206  1.00  0.00    -0.744 OA
ENDBRANCH  80  83
ENDBRANCH  53  76
ENDBRANCH  27  28
ENDBRANCH  20  22
ENDBRANCH  19  20
ENDBRANCH  18  19
ENDBRANCH   1  18
TORSDOF 18
ENDMDL
MODEL 3
REMARK VINA RESULT:     -10.9      5.803      8.353
REMARK SMILES CC(C)CC[C@H](C(=O)OCCOC(=O)c1ccc(-c2c3nc(c(-c4cccc(S(=O)(=O)[O-])c4F)c4ccc([nH]4)c(-c4cccc(S(=O)(=O)[O-])c4F)c4nc(c(-c5cccc(S(=O)(=O)[O-])c5F)c5ccc2[nH]5)C=C4)C=C3)cc1)c1ccc(F)cc1
REMARK SMILES IDX 10 1 9 2 7 3 8 4 6 5 5 6 4 7 2 8 1 9 3 10 78 11 79 12 84 13
REMARK SMILES IDX 80 14 83 15 81 16 82 17 11 18 12 19 13 20 14 21 15 22 16 23
REMARK SMILES IDX 77 24 17 25 76 26 18 27 19 28 20 29 70 30 21 31 75 32 69 33
REMARK SMILES IDX 71 34 22 35 74 36 68 37 67 38 23 40 55 41 35 42 54 43 36 44
REMARK SMILES IDX 39 45 53 46 72 47 37 48 38 49 52 51 73 52 40 53 24 54 25 55
REMARK SMILES IDX 33 56 26 57 28 58 34 59 27 60 29 61 30 62 31 63 32 64 56 65
REMARK SMILES IDX 57 66 65 67 58 68 60 69 66 70 59 71 61 72 62 73 63 74 64 75
REMARK SMILES IDX 41 76 42 77 50 78 43 79 45 80 51 81 44 82 46 83 47 84 48 85
REMARK SMILES IDX 49 86
REMARK H PARENT 71 39 39 50
REMARK Flexibility Score: inf
ROOT
ATOM      1  C   UNL A   1      32.761  29.327  25.008  1.00  0.00     0.274 C 
ENDROOT
BRANCH   1   2
ATOM      2  O   UNL A   1      31.993  28.112  24.886  1.00  0.00    -0.462 OA
BRANCH   2   3
ATOM      3  C   UNL A   1      32.288  27.337  23.795  1.00  0.00     0.313 C 
ATOM      4  O   UNL A   1      33.427  26.986  23.525  1.00  0.00    -0.252 OA
BRANCH   3   5
ATOM      5  C   UNL A   1      31.022  27.045  22.976  1.00  0.00     0.129 C 
BRANCH   5   6
ATOM      6  C   UNL A   1      30.264  25.759  23.441  1.00  0.00     0.020 C 
BRANCH   6   7
ATOM      7  C   UNL A   1      31.008  24.621  24.157  1.00  0.00     0.004 C 
BRANCH   7   8
ATOM      8  C   UNL A   1      30.736  24.463  25.664  1.00  0.00    -0.017 C 
ATOM      9  C   UNL A   1      32.011  24.500  26.502  1.00  0.00     0.007 C 
ATOM     10  C   UNL A   1      29.742  25.529  26.128  1.00  0.00     0.007 C 
ENDBRANCH   7   8
ENDBRANCH   6   7
ENDBRANCH   5   6
BRANCH   5  11
ATOM     11  C   UNL A   1      30.039  28.221  22.744  1.00  0.00    -0.034 A 
ATOM     12  C   UNL A   1      30.380  29.420  22.091  1.00  0.00     0.007 A 
ATOM     13  C   UNL A   1      28.693  28.084  23.155  1.00  0.00     0.007 A 
ATOM     14  C   UNL A   1      29.450  30.452  21.918  1.00  0.00     0.039 A 
ATOM     15  C   UNL A   1      27.765  29.119  22.990  1.00  0.00     0.039 A 
ATOM     16  C   UNL A   1      28.155  30.298  22.378  1.00  0.00     0.123 A 
ATOM     17  F   UNL A   1      27.270  31.292  22.228  1.00  0.00    -0.207 F 
ENDBRANCH   5  11
ENDBRANCH   3   5
ENDBRANCH   2   3
ENDBRANCH   1   2
BRANCH   1  18
ATOM     18  C   UNL A   1      32.009  30.417  25.772  1.00  0.00     0.275 C 
BRANCH  18  19
ATOM     19  O   UNL A   1      32.494  30.550  27.116  1.00  0.00    -0.458 OA
BRANCH  19  20
ATOM     20  C   UNL A   1      33.190  31.694  27.348  1.00  0.00     0.338 C 
ATOM     21  O   UNL A   1      32.775  32.833  27.257  1.00  0.00    -0.246 OA
BRANCH  20  22
ATOM     22  C   UNL A   1      34.501  31.353  27.933  1.00  0.00     0.060 A 
ATOM     23  C   UNL A   1      34.689  30.038  28.372  1.00  0.00     0.016 A 
ATOM     24  C   UNL A   1      35.521  32.298  28.061  1.00  0.00     0.016 A 
ATOM     25  C   UNL A   1      35.906  29.652  28.923  1.00  0.00     0.010 A 
ATOM     26  C   UNL A   1      36.730  31.921  28.649  1.00  0.00     0.010 A 
ATOM     27  C   UNL A   1      36.920  30.601  29.089  1.00  0.00    -0.014 A 
BRANCH  27  28
ATOM     28  C   UNL A   1      38.126  30.245  29.865  1.00  0.00     0.031 A 
ATOM     29  C   UNL A   1      39.087  29.257  29.275  1.00  0.00     0.074 A 
ATOM     30  C   UNL A   1      38.351  30.790  31.072  1.00  0.00     0.049 A 
ATOM     31  N   UNL A   1      40.188  28.771  29.781  1.00  0.00    -0.248 NA
ATOM     32  C   UNL A   1      38.760  28.747  27.933  1.00  0.00     0.031 C 
ATOM     33  C   UNL A   1      37.490  31.772  31.727  1.00  0.00     0.029 A 
ATOM     34  N   UNL A   1      39.365  30.576  31.969  1.00  0.00    -0.354 N 
ATOM     35  C   UNL A   1      40.676  27.882  28.833  1.00  0.00     0.074 A 
ATOM     36  C   UNL A   1      39.752  27.895  27.720  1.00  0.00     0.031 C 
ATOM     37  C   UNL A   1      38.004  32.066  32.933  1.00  0.00     0.029 A 
ATOM     38  C   UNL A   1      39.208  31.265  33.148  1.00  0.00     0.049 A 
ATOM     39  H   UNL A   1      40.132  29.986  31.786  1.00  0.00     0.167 HD
ATOM     40  C   UNL A   1      41.794  27.122  28.886  1.00  0.00     0.034 A 
ATOM     41  C   UNL A   1      39.942  31.226  34.277  1.00  0.00     0.034 A 
ATOM     42  C   UNL A   1      42.693  27.098  30.006  1.00  0.00     0.049 A 
ATOM     43  C   UNL A   1      41.154  30.329  34.330  1.00  0.00     0.074 A 
ATOM     44  C   UNL A   1      43.856  26.366  30.159  1.00  0.00     0.029 A 
ATOM     45  N   UNL A   1      42.517  27.821  31.176  1.00  0.00    -0.354 N 
ATOM     46  N   UNL A   1      41.661  29.565  33.391  1.00  0.00    -0.248 NA
ATOM     47  C   UNL A   1      41.906  30.302  35.593  1.00  0.00     0.031 C 
ATOM     48  C   UNL A   1      44.365  26.621  31.436  1.00  0.00     0.029 A 
ATOM     49  C   UNL A   1      43.542  27.542  32.064  1.00  0.00     0.049 A 
ATOM     50  H   UNL A   1      41.773  28.441  31.349  1.00  0.00     0.167 HD
ATOM     51  C   UNL A   1      42.809  28.998  33.936  1.00  0.00     0.074 A 
ATOM     52  C   UNL A   1      42.932  29.521  35.280  1.00  0.00     0.031 C 
ATOM     53  C   UNL A   1      43.675  28.114  33.380  1.00  0.00     0.034 A 
BRANCH  40  54
ATOM     54  C   UNL A   1      42.092  26.251  27.697  1.00  0.00     0.023 A 
ATOM     55  C   UNL A   1      42.760  26.795  26.581  1.00  0.00     0.012 A 
ATOM     56  C   UNL A   1      41.727  24.891  27.689  1.00  0.00     0.148 A 
ATOM     57  C   UNL A   1      43.029  26.008  25.462  1.00  0.00     0.002 A 
ATOM     58  C   UNL A   1      42.038  24.103  26.589  1.00  0.00     0.091 A 
ATOM     59  F   UNL A   1      41.067  24.401  28.749  1.00  0.00    -0.205 F 
ATOM     60  C   UNL A   1      42.677  24.662  25.471  1.00  0.00     0.022 A 
BRANCH  58  61
ATOM     61  S   UNL A   1      41.689  22.342  26.531  1.00  0.00     0.127 S 
ATOM     62  O   UNL A   1      42.284  21.881  27.784  1.00  0.00    -0.237 OA
ATOM     63  O   UNL A   1      40.226  22.320  26.506  1.00  0.00    -0.237 OA
ATOM     64  O   UNL A   1      42.325  21.846  25.319  1.00  0.00    -0.744 OA
ENDBRANCH  58  61
ENDBRANCH  40  54
BRANCH  41  65
ATOM     65  C   UNL A   1      39.571  32.071  35.449  1.00  0.00     0.023 A 
ATOM     66  C   UNL A   1      40.129  33.356  35.582  1.00  0.00     0.012 A 
ATOM     67  C   UNL A   1      38.674  31.608  36.432  1.00  0.00     0.148 A 
ATOM     68  C   UNL A   1      39.831  34.151  36.690  1.00  0.00     0.002 A 
ATOM     69  C   UNL A   1      38.338  32.426  37.504  1.00  0.00     0.091 A 
ATOM     70  F   UNL A   1      38.164  30.375  36.297  1.00  0.00    -0.205 F 
ATOM     71  C   UNL A   1      38.931  33.691  37.646  1.00  0.00     0.022 A 
BRANCH  69  72
ATOM     72  S   UNL A   1      37.099  31.965  38.720  1.00  0.00     0.127 S 
ATOM     73  O   UNL A   1      37.019  30.519  38.532  1.00  0.00    -0.237 OA
ATOM     74  O   UNL A   1      37.731  32.390  39.970  1.00  0.00    -0.237 OA
ATOM     75  O   UNL A   1      35.900  32.714  38.367  1.00  0.00    -0.744 OA
ENDBRANCH  69  72
ENDBRANCH  41  65
BRANCH  53  76
ATOM     76  C   UNL A   1      44.863  27.683  34.202  1.00  0.00     0.023 A 
ATOM     77  C   UNL A   1      46.047  28.446  34.184  1.00  0.00     0.012 A 
ATOM     78  C   UNL A   1      44.771  26.569  35.061  1.00  0.00     0.148 A 
ATOM     79  C   UNL A   1      47.132  28.087  34.983  1.00  0.00     0.002 A 
ATOM     80  C   UNL A   1      45.836  26.250  35.894  1.00  0.00     0.091 A 
ATOM     81  F   UNL A   1      43.641  25.847  35.052  1.00  0.00    -0.205 F 
ATOM     82  C   UNL A   1      47.023  27.000  35.847  1.00  0.00     0.022 A 
BRANCH  80  83
ATOM     83  S   UNL A   1      45.747  24.932  37.111  1.00  0.00     0.127 S 
ATOM     84  O   UNL A   1      45.123  23.857  36.340  1.00  0.00    -0.237 OA
ATOM     85  O   UNL A   1      47.157  24.711  37.432  1.00  0.00    -0.237 OA
ATOM     86  O   UNL A   1      44.951  25.453  38.213  1.00  0.00    -0.744 OA
ENDBRANCH  80  83
ENDBRANCH  53  76
ENDBRANCH  27  28
ENDBRANCH  20  22
ENDBRANCH  19  20
ENDBRANCH  18  19
ENDBRANCH   1  18
TORSDOF 18
ENDMDL
