MODEL 1
REMARK VINA RESULT:     -12.0      0.000      0.000
REMARK SMILES COc1c(C(=O)OCCOC(=O)c2ccc(-c3c4nc(c(-c5cccc(S(=O)(=O)[O-])c5F)c5ccc([nH]5)c(-c5cccc(S(=O)(=O)[O-])c5F)c5nc(c(-c6cccc(S(=O)(=O)[O-])c6F)c6ccc3[nH]6)C=C5)C=C4)cc2)cccc1-c1cc(C)ccc1C
REMARK SMILES IDX 9 1 8 2 7 3 5 4 6 5 4 6 3 7 79 8 76 9 78 10 77 11 2 12 1 13
REMARK SMILES IDX 80 14 81 15 86 16 82 17 85 18 87 19 83 20 84 21 10 22 11 23
REMARK SMILES IDX 12 24 13 25 14 26 75 27 15 28 74 29 16 30 17 31 18 32 68 33
REMARK SMILES IDX 19 34 73 35 67 36 69 37 20 38 72 39 66 40 65 41 21 43 53 44
REMARK SMILES IDX 33 45 52 46 34 47 37 48 51 49 70 50 35 51 36 52 50 54 71 55
REMARK SMILES IDX 38 56 22 57 23 58 31 59 24 60 26 61 32 62 25 63 27 64 28 65
REMARK SMILES IDX 29 66 30 67 54 68 55 69 63 70 56 71 58 72 64 73 57 74 59 75
REMARK SMILES IDX 60 76 61 77 62 78 39 79 40 80 48 81 41 82 43 83 49 84 42 85
REMARK SMILES IDX 44 86 45 87 46 88 47 89
REMARK H PARENT 69 42 37 53
REMARK Flexibility Score: inf
ROOT
ATOM      1  C   UNL A   1      37.346  20.702  24.750  1.00  0.00     0.275 C 
ENDROOT
BRANCH   1   2
ATOM      2  C   UNL A   1      35.827  20.661  24.900  1.00  0.00     0.275 C 
BRANCH   2   3
ATOM      3  O   UNL A   1      35.225  21.752  24.176  1.00  0.00    -0.458 OA
BRANCH   3   4
ATOM      4  C   UNL A   1      33.872  21.760  24.106  1.00  0.00     0.342 C 
ATOM      5  O   UNL A   1      33.129  20.822  24.352  1.00  0.00    -0.246 OA
BRANCH   4   6
ATOM      6  C   UNL A   1      33.360  23.125  23.839  1.00  0.00     0.102 A 
ATOM      7  C   UNL A   1      33.033  24.037  24.852  1.00  0.00     0.141 A 
ATOM      8  C   UNL A   1      32.618  25.346  24.509  1.00  0.00     0.025 A 
ATOM      9  C   UNL A   1      33.258  23.511  22.493  1.00  0.00     0.019 A 
ATOM     10  C   UNL A   1      32.406  25.651  23.146  1.00  0.00     0.012 A 
ATOM     11  C   UNL A   1      32.726  24.744  22.144  1.00  0.00     0.002 A 
BRANCH   7  12
ATOM     12  O   UNL A   1      33.306  23.686  26.154  1.00  0.00    -0.495 OA
ATOM     13  C   UNL A   1      32.155  23.174  26.825  1.00  0.00     0.278 C 
ENDBRANCH   7  12
BRANCH   8  14
ATOM     14  C   UNL A   1      32.531  26.461  25.472  1.00  0.00    -0.011 A 
ATOM     15  C   UNL A   1      33.694  27.195  25.786  1.00  0.00     0.012 A 
ATOM     16  C   UNL A   1      31.340  26.752  26.176  1.00  0.00    -0.043 A 
ATOM     17  C   UNL A   1      33.691  28.198  26.764  1.00  0.00    -0.050 A 
ATOM     18  C   UNL A   1      31.332  27.793  27.118  1.00  0.00     0.004 A 
ATOM     19  C   UNL A   1      30.053  25.999  25.952  1.00  0.00     0.045 C 
ATOM     20  C   UNL A   1      34.967  28.900  27.121  1.00  0.00     0.044 C 
ATOM     21  C   UNL A   1      32.496  28.501  27.417  1.00  0.00     0.004 A 
ENDBRANCH   8  14
ENDBRANCH   4   6
ENDBRANCH   3   4
ENDBRANCH   2   3
ENDBRANCH   1   2
BRANCH   1  22
ATOM     22  O   UNL A   1      37.901  21.682  25.644  1.00  0.00    -0.458 OA
BRANCH  22  23
ATOM     23  C   UNL A   1      39.103  21.370  26.178  1.00  0.00     0.338 C 
ATOM     24  O   UNL A   1      39.691  20.303  26.128  1.00  0.00    -0.246 OA
BRANCH  23  25
ATOM     25  C   UNL A   1      39.682  22.581  26.773  1.00  0.00     0.060 A 
ATOM     26  C   UNL A   1      39.263  23.813  26.279  1.00  0.00     0.016 A 
ATOM     27  C   UNL A   1      40.692  22.510  27.725  1.00  0.00     0.016 A 
ATOM     28  C   UNL A   1      39.904  24.985  26.668  1.00  0.00     0.010 A 
ATOM     29  C   UNL A   1      41.276  23.696  28.183  1.00  0.00     0.010 A 
ATOM     30  C   UNL A   1      40.914  24.944  27.636  1.00  0.00    -0.014 A 
BRANCH  30  31
ATOM     31  C   UNL A   1      41.608  26.188  28.072  1.00  0.00     0.031 A 
ATOM     32  C   UNL A   1      40.847  27.250  28.819  1.00  0.00     0.074 A 
ATOM     33  C   UNL A   1      42.902  26.396  27.757  1.00  0.00     0.049 A 
ATOM     34  N   UNL A   1      41.190  28.483  29.085  1.00  0.00    -0.248 NA
ATOM     35  C   UNL A   1      39.510  26.880  29.311  1.00  0.00     0.031 C 
ATOM     36  C   UNL A   1      43.764  25.449  27.048  1.00  0.00     0.029 A 
ATOM     37  N   UNL A   1      43.709  27.489  27.963  1.00  0.00    -0.354 N 
ATOM     38  C   UNL A   1      40.084  29.062  29.696  1.00  0.00     0.074 A 
ATOM     39  C   UNL A   1      39.064  28.038  29.776  1.00  0.00     0.031 C 
ATOM     40  C   UNL A   1      44.971  26.003  26.867  1.00  0.00     0.029 A 
ATOM     41  C   UNL A   1      44.948  27.369  27.376  1.00  0.00     0.049 A 
ATOM     42  H   UNL A   1      43.429  28.280  28.478  1.00  0.00     0.167 HD
ATOM     43  C   UNL A   1      39.933  30.328  30.154  1.00  0.00     0.034 A 
ATOM     44  C   UNL A   1      45.938  28.269  27.214  1.00  0.00     0.034 A 
ATOM     45  C   UNL A   1      40.975  31.320  30.141  1.00  0.00     0.049 A 
ATOM     46  C   UNL A   1      45.761  29.661  27.751  1.00  0.00     0.074 A 
ATOM     47  C   UNL A   1      40.942  32.610  30.639  1.00  0.00     0.029 A 
ATOM     48  N   UNL A   1      42.241  31.131  29.606  1.00  0.00    -0.354 N 
ATOM     49  N   UNL A   1      44.733  30.175  28.382  1.00  0.00    -0.248 NA
ATOM     50  C   UNL A   1      46.884  30.592  27.572  1.00  0.00     0.031 C 
ATOM     51  C   UNL A   1      42.186  33.206  30.395  1.00  0.00     0.029 A 
ATOM     52  C   UNL A   1      42.998  32.281  29.759  1.00  0.00     0.049 A 
ATOM     53  H   UNL A   1      42.555  30.301  29.180  1.00  0.00     0.167 HD
ATOM     54  C   UNL A   1      45.090  31.482  28.692  1.00  0.00     0.074 A 
ATOM     55  C   UNL A   1      46.440  31.673  28.201  1.00  0.00     0.031 C 
ATOM     56  C   UNL A   1      44.358  32.442  29.310  1.00  0.00     0.034 A 
BRANCH  43  57
ATOM     57  C   UNL A   1      38.589  30.707  30.721  1.00  0.00     0.023 A 
ATOM     58  C   UNL A   1      38.258  30.353  32.045  1.00  0.00     0.012 A 
ATOM     59  C   UNL A   1      37.662  31.436  29.951  1.00  0.00     0.148 A 
ATOM     60  C   UNL A   1      37.011  30.680  32.576  1.00  0.00     0.002 A 
ATOM     61  C   UNL A   1      36.438  31.796  30.503  1.00  0.00     0.091 A 
ATOM     62  F   UNL A   1      37.980  31.745  28.685  1.00  0.00    -0.205 F 
ATOM     63  C   UNL A   1      36.105  31.408  31.810  1.00  0.00     0.022 A 
BRANCH  61  64
ATOM     64  S   UNL A   1      35.246  32.801  29.609  1.00  0.00     0.127 S 
ATOM     65  O   UNL A   1      34.174  32.938  30.593  1.00  0.00    -0.237 OA
ATOM     66  O   UNL A   1      35.999  34.031  29.356  1.00  0.00    -0.237 OA
ATOM     67  O   UNL A   1      34.914  32.044  28.409  1.00  0.00    -0.744 OA
ENDBRANCH  61  64
ENDBRANCH  43  57
BRANCH  44  68
ATOM     68  C   UNL A   1      47.186  27.858  26.511  1.00  0.00     0.023 A 
ATOM     69  C   UNL A   1      48.202  27.201  27.230  1.00  0.00     0.012 A 
ATOM     70  C   UNL A   1      47.330  28.035  25.120  1.00  0.00     0.148 A 
ATOM     71  C   UNL A   1      49.343  26.733  26.578  1.00  0.00     0.002 A 
ATOM     72  C   UNL A   1      48.441  27.513  24.467  1.00  0.00     0.091 A 
ATOM     73  F   UNL A   1      46.358  28.678  24.458  1.00  0.00    -0.205 F 
ATOM     74  C   UNL A   1      49.455  26.874  25.197  1.00  0.00     0.022 A 
BRANCH  72  75
ATOM     75  S   UNL A   1      48.598  27.515  22.677  1.00  0.00     0.127 S 
ATOM     76  O   UNL A   1      49.853  28.237  22.488  1.00  0.00    -0.237 OA
ATOM     77  O   UNL A   1      48.659  26.084  22.380  1.00  0.00    -0.237 OA
ATOM     78  O   UNL A   1      47.405  28.184  22.177  1.00  0.00    -0.744 OA
ENDBRANCH  72  75
ENDBRANCH  44  68
BRANCH  56  79
ATOM     79  C   UNL A   1      45.006  33.785  29.520  1.00  0.00     0.023 A 
ATOM     80  C   UNL A   1      45.735  34.031  30.699  1.00  0.00     0.012 A 
ATOM     81  C   UNL A   1      44.958  34.772  28.516  1.00  0.00     0.148 A 
ATOM     82  C   UNL A   1      46.388  35.249  30.887  1.00  0.00     0.002 A 
ATOM     83  C   UNL A   1      45.647  35.967  28.692  1.00  0.00     0.091 A 
ATOM     84  F   UNL A   1      44.240  34.527  27.410  1.00  0.00    -0.205 F 
ATOM     85  C   UNL A   1      46.354  36.210  29.881  1.00  0.00     0.022 A 
BRANCH  83  86
ATOM     86  S   UNL A   1      45.731  37.223  27.410  1.00  0.00     0.127 S 
ATOM     87  O   UNL A   1      46.272  36.465  26.285  1.00  0.00    -0.237 OA
ATOM     88  O   UNL A   1      44.328  37.615  27.264  1.00  0.00    -0.237 OA
ATOM     89  O   UNL A   1      46.595  38.271  27.935  1.00  0.00    -0.744 OA
ENDBRANCH  83  86
ENDBRANCH  56  79
ENDBRANCH  30  31
ENDBRANCH  23  25
ENDBRANCH  22  23
ENDBRANCH   1  22
TORSDOF 16
ENDMDL
MODEL 2
REMARK VINA RESULT:     -12.0      1.678      2.333
REMARK SMILES COc1c(C(=O)OCCOC(=O)c2ccc(-c3c4nc(c(-c5cccc(S(=O)(=O)[O-])c5F)c5ccc([nH]5)c(-c5cccc(S(=O)(=O)[O-])c5F)c5nc(c(-c6cccc(S(=O)(=O)[O-])c6F)c6ccc3[nH]6)C=C5)C=C4)cc2)cccc1-c1cc(C)ccc1C
REMARK SMILES IDX 9 1 8 2 7 3 5 4 6 5 4 6 3 7 79 8 76 9 78 10 77 11 2 12 1 13
REMARK SMILES IDX 80 14 81 15 86 16 82 17 85 18 87 19 83 20 84 21 10 22 11 23
REMARK SMILES IDX 12 24 13 25 14 26 75 27 15 28 74 29 16 30 17 31 18 32 68 33
REMARK SMILES IDX 19 34 73 35 67 36 69 37 20 38 72 39 66 40 65 41 21 43 53 44
REMARK SMILES IDX 33 45 52 46 34 47 37 48 51 49 70 50 35 51 36 52 50 54 71 55
REMARK SMILES IDX 38 56 22 57 23 58 31 59 24 60 26 61 32 62 25 63 27 64 28 65
REMARK SMILES IDX 29 66 30 67 54 68 55 69 63 70 56 71 58 72 64 73 57 74 59 75
REMARK SMILES IDX 60 76 61 77 62 78 39 79 40 80 48 81 41 82 43 83 49 84 42 85
REMARK SMILES IDX 44 86 45 87 46 88 47 89
REMARK H PARENT 69 42 37 53
REMARK Flexibility Score: inf
ROOT
ATOM      1  C   UNL A   1      35.949  20.819  24.991  1.00  0.00     0.275 C 
ENDROOT
BRANCH   1   2
ATOM      2  C   UNL A   1      34.942  21.799  24.393  1.00  0.00     0.275 C 
BRANCH   2   3
ATOM      3  O   UNL A   1      33.635  21.196  24.332  1.00  0.00    -0.458 OA
BRANCH   3   4
ATOM      4  C   UNL A   1      32.677  21.888  23.669  1.00  0.00     0.342 C 
ATOM      5  O   UNL A   1      32.284  21.671  22.532  1.00  0.00    -0.246 OA
BRANCH   4   6
ATOM      6  C   UNL A   1      32.021  22.875  24.557  1.00  0.00     0.102 A 
ATOM      7  C   UNL A   1      32.104  24.261  24.363  1.00  0.00     0.141 A 
ATOM      8  C   UNL A   1      31.387  25.132  25.218  1.00  0.00     0.025 A 
ATOM      9  C   UNL A   1      31.241  22.363  25.606  1.00  0.00     0.019 A 
ATOM     10  C   UNL A   1      30.720  24.583  26.336  1.00  0.00     0.012 A 
ATOM     11  C   UNL A   1      30.644  23.210  26.529  1.00  0.00     0.002 A 
BRANCH   7  12
ATOM     12  O   UNL A   1      32.733  24.722  23.229  1.00  0.00    -0.495 OA
ATOM     13  C   UNL A   1      34.075  25.132  23.489  1.00  0.00     0.278 C 
ENDBRANCH   7  12
BRANCH   8  14
ATOM     14  C   UNL A   1      31.167  26.565  24.937  1.00  0.00    -0.011 A 
ATOM     15  C   UNL A   1      30.133  26.945  24.055  1.00  0.00     0.012 A 
ATOM     16  C   UNL A   1      32.028  27.568  25.439  1.00  0.00    -0.043 A 
ATOM     17  C   UNL A   1      29.943  28.280  23.676  1.00  0.00    -0.050 A 
ATOM     18  C   UNL A   1      31.798  28.909  25.096  1.00  0.00     0.004 A 
ATOM     19  C   UNL A   1      33.190  27.266  26.352  1.00  0.00     0.045 C 
ATOM     20  C   UNL A   1      28.882  28.630  22.676  1.00  0.00     0.044 C 
ATOM     21  C   UNL A   1      30.775  29.261  24.217  1.00  0.00     0.004 A 
ENDBRANCH   8  14
ENDBRANCH   4   6
ENDBRANCH   3   4
ENDBRANCH   2   3
ENDBRANCH   1   2
BRANCH   1  22
ATOM     22  O   UNL A   1      36.797  21.500  25.931  1.00  0.00    -0.458 OA
BRANCH  22  23
ATOM     23  C   UNL A   1      38.126  21.316  25.756  1.00  0.00     0.338 C 
ATOM     24  O   UNL A   1      38.683  20.438  25.122  1.00  0.00    -0.246 OA
BRANCH  23  25
ATOM     25  C   UNL A   1      38.841  22.433  26.386  1.00  0.00     0.060 A 
ATOM     26  C   UNL A   1      38.382  23.724  26.139  1.00  0.00     0.016 A 
ATOM     27  C   UNL A   1      40.002  22.227  27.121  1.00  0.00     0.016 A 
ATOM     28  C   UNL A   1      39.121  24.828  26.551  1.00  0.00     0.010 A 
ATOM     29  C   UNL A   1      40.699  23.337  27.614  1.00  0.00     0.010 A 
ATOM     30  C   UNL A   1      40.286  24.650  27.307  1.00  0.00    -0.014 A 
BRANCH  30  31
ATOM     31  C   UNL A   1      41.088  25.818  27.765  1.00  0.00     0.031 A 
ATOM     32  C   UNL A   1      40.436  26.903  28.578  1.00  0.00     0.074 A 
ATOM     33  C   UNL A   1      42.383  25.940  27.412  1.00  0.00     0.049 A 
ATOM     34  N   UNL A   1      40.882  28.095  28.879  1.00  0.00    -0.248 NA
ATOM     35  C   UNL A   1      39.092  26.616  29.103  1.00  0.00     0.031 C 
ATOM     36  C   UNL A   1      43.146  24.960  26.637  1.00  0.00     0.029 A 
ATOM     37  N   UNL A   1      43.279  26.959  27.630  1.00  0.00    -0.354 N 
ATOM     38  C   UNL A   1      39.844  28.731  29.551  1.00  0.00     0.074 A 
ATOM     39  C   UNL A   1      38.751  27.785  29.627  1.00  0.00     0.031 C 
ATOM     40  C   UNL A   1      44.386  25.428  26.435  1.00  0.00     0.029 A 
ATOM     41  C   UNL A   1      44.485  26.770  26.996  1.00  0.00     0.049 A 
ATOM     42  H   UNL A   1      43.077  27.747  28.186  1.00  0.00     0.167 HD
ATOM     43  C   UNL A   1      39.806  29.985  30.061  1.00  0.00     0.034 A 
ATOM     44  C   UNL A   1      45.536  27.598  26.834  1.00  0.00     0.034 A 
ATOM     45  C   UNL A   1      40.922  30.895  30.049  1.00  0.00     0.049 A 
ATOM     46  C   UNL A   1      45.485  28.976  27.429  1.00  0.00     0.074 A 
ATOM     47  C   UNL A   1      41.004  32.162  30.598  1.00  0.00     0.029 A 
ATOM     48  N   UNL A   1      42.151  30.632  29.463  1.00  0.00    -0.354 N 
ATOM     49  N   UNL A   1      44.521  29.541  28.115  1.00  0.00    -0.248 NA
ATOM     50  C   UNL A   1      46.669  29.826  27.246  1.00  0.00     0.031 C 
ATOM     51  C   UNL A   1      42.282  32.671  30.332  1.00  0.00     0.029 A 
ATOM     52  C   UNL A   1      42.999  31.714  29.633  1.00  0.00     0.049 A 
ATOM     53  H   UNL A   1      42.386  29.799  28.994  1.00  0.00     0.167 HD
ATOM     54  C   UNL A   1      44.987  30.803  28.462  1.00  0.00     0.074 A 
ATOM     55  C   UNL A   1      46.331  30.911  27.931  1.00  0.00     0.031 C 
ATOM     56  C   UNL A   1      44.352  31.790  29.142  1.00  0.00     0.034 A 
BRANCH  43  57
ATOM     57  C   UNL A   1      38.515  30.441  30.690  1.00  0.00     0.023 A 
ATOM     58  C   UNL A   1      38.259  30.169  32.049  1.00  0.00     0.012 A 
ATOM     59  C   UNL A   1      37.565  31.162  29.941  1.00  0.00     0.148 A 
ATOM     60  C   UNL A   1      37.059  30.568  32.639  1.00  0.00     0.002 A 
ATOM     61  C   UNL A   1      36.391  31.595  30.548  1.00  0.00     0.091 A 
ATOM     62  F   UNL A   1      37.810  31.392  28.643  1.00  0.00    -0.205 F 
ATOM     63  C   UNL A   1      36.130  31.288  31.893  1.00  0.00     0.022 A 
BRANCH  61  64
ATOM     64  S   UNL A   1      35.177  32.594  29.677  1.00  0.00     0.127 S 
ATOM     65  O   UNL A   1      34.641  31.637  28.713  1.00  0.00    -0.237 OA
ATOM     66  O   UNL A   1      34.249  32.965  30.747  1.00  0.00    -0.237 OA
ATOM     67  O   UNL A   1      35.921  33.714  29.115  1.00  0.00    -0.744 OA
ENDBRANCH  61  64
ENDBRANCH  43  57
BRANCH  44  68
ATOM     68  C   UNL A   1      46.724  27.122  26.071  1.00  0.00     0.023 A 
ATOM     69  C   UNL A   1      46.814  27.388  24.692  1.00  0.00     0.012 A 
ATOM     70  C   UNL A   1      47.803  26.490  26.722  1.00  0.00     0.148 A 
ATOM     71  C   UNL A   1      47.953  27.026  23.973  1.00  0.00     0.002 A 
ATOM     72  C   UNL A   1      48.959  26.187  26.012  1.00  0.00     0.091 A 
ATOM     73  F   UNL A   1      47.689  26.232  28.033  1.00  0.00    -0.205 F 
ATOM     74  C   UNL A   1      49.030  26.442  24.634  1.00  0.00     0.022 A 
BRANCH  72  75
ATOM     75  S   UNL A   1      50.448  25.573  26.809  1.00  0.00     0.127 S 
ATOM     76  O   UNL A   1      51.341  25.386  25.669  1.00  0.00    -0.237 OA
ATOM     77  O   UNL A   1      50.798  26.688  27.691  1.00  0.00    -0.237 OA
ATOM     78  O   UNL A   1      50.051  24.357  27.505  1.00  0.00    -0.744 OA
ENDBRANCH  72  75
ENDBRANCH  44  68
BRANCH  56  79
ATOM     79  C   UNL A   1      45.108  33.070  29.380  1.00  0.00     0.023 A 
ATOM     80  C   UNL A   1      45.898  33.209  30.538  1.00  0.00     0.012 A 
ATOM     81  C   UNL A   1      45.099  34.101  28.420  1.00  0.00     0.148 A 
ATOM     82  C   UNL A   1      46.648  34.365  30.749  1.00  0.00     0.002 A 
ATOM     83  C   UNL A   1      45.883  35.232  28.616  1.00  0.00     0.091 A 
ATOM     84  F   UNL A   1      44.323  33.959  27.335  1.00  0.00    -0.205 F 
ATOM     85  C   UNL A   1      46.650  35.369  29.784  1.00  0.00     0.022 A 
BRANCH  83  86
ATOM     86  S   UNL A   1      46.016  36.532  27.384  1.00  0.00     0.127 S 
ATOM     87  O   UNL A   1      44.670  37.100  27.404  1.00  0.00    -0.237 OA
ATOM     88  O   UNL A   1      47.052  37.396  27.952  1.00  0.00    -0.237 OA
ATOM     89  O   UNL A   1      46.400  35.870  26.145  1.00  0.00    -0.744 OA
ENDBRANCH  83  86
ENDBRANCH  56  79
ENDBRANCH  30  31
ENDBRANCH  23  25
ENDBRANCH  22  23
ENDBRANCH   1  22
TORSDOF 16
ENDMDL
MODEL 3
REMARK VINA RESULT:     -11.9      5.140     10.045
REMARK SMILES COc1c(C(=O)OCCOC(=O)c2ccc(-c3c4nc(c(-c5cccc(S(=O)(=O)[O-])c5F)c5ccc([nH]5)c(-c5cccc(S(=O)(=O)[O-])c5F)c5nc(c(-c6cccc(S(=O)(=O)[O-])c6F)c6ccc3[nH]6)C=C5)C=C4)cc2)cccc1-c1cc(C)ccc1C
REMARK SMILES IDX 9 1 8 2 7 3 5 4 6 5 4 6 3 7 79 8 76 9 78 10 77 11 2 12 1 13
REMARK SMILES IDX 80 14 81 15 86 16 82 17 85 18 87 19 83 20 84 21 10 22 11 23
REMARK SMILES IDX 12 24 13 25 14 26 75 27 15 28 74 29 16 30 17 31 18 32 68 33
REMARK SMILES IDX 19 34 73 35 67 36 69 37 20 38 72 39 66 40 65 41 21 43 53 44
REMARK SMILES IDX 33 45 52 46 34 47 37 48 51 49 70 50 35 51 36 52 50 54 71 55
REMARK SMILES IDX 38 56 22 57 23 58 31 59 24 60 26 61 32 62 25 63 27 64 28 65
REMARK SMILES IDX 29 66 30 67 54 68 55 69 63 70 56 71 58 72 64 73 57 74 59 75
REMARK SMILES IDX 60 76 61 77 62 78 39 79 40 80 48 81 41 82 43 83 49 84 42 85
REMARK SMILES IDX 44 86 45 87 46 88 47 89
REMARK H PARENT 69 42 37 53
REMARK Flexibility Score: inf
ROOT
ATOM      1  C   UNL A   1      31.466  30.149  25.381  1.00  0.00     0.275 C 
ENDROOT
BRANCH   1   2
ATOM      2  C   UNL A   1      31.378  29.044  24.330  1.00  0.00     0.275 C 
BRANCH   2   3
ATOM      3  O   UNL A   1      31.351  27.752  24.967  1.00  0.00    -0.458 OA
BRANCH   3   4
ATOM      4  C   UNL A   1      30.665  26.775  24.327  1.00  0.00     0.342 C 
ATOM      5  O   UNL A   1      29.450  26.691  24.227  1.00  0.00    -0.246 OA
BRANCH   4   6
ATOM      6  C   UNL A   1      31.582  25.867  23.599  1.00  0.00     0.102 A 
ATOM      7  C   UNL A   1      32.310  24.844  24.223  1.00  0.00     0.141 A 
ATOM      8  C   UNL A   1      33.110  23.976  23.441  1.00  0.00     0.025 A 
ATOM      9  C   UNL A   1      31.664  26.033  22.207  1.00  0.00     0.019 A 
ATOM     10  C   UNL A   1      33.265  24.258  22.066  1.00  0.00     0.012 A 
ATOM     11  C   UNL A   1      32.547  25.275  21.451  1.00  0.00     0.002 A 
BRANCH   7  12
ATOM     12  O   UNL A   1      32.076  24.602  25.557  1.00  0.00    -0.495 OA
ATOM     13  C   UNL A   1      30.914  23.799  25.761  1.00  0.00     0.278 C 
ENDBRANCH   7  12
BRANCH   8  14
ATOM     14  C   UNL A   1      33.678  22.708  23.940  1.00  0.00    -0.011 A 
ATOM     15  C   UNL A   1      32.938  21.516  23.796  1.00  0.00     0.012 A 
ATOM     16  C   UNL A   1      34.896  22.663  24.656  1.00  0.00    -0.043 A 
ATOM     17  C   UNL A   1      33.383  20.303  24.337  1.00  0.00    -0.050 A 
ATOM     18  C   UNL A   1      35.362  21.434  25.150  1.00  0.00     0.004 A 
ATOM     19  C   UNL A   1      35.743  23.886  24.906  1.00  0.00     0.045 C 
ATOM     20  C   UNL A   1      32.528  19.076  24.228  1.00  0.00     0.044 C 
ATOM     21  C   UNL A   1      34.610  20.270  25.002  1.00  0.00     0.004 A 
ENDBRANCH   8  14
ENDBRANCH   4   6
ENDBRANCH   3   4
ENDBRANCH   2   3
ENDBRANCH   1   2
BRANCH   1  22
ATOM     22  O   UNL A   1      32.717  30.061  26.083  1.00  0.00    -0.458 OA
BRANCH  22  23
ATOM     23  C   UNL A   1      33.014  31.112  26.880  1.00  0.00     0.338 C 
ATOM     24  O   UNL A   1      32.300  32.055  27.173  1.00  0.00    -0.246 OA
BRANCH  23  25
ATOM     25  C   UNL A   1      34.350  30.904  27.452  1.00  0.00     0.060 A 
ATOM     26  C   UNL A   1      34.720  29.606  27.789  1.00  0.00     0.016 A 
ATOM     27  C   UNL A   1      35.185  31.974  27.750  1.00  0.00     0.016 A 
ATOM     28  C   UNL A   1      35.891  29.367  28.503  1.00  0.00     0.010 A 
ATOM     29  C   UNL A   1      36.406  31.725  28.388  1.00  0.00     0.010 A 
ATOM     30  C   UNL A   1      36.758  30.424  28.802  1.00  0.00    -0.014 A 
BRANCH  30  31
ATOM     31  C   UNL A   1      38.020  30.189  29.557  1.00  0.00     0.031 A 
ATOM     32  C   UNL A   1      39.067  29.264  29.000  1.00  0.00     0.074 A 
ATOM     33  C   UNL A   1      38.211  30.758  30.764  1.00  0.00     0.049 A 
ATOM     34  N   UNL A   1      40.115  28.749  29.588  1.00  0.00    -0.248 NA
ATOM     35  C   UNL A   1      38.897  28.843  27.600  1.00  0.00     0.031 C 
ATOM     36  C   UNL A   1      37.286  31.684  31.420  1.00  0.00     0.029 A 
ATOM     37  N   UNL A   1      39.232  30.612  31.672  1.00  0.00    -0.354 N 
ATOM     38  C   UNL A   1      40.680  27.879  28.662  1.00  0.00     0.074 A 
ATOM     39  C   UNL A   1      39.866  27.948  27.468  1.00  0.00     0.031 C 
ATOM     40  C   UNL A   1      37.774  32.014  32.624  1.00  0.00     0.029 A 
ATOM     41  C   UNL A   1      39.003  31.266  32.860  1.00  0.00     0.049 A 
ATOM     42  H   UNL A   1      40.047  30.090  31.489  1.00  0.00     0.167 HD
ATOM     43  C   UNL A   1      41.779  27.096  28.794  1.00  0.00     0.034 A 
ATOM     44  C   UNL A   1      39.672  31.231  34.030  1.00  0.00     0.034 A 
ATOM     45  C   UNL A   1      42.629  27.088  29.956  1.00  0.00     0.049 A 
ATOM     46  C   UNL A   1      40.903  30.377  34.147  1.00  0.00     0.074 A 
ATOM     47  C   UNL A   1      43.800  26.381  30.160  1.00  0.00     0.029 A 
ATOM     48  N   UNL A   1      42.401  27.826  31.108  1.00  0.00    -0.354 N 
ATOM     49  N   UNL A   1      41.460  29.607  33.244  1.00  0.00    -0.248 NA
ATOM     50  C   UNL A   1      41.608  30.399  35.436  1.00  0.00     0.031 C 
ATOM     51  C   UNL A   1      44.275  26.682  31.443  1.00  0.00     0.029 A 
ATOM     52  C   UNL A   1      43.407  27.589  32.029  1.00  0.00     0.049 A 
ATOM     53  H   UNL A   1      41.635  28.428  31.250  1.00  0.00     0.167 HD
ATOM     54  C   UNL A   1      42.590  29.068  33.845  1.00  0.00     0.074 A 
ATOM     55  C   UNL A   1      42.652  29.619  35.185  1.00  0.00     0.031 C 
ATOM     56  C   UNL A   1      43.484  28.182  33.341  1.00  0.00     0.034 A 
BRANCH  43  57
ATOM     57  C   UNL A   1      42.132  26.194  27.640  1.00  0.00     0.023 A 
ATOM     58  C   UNL A   1      42.881  26.696  26.556  1.00  0.00     0.012 A 
ATOM     59  C   UNL A   1      41.744  24.840  27.641  1.00  0.00     0.148 A 
ATOM     60  C   UNL A   1      43.198  25.876  25.472  1.00  0.00     0.002 A 
ATOM     61  C   UNL A   1      42.101  24.019  26.577  1.00  0.00     0.091 A 
ATOM     62  F   UNL A   1      41.010  24.382  28.666  1.00  0.00    -0.205 F 
ATOM     63  C   UNL A   1      42.816  24.537  25.486  1.00  0.00     0.022 A 
BRANCH  61  64
ATOM     64  S   UNL A   1      41.716  22.263  26.554  1.00  0.00     0.127 S 
ATOM     65  O   UNL A   1      40.263  22.279  26.397  1.00  0.00    -0.237 OA
ATOM     66  O   UNL A   1      42.450  21.795  25.377  1.00  0.00    -0.237 OA
ATOM     67  O   UNL A   1      42.212  21.736  27.819  1.00  0.00    -0.744 OA
ENDBRANCH  61  64
ENDBRANCH  43  57
BRANCH  44  68
ATOM     68  C   UNL A   1      39.175  32.044  35.176  1.00  0.00     0.023 A 
ATOM     69  C   UNL A   1      38.282  31.467  36.098  1.00  0.00     0.012 A 
ATOM     70  C   UNL A   1      39.653  33.350  35.403  1.00  0.00     0.148 A 
ATOM     71  C   UNL A   1      37.868  32.180  37.223  1.00  0.00     0.002 A 
ATOM     72  C   UNL A   1      39.283  34.031  36.557  1.00  0.00     0.091 A 
ATOM     73  F   UNL A   1      40.490  33.885  34.503  1.00  0.00    -0.205 F 
ATOM     74  C   UNL A   1      38.380  33.453  37.461  1.00  0.00     0.022 A 
BRANCH  72  75
ATOM     75  S   UNL A   1      40.008  35.609  37.020  1.00  0.00     0.127 S 
ATOM     76  O   UNL A   1      39.651  36.447  35.878  1.00  0.00    -0.237 OA
ATOM     77  O   UNL A   1      39.290  35.916  38.258  1.00  0.00    -0.237 OA
ATOM     78  O   UNL A   1      41.430  35.355  37.196  1.00  0.00    -0.744 OA
ENDBRANCH  72  75
ENDBRANCH  44  68
BRANCH  56  79
ATOM     79  C   UNL A   1      44.629  27.767  34.227  1.00  0.00     0.023 A 
ATOM     80  C   UNL A   1      45.806  28.540  34.253  1.00  0.00     0.012 A 
ATOM     81  C   UNL A   1      44.508  26.659  35.089  1.00  0.00     0.148 A 
ATOM     82  C   UNL A   1      46.856  28.202  35.107  1.00  0.00     0.002 A 
ATOM     83  C   UNL A   1      45.541  26.355  35.968  1.00  0.00     0.091 A 
ATOM     84  F   UNL A   1      43.388  25.923  35.032  1.00  0.00    -0.205 F 
ATOM     85  C   UNL A   1      46.718  27.119  35.971  1.00  0.00     0.022 A 
BRANCH  83  86
ATOM     86  S   UNL A   1      45.411  25.033  37.178  1.00  0.00     0.127 S 
ATOM     87  O   UNL A   1      45.323  23.852  36.322  1.00  0.00    -0.237 OA
ATOM     88  O   UNL A   1      46.670  25.160  37.915  1.00  0.00    -0.237 OA
ATOM     89  O   UNL A   1      44.222  25.329  37.966  1.00  0.00    -0.744 OA
ENDBRANCH  83  86
ENDBRANCH  56  79
ENDBRANCH  30  31
ENDBRANCH  23  25
ENDBRANCH  22  23
ENDBRANCH   1  22
TORSDOF 16
ENDMDL
