MODEL 1
REMARK VINA RESULT:     -11.8      0.000      0.000
REMARK SMILES C[C@H]1[C@H](C(=O)OCCOC(=O)c2ccc(-c3c4nc(c(-c5cccc(S(=O)(=O)[O-])c5F)c5ccc([nH]5)c(-c5cccc(S(=O)(=O)[O-])c5F)c5nc(c(-c6cccc(S(=O)(=O)[O-])c6F)c6ccc3[nH]6)C=C5)C=C4)cc2)CCN1C(=O)COc1ccc(F)cc1Br
REMARK SMILES IDX 7 1 6 2 4 3 5 4 3 5 1 6 2 7 77 8 75 9 76 10 78 11 79 12
REMARK SMILES IDX 80 13 81 14 82 15 83 16 88 17 84 18 87 19 89 20 85 21 86 22
REMARK SMILES IDX 8 23 9 24 10 25 11 26 12 27 13 28 74 29 14 30 73 31 15 32
REMARK SMILES IDX 16 33 17 34 67 35 18 36 72 37 66 38 68 39 19 40 71 41 65 42
REMARK SMILES IDX 64 43 20 45 52 46 32 47 51 48 33 49 36 50 50 51 69 52 34 53
REMARK SMILES IDX 35 54 49 56 70 57 37 58 21 59 22 60 30 61 23 62 25 63 31 64
REMARK SMILES IDX 24 65 26 66 27 67 28 68 29 69 53 70 54 71 62 72 55 73 57 74
REMARK SMILES IDX 63 75 56 76 58 77 59 78 60 79 61 80 38 81 39 82 47 83 40 84
REMARK SMILES IDX 42 85 48 86 41 87 43 88 44 89 45 90 46 91
REMARK H PARENT 68 44 36 55
REMARK Flexibility Score: inf
ROOT
ATOM      1  C   UNL A   1      35.229  20.942  24.617  1.00  0.00     0.274 C 
ENDROOT
BRANCH   1   2
ATOM      2  O   UNL A   1      35.150  22.381  24.577  1.00  0.00    -0.462 OA
BRANCH   2   3
ATOM      3  C   UNL A   1      34.367  22.903  23.601  1.00  0.00     0.311 C 
ATOM      4  O   UNL A   1      34.730  23.097  22.446  1.00  0.00    -0.252 OA
BRANCH   3   5
ATOM      5  C   UNL A   1      32.999  23.321  24.081  1.00  0.00     0.123 C 
ATOM      6  C   UNL A   1      32.807  25.157  25.789  1.00  0.00     0.032 C 
ATOM      7  C   UNL A   1      32.761  24.837  24.293  1.00  0.00     0.096 C 
ATOM      8  N   UNL A   1      31.439  25.070  23.674  1.00  0.00    -0.336 N 
ATOM      9  C   UNL A   1      31.956  22.875  23.063  1.00  0.00     0.039 C 
ATOM     10  C   UNL A   1      30.807  23.814  23.325  1.00  0.00     0.121 C 
BRANCH   8  11
ATOM     11  C   UNL A   1      30.926  26.250  23.171  1.00  0.00     0.260 C 
ATOM     12  O   UNL A   1      31.115  26.582  21.995  1.00  0.00    -0.271 OA
BRANCH  11  13
ATOM     13  C   UNL A   1      30.073  27.153  24.068  1.00  0.00     0.329 C 
BRANCH  13  14
ATOM     14  O   UNL A   1      30.643  28.349  24.545  1.00  0.00    -0.483 OA
BRANCH  14  15
ATOM     15  C   UNL A   1      31.793  28.377  25.275  1.00  0.00     0.134 A 
ATOM     16  C   UNL A   1      31.532  28.331  26.658  1.00  0.00     0.050 A 
ATOM     17  C   UNL A   1      33.106  28.624  24.854  1.00  0.00     0.062 A 
ATOM     18  C   UNL A   1      32.543  28.528  27.598  1.00  0.00     0.043 A 
ATOM     19  C   UNL A   1      34.118  28.834  25.803  1.00  0.00     0.058 A 
ATOM     20  Br  UNL A   1      33.690  28.800  23.064  1.00  0.00    -0.047 Br
ATOM     21  C   UNL A   1      33.828  28.792  27.158  1.00  0.00     0.124 A 
ATOM     22  F   UNL A   1      34.802  29.025  28.046  1.00  0.00    -0.207 F 
ENDBRANCH  14  15
ENDBRANCH  13  14
ENDBRANCH  11  13
ENDBRANCH   8  11
ENDBRANCH   3   5
ENDBRANCH   2   3
ENDBRANCH   1   2
BRANCH   1  23
ATOM     23  C   UNL A   1      36.605  20.459  25.085  1.00  0.00     0.275 C 
BRANCH  23  24
ATOM     24  O   UNL A   1      37.310  21.470  25.824  1.00  0.00    -0.458 OA
BRANCH  24  25
ATOM     25  C   UNL A   1      38.639  21.255  25.961  1.00  0.00     0.338 C 
ATOM     26  O   UNL A   1      39.272  20.287  25.570  1.00  0.00    -0.246 OA
BRANCH  25  27
ATOM     27  C   UNL A   1      39.275  22.436  26.557  1.00  0.00     0.060 A 
ATOM     28  C   UNL A   1      38.823  23.703  26.176  1.00  0.00     0.016 A 
ATOM     29  C   UNL A   1      40.372  22.299  27.404  1.00  0.00     0.016 A 
ATOM     30  C   UNL A   1      39.490  24.845  26.603  1.00  0.00     0.010 A 
ATOM     31  C   UNL A   1      41.022  23.447  27.861  1.00  0.00     0.010 A 
ATOM     32  C   UNL A   1      40.597  24.724  27.447  1.00  0.00    -0.014 A 
BRANCH  32  33
ATOM     33  C   UNL A   1      41.339  25.924  27.894  1.00  0.00     0.031 A 
ATOM     34  C   UNL A   1      40.615  26.994  28.655  1.00  0.00     0.074 A 
ATOM     35  C   UNL A   1      42.634  26.069  27.561  1.00  0.00     0.049 A 
ATOM     36  N   UNL A   1      41.009  28.204  28.949  1.00  0.00    -0.248 NA
ATOM     37  C   UNL A   1      39.265  26.663  29.141  1.00  0.00     0.031 C 
ATOM     38  C   UNL A   1      43.441  25.074  26.853  1.00  0.00     0.029 A 
ATOM     39  N   UNL A   1      43.486  27.129  27.738  1.00  0.00    -0.354 N 
ATOM     40  C   UNL A   1      39.937  28.801  29.599  1.00  0.00     0.074 A 
ATOM     41  C   UNL A   1      38.881  27.815  29.674  1.00  0.00     0.031 C 
ATOM     42  C   UNL A   1      44.660  25.585  26.621  1.00  0.00     0.029 A 
ATOM     43  C   UNL A   1      44.700  26.957  27.115  1.00  0.00     0.049 A 
ATOM     44  H   UNL A   1      43.253  27.931  28.259  1.00  0.00     0.167 HD
ATOM     45  C   UNL A   1      39.847  30.060  30.090  1.00  0.00     0.034 A 
ATOM     46  C   UNL A   1      45.710  27.828  26.919  1.00  0.00     0.034 A 
ATOM     47  C   UNL A   1      40.921  31.013  30.046  1.00  0.00     0.049 A 
ATOM     48  C   UNL A   1      45.578  29.226  27.460  1.00  0.00     0.074 A 
ATOM     49  C   UNL A   1      40.947  32.303  30.545  1.00  0.00     0.029 A 
ATOM     50  N   UNL A   1      42.160  30.779  29.470  1.00  0.00    -0.354 N 
ATOM     51  N   UNL A   1      44.586  29.759  28.131  1.00  0.00    -0.248 NA
ATOM     52  C   UNL A   1      46.709  30.137  27.234  1.00  0.00     0.031 C 
ATOM     53  C   UNL A   1      42.201  32.853  30.261  1.00  0.00     0.029 A 
ATOM     54  C   UNL A   1      42.960  31.900  29.600  1.00  0.00     0.049 A 
ATOM     55  H   UNL A   1      42.432  29.939  29.034  1.00  0.00     0.167 HD
ATOM     56  C   UNL A   1      44.986  31.052  28.442  1.00  0.00     0.074 A 
ATOM     57  C   UNL A   1      46.316  31.221  27.892  1.00  0.00     0.031 C 
ATOM     58  C   UNL A   1      44.309  32.019  29.107  1.00  0.00     0.034 A 
BRANCH  45  59
ATOM     59  C   UNL A   1      38.551  30.471  30.734  1.00  0.00     0.023 A 
ATOM     60  C   UNL A   1      38.305  30.140  32.081  1.00  0.00     0.012 A 
ATOM     61  C   UNL A   1      37.605  31.237  30.025  1.00  0.00     0.148 A 
ATOM     62  C   UNL A   1      37.126  30.544  32.706  1.00  0.00     0.002 A 
ATOM     63  C   UNL A   1      36.450  31.668  30.666  1.00  0.00     0.091 A 
ATOM     64  F   UNL A   1      37.846  31.519  28.737  1.00  0.00    -0.205 F 
ATOM     65  C   UNL A   1      36.205  31.316  32.002  1.00  0.00     0.022 A 
BRANCH  63  66
ATOM     66  S   UNL A   1      35.239  32.723  29.860  1.00  0.00     0.127 S 
ATOM     67  O   UNL A   1      36.056  33.875  29.482  1.00  0.00    -0.237 OA
ATOM     68  O   UNL A   1      34.802  31.893  28.737  1.00  0.00    -0.237 OA
ATOM     69  O   UNL A   1      34.210  32.981  30.856  1.00  0.00    -0.744 OA
ENDBRANCH  63  66
ENDBRANCH  45  59
BRANCH  46  70
ATOM     70  C   UNL A   1      46.934  27.389  26.191  1.00  0.00     0.023 A 
ATOM     71  C   UNL A   1      47.871  26.571  26.852  1.00  0.00     0.012 A 
ATOM     72  C   UNL A   1      47.152  27.734  24.843  1.00  0.00     0.148 A 
ATOM     73  C   UNL A   1      49.012  26.121  26.188  1.00  0.00     0.002 A 
ATOM     74  C   UNL A   1      48.263  27.237  24.172  1.00  0.00     0.091 A 
ATOM     75  F   UNL A   1      46.260  28.531  24.237  1.00  0.00    -0.205 F 
ATOM     76  C   UNL A   1      49.202  26.442  24.846  1.00  0.00     0.022 A 
BRANCH  74  77
ATOM     77  S   UNL A   1      48.512  27.493  22.410  1.00  0.00     0.127 S 
ATOM     78  O   UNL A   1      47.344  28.295  22.057  1.00  0.00    -0.237 OA
ATOM     79  O   UNL A   1      49.785  28.215  22.384  1.00  0.00    -0.237 OA
ATOM     80  O   UNL A   1      48.571  26.160  21.828  1.00  0.00    -0.744 OA
ENDBRANCH  74  77
ENDBRANCH  46  70
BRANCH  58  81
ATOM     81  C   UNL A   1      45.002  33.334  29.335  1.00  0.00     0.023 A 
ATOM     82  C   UNL A   1      45.824  33.502  30.466  1.00  0.00     0.012 A 
ATOM     83  C   UNL A   1      44.930  34.355  28.367  1.00  0.00     0.148 A 
ATOM     84  C   UNL A   1      46.556  34.676  30.636  1.00  0.00     0.002 A 
ATOM     85  C   UNL A   1      45.696  35.504  28.523  1.00  0.00     0.091 A 
ATOM     86  F   UNL A   1      44.127  34.177  27.309  1.00  0.00    -0.205 F 
ATOM     87  C   UNL A   1      46.504  35.669  29.660  1.00  0.00     0.022 A 
BRANCH  85  88
ATOM     88  S   UNL A   1      45.766  36.791  27.273  1.00  0.00     0.127 S 
ATOM     89  O   UNL A   1      46.669  37.759  27.892  1.00  0.00    -0.237 OA
ATOM     90  O   UNL A   1      46.328  36.081  26.125  1.00  0.00    -0.237 OA
ATOM     91  O   UNL A   1      44.395  37.249  27.089  1.00  0.00    -0.744 OA
ENDBRANCH  85  88
ENDBRANCH  58  81
ENDBRANCH  32  33
ENDBRANCH  25  27
ENDBRANCH  24  25
ENDBRANCH  23  24
ENDBRANCH   1  23
TORSDOF 18
ENDMDL
MODEL 2
REMARK VINA RESULT:     -11.6      5.320     10.166
REMARK SMILES C[C@H]1[C@H](C(=O)OCCOC(=O)c2ccc(-c3c4nc(c(-c5cccc(S(=O)(=O)[O-])c5F)c5ccc([nH]5)c(-c5cccc(S(=O)(=O)[O-])c5F)c5nc(c(-c6cccc(S(=O)(=O)[O-])c6F)c6ccc3[nH]6)C=C5)C=C4)cc2)CCN1C(=O)COc1ccc(F)cc1Br
REMARK SMILES IDX 7 1 6 2 4 3 5 4 3 5 1 6 2 7 77 8 75 9 76 10 78 11 79 12
REMARK SMILES IDX 80 13 81 14 82 15 83 16 88 17 84 18 87 19 89 20 85 21 86 22
REMARK SMILES IDX 8 23 9 24 10 25 11 26 12 27 13 28 74 29 14 30 73 31 15 32
REMARK SMILES IDX 16 33 17 34 67 35 18 36 72 37 66 38 68 39 19 40 71 41 65 42
REMARK SMILES IDX 64 43 20 45 52 46 32 47 51 48 33 49 36 50 50 51 69 52 34 53
REMARK SMILES IDX 35 54 49 56 70 57 37 58 21 59 22 60 30 61 23 62 25 63 31 64
REMARK SMILES IDX 24 65 26 66 27 67 28 68 29 69 53 70 54 71 62 72 55 73 57 74
REMARK SMILES IDX 63 75 56 76 58 77 59 78 60 79 61 80 38 81 39 82 47 83 40 84
REMARK SMILES IDX 42 85 48 86 41 87 43 88 44 89 45 90 46 91
REMARK H PARENT 68 44 36 55
REMARK Flexibility Score: inf
ROOT
ATOM      1  C   UNL A   1      31.048  29.274  24.984  1.00  0.00     0.274 C 
ENDROOT
BRANCH   1   2
ATOM      2  O   UNL A   1      31.926  28.176  25.300  1.00  0.00    -0.462 OA
BRANCH   2   3
ATOM      3  C   UNL A   1      31.324  26.980  25.513  1.00  0.00     0.311 C 
ATOM      4  O   UNL A   1      31.112  26.493  26.618  1.00  0.00    -0.252 OA
BRANCH   3   5
ATOM      5  C   UNL A   1      31.002  26.230  24.243  1.00  0.00     0.123 C 
ATOM      6  C   UNL A   1      32.195  26.849  22.118  1.00  0.00     0.032 C 
ATOM      7  C   UNL A   1      32.188  25.887  23.309  1.00  0.00     0.096 C 
ATOM      8  N   UNL A   1      31.941  24.479  22.936  1.00  0.00    -0.336 N 
ATOM      9  C   UNL A   1      30.357  24.896  24.602  1.00  0.00     0.039 C 
ATOM     10  C   UNL A   1      30.631  24.052  23.385  1.00  0.00     0.121 C 
BRANCH   8  11
ATOM     11  C   UNL A   1      32.854  23.533  22.512  1.00  0.00     0.260 C 
ATOM     12  O   UNL A   1      33.652  23.775  21.598  1.00  0.00    -0.271 OA
BRANCH  11  13
ATOM     13  C   UNL A   1      32.913  22.168  23.205  1.00  0.00     0.329 C 
BRANCH  13  14
ATOM     14  O   UNL A   1      33.506  22.093  24.480  1.00  0.00    -0.483 OA
BRANCH  14  15
ATOM     15  C   UNL A   1      34.613  21.340  24.736  1.00  0.00     0.134 A 
ATOM     16  C   UNL A   1      35.787  22.116  24.708  1.00  0.00     0.050 A 
ATOM     17  C   UNL A   1      34.736  19.947  24.827  1.00  0.00     0.062 A 
ATOM     18  C   UNL A   1      37.051  21.528  24.763  1.00  0.00     0.043 A 
ATOM     19  C   UNL A   1      36.010  19.360  24.870  1.00  0.00     0.058 A 
ATOM     20  Br  UNL A   1      33.318  18.697  24.811  1.00  0.00    -0.047 Br
ATOM     21  C   UNL A   1      37.148  20.150  24.831  1.00  0.00     0.124 A 
ATOM     22  F   UNL A   1      38.353  19.567  24.843  1.00  0.00    -0.207 F 
ENDBRANCH  14  15
ENDBRANCH  13  14
ENDBRANCH  11  13
ENDBRANCH   8  11
ENDBRANCH   3   5
ENDBRANCH   2   3
ENDBRANCH   1   2
BRANCH   1  23
ATOM     23  C   UNL A   1      31.509  30.580  25.638  1.00  0.00     0.275 C 
BRANCH  23  24
ATOM     24  O   UNL A   1      32.845  30.482  26.158  1.00  0.00    -0.458 OA
BRANCH  24  25
ATOM     25  C   UNL A   1      33.199  31.469  27.014  1.00  0.00     0.338 C 
ATOM     26  O   UNL A   1      32.516  32.416  27.367  1.00  0.00    -0.246 OA
BRANCH  25  27
ATOM     27  C   UNL A   1      34.521  31.182  27.584  1.00  0.00     0.060 A 
ATOM     28  C   UNL A   1      34.792  29.883  28.025  1.00  0.00     0.016 A 
ATOM     29  C   UNL A   1      35.448  32.203  27.774  1.00  0.00     0.016 A 
ATOM     30  C   UNL A   1      35.974  29.603  28.701  1.00  0.00     0.010 A 
ATOM     31  C   UNL A   1      36.650  31.915  28.424  1.00  0.00     0.010 A 
ATOM     32  C   UNL A   1      36.910  30.619  28.907  1.00  0.00    -0.014 A 
BRANCH  32  33
ATOM     33  C   UNL A   1      38.163  30.350  29.646  1.00  0.00     0.031 A 
ATOM     34  C   UNL A   1      39.181  29.421  29.055  1.00  0.00     0.074 A 
ATOM     35  C   UNL A   1      38.349  30.892  30.863  1.00  0.00     0.049 A 
ATOM     36  N   UNL A   1      40.230  28.885  29.617  1.00  0.00    -0.248 NA
ATOM     37  C   UNL A   1      38.986  29.036  27.647  1.00  0.00     0.031 C 
ATOM     38  C   UNL A   1      37.438  31.835  31.516  1.00  0.00     0.029 A 
ATOM     39  N   UNL A   1      39.344  30.693  31.785  1.00  0.00    -0.354 N 
ATOM     40  C   UNL A   1      40.788  28.051  28.656  1.00  0.00     0.074 A 
ATOM     41  C   UNL A   1      39.971  28.167  27.466  1.00  0.00     0.031 C 
ATOM     42  C   UNL A   1      37.897  32.104  32.747  1.00  0.00     0.029 A 
ATOM     43  C   UNL A   1      39.098  31.312  32.989  1.00  0.00     0.049 A 
ATOM     44  H   UNL A   1      40.153  30.163  31.604  1.00  0.00     0.167 HD
ATOM     45  C   UNL A   1      41.885  27.265  28.760  1.00  0.00     0.034 A 
ATOM     46  C   UNL A   1      39.742  31.210  34.169  1.00  0.00     0.034 A 
ATOM     47  C   UNL A   1      42.709  27.195  29.934  1.00  0.00     0.049 A 
ATOM     48  C   UNL A   1      40.948  30.316  34.262  1.00  0.00     0.074 A 
ATOM     49  C   UNL A   1      43.863  26.457  30.132  1.00  0.00     0.029 A 
ATOM     50  N   UNL A   1      42.470  27.891  31.109  1.00  0.00    -0.354 N 
ATOM     51  N   UNL A   1      41.505  29.584  33.328  1.00  0.00    -0.248 NA
ATOM     52  C   UNL A   1      41.626  30.245  35.564  1.00  0.00     0.031 C 
ATOM     53  C   UNL A   1      44.314  26.699  31.434  1.00  0.00     0.029 A 
ATOM     54  C   UNL A   1      43.452  27.600  32.039  1.00  0.00     0.049 A 
ATOM     55  H   UNL A   1      41.713  28.503  31.260  1.00  0.00     0.167 HD
ATOM     56  C   UNL A   1      42.619  28.997  33.915  1.00  0.00     0.074 A 
ATOM     57  C   UNL A   1      42.663  29.465  35.285  1.00  0.00     0.031 C 
ATOM     58  C   UNL A   1      43.515  28.136  33.375  1.00  0.00     0.034 A 
BRANCH  45  59
ATOM     59  C   UNL A   1      42.267  26.431  27.567  1.00  0.00     0.023 A 
ATOM     60  C   UNL A   1      43.058  26.995  26.547  1.00  0.00     0.012 A 
ATOM     61  C   UNL A   1      41.893  25.076  27.485  1.00  0.00     0.148 A 
ATOM     62  C   UNL A   1      43.452  26.228  25.451  1.00  0.00     0.002 A 
ATOM     63  C   UNL A   1      42.321  24.308  26.410  1.00  0.00     0.091 A 
ATOM     64  F   UNL A   1      41.118  24.567  28.453  1.00  0.00    -0.205 F 
ATOM     65  C   UNL A   1      43.093  24.884  25.388  1.00  0.00     0.022 A 
BRANCH  63  66
ATOM     66  S   UNL A   1      41.965  22.552  26.278  1.00  0.00     0.127 S 
ATOM     67  O   UNL A   1      42.624  22.211  25.018  1.00  0.00    -0.237 OA
ATOM     68  O   UNL A   1      42.618  22.012  27.471  1.00  0.00    -0.237 OA
ATOM     69  O   UNL A   1      40.514  22.438  26.280  1.00  0.00    -0.744 OA
ENDBRANCH  63  66
ENDBRANCH  45  59
BRANCH  46  70
ATOM     70  C   UNL A   1      39.262  31.991  35.343  1.00  0.00     0.023 A 
ATOM     71  C   UNL A   1      38.389  31.382  36.264  1.00  0.00     0.012 A 
ATOM     72  C   UNL A   1      39.700  33.309  35.579  1.00  0.00     0.148 A 
ATOM     73  C   UNL A   1      37.945  32.078  37.389  1.00  0.00     0.002 A 
ATOM     74  C   UNL A   1      39.297  33.977  36.729  1.00  0.00     0.091 A 
ATOM     75  F   UNL A   1      40.515  33.880  34.680  1.00  0.00    -0.205 F 
ATOM     76  C   UNL A   1      38.408  33.369  37.629  1.00  0.00     0.022 A 
BRANCH  74  77
ATOM     77  S   UNL A   1      39.952  35.590  37.179  1.00  0.00     0.127 S 
ATOM     78  O   UNL A   1      41.380  35.310  37.294  1.00  0.00    -0.237 OA
ATOM     79  O   UNL A   1      39.575  36.405  36.023  1.00  0.00    -0.237 OA
ATOM     80  O   UNL A   1      39.272  35.955  38.413  1.00  0.00    -0.744 OA
ENDBRANCH  74  77
ENDBRANCH  46  70
BRANCH  58  81
ATOM     81  C   UNL A   1      44.658  27.677  34.238  1.00  0.00     0.023 A 
ATOM     82  C   UNL A   1      45.833  28.449  34.305  1.00  0.00     0.012 A 
ATOM     83  C   UNL A   1      44.516  26.547  35.067  1.00  0.00     0.148 A 
ATOM     84  C   UNL A   1      46.860  28.094  35.180  1.00  0.00     0.002 A 
ATOM     85  C   UNL A   1      45.525  26.225  35.966  1.00  0.00     0.091 A 
ATOM     86  F   UNL A   1      43.395  25.820  34.970  1.00  0.00    -0.205 F 
ATOM     87  C   UNL A   1      46.700  26.993  36.019  1.00  0.00     0.022 A 
BRANCH  85  88
ATOM     88  S   UNL A   1      45.367  24.884  37.151  1.00  0.00     0.127 S 
ATOM     89  O   UNL A   1      46.645  24.959  37.858  1.00  0.00    -0.237 OA
ATOM     90  O   UNL A   1      44.208  25.300  37.939  1.00  0.00    -0.237 OA
ATOM     91  O   UNL A   1      45.161  23.675  36.365  1.00  0.00    -0.744 OA
ENDBRANCH  85  88
ENDBRANCH  58  81
ENDBRANCH  32  33
ENDBRANCH  25  27
ENDBRANCH  24  25
ENDBRANCH  23  24
ENDBRANCH   1  23
TORSDOF 18
ENDMDL
MODEL 3
REMARK VINA RESULT:     -11.5      5.291      9.967
REMARK SMILES C[C@H]1[C@H](C(=O)OCCOC(=O)c2ccc(-c3c4nc(c(-c5cccc(S(=O)(=O)[O-])c5F)c5ccc([nH]5)c(-c5cccc(S(=O)(=O)[O-])c5F)c5nc(c(-c6cccc(S(=O)(=O)[O-])c6F)c6ccc3[nH]6)C=C5)C=C4)cc2)CCN1C(=O)COc1ccc(F)cc1Br
REMARK SMILES IDX 7 1 6 2 4 3 5 4 3 5 1 6 2 7 77 8 75 9 76 10 78 11 79 12
REMARK SMILES IDX 80 13 81 14 82 15 83 16 88 17 84 18 87 19 89 20 85 21 86 22
REMARK SMILES IDX 8 23 9 24 10 25 11 26 12 27 13 28 74 29 14 30 73 31 15 32
REMARK SMILES IDX 16 33 17 34 67 35 18 36 72 37 66 38 68 39 19 40 71 41 65 42
REMARK SMILES IDX 64 43 20 45 52 46 32 47 51 48 33 49 36 50 50 51 69 52 34 53
REMARK SMILES IDX 35 54 49 56 70 57 37 58 21 59 22 60 30 61 23 62 25 63 31 64
REMARK SMILES IDX 24 65 26 66 27 67 28 68 29 69 53 70 54 71 62 72 55 73 57 74
REMARK SMILES IDX 63 75 56 76 58 77 59 78 60 79 61 80 38 81 39 82 47 83 40 84
REMARK SMILES IDX 42 85 48 86 41 87 43 88 44 89 45 90 46 91
REMARK H PARENT 68 44 36 55
REMARK Flexibility Score: inf
ROOT
ATOM      1  C   UNL A   1      33.812  29.003  24.241  1.00  0.00     0.274 C 
ENDROOT
BRANCH   1   2
ATOM      2  O   UNL A   1      33.616  27.581  24.098  1.00  0.00    -0.462 OA
BRANCH   2   3
ATOM      3  C   UNL A   1      33.264  27.155  22.860  1.00  0.00     0.311 C 
ATOM      4  O   UNL A   1      33.734  27.589  21.814  1.00  0.00    -0.252 OA
BRANCH   3   5
ATOM      5  C   UNL A   1      32.153  26.134  22.865  1.00  0.00     0.123 C 
ATOM      6  C   UNL A   1      32.735  23.688  22.903  1.00  0.00     0.032 C 
ATOM      7  C   UNL A   1      32.345  24.890  23.767  1.00  0.00     0.096 C 
ATOM      8  N   UNL A   1      31.037  24.741  24.438  1.00  0.00    -0.336 N 
ATOM      9  C   UNL A   1      30.867  26.799  23.343  1.00  0.00     0.039 C 
ATOM     10  C   UNL A   1      30.057  25.636  23.855  1.00  0.00     0.121 C 
BRANCH   8  11
ATOM     11  C   UNL A   1      30.755  24.119  25.638  1.00  0.00     0.260 C 
ATOM     12  O   UNL A   1      30.270  24.746  26.588  1.00  0.00    -0.271 OA
BRANCH  11  13
ATOM     13  C   UNL A   1      31.009  22.616  25.795  1.00  0.00     0.329 C 
BRANCH  13  14
ATOM     14  O   UNL A   1      32.232  22.202  26.357  1.00  0.00    -0.483 OA
BRANCH  14  15
ATOM     15  C   UNL A   1      33.103  21.383  25.703  1.00  0.00     0.134 A 
ATOM     16  C   UNL A   1      32.510  20.151  25.373  1.00  0.00     0.050 A 
ATOM     17  C   UNL A   1      34.482  21.534  25.503  1.00  0.00     0.062 A 
ATOM     18  C   UNL A   1      33.263  19.093  24.862  1.00  0.00     0.043 A 
ATOM     19  C   UNL A   1      35.237  20.462  25.001  1.00  0.00     0.058 A 
ATOM     20  Br  UNL A   1      35.513  23.060  25.932  1.00  0.00    -0.047 Br
ATOM     21  C   UNL A   1      34.626  19.257  24.693  1.00  0.00     0.124 A 
ATOM     22  F   UNL A   1      35.369  18.239  24.244  1.00  0.00    -0.207 F 
ENDBRANCH  14  15
ENDBRANCH  13  14
ENDBRANCH  11  13
ENDBRANCH   8  11
ENDBRANCH   3   5
ENDBRANCH   2   3
ENDBRANCH   1   2
BRANCH   1  23
ATOM     23  C   UNL A   1      32.596  29.685  24.876  1.00  0.00     0.275 C 
BRANCH  23  24
ATOM     24  O   UNL A   1      32.659  29.673  26.312  1.00  0.00    -0.458 OA
BRANCH  24  25
ATOM     25  C   UNL A   1      33.089  30.827  26.874  1.00  0.00     0.338 C 
ATOM     26  O   UNL A   1      32.457  31.862  27.004  1.00  0.00    -0.246 OA
BRANCH  25  27
ATOM     27  C   UNL A   1      34.430  30.633  27.441  1.00  0.00     0.060 A 
ATOM     28  C   UNL A   1      34.790  29.358  27.885  1.00  0.00     0.016 A 
ATOM     29  C   UNL A   1      35.284  31.716  27.626  1.00  0.00     0.016 A 
ATOM     30  C   UNL A   1      35.990  29.161  28.558  1.00  0.00     0.010 A 
ATOM     31  C   UNL A   1      36.505  31.514  28.273  1.00  0.00     0.010 A 
ATOM     32  C   UNL A   1      36.855  30.240  28.759  1.00  0.00    -0.014 A 
BRANCH  32  33
ATOM     33  C   UNL A   1      38.125  30.060  29.496  1.00  0.00     0.031 A 
ATOM     34  C   UNL A   1      39.182  29.158  28.931  1.00  0.00     0.074 A 
ATOM     35  C   UNL A   1      38.294  30.657  30.689  1.00  0.00     0.049 A 
ATOM     36  N   UNL A   1      40.260  28.695  29.502  1.00  0.00    -0.248 NA
ATOM     37  C   UNL A   1      38.994  28.710  27.540  1.00  0.00     0.031 C 
ATOM     38  C   UNL A   1      37.345  31.580  31.314  1.00  0.00     0.029 A 
ATOM     39  N   UNL A   1      39.306  30.542  31.608  1.00  0.00    -0.354 N 
ATOM     40  C   UNL A   1      40.849  27.852  28.568  1.00  0.00     0.074 A 
ATOM     41  C   UNL A   1      40.019  27.882  27.383  1.00  0.00     0.031 C 
ATOM     42  C   UNL A   1      37.800  31.918  32.530  1.00  0.00     0.029 A 
ATOM     43  C   UNL A   1      39.040  31.194  32.789  1.00  0.00     0.049 A 
ATOM     44  H   UNL A   1      40.137  30.044  31.440  1.00  0.00     0.167 HD
ATOM     45  C   UNL A   1      41.984  27.124  28.691  1.00  0.00     0.034 A 
ATOM     46  C   UNL A   1      39.698  31.169  33.966  1.00  0.00     0.034 A 
ATOM     47  C   UNL A   1      42.820  27.139  29.859  1.00  0.00     0.049 A 
ATOM     48  C   UNL A   1      40.946  30.337  34.082  1.00  0.00     0.074 A 
ATOM     49  C   UNL A   1      44.009  26.465  30.074  1.00  0.00     0.029 A 
ATOM     50  N   UNL A   1      42.557  27.868  31.009  1.00  0.00    -0.354 N 
ATOM     51  N   UNL A   1      41.530  29.597  33.171  1.00  0.00    -0.248 NA
ATOM     52  C   UNL A   1      41.637  30.350  35.378  1.00  0.00     0.031 C 
ATOM     53  C   UNL A   1      44.459  26.779  31.361  1.00  0.00     0.029 A 
ATOM     54  C   UNL A   1      43.559  27.660  31.939  1.00  0.00     0.049 A 
ATOM     55  H   UNL A   1      41.773  28.448  31.144  1.00  0.00     0.167 HD
ATOM     56  C   UNL A   1      42.675  29.087  33.769  1.00  0.00     0.074 A 
ATOM     57  C   UNL A   1      42.708  29.610  35.120  1.00  0.00     0.031 C 
ATOM     58  C   UNL A   1      43.607  28.250  33.253  1.00  0.00     0.034 A 
BRANCH  45  59
ATOM     59  C   UNL A   1      42.396  26.264  27.528  1.00  0.00     0.023 A 
ATOM     60  C   UNL A   1      43.266  26.783  26.550  1.00  0.00     0.012 A 
ATOM     61  C   UNL A   1      41.970  24.924  27.435  1.00  0.00     0.148 A 
ATOM     62  C   UNL A   1      43.688  25.990  25.483  1.00  0.00     0.002 A 
ATOM     63  C   UNL A   1      42.424  24.129  26.390  1.00  0.00     0.091 A 
ATOM     64  F   UNL A   1      41.120  24.458  28.360  1.00  0.00    -0.205 F 
ATOM     65  C   UNL A   1      43.276  24.662  25.410  1.00  0.00     0.022 A 
BRANCH  63  66
ATOM     66  S   UNL A   1      42.000  22.389  26.250  1.00  0.00     0.127 S 
ATOM     67  O   UNL A   1      42.664  22.023  25.000  1.00  0.00    -0.237 OA
ATOM     68  O   UNL A   1      42.612  21.822  27.452  1.00  0.00    -0.237 OA
ATOM     69  O   UNL A   1      40.546  22.333  26.230  1.00  0.00    -0.744 OA
ENDBRANCH  63  66
ENDBRANCH  45  59
BRANCH  46  70
ATOM     70  C   UNL A   1      39.190  31.971  35.114  1.00  0.00     0.023 A 
ATOM     71  C   UNL A   1      38.242  31.402  35.986  1.00  0.00     0.012 A 
ATOM     72  C   UNL A   1      39.673  33.269  35.376  1.00  0.00     0.148 A 
ATOM     73  C   UNL A   1      37.770  32.118  37.087  1.00  0.00     0.002 A 
ATOM     74  C   UNL A   1      39.238  33.955  36.504  1.00  0.00     0.091 A 
ATOM     75  F   UNL A   1      40.559  33.802  34.523  1.00  0.00    -0.205 F 
ATOM     76  C   UNL A   1      38.276  33.387  37.353  1.00  0.00     0.022 A 
BRANCH  74  77
ATOM     77  S   UNL A   1      39.939  35.537  36.992  1.00  0.00     0.127 S 
ATOM     78  O   UNL A   1      39.239  35.799  38.245  1.00  0.00    -0.237 OA
ATOM     79  O   UNL A   1      41.359  35.210  37.136  1.00  0.00    -0.237 OA
ATOM     80  O   UNL A   1      39.646  36.447  35.894  1.00  0.00    -0.744 OA
ENDBRANCH  74  77
ENDBRANCH  46  70
BRANCH  58  81
ATOM     81  C   UNL A   1      44.778  27.880  34.122  1.00  0.00     0.023 A 
ATOM     82  C   UNL A   1      45.917  28.707  34.145  1.00  0.00     0.012 A 
ATOM     83  C   UNL A   1      44.696  26.779  34.998  1.00  0.00     0.148 A 
ATOM     84  C   UNL A   1      46.966  28.436  35.022  1.00  0.00     0.002 A 
ATOM     85  C   UNL A   1      45.727  26.542  35.899  1.00  0.00     0.091 A 
ATOM     86  F   UNL A   1      43.609  25.998  34.943  1.00  0.00    -0.205 F 
ATOM     87  C   UNL A   1      46.865  27.364  35.907  1.00  0.00     0.022 A 
BRANCH  85  88
ATOM     88  S   UNL A   1      45.642  25.245  37.138  1.00  0.00     0.127 S 
ATOM     89  O   UNL A   1      44.371  25.544  37.796  1.00  0.00    -0.237 OA
ATOM     90  O   UNL A   1      45.634  24.033  36.320  1.00  0.00    -0.237 OA
ATOM     91  O   UNL A   1      46.827  25.405  37.971  1.00  0.00    -0.744 OA
ENDBRANCH  85  88
ENDBRANCH  58  81
ENDBRANCH  32  33
ENDBRANCH  25  27
ENDBRANCH  24  25
ENDBRANCH  23  24
ENDBRANCH   1  23
TORSDOF 18
ENDMDL
