MODEL 1
REMARK VINA RESULT:     -12.6      0.000      0.000
REMARK SMILES CC(=O)NS(=O)(=O)c1cc(-c2ccn(C(F)F)c(=O)c2)ccc1C(=O)OCCOC(=O)c1ccc(-c2c3nc(c(-c4cccc(S(=O)(=O)[O-])c4F)c4ccc([nH]4)c(-c4cccc(S(=O)(=O)[O-])c4F)c4nc(c(-c5cccc(S(=O)(=O)[O-])c5F)c5ccc2[nH]5)C=C4)C=C3)cc1
REMARK SMILES IDX 28 1 27 2 26 3 24 4 25 5 23 6 8 7 9 8 10 9 22 10 21 11 5 12
REMARK SMILES IDX 6 13 7 14 4 15 1 16 2 17 3 18 11 20 12 21 20 22 13 23 18 24
REMARK SMILES IDX 14 25 19 26 15 27 16 28 17 29 29 30 30 31 31 32 32 33 33 34
REMARK SMILES IDX 94 35 34 36 93 37 35 38 36 39 37 40 87 41 38 42 92 43 86 44
REMARK SMILES IDX 88 45 39 46 91 47 85 48 84 49 40 51 72 52 52 53 71 54 53 55
REMARK SMILES IDX 56 56 70 57 89 58 54 59 55 60 69 62 90 63 57 64 41 65 42 66
REMARK SMILES IDX 50 67 43 68 45 69 51 70 44 71 46 72 47 73 48 74 49 75 73 76
REMARK SMILES IDX 74 77 82 78 75 79 77 80 83 81 76 82 78 83 79 84 80 85 81 86
REMARK SMILES IDX 58 87 59 88 67 89 60 90 62 91 68 92 61 93 63 94 64 95 65 96
REMARK SMILES IDX 66 97
REMARK H PARENT 4 19 88 50 56 61
REMARK Flexibility Score: inf
ROOT
ATOM      1  C   UNL A   1      36.436  20.451  24.834  1.00  0.00     0.275 C 
ENDROOT
BRANCH   1   2
ATOM      2  C   UNL A   1      35.077  20.971  25.294  1.00  0.00     0.275 C 
BRANCH   2   3
ATOM      3  O   UNL A   1      34.990  22.391  25.050  1.00  0.00    -0.458 OA
BRANCH   3   4
ATOM      4  C   UNL A   1      34.796  23.180  26.121  1.00  0.00     0.339 C 
ATOM      5  O   UNL A   1      35.370  23.088  27.195  1.00  0.00    -0.246 OA
BRANCH   4   6
ATOM      6  C   UNL A   1      33.864  24.304  25.837  1.00  0.00     0.080 A 
ATOM      7  C   UNL A   1      32.526  24.405  26.238  1.00  0.00     0.103 A 
ATOM      8  C   UNL A   1      31.817  25.594  25.996  1.00  0.00     0.032 A 
ATOM      9  C   UNL A   1      32.365  26.620  25.220  1.00  0.00    -0.017 A 
ATOM     10  C   UNL A   1      34.431  25.385  25.127  1.00  0.00     0.018 A 
ATOM     11  C   UNL A   1      33.679  26.509  24.779  1.00  0.00     0.010 A 
BRANCH   7  12
ATOM     12  S   UNL A   1      31.669  23.044  26.979  1.00  0.00     0.264 S 
ATOM     13  O   UNL A   1      30.318  23.484  27.254  1.00  0.00    -0.201 OA
ATOM     14  O   UNL A   1      32.519  22.446  27.979  1.00  0.00    -0.201 OA
BRANCH  12  15
ATOM     15  N   UNL A   1      31.512  21.908  25.757  1.00  0.00    -0.249 N 
ATOM     16  C   UNL A   1      30.783  23.324  23.818  1.00  0.00     0.115 C 
ATOM     17  C   UNL A   1      31.614  22.199  24.381  1.00  0.00     0.230 C 
ATOM     18  O   UNL A   1      32.205  21.409  23.655  1.00  0.00    -0.274 OA
ATOM     19  H   UNL A   1      31.336  20.974  26.018  1.00  0.00     0.183 HD
ENDBRANCH  12  15
ENDBRANCH   7  12
BRANCH   9  20
ATOM     20  C   UNL A   1      31.504  27.730  24.786  1.00  0.00    -0.011 A 
ATOM     21  C   UNL A   1      31.785  29.100  25.169  1.00  0.00     0.027 A 
ATOM     22  C   UNL A   1      30.472  27.475  23.966  1.00  0.00     0.080 A 
ATOM     23  C   UNL A   1      31.024  30.102  24.717  1.00  0.00     0.095 A 
ATOM     24  C   UNL A   1      29.621  28.583  23.445  1.00  0.00     0.255 A 
ATOM     25  N   UNL A   1      29.957  29.858  23.874  1.00  0.00    -0.258 N 
ATOM     26  O   UNL A   1      28.709  28.304  22.674  1.00  0.00    -0.269 OA
BRANCH  25  27
ATOM     27  C   UNL A   1      29.146  30.948  23.393  1.00  0.00     0.451 C 
ATOM     28  F   UNL A   1      29.392  32.079  24.100  1.00  0.00    -0.185 F 
ATOM     29  F   UNL A   1      29.397  31.207  22.088  1.00  0.00    -0.185 F 
ENDBRANCH  25  27
ENDBRANCH   9  20
ENDBRANCH   4   6
ENDBRANCH   3   4
ENDBRANCH   2   3
ENDBRANCH   1   2
BRANCH   1  30
ATOM     30  O   UNL A   1      37.421  21.481  25.031  1.00  0.00    -0.458 OA
BRANCH  30  31
ATOM     31  C   UNL A   1      38.534  21.112  25.703  1.00  0.00     0.338 C 
ATOM     32  O   UNL A   1      39.015  19.997  25.801  1.00  0.00    -0.246 OA
BRANCH  31  33
ATOM     33  C   UNL A   1      39.148  22.304  26.306  1.00  0.00     0.060 A 
ATOM     34  C   UNL A   1      38.605  23.558  26.034  1.00  0.00     0.016 A 
ATOM     35  C   UNL A   1      40.330  22.188  27.034  1.00  0.00     0.016 A 
ATOM     36  C   UNL A   1      39.285  24.710  26.427  1.00  0.00     0.010 A 
ATOM     37  C   UNL A   1      40.966  23.345  27.498  1.00  0.00     0.010 A 
ATOM     38  C   UNL A   1      40.476  24.622  27.165  1.00  0.00    -0.014 A 
BRANCH  38  39
ATOM     39  C   UNL A   1      41.231  25.852  27.546  1.00  0.00     0.031 A 
ATOM     40  C   UNL A   1      40.584  26.907  28.410  1.00  0.00     0.074 A 
ATOM     41  C   UNL A   1      42.497  26.039  27.121  1.00  0.00     0.049 A 
ATOM     42  N   UNL A   1      41.018  28.101  28.722  1.00  0.00    -0.248 NA
ATOM     43  C   UNL A   1      39.269  26.583  28.987  1.00  0.00     0.031 C 
ATOM     44  C   UNL A   1      43.255  25.109  26.282  1.00  0.00     0.029 A 
ATOM     45  N   UNL A   1      43.371  27.079  27.332  1.00  0.00    -0.354 N 
ATOM     46  C   UNL A   1      39.999  28.701  29.454  1.00  0.00     0.074 A 
ATOM     47  C   UNL A   1      38.930  27.731  29.558  1.00  0.00     0.031 C 
ATOM     48  C   UNL A   1      44.486  25.601  26.078  1.00  0.00     0.029 A 
ATOM     49  C   UNL A   1      44.586  26.916  26.705  1.00  0.00     0.049 A 
ATOM     50  H   UNL A   1      43.150  27.867  27.880  1.00  0.00     0.167 HD
ATOM     51  C   UNL A   1      39.958  29.939  29.999  1.00  0.00     0.034 A 
ATOM     52  C   UNL A   1      45.651  27.738  26.613  1.00  0.00     0.034 A 
ATOM     53  C   UNL A   1      41.052  30.873  29.981  1.00  0.00     0.049 A 
ATOM     54  C   UNL A   1      45.597  29.090  27.269  1.00  0.00     0.074 A 
ATOM     55  C   UNL A   1      41.116  32.134  30.550  1.00  0.00     0.029 A 
ATOM     56  N   UNL A   1      42.280  30.644  29.381  1.00  0.00    -0.354 N 
ATOM     57  N   UNL A   1      44.641  29.618  27.994  1.00  0.00    -0.248 NA
ATOM     58  C   UNL A   1      46.772  29.959  27.100  1.00  0.00     0.031 C 
ATOM     59  C   UNL A   1      42.385  32.665  30.297  1.00  0.00     0.029 A 
ATOM     60  C   UNL A   1      43.111  31.734  29.573  1.00  0.00     0.049 A 
ATOM     61  H   UNL A   1      42.524  29.826  28.890  1.00  0.00     0.167 HD
ATOM     62  C   UNL A   1      45.098  30.875  28.369  1.00  0.00     0.074 A 
ATOM     63  C   UNL A   1      46.434  31.015  27.828  1.00  0.00     0.031 C 
ATOM     64  C   UNL A   1      44.457  31.840  29.073  1.00  0.00     0.034 A 
BRANCH  51  65
ATOM     65  C   UNL A   1      38.692  30.354  30.703  1.00  0.00     0.023 A 
ATOM     66  C   UNL A   1      38.546  30.103  32.081  1.00  0.00     0.012 A 
ATOM     67  C   UNL A   1      37.678  31.047  30.014  1.00  0.00     0.148 A 
ATOM     68  C   UNL A   1      37.398  30.514  32.759  1.00  0.00     0.002 A 
ATOM     69  C   UNL A   1      36.553  31.486  30.704  1.00  0.00     0.091 A 
ATOM     70  F   UNL A   1      37.823  31.255  28.697  1.00  0.00    -0.205 F 
ATOM     71  C   UNL A   1      36.408  31.214  32.074  1.00  0.00     0.022 A 
BRANCH  69  72
ATOM     72  S   UNL A   1      35.262  32.457  29.916  1.00  0.00     0.127 S 
ATOM     73  O   UNL A   1      36.006  33.636  29.478  1.00  0.00    -0.237 OA
ATOM     74  O   UNL A   1      34.823  31.576  28.833  1.00  0.00    -0.237 OA
ATOM     75  O   UNL A   1      34.259  32.688  30.947  1.00  0.00    -0.744 OA
ENDBRANCH  69  72
ENDBRANCH  51  65
BRANCH  52  76
ATOM     76  C   UNL A   1      46.872  27.287  25.887  1.00  0.00     0.023 A 
ATOM     77  C   UNL A   1      46.992  27.549  24.509  1.00  0.00     0.012 A 
ATOM     78  C   UNL A   1      47.934  26.653  26.559  1.00  0.00     0.148 A 
ATOM     79  C   UNL A   1      48.145  27.181  23.813  1.00  0.00     0.002 A 
ATOM     80  C   UNL A   1      49.105  26.347  25.875  1.00  0.00     0.091 A 
ATOM     81  F   UNL A   1      47.790  26.377  27.863  1.00  0.00    -0.205 F 
ATOM     82  C   UNL A   1      49.207  26.596  24.498  1.00  0.00     0.022 A 
BRANCH  80  83
ATOM     83  S   UNL A   1      50.566  25.750  26.732  1.00  0.00     0.127 S 
ATOM     84  O   UNL A   1      50.099  24.475  27.270  1.00  0.00    -0.237 OA
ATOM     85  O   UNL A   1      51.541  25.640  25.646  1.00  0.00    -0.237 OA
ATOM     86  O   UNL A   1      50.881  26.785  27.708  1.00  0.00    -0.744 OA
ENDBRANCH  80  83
ENDBRANCH  52  76
BRANCH  64  87
ATOM     87  C   UNL A   1      45.189  33.134  29.304  1.00  0.00     0.023 A 
ATOM     88  C   UNL A   1      46.002  33.271  30.446  1.00  0.00     0.012 A 
ATOM     89  C   UNL A   1      45.127  34.183  28.366  1.00  0.00     0.148 A 
ATOM     90  C   UNL A   1      46.725  34.442  30.665  1.00  0.00     0.002 A 
ATOM     91  C   UNL A   1      45.881  35.334  28.572  1.00  0.00     0.091 A 
ATOM     92  F   UNL A   1      44.330  34.044  27.298  1.00  0.00    -0.205 F 
ATOM     93  C   UNL A   1      46.674  35.469  29.724  1.00  0.00     0.022 A 
BRANCH  91  94
ATOM     94  S   UNL A   1      45.930  36.666  27.368  1.00  0.00     0.127 S 
ATOM     95  O   UNL A   1      46.038  35.928  26.111  1.00  0.00    -0.237 OA
ATOM     96  O   UNL A   1      44.642  37.330  27.576  1.00  0.00    -0.237 OA
ATOM     97  O   UNL A   1      47.085  37.477  27.727  1.00  0.00    -0.744 OA
ENDBRANCH  91  94
ENDBRANCH  64  87
ENDBRANCH  38  39
ENDBRANCH  31  33
ENDBRANCH  30  31
ENDBRANCH   1  30
TORSDOF 18
ENDMDL
MODEL 2
REMARK VINA RESULT:     -11.8      6.340     10.379
REMARK SMILES CC(=O)NS(=O)(=O)c1cc(-c2ccn(C(F)F)c(=O)c2)ccc1C(=O)OCCOC(=O)c1ccc(-c2c3nc(c(-c4cccc(S(=O)(=O)[O-])c4F)c4ccc([nH]4)c(-c4cccc(S(=O)(=O)[O-])c4F)c4nc(c(-c5cccc(S(=O)(=O)[O-])c5F)c5ccc2[nH]5)C=C4)C=C3)cc1
REMARK SMILES IDX 28 1 27 2 26 3 24 4 25 5 23 6 8 7 9 8 10 9 22 10 21 11 5 12
REMARK SMILES IDX 6 13 7 14 4 15 1 16 2 17 3 18 11 20 12 21 20 22 13 23 18 24
REMARK SMILES IDX 14 25 19 26 15 27 16 28 17 29 29 30 30 31 31 32 32 33 33 34
REMARK SMILES IDX 94 35 34 36 93 37 35 38 36 39 37 40 87 41 38 42 92 43 86 44
REMARK SMILES IDX 88 45 39 46 91 47 85 48 84 49 40 51 72 52 52 53 71 54 53 55
REMARK SMILES IDX 56 56 70 57 89 58 54 59 55 60 69 62 90 63 57 64 41 65 42 66
REMARK SMILES IDX 50 67 43 68 45 69 51 70 44 71 46 72 47 73 48 74 49 75 73 76
REMARK SMILES IDX 74 77 82 78 75 79 77 80 83 81 76 82 78 83 79 84 80 85 81 86
REMARK SMILES IDX 58 87 59 88 67 89 60 90 62 91 68 92 61 93 63 94 64 95 65 96
REMARK SMILES IDX 66 97
REMARK H PARENT 4 19 88 50 56 61
REMARK Flexibility Score: inf
ROOT
ATOM      1  C   UNL A   1      35.916  32.254  32.911  1.00  0.00     0.275 C 
ENDROOT
BRANCH   1   2
ATOM      2  C   UNL A   1      36.340  33.564  32.255  1.00  0.00     0.275 C 
BRANCH   2   3
ATOM      3  O   UNL A   1      37.605  33.387  31.583  1.00  0.00    -0.458 OA
BRANCH   3   4
ATOM      4  C   UNL A   1      37.581  33.376  30.238  1.00  0.00     0.339 C 
ATOM      5  O   UNL A   1      37.349  34.332  29.516  1.00  0.00    -0.246 OA
BRANCH   4   6
ATOM      6  C   UNL A   1      37.999  32.064  29.674  1.00  0.00     0.080 A 
ATOM      7  C   UNL A   1      37.237  31.226  28.851  1.00  0.00     0.103 A 
ATOM      8  C   UNL A   1      37.826  30.077  28.297  1.00  0.00     0.032 A 
ATOM      9  C   UNL A   1      39.107  29.663  28.676  1.00  0.00    -0.017 A 
ATOM     10  C   UNL A   1      39.322  31.677  29.980  1.00  0.00     0.018 A 
ATOM     11  C   UNL A   1      39.855  30.467  29.529  1.00  0.00     0.010 A 
BRANCH   7  12
ATOM     12  S   UNL A   1      35.519  31.528  28.546  1.00  0.00     0.264 S 
ATOM     13  O   UNL A   1      35.434  32.439  27.425  1.00  0.00    -0.201 OA
ATOM     14  O   UNL A   1      34.857  31.767  29.805  1.00  0.00    -0.201 OA
BRANCH  12  15
ATOM     15  N   UNL A   1      34.915  30.076  27.968  1.00  0.00    -0.249 N 
ATOM     16  C   UNL A   1      32.670  30.762  27.081  1.00  0.00     0.115 C 
ATOM     17  C   UNL A   1      33.944  29.966  26.951  1.00  0.00     0.230 C 
ATOM     18  O   UNL A   1      34.069  29.083  26.112  1.00  0.00    -0.274 OA
ATOM     19  H   UNL A   1      35.260  29.244  28.366  1.00  0.00     0.183 HD
ENDBRANCH  12  15
ENDBRANCH   7  12
BRANCH   9  20
ATOM     20  C   UNL A   1      39.583  28.333  28.267  1.00  0.00    -0.011 A 
ATOM     21  C   UNL A   1      39.272  27.147  29.041  1.00  0.00     0.027 A 
ATOM     22  C   UNL A   1      40.268  28.209  27.118  1.00  0.00     0.080 A 
ATOM     23  C   UNL A   1      39.665  25.940  28.622  1.00  0.00     0.095 A 
ATOM     24  C   UNL A   1      40.704  26.868  26.633  1.00  0.00     0.255 A 
ATOM     25  N   UNL A   1      40.372  25.793  27.443  1.00  0.00    -0.258 N 
ATOM     26  O   UNL A   1      41.299  26.801  25.563  1.00  0.00    -0.269 OA
BRANCH  25  27
ATOM     27  C   UNL A   1      40.789  24.486  27.004  1.00  0.00     0.451 C 
ATOM     28  F   UNL A   1      41.927  24.105  27.635  1.00  0.00    -0.185 F 
ATOM     29  F   UNL A   1      39.838  23.556  27.260  1.00  0.00    -0.185 F 
ENDBRANCH  25  27
ENDBRANCH   9  20
ENDBRANCH   4   6
ENDBRANCH   3   4
ENDBRANCH   2   3
ENDBRANCH   1   2
BRANCH   1  30
ATOM     30  O   UNL A   1      37.087  31.454  33.154  1.00  0.00    -0.458 OA
BRANCH  30  31
ATOM     31  C   UNL A   1      37.099  30.234  32.573  1.00  0.00     0.338 C 
ATOM     32  O   UNL A   1      36.225  29.715  31.900  1.00  0.00    -0.246 OA
BRANCH  31  33
ATOM     33  C   UNL A   1      38.392  29.587  32.840  1.00  0.00     0.060 A 
ATOM     34  C   UNL A   1      39.459  30.365  33.287  1.00  0.00     0.016 A 
ATOM     35  C   UNL A   1      38.579  28.243  32.528  1.00  0.00     0.016 A 
ATOM     36  C   UNL A   1      40.739  29.816  33.353  1.00  0.00     0.010 A 
ATOM     37  C   UNL A   1      39.849  27.674  32.675  1.00  0.00     0.010 A 
ATOM     38  C   UNL A   1      40.954  28.462  33.049  1.00  0.00    -0.014 A 
BRANCH  38  39
ATOM     39  C   UNL A   1      42.330  27.884  33.072  1.00  0.00     0.031 A 
ATOM     40  C   UNL A   1      43.023  27.617  34.387  1.00  0.00     0.074 A 
ATOM     41  C   UNL A   1      42.974  27.596  31.922  1.00  0.00     0.049 A 
ATOM     42  N   UNL A   1      44.262  27.261  34.612  1.00  0.00    -0.248 NA
ATOM     43  C   UNL A   1      42.221  27.786  35.610  1.00  0.00     0.031 C 
ATOM     44  C   UNL A   1      42.434  27.798  30.577  1.00  0.00     0.029 A 
ATOM     45  N   UNL A   1      44.227  27.077  31.700  1.00  0.00    -0.354 N 
ATOM     46  C   UNL A   1      44.412  27.249  35.995  1.00  0.00     0.074 A 
ATOM     47  C   UNL A   1      43.130  27.614  36.560  1.00  0.00     0.031 C 
ATOM     48  C   UNL A   1      43.332  27.378  29.674  1.00  0.00     0.029 A 
ATOM     49  C   UNL A   1      44.543  26.947  30.367  1.00  0.00     0.049 A 
ATOM     50  H   UNL A   1      44.842  26.821  32.426  1.00  0.00     0.167 HD
ATOM     51  C   UNL A   1      45.510  26.953  36.729  1.00  0.00     0.034 A 
ATOM     52  C   UNL A   1      45.683  26.557  29.762  1.00  0.00     0.034 A 
ATOM     53  C   UNL A   1      46.759  26.498  36.178  1.00  0.00     0.049 A 
ATOM     54  C   UNL A   1      46.874  26.187  30.602  1.00  0.00     0.074 A 
ATOM     55  C   UNL A   1      47.912  26.129  36.850  1.00  0.00     0.029 A 
ATOM     56  N   UNL A   1      47.015  26.331  34.826  1.00  0.00    -0.354 N 
ATOM     57  N   UNL A   1      46.979  26.140  31.908  1.00  0.00    -0.248 NA
ATOM     58  C   UNL A   1      48.102  25.809  29.886  1.00  0.00     0.031 C 
ATOM     59  C   UNL A   1      48.863  25.733  35.903  1.00  0.00     0.029 A 
ATOM     60  C   UNL A   1      48.303  25.856  34.643  1.00  0.00     0.049 A 
ATOM     61  H   UNL A   1      46.375  26.523  34.103  1.00  0.00     0.167 HD
ATOM     62  C   UNL A   1      48.279  25.725  32.169  1.00  0.00     0.074 A 
ATOM     63  C   UNL A   1      48.913  25.495  30.888  1.00  0.00     0.031 C 
ATOM     64  C   UNL A   1      48.903  25.581  33.364  1.00  0.00     0.034 A 
BRANCH  51  65
ATOM     65  C   UNL A   1      45.407  27.073  38.226  1.00  0.00     0.023 A 
ATOM     66  C   UNL A   1      45.026  25.953  38.991  1.00  0.00     0.012 A 
ATOM     67  C   UNL A   1      45.746  28.274  38.879  1.00  0.00     0.148 A 
ATOM     68  C   UNL A   1      44.961  26.034  40.382  1.00  0.00     0.002 A 
ATOM     69  C   UNL A   1      45.715  28.337  40.267  1.00  0.00     0.091 A 
ATOM     70  F   UNL A   1      46.082  29.337  38.133  1.00  0.00    -0.205 F 
ATOM     71  C   UNL A   1      45.316  27.220  41.020  1.00  0.00     0.022 A 
BRANCH  69  72
ATOM     72  S   UNL A   1      46.225  29.802  41.174  1.00  0.00     0.127 S 
ATOM     73  O   UNL A   1      44.967  30.541  41.271  1.00  0.00    -0.237 OA
ATOM     74  O   UNL A   1      46.700  29.239  42.439  1.00  0.00    -0.237 OA
ATOM     75  O   UNL A   1      47.264  30.424  40.364  1.00  0.00    -0.744 OA
ENDBRANCH  69  72
ENDBRANCH  51  65
BRANCH  52  76
ATOM     76  C   UNL A   1      45.739  26.475  28.275  1.00  0.00     0.023 A 
ATOM     77  C   UNL A   1      46.137  27.605  27.535  1.00  0.00     0.012 A 
ATOM     78  C   UNL A   1      45.458  25.275  27.594  1.00  0.00     0.148 A 
ATOM     79  C   UNL A   1      46.245  27.543  26.144  1.00  0.00     0.002 A 
ATOM     80  C   UNL A   1      45.631  25.201  26.217  1.00  0.00     0.091 A 
ATOM     81  F   UNL A   1      45.047  24.217  28.308  1.00  0.00    -0.205 F 
ATOM     82  C   UNL A   1      46.009  26.338  25.487  1.00  0.00     0.022 A 
BRANCH  80  83
ATOM     83  S   UNL A   1      45.506  23.640  25.336  1.00  0.00     0.127 S 
ATOM     84  O   UNL A   1      45.870  24.031  23.978  1.00  0.00    -0.237 OA
ATOM     85  O   UNL A   1      46.498  22.813  26.027  1.00  0.00    -0.237 OA
ATOM     86  O   UNL A   1      44.130  23.204  25.536  1.00  0.00    -0.744 OA
ENDBRANCH  80  83
ENDBRANCH  52  76
BRANCH  64  87
ATOM     87  C   UNL A   1      50.344  25.148  33.347  1.00  0.00     0.023 A 
ATOM     88  C   UNL A   1      51.357  26.121  33.447  1.00  0.00     0.012 A 
ATOM     89  C   UNL A   1      50.694  23.785  33.301  1.00  0.00     0.148 A 
ATOM     90  C   UNL A   1      52.700  25.747  33.477  1.00  0.00     0.002 A 
ATOM     91  C   UNL A   1      52.034  23.416  33.368  1.00  0.00     0.091 A 
ATOM     92  F   UNL A   1      49.718  22.874  33.181  1.00  0.00    -0.205 F 
ATOM     93  C   UNL A   1      53.038  24.395  33.448  1.00  0.00     0.022 A 
BRANCH  91  94
ATOM     94  S   UNL A   1      52.545  21.695  33.418  1.00  0.00     0.127 S 
ATOM     95  O   UNL A   1      51.847  21.210  34.607  1.00  0.00    -0.237 OA
ATOM     96  O   UNL A   1      52.028  21.174  32.151  1.00  0.00    -0.237 OA
ATOM     97  O   UNL A   1      53.999  21.720  33.504  1.00  0.00    -0.744 OA
ENDBRANCH  91  94
ENDBRANCH  64  87
ENDBRANCH  38  39
ENDBRANCH  31  33
ENDBRANCH  30  31
ENDBRANCH   1  30
TORSDOF 18
ENDMDL
MODEL 3
REMARK VINA RESULT:     -11.6      1.011      7.609
REMARK SMILES CC(=O)NS(=O)(=O)c1cc(-c2ccn(C(F)F)c(=O)c2)ccc1C(=O)OCCOC(=O)c1ccc(-c2c3nc(c(-c4cccc(S(=O)(=O)[O-])c4F)c4ccc([nH]4)c(-c4cccc(S(=O)(=O)[O-])c4F)c4nc(c(-c5cccc(S(=O)(=O)[O-])c5F)c5ccc2[nH]5)C=C4)C=C3)cc1
REMARK SMILES IDX 28 1 27 2 26 3 24 4 25 5 23 6 8 7 9 8 10 9 22 10 21 11 5 12
REMARK SMILES IDX 6 13 7 14 4 15 1 16 2 17 3 18 11 20 12 21 20 22 13 23 18 24
REMARK SMILES IDX 14 25 19 26 15 27 16 28 17 29 29 30 30 31 31 32 32 33 33 34
REMARK SMILES IDX 94 35 34 36 93 37 35 38 36 39 37 40 87 41 38 42 92 43 86 44
REMARK SMILES IDX 88 45 39 46 91 47 85 48 84 49 40 51 72 52 52 53 71 54 53 55
REMARK SMILES IDX 56 56 70 57 89 58 54 59 55 60 69 62 90 63 57 64 41 65 42 66
REMARK SMILES IDX 50 67 43 68 45 69 51 70 44 71 46 72 47 73 48 74 49 75 73 76
REMARK SMILES IDX 74 77 82 78 75 79 77 80 83 81 76 82 78 83 79 84 80 85 81 86
REMARK SMILES IDX 58 87 59 88 67 89 60 90 62 91 68 92 61 93 63 94 64 95 65 96
REMARK SMILES IDX 66 97
REMARK H PARENT 4 19 88 50 56 61
REMARK Flexibility Score: inf
ROOT
ATOM      1  C   UNL A   1      37.091  20.534  24.995  1.00  0.00     0.275 C 
ENDROOT
BRANCH   1   2
ATOM      2  C   UNL A   1      35.697  20.940  25.459  1.00  0.00     0.275 C 
BRANCH   2   3
ATOM      3  O   UNL A   1      35.431  22.304  25.069  1.00  0.00    -0.458 OA
BRANCH   3   4
ATOM      4  C   UNL A   1      35.072  23.156  26.046  1.00  0.00     0.339 C 
ATOM      5  O   UNL A   1      35.561  23.215  27.163  1.00  0.00    -0.246 OA
BRANCH   4   6
ATOM      6  C   UNL A   1      34.063  24.149  25.591  1.00  0.00     0.080 A 
ATOM      7  C   UNL A   1      32.729  24.238  26.007  1.00  0.00     0.103 A 
ATOM      8  C   UNL A   1      31.938  25.317  25.575  1.00  0.00     0.032 A 
ATOM      9  C   UNL A   1      32.402  26.216  24.610  1.00  0.00    -0.017 A 
ATOM     10  C   UNL A   1      34.544  25.115  24.680  1.00  0.00     0.018 A 
ATOM     11  C   UNL A   1      33.712  26.108  24.157  1.00  0.00     0.010 A 
BRANCH   7  12
ATOM     12  S   UNL A   1      31.978  22.985  27.007  1.00  0.00     0.264 S 
ATOM     13  O   UNL A   1      30.606  23.384  27.240  1.00  0.00    -0.201 OA
ATOM     14  O   UNL A   1      32.884  22.632  28.073  1.00  0.00    -0.201 OA
BRANCH  12  15
ATOM     15  N   UNL A   1      31.873  21.638  26.017  1.00  0.00    -0.249 N 
ATOM     16  C   UNL A   1      31.103  22.642  23.850  1.00  0.00     0.115 C 
ATOM     17  C   UNL A   1      31.973  21.673  24.610  1.00  0.00     0.230 C 
ATOM     18  O   UNL A   1      32.599  20.787  24.043  1.00  0.00    -0.274 OA
ATOM     19  H   UNL A   1      31.732  20.762  26.446  1.00  0.00     0.183 HD
ENDBRANCH  12  15
ENDBRANCH   7  12
BRANCH   9  20
ATOM     20  C   UNL A   1      31.462  27.172  24.008  1.00  0.00    -0.011 A 
ATOM     21  C   UNL A   1      31.927  28.371  23.338  1.00  0.00     0.027 A 
ATOM     22  C   UNL A   1      30.147  26.896  24.025  1.00  0.00     0.080 A 
ATOM     23  C   UNL A   1      31.060  29.199  22.746  1.00  0.00     0.095 A 
ATOM     24  C   UNL A   1      29.169  27.805  23.361  1.00  0.00     0.255 A 
ATOM     25  N   UNL A   1      29.704  28.932  22.756  1.00  0.00    -0.258 N 
ATOM     26  O   UNL A   1      27.983  27.494  23.375  1.00  0.00    -0.269 OA
BRANCH  25  27
ATOM     27  C   UNL A   1      28.781  29.833  22.113  1.00  0.00     0.451 C 
ATOM     28  F   UNL A   1      27.855  30.285  22.996  1.00  0.00    -0.185 F 
ATOM     29  F   UNL A   1      29.424  30.907  21.596  1.00  0.00    -0.185 F 
ENDBRANCH  25  27
ENDBRANCH   9  20
ENDBRANCH   4   6
ENDBRANCH   3   4
ENDBRANCH   2   3
ENDBRANCH   1   2
BRANCH   1  30
ATOM     30  O   UNL A   1      37.998  21.627  25.228  1.00  0.00    -0.458 OA
BRANCH  30  31
ATOM     31  C   UNL A   1      39.003  21.384  26.099  1.00  0.00     0.338 C 
ATOM     32  O   UNL A   1      39.520  20.315  26.368  1.00  0.00    -0.246 OA
BRANCH  31  33
ATOM     33  C   UNL A   1      39.445  22.657  26.687  1.00  0.00     0.060 A 
ATOM     34  C   UNL A   1      38.833  23.841  26.280  1.00  0.00     0.016 A 
ATOM     35  C   UNL A   1      40.544  22.687  27.542  1.00  0.00     0.016 A 
ATOM     36  C   UNL A   1      39.367  25.069  26.669  1.00  0.00     0.010 A 
ATOM     37  C   UNL A   1      41.027  23.920  27.997  1.00  0.00     0.010 A 
ATOM     38  C   UNL A   1      40.472  25.128  27.534  1.00  0.00    -0.014 A 
BRANCH  38  39
ATOM     39  C   UNL A   1      41.075  26.439  27.914  1.00  0.00     0.031 A 
ATOM     40  C   UNL A   1      42.503  26.758  27.541  1.00  0.00     0.074 A 
ATOM     41  C   UNL A   1      40.356  27.354  28.596  1.00  0.00     0.049 A 
ATOM     42  N   UNL A   1      43.247  27.771  27.905  1.00  0.00    -0.248 NA
ATOM     43  C   UNL A   1      43.191  25.804  26.655  1.00  0.00     0.031 C 
ATOM     44  C   UNL A   1      38.966  27.190  29.024  1.00  0.00     0.029 A 
ATOM     45  N   UNL A   1      40.697  28.604  29.054  1.00  0.00    -0.354 N 
ATOM     46  C   UNL A   1      44.507  27.535  27.368  1.00  0.00     0.074 A 
ATOM     47  C   UNL A   1      44.425  26.290  26.634  1.00  0.00     0.031 C 
ATOM     48  C   UNL A   1      38.563  28.305  29.651  1.00  0.00     0.029 A 
ATOM     49  C   UNL A   1      39.684  29.237  29.739  1.00  0.00     0.049 A 
ATOM     50  H   UNL A   1      41.582  29.010  28.907  1.00  0.00     0.167 HD
ATOM     51  C   UNL A   1      45.629  28.287  27.466  1.00  0.00     0.034 A 
ATOM     52  C   UNL A   1      39.660  30.416  30.392  1.00  0.00     0.034 A 
ATOM     53  C   UNL A   1      45.694  29.570  28.113  1.00  0.00     0.049 A 
ATOM     54  C   UNL A   1      40.907  31.255  30.445  1.00  0.00     0.074 A 
ATOM     55  C   UNL A   1      46.779  30.425  28.220  1.00  0.00     0.029 A 
ATOM     56  N   UNL A   1      44.631  30.194  28.746  1.00  0.00    -0.354 N 
ATOM     57  N   UNL A   1      42.074  31.032  29.892  1.00  0.00    -0.248 NA
ATOM     58  C   UNL A   1      40.832  32.511  31.207  1.00  0.00     0.031 C 
ATOM     59  C   UNL A   1      46.368  31.568  28.914  1.00  0.00     0.029 A 
ATOM     60  C   UNL A   1      45.029  31.426  29.238  1.00  0.00     0.049 A 
ATOM     61  H   UNL A   1      43.726  29.815  28.834  1.00  0.00     0.167 HD
ATOM     62  C   UNL A   1      42.870  32.118  30.235  1.00  0.00     0.074 A 
ATOM     63  C   UNL A   1      42.041  33.019  31.009  1.00  0.00     0.031 C 
ATOM     64  C   UNL A   1      44.179  32.335  29.961  1.00  0.00     0.034 A 
BRANCH  51  65
ATOM     65  C   UNL A   1      46.885  27.760  26.823  1.00  0.00     0.023 A 
ATOM     66  C   UNL A   1      47.193  28.118  25.497  1.00  0.00     0.012 A 
ATOM     67  C   UNL A   1      47.789  26.963  27.553  1.00  0.00     0.148 A 
ATOM     68  C   UNL A   1      48.370  27.672  24.897  1.00  0.00     0.002 A 
ATOM     69  C   UNL A   1      48.978  26.552  26.961  1.00  0.00     0.091 A 
ATOM     70  F   UNL A   1      47.467  26.611  28.806  1.00  0.00    -0.205 F 
ATOM     71  C   UNL A   1      49.267  26.899  25.631  1.00  0.00     0.022 A 
BRANCH  69  72
ATOM     72  S   UNL A   1      50.223  25.615  27.856  1.00  0.00     0.127 S 
ATOM     73  O   UNL A   1      49.743  24.246  27.682  1.00  0.00    -0.237 OA
ATOM     74  O   UNL A   1      51.446  25.932  27.116  1.00  0.00    -0.237 OA
ATOM     75  O   UNL A   1      50.196  26.127  29.220  1.00  0.00    -0.744 OA
ENDBRANCH  69  72
ENDBRANCH  51  65
BRANCH  52  76
ATOM     76  C   UNL A   1      38.396  30.882  31.030  1.00  0.00     0.023 A 
ATOM     77  C   UNL A   1      38.233  30.746  32.421  1.00  0.00     0.012 A 
ATOM     78  C   UNL A   1      37.382  31.507  30.279  1.00  0.00     0.148 A 
ATOM     79  C   UNL A   1      37.079  31.217  33.052  1.00  0.00     0.002 A 
ATOM     80  C   UNL A   1      36.266  32.032  30.921  1.00  0.00     0.091 A 
ATOM     81  F   UNL A   1      37.535  31.598  28.950  1.00  0.00    -0.205 F 
ATOM     82  C   UNL A   1      36.105  31.874  32.306  1.00  0.00     0.022 A 
BRANCH  80  83
ATOM     83  S   UNL A   1      35.061  33.034  30.043  1.00  0.00     0.127 S 
ATOM     84  O   UNL A   1      34.543  32.088  29.059  1.00  0.00    -0.237 OA
ATOM     85  O   UNL A   1      34.122  33.395  31.107  1.00  0.00    -0.237 OA
ATOM     86  O   UNL A   1      35.820  34.161  29.516  1.00  0.00    -0.744 OA
ENDBRANCH  80  83
ENDBRANCH  52  76
BRANCH  64  87
ATOM     87  C   UNL A   1      44.802  33.597  30.495  1.00  0.00     0.023 A 
ATOM     88  C   UNL A   1      45.480  33.561  31.728  1.00  0.00     0.012 A 
ATOM     89  C   UNL A   1      44.774  34.793  29.753  1.00  0.00     0.148 A 
ATOM     90  C   UNL A   1      46.103  34.704  32.228  1.00  0.00     0.002 A 
ATOM     91  C   UNL A   1      45.429  35.920  30.240  1.00  0.00     0.091 A 
ATOM     92  F   UNL A   1      44.102  34.814  28.593  1.00  0.00    -0.205 F 
ATOM     93  C   UNL A   1      46.087  35.880  31.480  1.00  0.00     0.022 A 
BRANCH  91  94
ATOM     94  S   UNL A   1      45.520  37.447  29.298  1.00  0.00     0.127 S 
ATOM     95  O   UNL A   1      46.632  38.135  29.953  1.00  0.00    -0.237 OA
ATOM     96  O   UNL A   1      45.810  36.969  27.945  1.00  0.00    -0.237 OA
ATOM     97  O   UNL A   1      44.214  38.075  29.443  1.00  0.00    -0.744 OA
ENDBRANCH  91  94
ENDBRANCH  64  87
ENDBRANCH  38  39
ENDBRANCH  31  33
ENDBRANCH  30  31
ENDBRANCH   1  30
TORSDOF 18
ENDMDL
