MODEL 1
REMARK VINA RESULT:     -11.6      0.000      0.000
REMARK SMILES CCC1CN(c2cc(F)ccc2C(=O)OCCOC(=O)c2ccc(-c3c4nc(c(-c5cccc(S(=O)(=O)[O-])c5F)c5ccc([nH]5)c(-c5cccc(S(=O)(=O)[O-])c5F)c5nc(c(-c6cccc(S(=O)(=O)[O-])c6F)c6ccc3[nH]6)C=C5)C=C4)cc2)C1
REMARK SMILES IDX 17 1 16 2 15 3 13 4 14 5 12 6 6 7 7 8 8 9 11 10 9 11 10 12
REMARK SMILES IDX 5 13 3 14 4 15 84 16 2 17 1 18 18 19 19 20 20 21 21 22 22 23
REMARK SMILES IDX 83 24 23 25 82 26 24 27 25 28 26 29 76 30 27 31 81 32 75 33
REMARK SMILES IDX 77 34 28 35 80 36 74 37 73 38 29 40 61 41 41 42 60 43 42 44
REMARK SMILES IDX 45 45 59 46 78 47 43 48 44 49 58 51 79 52 46 53 30 54 31 55
REMARK SMILES IDX 39 56 32 57 34 58 40 59 33 60 35 61 36 62 37 63 38 64 62 65
REMARK SMILES IDX 63 66 71 67 64 68 66 69 72 70 65 71 67 72 68 73 69 74 70 75
REMARK SMILES IDX 47 76 48 77 56 78 49 79 51 80 57 81 50 82 52 83 53 84 54 85
REMARK SMILES IDX 55 86
REMARK H PARENT 77 39 45 50
REMARK Flexibility Score: inf
ROOT
ATOM      1  C   UNL A   1      37.005  21.287  24.436  1.00  0.00     0.275 C 
ENDROOT
BRANCH   1   2
ATOM      2  C   UNL A   1      36.573  22.551  23.697  1.00  0.00     0.275 C 
BRANCH   2   3
ATOM      3  O   UNL A   1      35.465  23.178  24.373  1.00  0.00    -0.458 OA
BRANCH   3   4
ATOM      4  C   UNL A   1      34.309  23.300  23.668  1.00  0.00     0.340 C 
ATOM      5  O   UNL A   1      34.185  23.265  22.459  1.00  0.00    -0.246 OA
BRANCH   4   6
ATOM      6  C   UNL A   1      33.154  23.371  24.595  1.00  0.00     0.083 A 
ATOM      7  C   UNL A   1      32.404  22.241  24.963  1.00  0.00     0.054 A 
ATOM      8  C   UNL A   1      31.237  22.446  25.721  1.00  0.00     0.066 A 
ATOM      9  C   UNL A   1      30.872  23.721  26.144  1.00  0.00     0.125 A 
ATOM     10  C   UNL A   1      32.797  24.650  25.065  1.00  0.00     0.021 A 
ATOM     11  F   UNL A   1      29.777  23.876  26.899  1.00  0.00    -0.207 F 
ATOM     12  C   UNL A   1      31.648  24.826  25.831  1.00  0.00     0.040 A 
BRANCH   7  13
ATOM     13  N   UNL A   1      32.797  20.924  24.697  1.00  0.00    -0.370 N 
ATOM     14  C   UNL A   1      33.554  19.084  24.220  1.00  0.00     0.028 C 
ATOM     15  C   UNL A   1      32.431  19.996  23.681  1.00  0.00     0.122 C 
ATOM     16  C   UNL A   1      33.582  20.010  25.451  1.00  0.00     0.122 C 
BRANCH  14  17
ATOM     17  C   UNL A   1      33.349  17.586  24.409  1.00  0.00     0.004 C 
ATOM     18  C   UNL A   1      33.962  16.730  23.315  1.00  0.00     0.004 C 
ENDBRANCH  14  17
ENDBRANCH   7  13
ENDBRANCH   4   6
ENDBRANCH   3   4
ENDBRANCH   2   3
ENDBRANCH   1   2
BRANCH   1  19
ATOM     19  O   UNL A   1      37.453  21.648  25.752  1.00  0.00    -0.458 OA
BRANCH  19  20
ATOM     20  C   UNL A   1      38.750  21.379  26.018  1.00  0.00     0.338 C 
ATOM     21  O   UNL A   1      39.380  20.374  25.742  1.00  0.00    -0.246 OA
BRANCH  20  22
ATOM     22  C   UNL A   1      39.352  22.570  26.626  1.00  0.00     0.060 A 
ATOM     23  C   UNL A   1      38.863  23.817  26.242  1.00  0.00     0.016 A 
ATOM     24  C   UNL A   1      40.448  22.467  27.477  1.00  0.00     0.016 A 
ATOM     25  C   UNL A   1      39.517  24.976  26.643  1.00  0.00     0.010 A 
ATOM     26  C   UNL A   1      41.058  23.637  27.943  1.00  0.00     0.010 A 
ATOM     27  C   UNL A   1      40.624  24.903  27.502  1.00  0.00    -0.014 A 
BRANCH  27  28
ATOM     28  C   UNL A   1      41.355  26.137  27.907  1.00  0.00     0.031 A 
ATOM     29  C   UNL A   1      40.657  27.190  28.729  1.00  0.00     0.074 A 
ATOM     30  C   UNL A   1      42.636  26.324  27.534  1.00  0.00     0.049 A 
ATOM     31  N   UNL A   1      41.055  28.398  29.033  1.00  0.00    -0.248 NA
ATOM     32  C   UNL A   1      39.330  26.845  29.269  1.00  0.00     0.031 C 
ATOM     33  C   UNL A   1      43.438  25.379  26.757  1.00  0.00     0.029 A 
ATOM     34  N   UNL A   1      43.489  27.381  27.749  1.00  0.00    -0.354 N 
ATOM     35  C   UNL A   1      40.003  28.982  29.729  1.00  0.00     0.074 A 
ATOM     36  C   UNL A   1      38.952  27.992  29.816  1.00  0.00     0.031 C 
ATOM     37  C   UNL A   1      44.668  25.885  26.578  1.00  0.00     0.029 A 
ATOM     38  C   UNL A   1      44.722  27.222  27.159  1.00  0.00     0.049 A 
ATOM     39  H   UNL A   1      43.242  28.175  28.276  1.00  0.00     0.167 HD
ATOM     40  C   UNL A   1      39.926  30.226  30.259  1.00  0.00     0.034 A 
ATOM     41  C   UNL A   1      45.768  28.067  27.058  1.00  0.00     0.034 A 
ATOM     42  C   UNL A   1      41.005  31.176  30.245  1.00  0.00     0.049 A 
ATOM     43  C   UNL A   1      45.664  29.437  27.671  1.00  0.00     0.074 A 
ATOM     44  C   UNL A   1      41.036  32.447  30.793  1.00  0.00     0.029 A 
ATOM     45  N   UNL A   1      42.249  30.957  29.674  1.00  0.00    -0.354 N 
ATOM     46  N   UNL A   1      44.673  29.961  28.351  1.00  0.00    -0.248 NA
ATOM     47  C   UNL A   1      46.821  30.329  27.511  1.00  0.00     0.031 C 
ATOM     48  C   UNL A   1      42.294  32.999  30.546  1.00  0.00     0.029 A 
ATOM     49  C   UNL A   1      43.055  32.066  29.859  1.00  0.00     0.049 A 
ATOM     50  H   UNL A   1      42.519  30.134  29.207  1.00  0.00     0.167 HD
ATOM     51  C   UNL A   1      45.091  31.235  28.715  1.00  0.00     0.074 A 
ATOM     52  C   UNL A   1      46.437  31.396  28.202  1.00  0.00     0.031 C 
ATOM     53  C   UNL A   1      44.412  32.193  29.392  1.00  0.00     0.034 A 
BRANCH  40  54
ATOM     54  C   UNL A   1      38.643  30.633  30.936  1.00  0.00     0.023 A 
ATOM     55  C   UNL A   1      38.515  30.491  32.332  1.00  0.00     0.012 A 
ATOM     56  C   UNL A   1      37.606  31.245  30.204  1.00  0.00     0.148 A 
ATOM     57  C   UNL A   1      37.364  30.933  32.987  1.00  0.00     0.002 A 
ATOM     58  C   UNL A   1      36.482  31.720  30.868  1.00  0.00     0.091 A 
ATOM     59  F   UNL A   1      37.740  31.352  28.874  1.00  0.00    -0.205 F 
ATOM     60  C   UNL A   1      36.355  31.558  32.258  1.00  0.00     0.022 A 
BRANCH  58  61
ATOM     61  S   UNL A   1      35.165  32.615  30.032  1.00  0.00     0.127 S 
ATOM     62  O   UNL A   1      34.270  32.931  31.144  1.00  0.00    -0.237 OA
ATOM     63  O   UNL A   1      35.878  33.765  29.476  1.00  0.00    -0.237 OA
ATOM     64  O   UNL A   1      34.625  31.697  29.037  1.00  0.00    -0.744 OA
ENDBRANCH  58  61
ENDBRANCH  40  54
BRANCH  41  65
ATOM     65  C   UNL A   1      47.012  27.617  26.371  1.00  0.00     0.023 A 
ATOM     66  C   UNL A   1      47.924  26.798  27.063  1.00  0.00     0.012 A 
ATOM     67  C   UNL A   1      47.257  27.926  25.018  1.00  0.00     0.148 A 
ATOM     68  C   UNL A   1      49.060  26.299  26.422  1.00  0.00     0.002 A 
ATOM     69  C   UNL A   1      48.355  27.374  24.368  1.00  0.00     0.091 A 
ATOM     70  F   UNL A   1      46.392  28.730  24.383  1.00  0.00    -0.205 F 
ATOM     71  C   UNL A   1      49.265  26.571  25.071  1.00  0.00     0.022 A 
BRANCH  69  72
ATOM     72  S   UNL A   1      48.605  27.541  22.597  1.00  0.00     0.127 S 
ATOM     73  O   UNL A   1      49.881  28.249  22.539  1.00  0.00    -0.237 OA
ATOM     74  O   UNL A   1      48.654  26.144  22.163  1.00  0.00    -0.237 OA
ATOM     75  O   UNL A   1      47.449  28.278  22.106  1.00  0.00    -0.744 OA
ENDBRANCH  69  72
ENDBRANCH  41  65
BRANCH  53  76
ATOM     76  C   UNL A   1      45.105  33.505  29.645  1.00  0.00     0.023 A 
ATOM     77  C   UNL A   1      45.898  33.658  30.799  1.00  0.00     0.012 A 
ATOM     78  C   UNL A   1      45.068  34.536  28.686  1.00  0.00     0.148 A 
ATOM     79  C   UNL A   1      46.631  34.826  31.003  1.00  0.00     0.002 A 
ATOM     80  C   UNL A   1      45.837  35.678  28.874  1.00  0.00     0.091 A 
ATOM     81  F   UNL A   1      44.293  34.374  27.603  1.00  0.00    -0.205 F 
ATOM     82  C   UNL A   1      46.612  35.828  30.035  1.00  0.00     0.022 A 
BRANCH  80  83
ATOM     83  S   UNL A   1      45.950  36.977  27.637  1.00  0.00     0.127 S 
ATOM     84  O   UNL A   1      46.980  37.843  28.209  1.00  0.00    -0.237 OA
ATOM     85  O   UNL A   1      46.368  36.236  26.446  1.00  0.00    -0.237 OA
ATOM     86  O   UNL A   1      44.620  37.564  27.549  1.00  0.00    -0.744 OA
ENDBRANCH  80  83
ENDBRANCH  53  76
ENDBRANCH  27  28
ENDBRANCH  20  22
ENDBRANCH  19  20
ENDBRANCH   1  19
TORSDOF 16
ENDMDL
MODEL 2
REMARK VINA RESULT:     -11.4      5.669     10.493
REMARK SMILES CCC1CN(c2cc(F)ccc2C(=O)OCCOC(=O)c2ccc(-c3c4nc(c(-c5cccc(S(=O)(=O)[O-])c5F)c5ccc([nH]5)c(-c5cccc(S(=O)(=O)[O-])c5F)c5nc(c(-c6cccc(S(=O)(=O)[O-])c6F)c6ccc3[nH]6)C=C5)C=C4)cc2)C1
REMARK SMILES IDX 17 1 16 2 15 3 13 4 14 5 12 6 6 7 7 8 8 9 11 10 9 11 10 12
REMARK SMILES IDX 5 13 3 14 4 15 84 16 2 17 1 18 18 19 19 20 20 21 21 22 22 23
REMARK SMILES IDX 83 24 23 25 82 26 24 27 25 28 26 29 76 30 27 31 81 32 75 33
REMARK SMILES IDX 77 34 28 35 80 36 74 37 73 38 29 40 61 41 41 42 60 43 42 44
REMARK SMILES IDX 45 45 59 46 78 47 43 48 44 49 58 51 79 52 46 53 30 54 31 55
REMARK SMILES IDX 39 56 32 57 34 58 40 59 33 60 35 61 36 62 37 63 38 64 62 65
REMARK SMILES IDX 63 66 71 67 64 68 66 69 72 70 65 71 67 72 68 73 69 74 70 75
REMARK SMILES IDX 47 76 48 77 56 78 49 79 51 80 57 81 50 82 52 83 53 84 54 85
REMARK SMILES IDX 55 86
REMARK H PARENT 77 39 45 50
REMARK Flexibility Score: inf
ROOT
ATOM      1  C   UNL A   1      31.828  30.174  26.435  1.00  0.00     0.275 C 
ENDROOT
BRANCH   1   2
ATOM      2  C   UNL A   1      31.750  28.811  27.116  1.00  0.00     0.275 C 
BRANCH   2   3
ATOM      3  O   UNL A   1      32.343  27.795  26.283  1.00  0.00    -0.458 OA
BRANCH   3   4
ATOM      4  C   UNL A   1      31.543  26.758  25.919  1.00  0.00     0.340 C 
ATOM      5  O   UNL A   1      30.569  26.344  26.518  1.00  0.00    -0.246 OA
BRANCH   4   6
ATOM      6  C   UNL A   1      31.950  26.242  24.590  1.00  0.00     0.083 A 
ATOM      7  C   UNL A   1      31.357  26.676  23.392  1.00  0.00     0.054 A 
ATOM      8  C   UNL A   1      31.710  26.008  22.206  1.00  0.00     0.066 A 
ATOM      9  C   UNL A   1      32.662  24.992  22.211  1.00  0.00     0.125 A 
ATOM     10  C   UNL A   1      32.942  25.243  24.576  1.00  0.00     0.021 A 
ATOM     11  F   UNL A   1      33.005  24.405  21.058  1.00  0.00    -0.207 F 
ATOM     12  C   UNL A   1      33.290  24.609  23.386  1.00  0.00     0.040 A 
BRANCH   7  13
ATOM     13  N   UNL A   1      30.509  27.786  23.299  1.00  0.00    -0.370 N 
ATOM     14  C   UNL A   1      29.297  29.433  23.379  1.00  0.00     0.028 C 
ATOM     15  C   UNL A   1      29.094  27.912  23.208  1.00  0.00     0.122 C 
ATOM     16  C   UNL A   1      30.789  29.165  23.103  1.00  0.00     0.122 C 
BRANCH  14  17
ATOM     17  C   UNL A   1      28.542  30.444  22.525  1.00  0.00     0.004 C 
ATOM     18  C   UNL A   1      27.666  31.397  23.318  1.00  0.00     0.004 C 
ENDBRANCH  14  17
ENDBRANCH   7  13
ENDBRANCH   4   6
ENDBRANCH   3   4
ENDBRANCH   2   3
ENDBRANCH   1   2
BRANCH   1  19
ATOM     19  O   UNL A   1      33.205  30.572  26.347  1.00  0.00    -0.458 OA
BRANCH  19  20
ATOM     20  C   UNL A   1      33.593  31.521  27.228  1.00  0.00     0.338 C 
ATOM     21  O   UNL A   1      32.951  32.471  27.638  1.00  0.00    -0.246 OA
BRANCH  20  22
ATOM     22  C   UNL A   1      34.927  31.171  27.724  1.00  0.00     0.060 A 
ATOM     23  C   UNL A   1      35.162  29.846  28.087  1.00  0.00     0.016 A 
ATOM     24  C   UNL A   1      35.897  32.147  27.930  1.00  0.00     0.016 A 
ATOM     25  C   UNL A   1      36.343  29.499  28.734  1.00  0.00     0.010 A 
ATOM     26  C   UNL A   1      37.116  31.781  28.511  1.00  0.00     0.010 A 
ATOM     27  C   UNL A   1      37.339  30.462  28.953  1.00  0.00    -0.014 A 
BRANCH  27  28
ATOM     28  C   UNL A   1      38.591  30.108  29.680  1.00  0.00     0.031 A 
ATOM     29  C   UNL A   1      39.583  29.160  29.054  1.00  0.00     0.074 A 
ATOM     30  C   UNL A   1      38.841  30.623  30.900  1.00  0.00     0.049 A 
ATOM     31  N   UNL A   1      40.634  28.596  29.588  1.00  0.00    -0.248 NA
ATOM     32  C   UNL A   1      39.353  28.786  27.648  1.00  0.00     0.031 C 
ATOM     33  C   UNL A   1      37.979  31.566  31.613  1.00  0.00     0.029 A 
ATOM     34  N   UNL A   1      39.889  30.415  31.765  1.00  0.00    -0.354 N 
ATOM     35  C   UNL A   1      41.146  27.746  28.614  1.00  0.00     0.074 A 
ATOM     36  C   UNL A   1      40.297  27.876  27.451  1.00  0.00     0.031 C 
ATOM     37  C   UNL A   1      38.540  31.873  32.792  1.00  0.00     0.029 A 
ATOM     38  C   UNL A   1      39.761  31.091  32.957  1.00  0.00     0.049 A 
ATOM     39  H   UNL A   1      40.659  29.839  31.552  1.00  0.00     0.167 HD
ATOM     40  C   UNL A   1      42.232  26.940  28.681  1.00  0.00     0.034 A 
ATOM     41  C   UNL A   1      40.514  31.060  34.075  1.00  0.00     0.034 A 
ATOM     42  C   UNL A   1      43.122  26.876  29.808  1.00  0.00     0.049 A 
ATOM     43  C   UNL A   1      41.725  30.170  34.116  1.00  0.00     0.074 A 
ATOM     44  C   UNL A   1      44.272  26.120  29.951  1.00  0.00     0.029 A 
ATOM     45  N   UNL A   1      42.977  27.609  30.976  1.00  0.00    -0.354 N 
ATOM     46  N   UNL A   1      42.210  29.396  33.176  1.00  0.00    -0.248 NA
ATOM     47  C   UNL A   1      42.499  30.152  35.367  1.00  0.00     0.031 C 
ATOM     48  C   UNL A   1      44.817  26.389  31.209  1.00  0.00     0.029 A 
ATOM     49  C   UNL A   1      44.017  27.326  31.843  1.00  0.00     0.049 A 
ATOM     50  H   UNL A   1      42.243  28.239  31.160  1.00  0.00     0.167 HD
ATOM     51  C   UNL A   1      43.351  28.812  33.712  1.00  0.00     0.074 A 
ATOM     52  C   UNL A   1      43.503  29.342  35.052  1.00  0.00     0.031 C 
ATOM     53  C   UNL A   1      44.186  27.903  33.152  1.00  0.00     0.034 A 
BRANCH  40  54
ATOM     54  C   UNL A   1      42.551  26.076  27.488  1.00  0.00     0.023 A 
ATOM     55  C   UNL A   1      43.373  26.580  26.461  1.00  0.00     0.012 A 
ATOM     56  C   UNL A   1      42.117  24.736  27.433  1.00  0.00     0.148 A 
ATOM     57  C   UNL A   1      43.743  25.770  25.386  1.00  0.00     0.002 A 
ATOM     58  C   UNL A   1      42.523  23.923  26.381  1.00  0.00     0.091 A 
ATOM     59  F   UNL A   1      41.319  24.282  28.410  1.00  0.00    -0.205 F 
ATOM     60  C   UNL A   1      43.329  24.440  25.353  1.00  0.00     0.022 A 
BRANCH  58  61
ATOM     61  S   UNL A   1      42.114  22.175  26.290  1.00  0.00     0.127 S 
ATOM     62  O   UNL A   1      40.660  22.220  26.140  1.00  0.00    -0.237 OA
ATOM     63  O   UNL A   1      42.838  21.750  25.093  1.00  0.00    -0.237 OA
ATOM     64  O   UNL A   1      42.595  21.585  27.533  1.00  0.00    -0.744 OA
ENDBRANCH  58  61
ENDBRANCH  40  54
BRANCH  41  65
ATOM     65  C   UNL A   1      40.150  31.929  35.230  1.00  0.00     0.023 A 
ATOM     66  C   UNL A   1      40.657  33.241  35.293  1.00  0.00     0.012 A 
ATOM     67  C   UNL A   1      39.244  31.495  36.219  1.00  0.00     0.148 A 
ATOM     68  C   UNL A   1      40.273  34.103  36.323  1.00  0.00     0.002 A 
ATOM     69  C   UNL A   1      38.817  32.378  37.204  1.00  0.00     0.091 A 
ATOM     70  F   UNL A   1      38.793  30.234  36.159  1.00  0.00    -0.205 F 
ATOM     71  C   UNL A   1      39.341  33.678  37.266  1.00  0.00     0.022 A 
BRANCH  69  72
ATOM     72  S   UNL A   1      37.502  31.966  38.357  1.00  0.00     0.127 S 
ATOM     73  O   UNL A   1      36.477  32.945  38.006  1.00  0.00    -0.237 OA
ATOM     74  O   UNL A   1      37.191  30.586  37.982  1.00  0.00    -0.237 OA
ATOM     75  O   UNL A   1      38.086  32.106  39.684  1.00  0.00    -0.744 OA
ENDBRANCH  69  72
ENDBRANCH  41  65
BRANCH  53  76
ATOM     76  C   UNL A   1      45.357  27.422  33.967  1.00  0.00     0.023 A 
ATOM     77  C   UNL A   1      46.563  28.148  33.942  1.00  0.00     0.012 A 
ATOM     78  C   UNL A   1      45.223  26.328  34.845  1.00  0.00     0.148 A 
ATOM     79  C   UNL A   1      47.626  27.782  34.766  1.00  0.00     0.002 A 
ATOM     80  C   UNL A   1      46.271  25.996  35.695  1.00  0.00     0.091 A 
ATOM     81  F   UNL A   1      44.071  25.641  34.838  1.00  0.00    -0.205 F 
ATOM     82  C   UNL A   1      47.475  26.718  35.652  1.00  0.00     0.022 A 
BRANCH  80  83
ATOM     83  S   UNL A   1      46.132  24.703  36.935  1.00  0.00     0.127 S 
ATOM     84  O   UNL A   1      45.528  23.617  36.166  1.00  0.00    -0.237 OA
ATOM     85  O   UNL A   1      47.529  24.482  37.311  1.00  0.00    -0.237 OA
ATOM     86  O   UNL A   1      45.301  25.253  37.997  1.00  0.00    -0.744 OA
ENDBRANCH  80  83
ENDBRANCH  53  76
ENDBRANCH  27  28
ENDBRANCH  20  22
ENDBRANCH  19  20
ENDBRANCH   1  19
TORSDOF 16
ENDMDL
MODEL 3
REMARK VINA RESULT:     -11.2      1.346      1.566
REMARK SMILES CCC1CN(c2cc(F)ccc2C(=O)OCCOC(=O)c2ccc(-c3c4nc(c(-c5cccc(S(=O)(=O)[O-])c5F)c5ccc([nH]5)c(-c5cccc(S(=O)(=O)[O-])c5F)c5nc(c(-c6cccc(S(=O)(=O)[O-])c6F)c6ccc3[nH]6)C=C5)C=C4)cc2)C1
REMARK SMILES IDX 17 1 16 2 15 3 13 4 14 5 12 6 6 7 7 8 8 9 11 10 9 11 10 12
REMARK SMILES IDX 5 13 3 14 4 15 84 16 2 17 1 18 18 19 19 20 20 21 21 22 22 23
REMARK SMILES IDX 83 24 23 25 82 26 24 27 25 28 26 29 76 30 27 31 81 32 75 33
REMARK SMILES IDX 77 34 28 35 80 36 74 37 73 38 29 40 61 41 41 42 60 43 42 44
REMARK SMILES IDX 45 45 59 46 78 47 43 48 44 49 58 51 79 52 46 53 30 54 31 55
REMARK SMILES IDX 39 56 32 57 34 58 40 59 33 60 35 61 36 62 37 63 38 64 62 65
REMARK SMILES IDX 63 66 71 67 64 68 66 69 72 70 65 71 67 72 68 73 69 74 70 75
REMARK SMILES IDX 47 76 48 77 56 78 49 79 51 80 57 81 50 82 52 83 53 84 54 85
REMARK SMILES IDX 55 86
REMARK H PARENT 77 39 45 50
REMARK Flexibility Score: inf
ROOT
ATOM      1  C   UNL A   1      36.977  21.327  24.439  1.00  0.00     0.275 C 
ENDROOT
BRANCH   1   2
ATOM      2  C   UNL A   1      36.554  22.578  23.674  1.00  0.00     0.275 C 
BRANCH   2   3
ATOM      3  O   UNL A   1      35.462  23.235  24.348  1.00  0.00    -0.458 OA
BRANCH   3   4
ATOM      4  C   UNL A   1      34.301  23.363  23.651  1.00  0.00     0.340 C 
ATOM      5  O   UNL A   1      34.171  23.340  22.442  1.00  0.00    -0.246 OA
BRANCH   4   6
ATOM      6  C   UNL A   1      33.151  23.422  24.584  1.00  0.00     0.083 A 
ATOM      7  C   UNL A   1      32.425  22.282  24.970  1.00  0.00     0.054 A 
ATOM      8  C   UNL A   1      31.259  22.473  25.733  1.00  0.00     0.066 A 
ATOM      9  C   UNL A   1      30.874  23.746  26.145  1.00  0.00     0.125 A 
ATOM     10  C   UNL A   1      32.774  24.698  25.043  1.00  0.00     0.021 A 
ATOM     11  F   UNL A   1      29.781  23.888  26.906  1.00  0.00    -0.207 F 
ATOM     12  C   UNL A   1      31.626  24.862  25.816  1.00  0.00     0.040 A 
BRANCH   7  13
ATOM     13  N   UNL A   1      32.841  20.970  24.714  1.00  0.00    -0.370 N 
ATOM     14  C   UNL A   1      33.634  19.139  24.262  1.00  0.00     0.028 C 
ATOM     15  C   UNL A   1      32.529  20.045  23.678  1.00  0.00     0.122 C 
ATOM     16  C   UNL A   1      33.597  20.058  25.498  1.00  0.00     0.122 C 
BRANCH  14  17
ATOM     17  C   UNL A   1      33.433  17.638  24.433  1.00  0.00     0.004 C 
ATOM     18  C   UNL A   1      33.984  16.802  23.292  1.00  0.00     0.004 C 
ENDBRANCH  14  17
ENDBRANCH   7  13
ENDBRANCH   4   6
ENDBRANCH   3   4
ENDBRANCH   2   3
ENDBRANCH   1   2
BRANCH   1  19
ATOM     19  O   UNL A   1      37.427  21.712  25.747  1.00  0.00    -0.458 OA
BRANCH  19  20
ATOM     20  C   UNL A   1      38.727  21.456  26.013  1.00  0.00     0.338 C 
ATOM     21  O   UNL A   1      39.370  20.462  25.729  1.00  0.00    -0.246 OA
BRANCH  20  22
ATOM     22  C   UNL A   1      39.313  22.649  26.634  1.00  0.00     0.060 A 
ATOM     23  C   UNL A   1      38.821  23.894  26.248  1.00  0.00     0.016 A 
ATOM     24  C   UNL A   1      40.397  22.550  27.499  1.00  0.00     0.016 A 
ATOM     25  C   UNL A   1      39.462  25.056  26.662  1.00  0.00     0.010 A 
ATOM     26  C   UNL A   1      40.993  23.722  27.978  1.00  0.00     0.010 A 
ATOM     27  C   UNL A   1      40.557  24.987  27.537  1.00  0.00    -0.014 A 
BRANCH  27  28
ATOM     28  C   UNL A   1      41.274  26.224  27.955  1.00  0.00     0.031 A 
ATOM     29  C   UNL A   1      40.555  27.275  28.763  1.00  0.00     0.074 A 
ATOM     30  C   UNL A   1      42.562  26.417  27.609  1.00  0.00     0.049 A 
ATOM     31  N   UNL A   1      40.941  28.484  29.074  1.00  0.00    -0.248 NA
ATOM     32  C   UNL A   1      39.219  26.924  29.275  1.00  0.00     0.031 C 
ATOM     33  C   UNL A   1      43.384  25.474  26.849  1.00  0.00     0.029 A 
ATOM     34  N   UNL A   1      43.406  27.477  27.842  1.00  0.00    -0.354 N 
ATOM     35  C   UNL A   1      39.873  29.064  29.748  1.00  0.00     0.074 A 
ATOM     36  C   UNL A   1      38.824  28.070  29.813  1.00  0.00     0.031 C 
ATOM     37  C   UNL A   1      44.615  25.985  26.697  1.00  0.00     0.029 A 
ATOM     38  C   UNL A   1      44.651  27.323  27.278  1.00  0.00     0.049 A 
ATOM     39  H   UNL A   1      43.144  28.271  28.363  1.00  0.00     0.167 HD
ATOM     40  C   UNL A   1      39.780  30.308  30.276  1.00  0.00     0.034 A 
ATOM     41  C   UNL A   1      45.696  28.173  27.198  1.00  0.00     0.034 A 
ATOM     42  C   UNL A   1      40.854  31.263  30.284  1.00  0.00     0.049 A 
ATOM     43  C   UNL A   1      45.573  29.542  27.808  1.00  0.00     0.074 A 
ATOM     44  C   UNL A   1      40.868  32.533  30.832  1.00  0.00     0.029 A 
ATOM     45  N   UNL A   1      42.111  31.049  29.739  1.00  0.00    -0.354 N 
ATOM     46  N   UNL A   1      44.566  30.062  28.467  1.00  0.00    -0.248 NA
ATOM     47  C   UNL A   1      46.729  30.440  27.672  1.00  0.00     0.031 C 
ATOM     48  C   UNL A   1      42.129  33.091  30.610  1.00  0.00     0.029 A 
ATOM     49  C   UNL A   1      42.908  32.161  29.940  1.00  0.00     0.049 A 
ATOM     50  H   UNL A   1      42.394  30.226  29.278  1.00  0.00     0.167 HD
ATOM     51  C   UNL A   1      44.971  31.338  28.839  1.00  0.00     0.074 A 
ATOM     52  C   UNL A   1      46.326  31.505  28.355  1.00  0.00     0.031 C 
ATOM     53  C   UNL A   1      44.274  32.293  29.502  1.00  0.00     0.034 A 
BRANCH  40  54
ATOM     54  C   UNL A   1      38.481  30.710  30.926  1.00  0.00     0.023 A 
ATOM     55  C   UNL A   1      38.292  30.487  32.304  1.00  0.00     0.012 A 
ATOM     56  C   UNL A   1      37.491  31.394  30.192  1.00  0.00     0.148 A 
ATOM     57  C   UNL A   1      37.128  30.922  32.939  1.00  0.00     0.002 A 
ATOM     58  C   UNL A   1      36.353  31.861  30.840  1.00  0.00     0.091 A 
ATOM     59  F   UNL A   1      37.682  31.578  28.878  1.00  0.00    -0.205 F 
ATOM     60  C   UNL A   1      36.166  31.618  32.211  1.00  0.00     0.022 A 
BRANCH  58  61
ATOM     61  S   UNL A   1      35.096  32.842  30.009  1.00  0.00     0.127 S 
ATOM     62  O   UNL A   1      34.268  33.274  31.134  1.00  0.00    -0.237 OA
ATOM     63  O   UNL A   1      35.891  33.904  29.393  1.00  0.00    -0.237 OA
ATOM     64  O   UNL A   1      34.445  31.943  29.065  1.00  0.00    -0.744 OA
ENDBRANCH  58  61
ENDBRANCH  40  54
BRANCH  41  65
ATOM     65  C   UNL A   1      46.956  27.728  26.538  1.00  0.00     0.023 A 
ATOM     66  C   UNL A   1      47.892  26.976  27.273  1.00  0.00     0.012 A 
ATOM     67  C   UNL A   1      47.194  27.973  25.170  1.00  0.00     0.148 A 
ATOM     68  C   UNL A   1      49.045  26.481  26.661  1.00  0.00     0.002 A 
ATOM     69  C   UNL A   1      48.312  27.423  24.552  1.00  0.00     0.091 A 
ATOM     70  F   UNL A   1      46.306  28.713  24.492  1.00  0.00    -0.205 F 
ATOM     71  C   UNL A   1      49.245  26.689  25.297  1.00  0.00     0.022 A 
BRANCH  69  72
ATOM     72  S   UNL A   1      48.561  27.505  22.774  1.00  0.00     0.127 S 
ATOM     73  O   UNL A   1      49.832  28.219  22.682  1.00  0.00    -0.237 OA
ATOM     74  O   UNL A   1      48.623  26.088  22.410  1.00  0.00    -0.237 OA
ATOM     75  O   UNL A   1      47.399  28.207  22.247  1.00  0.00    -0.744 OA
ENDBRANCH  69  72
ENDBRANCH  41  65
BRANCH  53  76
ATOM     76  C   UNL A   1      44.956  33.608  29.769  1.00  0.00     0.023 A 
ATOM     77  C   UNL A   1      44.837  34.653  28.832  1.00  0.00     0.012 A 
ATOM     78  C   UNL A   1      45.608  33.846  30.995  1.00  0.00     0.148 A 
ATOM     79  C   UNL A   1      45.371  35.911  29.104  1.00  0.00     0.002 A 
ATOM     80  C   UNL A   1      46.099  35.115  31.278  1.00  0.00     0.091 A 
ATOM     81  F   UNL A   1      45.724  32.831  31.864  1.00  0.00    -0.205 F 
ATOM     82  C   UNL A   1      45.988  36.146  30.331  1.00  0.00     0.022 A 
BRANCH  80  83
ATOM     83  S   UNL A   1      46.822  35.535  32.869  1.00  0.00     0.127 S 
ATOM     84  O   UNL A   1      46.895  36.992  32.787  1.00  0.00    -0.237 OA
ATOM     85  O   UNL A   1      45.822  35.026  33.809  1.00  0.00    -0.237 OA
ATOM     86  O   UNL A   1      48.104  34.847  32.921  1.00  0.00    -0.744 OA
ENDBRANCH  80  83
ENDBRANCH  53  76
ENDBRANCH  27  28
ENDBRANCH  20  22
ENDBRANCH  19  20
ENDBRANCH   1  19
TORSDOF 16
ENDMDL
