MODEL 1
REMARK VINA RESULT:     -10.2      0.000      0.000
REMARK SMILES O=C(CNC(=O)OCC1=Cc2ccccc2S1(=O)=O)OCCOC(=O)c1ccc(-c2c3nc(c(-c4cccc(S(=O)(=O)[O-])c4F)c4ccc([nH]4)c(-c4cccc(S(=O)(=O)[O-])c4F)c4nc(c(-c5cccc(S(=O)(=O)[O-])c5F)c5ccc2[nH]5)C=C4)C=C3)cc1
REMARK SMILES IDX 21 1 20 2 2 3 1 4 3 5 4 6 5 7 6 9 7 10 8 11 9 12 10 13 17 14
REMARK SMILES IDX 11 15 16 16 18 17 19 18 12 19 15 20 13 21 14 22 22 23 23 24
REMARK SMILES IDX 24 25 25 26 26 27 27 28 88 29 28 30 87 31 29 32 30 33 31 34
REMARK SMILES IDX 81 35 32 36 86 37 80 38 82 39 33 40 85 41 79 42 78 43 34 45
REMARK SMILES IDX 66 46 46 47 65 48 47 49 50 50 64 51 83 52 48 53 49 54 63 56
REMARK SMILES IDX 84 57 51 58 35 59 36 60 44 61 37 62 39 63 45 64 38 65 40 66
REMARK SMILES IDX 41 67 42 68 43 69 67 70 68 71 76 72 69 73 71 74 77 75 70 76
REMARK SMILES IDX 72 77 73 78 74 79 75 80 52 81 53 82 61 83 54 84 56 85 62 86
REMARK SMILES IDX 55 87 57 88 58 89 59 90 60 91
REMARK H PARENT 4 8 82 44 50 55
REMARK Flexibility Score: inf
ROOT
ATOM      1  C   UNL A   1      41.949  20.453  26.036  1.00  0.00     0.274 C 
ENDROOT
BRANCH   1   2
ATOM      2  O   UNL A   1      42.391  19.247  25.383  1.00  0.00    -0.461 OA
BRANCH   2   3
ATOM      3  C   UNL A   1      43.607  18.662  25.477  1.00  0.00     0.325 C 
ATOM      4  O   UNL A   1      43.753  17.722  26.261  1.00  0.00    -0.250 OA
BRANCH   3   5
ATOM      5  C   UNL A   1      44.807  19.186  24.686  1.00  0.00     0.242 C 
BRANCH   5   6
ATOM      6  N   UNL A   1      44.545  20.225  23.710  1.00  0.00    -0.311 N 
ATOM      7  C   UNL A   1      44.791  21.554  23.868  1.00  0.00     0.407 C 
ATOM      8  H   UNL A   1      44.153  19.944  22.852  1.00  0.00     0.167 HD
ATOM      9  O   UNL A   1      44.534  22.369  22.991  1.00  0.00    -0.225 OA
BRANCH   7  10
ATOM     10  O   UNL A   1      45.262  21.859  25.101  1.00  0.00    -0.444 OA
BRANCH  10  11
ATOM     11  C   UNL A   1      45.793  23.178  25.282  1.00  0.00     0.283 C 
BRANCH  11  12
ATOM     12  C   UNL A   1      45.737  23.564  26.704  1.00  0.00     0.087 C 
ATOM     13  C   UNL A   1      44.862  23.159  27.639  1.00  0.00     0.029 C 
ATOM     14  S   UNL A   1      46.864  24.741  27.312  1.00  0.00     0.206 S 
ATOM     15  C   UNL A   1      45.002  23.905  28.882  1.00  0.00    -0.005 A 
ATOM     16  C   UNL A   1      46.043  24.833  28.850  1.00  0.00     0.079 A 
ATOM     17  O   UNL A   1      48.150  24.104  27.509  1.00  0.00    -0.219 OA
ATOM     18  O   UNL A   1      46.706  25.994  26.610  1.00  0.00    -0.219 OA
ATOM     19  C   UNL A   1      44.172  23.845  29.988  1.00  0.00     0.009 A 
ATOM     20  C   UNL A   1      46.285  25.737  29.864  1.00  0.00     0.021 A 
ATOM     21  C   UNL A   1      44.397  24.741  31.038  1.00  0.00     0.001 A 
ATOM     22  C   UNL A   1      45.440  25.683  30.972  1.00  0.00     0.001 A 
ENDBRANCH  11  12
ENDBRANCH  10  11
ENDBRANCH   7  10
ENDBRANCH   5   6
ENDBRANCH   3   5
ENDBRANCH   2   3
ENDBRANCH   1   2
BRANCH   1  23
ATOM     23  C   UNL A   1      40.815  20.228  27.039  1.00  0.00     0.275 C 
BRANCH  23  24
ATOM     24  O   UNL A   1      40.345  21.461  27.602  1.00  0.00    -0.458 OA
BRANCH  24  25
ATOM     25  C   UNL A   1      39.744  22.307  26.727  1.00  0.00     0.338 C 
ATOM     26  O   UNL A   1      39.045  21.993  25.780  1.00  0.00    -0.246 OA
BRANCH  25  27
ATOM     27  C   UNL A   1      39.907  23.696  27.207  1.00  0.00     0.060 A 
ATOM     28  C   UNL A   1      39.612  24.738  26.318  1.00  0.00     0.016 A 
ATOM     29  C   UNL A   1      40.315  23.981  28.513  1.00  0.00     0.016 A 
ATOM     30  C   UNL A   1      39.768  26.065  26.719  1.00  0.00     0.010 A 
ATOM     31  C   UNL A   1      40.468  25.311  28.914  1.00  0.00     0.010 A 
ATOM     32  C   UNL A   1      40.232  26.362  28.009  1.00  0.00    -0.014 A 
BRANCH  32  33
ATOM     33  C   UNL A   1      40.614  27.754  28.359  1.00  0.00     0.031 A 
ATOM     34  C   UNL A   1      42.060  28.159  28.249  1.00  0.00     0.074 A 
ATOM     35  C   UNL A   1      39.700  28.652  28.767  1.00  0.00     0.049 A 
ATOM     36  N   UNL A   1      42.615  29.322  28.470  1.00  0.00    -0.248 NA
ATOM     37  C   UNL A   1      43.006  27.109  27.841  1.00  0.00     0.031 C 
ATOM     38  C   UNL A   1      38.272  28.393  28.932  1.00  0.00     0.029 A 
ATOM     39  N   UNL A   1      39.849  29.968  29.135  1.00  0.00    -0.354 N 
ATOM     40  C   UNL A   1      43.975  29.139  28.254  1.00  0.00     0.074 A 
ATOM     41  C   UNL A   1      44.164  27.747  27.908  1.00  0.00     0.031 C 
ATOM     42  C   UNL A   1      37.675  29.511  29.378  1.00  0.00     0.029 A 
ATOM     43  C   UNL A   1      38.680  30.560  29.552  1.00  0.00     0.049 A 
ATOM     44  H   UNL A   1      40.711  30.443  29.103  1.00  0.00     0.167 HD
ATOM     45  C   UNL A   1      44.979  30.046  28.319  1.00  0.00     0.034 A 
ATOM     46  C   UNL A   1      38.450  31.801  30.027  1.00  0.00     0.034 A 
ATOM     47  C   UNL A   1      44.799  31.431  28.662  1.00  0.00     0.049 A 
ATOM     48  C   UNL A   1      39.587  32.789  30.116  1.00  0.00     0.074 A 
ATOM     49  C   UNL A   1      45.747  32.438  28.702  1.00  0.00     0.029 A 
ATOM     50  N   UNL A   1      43.597  32.001  29.051  1.00  0.00    -0.354 N 
ATOM     51  N   UNL A   1      40.844  32.638  29.779  1.00  0.00    -0.248 NA
ATOM     52  C   UNL A   1      39.262  34.133  30.621  1.00  0.00     0.031 C 
ATOM     53  C   UNL A   1      45.127  33.605  29.160  1.00  0.00     0.029 A 
ATOM     54  C   UNL A   1      43.782  33.339  29.353  1.00  0.00     0.049 A 
ATOM     55  H   UNL A   1      42.737  31.523  29.104  1.00  0.00     0.167 HD
ATOM     56  C   UNL A   1      41.448  33.877  29.982  1.00  0.00     0.074 A 
ATOM     57  C   UNL A   1      40.416  34.769  30.465  1.00  0.00     0.031 C 
ATOM     58  C   UNL A   1      42.741  34.239  29.787  1.00  0.00     0.034 A 
BRANCH  45  59
ATOM     59  C   UNL A   1      46.370  29.559  28.004  1.00  0.00     0.023 A 
ATOM     60  C   UNL A   1      46.849  29.603  26.678  1.00  0.00     0.012 A 
ATOM     61  C   UNL A   1      47.212  29.075  29.026  1.00  0.00     0.148 A 
ATOM     62  C   UNL A   1      48.121  29.126  26.365  1.00  0.00     0.002 A 
ATOM     63  C   UNL A   1      48.497  28.648  28.713  1.00  0.00     0.091 A 
ATOM     64  F   UNL A   1      46.735  29.020  30.278  1.00  0.00    -0.205 F 
ATOM     65  C   UNL A   1      48.947  28.657  27.382  1.00  0.00     0.022 A 
BRANCH  63  66
ATOM     66  S   UNL A   1      49.665  28.108  29.965  1.00  0.00     0.127 S 
ATOM     67  O   UNL A   1      49.574  26.653  29.846  1.00  0.00    -0.237 OA
ATOM     68  O   UNL A   1      50.923  28.680  29.481  1.00  0.00    -0.237 OA
ATOM     69  O   UNL A   1      49.192  28.665  31.225  1.00  0.00    -0.744 OA
ENDBRANCH  63  66
ENDBRANCH  45  59
BRANCH  46  70
ATOM     70  C   UNL A   1      37.066  32.206  30.409  1.00  0.00     0.023 A 
ATOM     71  C   UNL A   1      36.592  31.917  31.704  1.00  0.00     0.012 A 
ATOM     72  C   UNL A   1      36.224  32.881  29.504  1.00  0.00     0.148 A 
ATOM     73  C   UNL A   1      35.295  32.264  32.080  1.00  0.00     0.002 A 
ATOM     74  C   UNL A   1      34.953  33.272  29.903  1.00  0.00     0.091 A 
ATOM     75  F   UNL A   1      36.692  33.136  28.274  1.00  0.00    -0.205 F 
ATOM     76  C   UNL A   1      34.479  32.950  31.184  1.00  0.00     0.022 A 
BRANCH  74  77
ATOM     77  S   UNL A   1      33.868  34.253  28.859  1.00  0.00     0.127 S 
ATOM     78  O   UNL A   1      33.406  33.263  27.890  1.00  0.00    -0.237 OA
ATOM     79  O   UNL A   1      32.854  34.696  29.818  1.00  0.00    -0.237 OA
ATOM     80  O   UNL A   1      34.695  35.322  28.315  1.00  0.00    -0.744 OA
ENDBRANCH  74  77
ENDBRANCH  46  70
BRANCH  58  81
ATOM     81  C   UNL A   1      43.121  35.678  30.037  1.00  0.00     0.023 A 
ATOM     82  C   UNL A   1      43.634  36.074  31.288  1.00  0.00     0.012 A 
ATOM     83  C   UNL A   1      43.040  36.627  28.996  1.00  0.00     0.148 A 
ATOM     84  C   UNL A   1      44.024  37.396  31.511  1.00  0.00     0.002 A 
ATOM     85  C   UNL A   1      43.480  37.928  29.208  1.00  0.00     0.091 A 
ATOM     86  F   UNL A   1      42.534  36.240  27.816  1.00  0.00    -0.205 F 
ATOM     87  C   UNL A   1      43.959  38.318  30.469  1.00  0.00     0.022 A 
BRANCH  85  88
ATOM     88  S   UNL A   1      43.529  39.156  27.897  1.00  0.00     0.127 S 
ATOM     89  O   UNL A   1      43.987  40.343  28.618  1.00  0.00    -0.237 OA
ATOM     90  O   UNL A   1      44.512  38.587  26.975  1.00  0.00    -0.237 OA
ATOM     91  O   UNL A   1      42.175  39.232  27.366  1.00  0.00    -0.744 OA
ENDBRANCH  85  88
ENDBRANCH  58  81
ENDBRANCH  32  33
ENDBRANCH  25  27
ENDBRANCH  24  25
ENDBRANCH  23  24
ENDBRANCH   1  23
TORSDOF 18
ENDMDL
MODEL 2
REMARK VINA RESULT:     -10.2      4.368     12.454
REMARK SMILES O=C(CNC(=O)OCC1=Cc2ccccc2S1(=O)=O)OCCOC(=O)c1ccc(-c2c3nc(c(-c4cccc(S(=O)(=O)[O-])c4F)c4ccc([nH]4)c(-c4cccc(S(=O)(=O)[O-])c4F)c4nc(c(-c5cccc(S(=O)(=O)[O-])c5F)c5ccc2[nH]5)C=C4)C=C3)cc1
REMARK SMILES IDX 21 1 20 2 2 3 1 4 3 5 4 6 5 7 6 9 7 10 8 11 9 12 10 13 17 14
REMARK SMILES IDX 11 15 16 16 18 17 19 18 12 19 15 20 13 21 14 22 22 23 23 24
REMARK SMILES IDX 24 25 25 26 26 27 27 28 88 29 28 30 87 31 29 32 30 33 31 34
REMARK SMILES IDX 81 35 32 36 86 37 80 38 82 39 33 40 85 41 79 42 78 43 34 45
REMARK SMILES IDX 66 46 46 47 65 48 47 49 50 50 64 51 83 52 48 53 49 54 63 56
REMARK SMILES IDX 84 57 51 58 35 59 36 60 44 61 37 62 39 63 45 64 38 65 40 66
REMARK SMILES IDX 41 67 42 68 43 69 67 70 68 71 76 72 69 73 71 74 77 75 70 76
REMARK SMILES IDX 72 77 73 78 74 79 75 80 52 81 53 82 61 83 54 84 56 85 62 86
REMARK SMILES IDX 55 87 57 88 58 89 59 90 60 91
REMARK H PARENT 4 8 82 44 50 55
REMARK Flexibility Score: inf
ROOT
ATOM      1  C   UNL A   1      34.137  34.533  29.022  1.00  0.00     0.274 C 
ENDROOT
BRANCH   1   2
ATOM      2  O   UNL A   1      32.977  35.212  29.540  1.00  0.00    -0.461 OA
BRANCH   2   3
ATOM      3  C   UNL A   1      32.950  36.355  30.265  1.00  0.00     0.325 C 
ATOM      4  O   UNL A   1      32.984  37.434  29.669  1.00  0.00    -0.250 OA
BRANCH   3   5
ATOM      5  C   UNL A   1      32.949  36.329  31.794  1.00  0.00     0.242 C 
BRANCH   5   6
ATOM      6  N   UNL A   1      32.613  35.070  32.428  1.00  0.00    -0.311 N 
ATOM      7  C   UNL A   1      33.491  34.097  32.794  1.00  0.00     0.407 C 
ATOM      8  H   UNL A   1      31.660  34.901  32.611  1.00  0.00     0.167 HD
ATOM      9  O   UNL A   1      33.121  33.056  33.323  1.00  0.00    -0.225 OA
BRANCH   7  10
ATOM     10  O   UNL A   1      34.769  34.381  32.442  1.00  0.00    -0.444 OA
BRANCH  10  11
ATOM     11  C   UNL A   1      35.581  33.281  32.013  1.00  0.00     0.283 C 
BRANCH  11  12
ATOM     12  C   UNL A   1      36.973  33.720  31.804  1.00  0.00     0.087 C 
ATOM     13  C   UNL A   1      37.604  33.947  30.641  1.00  0.00     0.029 C 
ATOM     14  S   UNL A   1      38.017  33.923  33.180  1.00  0.00     0.206 S 
ATOM     15  C   UNL A   1      39.030  34.177  30.827  1.00  0.00    -0.005 A 
ATOM     16  C   UNL A   1      39.417  34.167  32.167  1.00  0.00     0.079 A 
ATOM     17  O   UNL A   1      37.693  35.173  33.836  1.00  0.00    -0.219 OA
ATOM     18  O   UNL A   1      38.154  32.673  33.892  1.00  0.00    -0.219 OA
ATOM     19  C   UNL A   1      39.991  34.296  29.838  1.00  0.00     0.009 A 
ATOM     20  C   UNL A   1      40.733  34.240  32.578  1.00  0.00     0.021 A 
ATOM     21  C   UNL A   1      41.334  34.382  30.221  1.00  0.00     0.001 A 
ATOM     22  C   UNL A   1      41.700  34.347  31.580  1.00  0.00     0.001 A 
ENDBRANCH  11  12
ENDBRANCH  10  11
ENDBRANCH   7  10
ENDBRANCH   5   6
ENDBRANCH   3   5
ENDBRANCH   2   3
ENDBRANCH   1   2
BRANCH   1  23
ATOM     23  C   UNL A   1      33.801  33.350  28.111  1.00  0.00     0.275 C 
BRANCH  23  24
ATOM     24  O   UNL A   1      34.940  32.509  27.882  1.00  0.00    -0.458 OA
BRANCH  24  25
ATOM     25  C   UNL A   1      34.692  31.175  27.910  1.00  0.00     0.338 C 
ATOM     26  O   UNL A   1      33.658  30.623  27.576  1.00  0.00    -0.246 OA
BRANCH  25  27
ATOM     27  C   UNL A   1      35.943  30.456  28.232  1.00  0.00     0.060 A 
ATOM     28  C   UNL A   1      36.018  29.781  29.457  1.00  0.00     0.016 A 
ATOM     29  C   UNL A   1      37.020  30.416  27.341  1.00  0.00     0.016 A 
ATOM     30  C   UNL A   1      37.185  29.103  29.812  1.00  0.00     0.010 A 
ATOM     31  C   UNL A   1      38.187  29.735  27.698  1.00  0.00     0.010 A 
ATOM     32  C   UNL A   1      38.291  29.105  28.951  1.00  0.00    -0.014 A 
BRANCH  32  33
ATOM     33  C   UNL A   1      39.600  28.584  29.422  1.00  0.00     0.031 A 
ATOM     34  C   UNL A   1      40.271  29.257  30.590  1.00  0.00     0.074 A 
ATOM     35  C   UNL A   1      40.191  27.529  28.832  1.00  0.00     0.049 A 
ATOM     36  N   UNL A   1      41.394  28.955  31.189  1.00  0.00    -0.248 NA
ATOM     37  C   UNL A   1      39.586  30.431  31.153  1.00  0.00     0.031 C 
ATOM     38  C   UNL A   1      39.662  26.794  27.686  1.00  0.00     0.029 A 
ATOM     39  N   UNL A   1      41.384  26.907  29.111  1.00  0.00    -0.354 N 
ATOM     40  C   UNL A   1      41.564  29.915  32.180  1.00  0.00     0.074 A 
ATOM     41  C   UNL A   1      40.441  30.821  32.086  1.00  0.00     0.031 C 
ATOM     42  C   UNL A   1      40.530  25.825  27.353  1.00  0.00     0.029 A 
ATOM     43  C   UNL A   1      41.688  25.884  28.245  1.00  0.00     0.049 A 
ATOM     44  H   UNL A   1      41.966  27.170  29.861  1.00  0.00     0.167 HD
ATOM     45  C   UNL A   1      42.553  30.026  33.098  1.00  0.00     0.034 A 
ATOM     46  C   UNL A   1      42.777  25.092  28.176  1.00  0.00     0.034 A 
ATOM     47  C   UNL A   1      43.672  29.128  33.197  1.00  0.00     0.049 A 
ATOM     48  C   UNL A   1      43.881  25.249  29.193  1.00  0.00     0.074 A 
ATOM     49  C   UNL A   1      44.695  29.129  34.128  1.00  0.00     0.029 A 
ATOM     50  N   UNL A   1      43.931  28.086  32.321  1.00  0.00    -0.354 N 
ATOM     51  N   UNL A   1      43.961  26.075  30.208  1.00  0.00    -0.248 NA
ATOM     52  C   UNL A   1      45.030  24.338  29.074  1.00  0.00     0.031 C 
ATOM     53  C   UNL A   1      45.598  28.115  33.787  1.00  0.00     0.029 A 
ATOM     54  C   UNL A   1      45.108  27.450  32.676  1.00  0.00     0.049 A 
ATOM     55  H   UNL A   1      43.361  27.835  31.559  1.00  0.00     0.167 HD
ATOM     56  C   UNL A   1      45.139  25.751  30.876  1.00  0.00     0.074 A 
ATOM     57  C   UNL A   1      45.737  24.648  30.153  1.00  0.00     0.031 C 
ATOM     58  C   UNL A   1      45.677  26.319  31.984  1.00  0.00     0.034 A 
BRANCH  45  59
ATOM     59  C   UNL A   1      42.459  31.168  34.077  1.00  0.00     0.023 A 
ATOM     60  C   UNL A   1      43.384  32.231  34.010  1.00  0.00     0.012 A 
ATOM     61  C   UNL A   1      41.442  31.199  35.052  1.00  0.00     0.148 A 
ATOM     62  C   UNL A   1      43.332  33.278  34.930  1.00  0.00     0.002 A 
ATOM     63  C   UNL A   1      41.366  32.271  35.932  1.00  0.00     0.091 A 
ATOM     64  F   UNL A   1      40.584  30.171  35.116  1.00  0.00    -0.205 F 
ATOM     65  C   UNL A   1      42.319  33.302  35.884  1.00  0.00     0.022 A 
BRANCH  63  66
ATOM     66  S   UNL A   1      40.048  32.436  37.141  1.00  0.00     0.127 S 
ATOM     67  O   UNL A   1      39.439  33.704  36.743  1.00  0.00    -0.237 OA
ATOM     68  O   UNL A   1      39.229  31.254  36.867  1.00  0.00    -0.237 OA
ATOM     69  O   UNL A   1      40.695  32.434  38.445  1.00  0.00    -0.744 OA
ENDBRANCH  63  66
ENDBRANCH  45  59
BRANCH  46  70
ATOM     70  C   UNL A   1      42.861  24.032  27.130  1.00  0.00     0.023 A 
ATOM     71  C   UNL A   1      43.592  24.278  25.951  1.00  0.00     0.012 A 
ATOM     72  C   UNL A   1      42.231  22.784  27.300  1.00  0.00     0.148 A 
ATOM     73  C   UNL A   1      43.668  23.313  24.947  1.00  0.00     0.002 A 
ATOM     74  C   UNL A   1      42.355  21.807  26.320  1.00  0.00     0.091 A 
ATOM     75  F   UNL A   1      41.531  22.575  28.424  1.00  0.00    -0.205 F 
ATOM     76  C   UNL A   1      43.058  22.075  25.135  1.00  0.00     0.022 A 
BRANCH  74  77
ATOM     77  S   UNL A   1      41.699  20.146  26.518  1.00  0.00     0.127 S 
ATOM     78  O   UNL A   1      42.200  19.780  27.841  1.00  0.00    -0.237 OA
ATOM     79  O   UNL A   1      40.257  20.387  26.451  1.00  0.00    -0.237 OA
ATOM     80  O   UNL A   1      42.236  19.369  25.410  1.00  0.00    -0.744 OA
ENDBRANCH  74  77
ENDBRANCH  46  70
BRANCH  58  81
ATOM     81  C   UNL A   1      46.952  25.730  32.537  1.00  0.00     0.023 A 
ATOM     82  C   UNL A   1      48.205  26.211  32.107  1.00  0.00     0.012 A 
ATOM     83  C   UNL A   1      46.904  24.746  33.546  1.00  0.00     0.148 A 
ATOM     84  C   UNL A   1      49.386  25.697  32.644  1.00  0.00     0.002 A 
ATOM     85  C   UNL A   1      48.082  24.278  34.115  1.00  0.00     0.091 A 
ATOM     86  F   UNL A   1      45.705  24.286  33.933  1.00  0.00    -0.205 F 
ATOM     87  C   UNL A   1      49.325  24.741  33.656  1.00  0.00     0.022 A 
BRANCH  85  88
ATOM     88  S   UNL A   1      48.096  23.122  35.491  1.00  0.00     0.127 S 
ATOM     89  O   UNL A   1      47.182  23.768  36.433  1.00  0.00    -0.237 OA
ATOM     90  O   UNL A   1      47.574  21.901  34.877  1.00  0.00    -0.237 OA
ATOM     91  O   UNL A   1      49.483  23.033  35.928  1.00  0.00    -0.744 OA
ENDBRANCH  85  88
ENDBRANCH  58  81
ENDBRANCH  32  33
ENDBRANCH  25  27
ENDBRANCH  24  25
ENDBRANCH  23  24
ENDBRANCH   1  23
TORSDOF 18
ENDMDL
MODEL 3
REMARK VINA RESULT:     -10.1      5.486     11.584
REMARK SMILES O=C(CNC(=O)OCC1=Cc2ccccc2S1(=O)=O)OCCOC(=O)c1ccc(-c2c3nc(c(-c4cccc(S(=O)(=O)[O-])c4F)c4ccc([nH]4)c(-c4cccc(S(=O)(=O)[O-])c4F)c4nc(c(-c5cccc(S(=O)(=O)[O-])c5F)c5ccc2[nH]5)C=C4)C=C3)cc1
REMARK SMILES IDX 21 1 20 2 2 3 1 4 3 5 4 6 5 7 6 9 7 10 8 11 9 12 10 13 17 14
REMARK SMILES IDX 11 15 16 16 18 17 19 18 12 19 15 20 13 21 14 22 22 23 23 24
REMARK SMILES IDX 24 25 25 26 26 27 27 28 88 29 28 30 87 31 29 32 30 33 31 34
REMARK SMILES IDX 81 35 32 36 86 37 80 38 82 39 33 40 85 41 79 42 78 43 34 45
REMARK SMILES IDX 66 46 46 47 65 48 47 49 50 50 64 51 83 52 48 53 49 54 63 56
REMARK SMILES IDX 84 57 51 58 35 59 36 60 44 61 37 62 39 63 45 64 38 65 40 66
REMARK SMILES IDX 41 67 42 68 43 69 67 70 68 71 76 72 69 73 71 74 77 75 70 76
REMARK SMILES IDX 72 77 73 78 74 79 75 80 52 81 53 82 61 83 54 84 56 85 62 86
REMARK SMILES IDX 55 87 57 88 58 89 59 90 60 91
REMARK H PARENT 4 8 82 44 50 55
REMARK Flexibility Score: inf
ROOT
ATOM      1  C   UNL A   1      31.982  29.007  25.590  1.00  0.00     0.274 C 
ENDROOT
BRANCH   1   2
ATOM      2  O   UNL A   1      31.007  28.590  24.615  1.00  0.00    -0.461 OA
BRANCH   2   3
ATOM      3  C   UNL A   1      31.203  28.398  23.289  1.00  0.00     0.325 C 
ATOM      4  O   UNL A   1      30.220  28.348  22.547  1.00  0.00    -0.250 OA
BRANCH   3   5
ATOM      5  C   UNL A   1      32.602  28.177  22.715  1.00  0.00     0.242 C 
BRANCH   5   6
ATOM      6  N   UNL A   1      32.720  27.236  21.617  1.00  0.00    -0.311 N 
ATOM      7  C   UNL A   1      33.208  25.969  21.697  1.00  0.00     0.407 C 
ATOM      8  H   UNL A   1      32.418  27.543  20.732  1.00  0.00     0.167 HD
ATOM      9  O   UNL A   1      33.277  25.239  20.716  1.00  0.00    -0.225 OA
BRANCH   7  10
ATOM     10  O   UNL A   1      33.664  25.657  22.935  1.00  0.00    -0.444 OA
BRANCH  10  11
ATOM     11  C   UNL A   1      32.964  24.624  23.640  1.00  0.00     0.283 C 
BRANCH  11  12
ATOM     12  C   UNL A   1      33.908  23.602  24.126  1.00  0.00     0.087 C 
ATOM     13  C   UNL A   1      35.248  23.680  24.202  1.00  0.00     0.029 C 
ATOM     14  S   UNL A   1      33.304  22.046  24.612  1.00  0.00     0.206 S 
ATOM     15  C   UNL A   1      35.853  22.401  24.547  1.00  0.00    -0.005 A 
ATOM     16  C   UNL A   1      34.915  21.395  24.777  1.00  0.00     0.079 A 
ATOM     17  O   UNL A   1      32.712  22.161  25.929  1.00  0.00    -0.219 OA
ATOM     18  O   UNL A   1      32.638  21.399  23.504  1.00  0.00    -0.219 OA
ATOM     19  C   UNL A   1      37.203  22.097  24.565  1.00  0.00     0.009 A 
ATOM     20  C   UNL A   1      35.256  20.075  24.996  1.00  0.00     0.021 A 
ATOM     21  C   UNL A   1      37.582  20.770  24.794  1.00  0.00     0.001 A 
ATOM     22  C   UNL A   1      36.616  19.768  25.001  1.00  0.00     0.001 A 
ENDBRANCH  11  12
ENDBRANCH  10  11
ENDBRANCH   7  10
ENDBRANCH   5   6
ENDBRANCH   3   5
ENDBRANCH   2   3
ENDBRANCH   1   2
BRANCH   1  23
ATOM     23  C   UNL A   1      31.907  30.496  25.935  1.00  0.00     0.275 C 
BRANCH  23  24
ATOM     24  O   UNL A   1      32.389  30.764  27.259  1.00  0.00    -0.458 OA
BRANCH  24  25
ATOM     25  C   UNL A   1      33.225  31.828  27.369  1.00  0.00     0.338 C 
ATOM     26  O   UNL A   1      32.924  33.002  27.247  1.00  0.00    -0.246 OA
BRANCH  25  27
ATOM     27  C   UNL A   1      34.543  31.361  27.852  1.00  0.00     0.060 A 
ATOM     28  C   UNL A   1      34.718  29.987  28.061  1.00  0.00     0.016 A 
ATOM     29  C   UNL A   1      35.602  32.246  28.073  1.00  0.00     0.016 A 
ATOM     30  C   UNL A   1      35.937  29.501  28.533  1.00  0.00     0.010 A 
ATOM     31  C   UNL A   1      36.824  31.756  28.544  1.00  0.00     0.010 A 
ATOM     32  C   UNL A   1      36.989  30.386  28.812  1.00  0.00    -0.014 A 
BRANCH  32  33
ATOM     33  C   UNL A   1      38.198  29.901  29.525  1.00  0.00     0.031 A 
ATOM     34  C   UNL A   1      38.481  30.420  30.910  1.00  0.00     0.074 A 
ATOM     35  C   UNL A   1      39.037  29.013  28.962  1.00  0.00     0.049 A 
ATOM     36  N   UNL A   1      39.454  30.113  31.729  1.00  0.00    -0.248 NA
ATOM     37  C   UNL A   1      37.543  31.422  31.439  1.00  0.00     0.031 C 
ATOM     38  C   UNL A   1      38.894  28.442  27.626  1.00  0.00     0.029 A 
ATOM     39  N   UNL A   1      40.194  28.452  29.447  1.00  0.00    -0.354 N 
ATOM     40  C   UNL A   1      39.262  30.902  32.856  1.00  0.00     0.074 A 
ATOM     41  C   UNL A   1      38.094  31.717  32.607  1.00  0.00     0.031 C 
ATOM     42  C   UNL A   1      39.928  27.616  27.392  1.00  0.00     0.029 A 
ATOM     43  C   UNL A   1      40.820  27.618  28.552  1.00  0.00     0.049 A 
ATOM     44  H   UNL A   1      40.543  28.631  30.351  1.00  0.00     0.167 HD
ATOM     45  C   UNL A   1      39.979  30.937  34.005  1.00  0.00     0.034 A 
ATOM     46  C   UNL A   1      41.982  26.940  28.653  1.00  0.00     0.034 A 
ATOM     47  C   UNL A   1      41.142  30.129  34.259  1.00  0.00     0.049 A 
ATOM     48  C   UNL A   1      42.780  27.013  29.932  1.00  0.00     0.074 A 
ATOM     49  C   UNL A   1      41.902  30.056  35.413  1.00  0.00     0.029 A 
ATOM     50  N   UNL A   1      41.729  29.275  33.340  1.00  0.00    -0.354 N 
ATOM     51  N   UNL A   1      42.511  27.659  31.040  1.00  0.00    -0.248 NA
ATOM     52  C   UNL A   1      44.026  26.232  29.984  1.00  0.00     0.031 C 
ATOM     53  C   UNL A   1      42.976  29.192  35.174  1.00  0.00     0.029 A 
ATOM     54  C   UNL A   1      42.854  28.686  33.891  1.00  0.00     0.049 A 
ATOM     55  H   UNL A   1      41.394  29.111  32.428  1.00  0.00     0.167 HD
ATOM     56  C   UNL A   1      43.525  27.324  31.936  1.00  0.00     0.074 A 
ATOM     57  C   UNL A   1      44.408  26.411  31.242  1.00  0.00     0.031 C 
ATOM     58  C   UNL A   1      43.706  27.738  33.215  1.00  0.00     0.034 A 
BRANCH  45  59
ATOM     59  C   UNL A   1      39.514  31.886  35.079  1.00  0.00     0.023 A 
ATOM     60  C   UNL A   1      39.809  33.261  34.981  1.00  0.00     0.012 A 
ATOM     61  C   UNL A   1      38.766  31.418  36.179  1.00  0.00     0.148 A 
ATOM     62  C   UNL A   1      39.415  34.147  35.983  1.00  0.00     0.002 A 
ATOM     63  C   UNL A   1      38.334  32.315  37.148  1.00  0.00     0.091 A 
ATOM     64  F   UNL A   1      38.512  30.105  36.268  1.00  0.00    -0.205 F 
ATOM     65  C   UNL A   1      38.671  33.676  37.060  1.00  0.00     0.022 A 
BRANCH  63  66
ATOM     66  S   UNL A   1      37.298  31.818  38.528  1.00  0.00     0.127 S 
ATOM     67  O   UNL A   1      37.028  30.418  38.206  1.00  0.00    -0.237 OA
ATOM     68  O   UNL A   1      38.190  32.019  39.671  1.00  0.00    -0.237 OA
ATOM     69  O   UNL A   1      36.141  32.702  38.501  1.00  0.00    -0.744 OA
ENDBRANCH  63  66
ENDBRANCH  45  59
BRANCH  46  70
ATOM     70  C   UNL A   1      42.443  26.082  27.523  1.00  0.00     0.023 A 
ATOM     71  C   UNL A   1      43.310  26.623  26.553  1.00  0.00     0.012 A 
ATOM     72  C   UNL A   1      42.038  24.738  27.411  1.00  0.00     0.148 A 
ATOM     73  C   UNL A   1      43.739  25.850  25.474  1.00  0.00     0.002 A 
ATOM     74  C   UNL A   1      42.512  23.958  26.364  1.00  0.00     0.091 A 
ATOM     75  F   UNL A   1      41.205  24.248  28.340  1.00  0.00    -0.205 F 
ATOM     76  C   UNL A   1      43.348  24.516  25.384  1.00  0.00     0.022 A 
BRANCH  74  77
ATOM     77  S   UNL A   1      42.154  22.204  26.223  1.00  0.00     0.127 S 
ATOM     78  O   UNL A   1      42.938  21.830  25.049  1.00  0.00    -0.237 OA
ATOM     79  O   UNL A   1      42.669  21.692  27.495  1.00  0.00    -0.237 OA
ATOM     80  O   UNL A   1      40.710  22.100  26.069  1.00  0.00    -0.744 OA
ENDBRANCH  74  77
ENDBRANCH  46  70
BRANCH  58  81
ATOM     81  C   UNL A   1      44.871  27.170  33.987  1.00  0.00     0.023 A 
ATOM     82  C   UNL A   1      46.116  27.831  33.987  1.00  0.00     0.012 A 
ATOM     83  C   UNL A   1      44.706  26.015  34.780  1.00  0.00     0.148 A 
ATOM     84  C   UNL A   1      47.186  27.331  34.732  1.00  0.00     0.002 A 
ATOM     85  C   UNL A   1      45.759  25.554  35.561  1.00  0.00     0.091 A 
ATOM     86  F   UNL A   1      43.521  25.388  34.756  1.00  0.00    -0.205 F 
ATOM     87  C   UNL A   1      47.004  26.201  35.527  1.00  0.00     0.022 A 
BRANCH  85  88
ATOM     88  S   UNL A   1      45.586  24.168  36.692  1.00  0.00     0.127 S 
ATOM     89  O   UNL A   1      44.519  24.636  37.576  1.00  0.00    -0.237 OA
ATOM     90  O   UNL A   1      45.199  23.080  35.793  1.00  0.00    -0.237 OA
ATOM     91  O   UNL A   1      46.889  23.997  37.321  1.00  0.00    -0.744 OA
ENDBRANCH  85  88
ENDBRANCH  58  81
ENDBRANCH  32  33
ENDBRANCH  25  27
ENDBRANCH  24  25
ENDBRANCH  23  24
ENDBRANCH   1  23
TORSDOF 18
ENDMDL
