MODEL 1
REMARK VINA RESULT:     -12.5      0.000      0.000
REMARK SMILES CCn1c(N2CCC(C(=O)OCCOC(=O)c3ccc(-c4c5nc(c(-c6cccc(S(=O)(=O)[O-])c6F)c6ccc([nH]6)c(-c6cccc(S(=O)(=O)[O-])c6F)c6nc(c(-c7cccc(S(=O)(=O)[O-])c7F)c7ccc4[nH]7)C=C6)C=C5)cc3)CC2)nc2cc(C)ccc21
REMARK SMILES IDX 13 1 12 2 11 3 9 4 10 5 8 6 5 7 6 8 81 9 7 10 80 11 4 12
REMARK SMILES IDX 3 13 89 14 82 15 83 16 88 17 84 18 87 19 85 20 86 21 2 22
REMARK SMILES IDX 1 23 14 24 15 25 16 26 17 27 18 28 79 29 19 30 78 31 20 32
REMARK SMILES IDX 21 33 22 34 72 35 23 36 77 37 71 38 73 39 24 40 76 41 70 42
REMARK SMILES IDX 69 43 25 45 57 46 37 47 56 48 38 49 41 50 55 51 74 52 39 53
REMARK SMILES IDX 40 54 54 56 75 57 42 58 26 59 27 60 35 61 28 62 30 63 36 64
REMARK SMILES IDX 29 65 31 66 32 67 33 68 34 69 58 70 59 71 67 72 60 73 62 74
REMARK SMILES IDX 68 75 61 76 63 77 64 78 65 79 66 80 43 81 44 82 52 83 45 84
REMARK SMILES IDX 47 85 53 86 46 87 48 88 49 89 50 90 51 91
REMARK H PARENT 73 44 41 55
REMARK Flexibility Score: inf
ROOT
ATOM      1  C   UNL A   1      35.818  20.062  25.019  1.00  0.00     0.275 C 
ENDROOT
BRANCH   1   2
ATOM      2  C   UNL A   1      34.622  20.950  25.371  1.00  0.00     0.274 C 
BRANCH   2   3
ATOM      3  O   UNL A   1      33.464  20.515  24.629  1.00  0.00    -0.462 OA
BRANCH   3   4
ATOM      4  C   UNL A   1      32.841  21.454  23.870  1.00  0.00     0.309 C 
ATOM      5  O   UNL A   1      32.048  21.201  22.971  1.00  0.00    -0.252 OA
BRANCH   4   6
ATOM      6  C   UNL A   1      33.164  22.865  24.305  1.00  0.00     0.103 C 
ATOM      7  N   UNL A   1      33.192  25.663  24.751  1.00  0.00    -0.342 N 
ATOM      8  C   UNL A   1      34.209  25.102  23.874  1.00  0.00     0.120 C 
ATOM      9  C   UNL A   1      32.605  24.777  25.763  1.00  0.00     0.120 C 
ATOM     10  C   UNL A   1      33.733  23.799  23.234  1.00  0.00     0.037 C 
ATOM     11  C   UNL A   1      32.025  23.550  25.051  1.00  0.00     0.037 C 
BRANCH   7  12
ATOM     12  C   UNL A   1      32.397  26.654  24.284  1.00  0.00     0.206 A 
ATOM     13  N   UNL A   1      32.465  27.926  24.826  1.00  0.00    -0.310 N 
ATOM     14  C   UNL A   1      31.399  28.635  24.324  1.00  0.00     0.070 A 
ATOM     15  N   UNL A   1      31.517  26.587  23.313  1.00  0.00    -0.213 NA
ATOM     16  C   UNL A   1      30.867  27.792  23.351  1.00  0.00     0.091 A 
ATOM     17  C   UNL A   1      30.853  29.895  24.590  1.00  0.00     0.029 A 
ATOM     18  C   UNL A   1      29.792  28.234  22.563  1.00  0.00     0.034 A 
ATOM     19  C   UNL A   1      29.790  30.325  23.788  1.00  0.00     0.006 A 
ATOM     20  C   UNL A   1      29.269  29.522  22.768  1.00  0.00    -0.049 A 
ATOM     21  C   UNL A   1      28.153  30.016  21.899  1.00  0.00     0.044 C 
BRANCH  13  22
ATOM     22  C   UNL A   1      33.590  28.375  25.631  1.00  0.00     0.122 C 
ATOM     23  C   UNL A   1      33.400  28.447  27.135  1.00  0.00     0.028 C 
ENDBRANCH  13  22
ENDBRANCH   7  12
ENDBRANCH   4   6
ENDBRANCH   3   4
ENDBRANCH   2   3
ENDBRANCH   1   2
BRANCH   1  24
ATOM     24  O   UNL A   1      37.016  20.848  25.086  1.00  0.00    -0.458 OA
BRANCH  24  25
ATOM     25  C   UNL A   1      38.135  20.209  25.527  1.00  0.00     0.338 C 
ATOM     26  O   UNL A   1      38.384  19.032  25.449  1.00  0.00    -0.246 OA
BRANCH  25  27
ATOM     27  C   UNL A   1      39.127  21.279  25.789  1.00  0.00     0.060 A 
ATOM     28  C   UNL A   1      40.416  20.981  26.247  1.00  0.00     0.016 A 
ATOM     29  C   UNL A   1      38.634  22.583  25.837  1.00  0.00     0.016 A 
ATOM     30  C   UNL A   1      41.135  21.952  26.933  1.00  0.00     0.010 A 
ATOM     31  C   UNL A   1      39.353  23.544  26.534  1.00  0.00     0.010 A 
ATOM     32  C   UNL A   1      40.559  23.205  27.156  1.00  0.00    -0.014 A 
BRANCH  32  33
ATOM     33  C   UNL A   1      41.334  24.237  27.842  1.00  0.00     0.031 A 
ATOM     34  C   UNL A   1      40.564  25.492  27.980  1.00  0.00     0.074 A 
ATOM     35  C   UNL A   1      42.557  24.120  28.402  1.00  0.00     0.049 A 
ATOM     36  N   UNL A   1      40.755  26.581  27.311  1.00  0.00    -0.248 NA
ATOM     37  C   UNL A   1      39.349  25.485  28.805  1.00  0.00     0.031 C 
ATOM     38  C   UNL A   1      43.390  22.936  28.555  1.00  0.00     0.029 A 
ATOM     39  N   UNL A   1      43.278  25.066  29.071  1.00  0.00    -0.354 N 
ATOM     40  C   UNL A   1      39.808  27.468  27.797  1.00  0.00     0.074 A 
ATOM     41  C   UNL A   1      38.848  26.689  28.535  1.00  0.00     0.031 C 
ATOM     42  C   UNL A   1      44.337  23.161  29.500  1.00  0.00     0.029 A 
ATOM     43  C   UNL A   1      44.290  24.560  29.890  1.00  0.00     0.049 A 
ATOM     44  H   UNL A   1      43.099  26.030  28.984  1.00  0.00     0.167 HD
ATOM     45  C   UNL A   1      40.017  28.809  27.796  1.00  0.00     0.034 A 
ATOM     46  C   UNL A   1      44.995  25.249  30.827  1.00  0.00     0.034 A 
ATOM     47  C   UNL A   1      41.107  29.201  26.948  1.00  0.00     0.049 A 
ATOM     48  C   UNL A   1      44.905  26.678  30.439  1.00  0.00     0.074 A 
ATOM     49  C   UNL A   1      41.411  29.014  25.612  1.00  0.00     0.029 A 
ATOM     50  N   UNL A   1      42.291  29.542  27.556  1.00  0.00    -0.354 N 
ATOM     51  N   UNL A   1      45.477  27.168  29.376  1.00  0.00    -0.248 NA
ATOM     52  C   UNL A   1      43.824  27.469  31.005  1.00  0.00     0.031 C 
ATOM     53  C   UNL A   1      42.812  28.756  25.588  1.00  0.00     0.029 A 
ATOM     54  C   UNL A   1      43.281  28.858  26.899  1.00  0.00     0.049 A 
ATOM     55  H   UNL A   1      42.407  30.156  28.316  1.00  0.00     0.167 HD
ATOM     56  C   UNL A   1      44.547  28.067  28.880  1.00  0.00     0.074 A 
ATOM     57  C   UNL A   1      43.593  28.278  29.968  1.00  0.00     0.031 C 
ATOM     58  C   UNL A   1      44.457  28.328  27.545  1.00  0.00     0.034 A 
BRANCH  45  59
ATOM     59  C   UNL A   1      39.446  29.714  28.845  1.00  0.00     0.023 A 
ATOM     60  C   UNL A   1      39.980  29.645  30.144  1.00  0.00     0.012 A 
ATOM     61  C   UNL A   1      38.258  30.460  28.662  1.00  0.00     0.148 A 
ATOM     62  C   UNL A   1      39.362  30.303  31.212  1.00  0.00     0.002 A 
ATOM     63  C   UNL A   1      37.702  31.185  29.704  1.00  0.00     0.091 A 
ATOM     64  F   UNL A   1      37.583  30.364  27.511  1.00  0.00    -0.205 F 
ATOM     65  C   UNL A   1      38.238  31.093  30.989  1.00  0.00     0.022 A 
BRANCH  63  66
ATOM     66  S   UNL A   1      36.285  32.254  29.441  1.00  0.00     0.127 S 
ATOM     67  O   UNL A   1      35.236  31.283  29.148  1.00  0.00    -0.237 OA
ATOM     68  O   UNL A   1      36.169  32.925  30.737  1.00  0.00    -0.237 OA
ATOM     69  O   UNL A   1      36.667  33.138  28.347  1.00  0.00    -0.744 OA
ENDBRANCH  63  66
ENDBRANCH  45  59
BRANCH  46  70
ATOM     70  C   UNL A   1      45.603  24.858  32.129  1.00  0.00     0.023 A 
ATOM     71  C   UNL A   1      46.735  25.562  32.608  1.00  0.00     0.012 A 
ATOM     72  C   UNL A   1      44.924  24.032  33.044  1.00  0.00     0.148 A 
ATOM     73  C   UNL A   1      47.134  25.496  33.951  1.00  0.00     0.002 A 
ATOM     74  C   UNL A   1      45.339  23.956  34.376  1.00  0.00     0.091 A 
ATOM     75  F   UNL A   1      43.805  23.404  32.655  1.00  0.00    -0.205 F 
ATOM     76  C   UNL A   1      46.428  24.698  34.842  1.00  0.00     0.022 A 
BRANCH  74  77
ATOM     77  S   UNL A   1      44.426  22.966  35.554  1.00  0.00     0.127 S 
ATOM     78  O   UNL A   1      44.539  21.609  35.021  1.00  0.00    -0.237 OA
ATOM     79  O   UNL A   1      45.178  23.204  36.783  1.00  0.00    -0.237 OA
ATOM     80  O   UNL A   1      43.073  23.506  35.513  1.00  0.00    -0.744 OA
ENDBRANCH  74  77
ENDBRANCH  46  70
BRANCH  58  81
ATOM     81  C   UNL A   1      45.518  27.779  26.627  1.00  0.00     0.023 A 
ATOM     82  C   UNL A   1      46.781  28.394  26.495  1.00  0.00     0.012 A 
ATOM     83  C   UNL A   1      45.323  26.494  26.095  1.00  0.00     0.148 A 
ATOM     84  C   UNL A   1      47.834  27.732  25.855  1.00  0.00     0.002 A 
ATOM     85  C   UNL A   1      46.382  25.824  25.496  1.00  0.00     0.091 A 
ATOM     86  F   UNL A   1      44.117  25.928  26.244  1.00  0.00    -0.205 F 
ATOM     87  C   UNL A   1      47.639  26.439  25.373  1.00  0.00     0.022 A 
BRANCH  85  88
ATOM     88  S   UNL A   1      46.240  24.117  24.960  1.00  0.00     0.127 S 
ATOM     89  O   UNL A   1      47.269  24.035  23.926  1.00  0.00    -0.237 OA
ATOM     90  O   UNL A   1      46.547  23.383  26.188  1.00  0.00    -0.237 OA
ATOM     91  O   UNL A   1      44.873  23.951  24.485  1.00  0.00    -0.744 OA
ENDBRANCH  85  88
ENDBRANCH  58  81
ENDBRANCH  32  33
ENDBRANCH  25  27
ENDBRANCH  24  25
ENDBRANCH   1  24
TORSDOF 16
ENDMDL
MODEL 2
REMARK VINA RESULT:     -12.1      3.394      7.604
REMARK SMILES CCn1c(N2CCC(C(=O)OCCOC(=O)c3ccc(-c4c5nc(c(-c6cccc(S(=O)(=O)[O-])c6F)c6ccc([nH]6)c(-c6cccc(S(=O)(=O)[O-])c6F)c6nc(c(-c7cccc(S(=O)(=O)[O-])c7F)c7ccc4[nH]7)C=C6)C=C5)cc3)CC2)nc2cc(C)ccc21
REMARK SMILES IDX 13 1 12 2 11 3 9 4 10 5 8 6 5 7 6 8 81 9 7 10 80 11 4 12
REMARK SMILES IDX 3 13 89 14 82 15 83 16 88 17 84 18 87 19 85 20 86 21 2 22
REMARK SMILES IDX 1 23 14 24 15 25 16 26 17 27 18 28 79 29 19 30 78 31 20 32
REMARK SMILES IDX 21 33 22 34 72 35 23 36 77 37 71 38 73 39 24 40 76 41 70 42
REMARK SMILES IDX 69 43 25 45 57 46 37 47 56 48 38 49 41 50 55 51 74 52 39 53
REMARK SMILES IDX 40 54 54 56 75 57 42 58 26 59 27 60 35 61 28 62 30 63 36 64
REMARK SMILES IDX 29 65 31 66 32 67 33 68 34 69 58 70 59 71 67 72 60 73 62 74
REMARK SMILES IDX 68 75 61 76 63 77 64 78 65 79 66 80 43 81 44 82 52 83 45 84
REMARK SMILES IDX 47 85 53 86 46 87 48 88 49 89 50 90 51 91
REMARK H PARENT 73 44 41 55
REMARK Flexibility Score: inf
ROOT
ATOM      1  C   UNL A   1      32.334  30.606  26.892  1.00  0.00     0.275 C 
ENDROOT
BRANCH   1   2
ATOM      2  C   UNL A   1      32.469  29.846  25.569  1.00  0.00     0.274 C 
BRANCH   2   3
ATOM      3  O   UNL A   1      31.304  29.022  25.365  1.00  0.00    -0.462 OA
BRANCH   3   4
ATOM      4  C   UNL A   1      31.041  28.646  24.086  1.00  0.00     0.309 C 
ATOM      5  O   UNL A   1      30.749  29.423  23.184  1.00  0.00    -0.252 OA
BRANCH   4   6
ATOM      6  C   UNL A   1      31.229  27.163  23.863  1.00  0.00     0.103 C 
ATOM      7  N   UNL A   1      32.212  24.510  23.725  1.00  0.00    -0.342 N 
ATOM      8  C   UNL A   1      32.067  25.248  22.480  1.00  0.00     0.120 C 
ATOM      9  C   UNL A   1      31.359  24.906  24.852  1.00  0.00     0.120 C 
ATOM     10  C   UNL A   1      32.156  26.756  22.715  1.00  0.00     0.037 C 
ATOM     11  C   UNL A   1      31.589  26.396  25.129  1.00  0.00     0.037 C 
BRANCH   7  12
ATOM     12  C   UNL A   1      33.418  23.982  24.039  1.00  0.00     0.206 A 
ATOM     13  N   UNL A   1      33.624  22.614  23.985  1.00  0.00    -0.310 N 
ATOM     14  C   UNL A   1      34.842  22.367  24.573  1.00  0.00     0.070 A 
ATOM     15  N   UNL A   1      34.505  24.623  24.400  1.00  0.00    -0.213 NA
ATOM     16  C   UNL A   1      35.381  23.637  24.769  1.00  0.00     0.091 A 
ATOM     17  C   UNL A   1      35.532  21.207  24.941  1.00  0.00     0.029 A 
ATOM     18  C   UNL A   1      36.680  23.767  25.288  1.00  0.00     0.034 A 
ATOM     19  C   UNL A   1      36.828  21.353  25.446  1.00  0.00     0.006 A 
ATOM     20  C   UNL A   1      37.416  22.612  25.603  1.00  0.00    -0.049 A 
ATOM     21  C   UNL A   1      38.818  22.744  26.114  1.00  0.00     0.044 C 
BRANCH  13  22
ATOM     22  C   UNL A   1      32.735  21.716  23.266  1.00  0.00     0.122 C 
ATOM     23  C   UNL A   1      32.505  20.333  23.848  1.00  0.00     0.028 C 
ENDBRANCH  13  22
ENDBRANCH   7  12
ENDBRANCH   4   6
ENDBRANCH   3   4
ENDBRANCH   2   3
ENDBRANCH   1   2
BRANCH   1  24
ATOM     24  O   UNL A   1      33.491  30.344  27.698  1.00  0.00    -0.458 OA
BRANCH  24  25
ATOM     25  C   UNL A   1      34.292  31.412  27.968  1.00  0.00     0.338 C 
ATOM     26  O   UNL A   1      33.970  32.463  28.464  1.00  0.00    -0.246 OA
BRANCH  25  27
ATOM     27  C   UNL A   1      35.681  30.902  27.870  1.00  0.00     0.060 A 
ATOM     28  C   UNL A   1      35.945  29.555  27.601  1.00  0.00     0.016 A 
ATOM     29  C   UNL A   1      36.687  31.750  28.336  1.00  0.00     0.016 A 
ATOM     30  C   UNL A   1      37.165  29.011  27.987  1.00  0.00     0.010 A 
ATOM     31  C   UNL A   1      37.897  31.197  28.729  1.00  0.00     0.010 A 
ATOM     32  C   UNL A   1      38.103  29.817  28.636  1.00  0.00    -0.014 A 
BRANCH  32  33
ATOM     33  C   UNL A   1      39.399  29.253  29.003  1.00  0.00     0.031 A 
ATOM     34  C   UNL A   1      39.710  29.486  30.430  1.00  0.00     0.074 A 
ATOM     35  C   UNL A   1      40.227  28.511  28.236  1.00  0.00     0.049 A 
ATOM     36  N   UNL A   1      40.571  30.329  30.895  1.00  0.00    -0.248 NA
ATOM     37  C   UNL A   1      38.855  28.860  31.448  1.00  0.00     0.031 C 
ATOM     38  C   UNL A   1      40.023  28.000  26.889  1.00  0.00     0.029 A 
ATOM     39  N   UNL A   1      41.426  27.953  28.576  1.00  0.00    -0.354 N 
ATOM     40  C   UNL A   1      40.513  30.176  32.271  1.00  0.00     0.074 A 
ATOM     41  C   UNL A   1      39.309  29.440  32.558  1.00  0.00     0.031 C 
ATOM     42  C   UNL A   1      40.900  26.996  26.641  1.00  0.00     0.029 A 
ATOM     43  C   UNL A   1      41.842  26.911  27.744  1.00  0.00     0.049 A 
ATOM     44  H   UNL A   1      41.955  28.260  29.346  1.00  0.00     0.167 HD
ATOM     45  C   UNL A   1      41.587  30.421  33.064  1.00  0.00     0.034 A 
ATOM     46  C   UNL A   1      42.863  26.044  27.981  1.00  0.00     0.034 A 
ATOM     47  C   UNL A   1      42.614  31.166  32.394  1.00  0.00     0.049 A 
ATOM     48  C   UNL A   1      43.765  26.725  28.941  1.00  0.00     0.074 A 
ATOM     49  C   UNL A   1      42.656  32.377  31.730  1.00  0.00     0.029 A 
ATOM     50  N   UNL A   1      43.730  30.477  31.984  1.00  0.00    -0.354 N 
ATOM     51  N   UNL A   1      44.477  27.772  28.634  1.00  0.00    -0.248 NA
ATOM     52  C   UNL A   1      43.547  26.494  30.360  1.00  0.00     0.031 C 
ATOM     53  C   UNL A   1      43.494  32.147  30.600  1.00  0.00     0.029 A 
ATOM     54  C   UNL A   1      43.953  30.831  30.679  1.00  0.00     0.049 A 
ATOM     55  H   UNL A   1      44.265  29.850  32.522  1.00  0.00     0.167 HD
ATOM     56  C   UNL A   1      44.402  28.570  29.765  1.00  0.00     0.074 A 
ATOM     57  C   UNL A   1      43.896  27.696  30.823  1.00  0.00     0.031 C 
ATOM     58  C   UNL A   1      44.466  29.929  29.677  1.00  0.00     0.034 A 
BRANCH  45  59
ATOM     59  C   UNL A   1      41.834  29.672  34.339  1.00  0.00     0.023 A 
ATOM     60  C   UNL A   1      42.235  30.404  35.472  1.00  0.00     0.012 A 
ATOM     61  C   UNL A   1      41.912  28.263  34.407  1.00  0.00     0.148 A 
ATOM     62  C   UNL A   1      42.681  29.755  36.627  1.00  0.00     0.002 A 
ATOM     63  C   UNL A   1      42.266  27.622  35.584  1.00  0.00     0.091 A 
ATOM     64  F   UNL A   1      41.773  27.534  33.293  1.00  0.00    -0.205 F 
ATOM     65  C   UNL A   1      42.674  28.365  36.692  1.00  0.00     0.022 A 
BRANCH  63  66
ATOM     66  S   UNL A   1      42.218  25.833  35.721  1.00  0.00     0.127 S 
ATOM     67  O   UNL A   1      42.666  25.633  37.095  1.00  0.00    -0.237 OA
ATOM     68  O   UNL A   1      40.803  25.550  35.479  1.00  0.00    -0.237 OA
ATOM     69  O   UNL A   1      43.109  25.344  34.676  1.00  0.00    -0.744 OA
ENDBRANCH  63  66
ENDBRANCH  45  59
BRANCH  46  70
ATOM     70  C   UNL A   1      43.084  24.616  27.620  1.00  0.00     0.023 A 
ATOM     71  C   UNL A   1      42.146  23.639  28.036  1.00  0.00     0.012 A 
ATOM     72  C   UNL A   1      44.010  24.238  26.630  1.00  0.00     0.148 A 
ATOM     73  C   UNL A   1      42.092  22.367  27.449  1.00  0.00     0.002 A 
ATOM     74  C   UNL A   1      43.962  22.961  26.063  1.00  0.00     0.091 A 
ATOM     75  F   UNL A   1      44.869  25.150  26.152  1.00  0.00    -0.205 F 
ATOM     76  C   UNL A   1      42.996  22.029  26.452  1.00  0.00     0.022 A 
BRANCH  74  77
ATOM     77  S   UNL A   1      45.090  22.511  24.749  1.00  0.00     0.127 S 
ATOM     78  O   UNL A   1      46.362  22.311  25.444  1.00  0.00    -0.237 OA
ATOM     79  O   UNL A   1      44.475  21.290  24.239  1.00  0.00    -0.237 OA
ATOM     80  O   UNL A   1      45.082  23.659  23.851  1.00  0.00    -0.744 OA
ENDBRANCH  74  77
ENDBRANCH  46  70
BRANCH  58  81
ATOM     81  C   UNL A   1      44.823  30.553  28.354  1.00  0.00     0.023 A 
ATOM     82  C   UNL A   1      43.849  30.819  27.368  1.00  0.00     0.012 A 
ATOM     83  C   UNL A   1      46.106  31.107  28.214  1.00  0.00     0.148 A 
ATOM     84  C   UNL A   1      44.147  31.633  26.271  1.00  0.00     0.002 A 
ATOM     85  C   UNL A   1      46.387  31.947  27.145  1.00  0.00     0.091 A 
ATOM     86  F   UNL A   1      47.010  30.848  29.171  1.00  0.00    -0.205 F 
ATOM     87  C   UNL A   1      45.411  32.212  26.170  1.00  0.00     0.022 A 
BRANCH  85  88
ATOM     88  S   UNL A   1      47.948  32.822  27.012  1.00  0.00     0.127 S 
ATOM     89  O   UNL A   1      47.804  33.513  25.732  1.00  0.00    -0.237 OA
ATOM     90  O   UNL A   1      47.912  33.694  28.186  1.00  0.00    -0.237 OA
ATOM     91  O   UNL A   1      48.991  31.804  27.050  1.00  0.00    -0.744 OA
ENDBRANCH  85  88
ENDBRANCH  58  81
ENDBRANCH  32  33
ENDBRANCH  25  27
ENDBRANCH  24  25
ENDBRANCH   1  24
TORSDOF 16
ENDMDL
MODEL 3
REMARK VINA RESULT:     -12.1      3.223      7.597
REMARK SMILES CCn1c(N2CCC(C(=O)OCCOC(=O)c3ccc(-c4c5nc(c(-c6cccc(S(=O)(=O)[O-])c6F)c6ccc([nH]6)c(-c6cccc(S(=O)(=O)[O-])c6F)c6nc(c(-c7cccc(S(=O)(=O)[O-])c7F)c7ccc4[nH]7)C=C6)C=C5)cc3)CC2)nc2cc(C)ccc21
REMARK SMILES IDX 13 1 12 2 11 3 9 4 10 5 8 6 5 7 6 8 81 9 7 10 80 11 4 12
REMARK SMILES IDX 3 13 89 14 82 15 83 16 88 17 84 18 87 19 85 20 86 21 2 22
REMARK SMILES IDX 1 23 14 24 15 25 16 26 17 27 18 28 79 29 19 30 78 31 20 32
REMARK SMILES IDX 21 33 22 34 72 35 23 36 77 37 71 38 73 39 24 40 76 41 70 42
REMARK SMILES IDX 69 43 25 45 57 46 37 47 56 48 38 49 41 50 55 51 74 52 39 53
REMARK SMILES IDX 40 54 54 56 75 57 42 58 26 59 27 60 35 61 28 62 30 63 36 64
REMARK SMILES IDX 29 65 31 66 32 67 33 68 34 69 58 70 59 71 67 72 60 73 62 74
REMARK SMILES IDX 68 75 61 76 63 77 64 78 65 79 66 80 43 81 44 82 52 83 45 84
REMARK SMILES IDX 47 85 53 86 46 87 48 88 49 89 50 90 51 91
REMARK H PARENT 73 44 41 55
REMARK Flexibility Score: inf
ROOT
ATOM      1  C   UNL A   1      37.593  21.850  24.844  1.00  0.00     0.275 C 
ENDROOT
BRANCH   1   2
ATOM      2  C   UNL A   1      36.569  20.722  24.999  1.00  0.00     0.274 C 
BRANCH   2   3
ATOM      3  O   UNL A   1      35.361  21.244  25.587  1.00  0.00    -0.462 OA
BRANCH   3   4
ATOM      4  C   UNL A   1      34.189  20.787  25.076  1.00  0.00     0.309 C 
ATOM      5  O   UNL A   1      33.875  19.603  25.017  1.00  0.00    -0.252 OA
BRANCH   4   6
ATOM      6  C   UNL A   1      33.259  21.903  24.656  1.00  0.00     0.103 C 
ATOM      7  N   UNL A   1      31.937  24.380  24.282  1.00  0.00    -0.342 N 
ATOM      8  C   UNL A   1      31.265  23.362  25.075  1.00  0.00     0.120 C 
ATOM      9  C   UNL A   1      32.919  23.928  23.288  1.00  0.00     0.120 C 
ATOM     10  C   UNL A   1      32.269  22.402  25.712  1.00  0.00     0.037 C 
ATOM     11  C   UNL A   1      33.975  23.081  24.006  1.00  0.00     0.037 C 
BRANCH   7  12
ATOM     12  C   UNL A   1      32.149  25.601  24.825  1.00  0.00     0.206 A 
ATOM     13  N   UNL A   1      31.532  26.724  24.298  1.00  0.00    -0.310 N 
ATOM     14  C   UNL A   1      32.112  27.819  24.894  1.00  0.00     0.070 A 
ATOM     15  N   UNL A   1      32.896  25.900  25.862  1.00  0.00    -0.213 NA
ATOM     16  C   UNL A   1      32.912  27.270  25.894  1.00  0.00     0.091 A 
ATOM     17  C   UNL A   1      32.027  29.200  24.691  1.00  0.00     0.029 A 
ATOM     18  C   UNL A   1      33.606  28.119  26.772  1.00  0.00     0.034 A 
ATOM     19  C   UNL A   1      32.714  30.032  25.581  1.00  0.00     0.006 A 
ATOM     20  C   UNL A   1      33.482  29.511  26.628  1.00  0.00    -0.049 A 
ATOM     21  C   UNL A   1      34.183  30.420  27.590  1.00  0.00     0.044 C 
BRANCH  13  22
ATOM     22  C   UNL A   1      30.382  26.642  23.413  1.00  0.00     0.122 C 
ATOM     23  C   UNL A   1      29.031  26.341  24.035  1.00  0.00     0.028 C 
ENDBRANCH  13  22
ENDBRANCH   7  12
ENDBRANCH   4   6
ENDBRANCH   3   4
ENDBRANCH   2   3
ENDBRANCH   1   2
BRANCH   1  24
ATOM     24  O   UNL A   1      37.988  22.301  26.147  1.00  0.00    -0.458 OA
BRANCH  24  25
ATOM     25  C   UNL A   1      39.267  22.022  26.521  1.00  0.00     0.338 C 
ATOM     26  O   UNL A   1      39.854  20.976  26.399  1.00  0.00    -0.246 OA
BRANCH  25  27
ATOM     27  C   UNL A   1      39.904  23.337  26.771  1.00  0.00     0.060 A 
ATOM     28  C   UNL A   1      41.108  23.441  27.477  1.00  0.00     0.016 A 
ATOM     29  C   UNL A   1      39.117  24.463  26.530  1.00  0.00     0.016 A 
ATOM     30  C   UNL A   1      41.425  24.637  28.110  1.00  0.00     0.010 A 
ATOM     31  C   UNL A   1      39.434  25.651  27.175  1.00  0.00     0.010 A 
ATOM     32  C   UNL A   1      40.536  25.711  28.034  1.00  0.00    -0.014 A 
BRANCH  32  33
ATOM     33  C   UNL A   1      40.891  26.980  28.666  1.00  0.00     0.031 A 
ATOM     34  C   UNL A   1      42.188  27.489  28.172  1.00  0.00     0.074 A 
ATOM     35  C   UNL A   1      40.148  27.715  29.521  1.00  0.00     0.049 A 
ATOM     36  N   UNL A   1      43.304  27.494  28.823  1.00  0.00    -0.248 NA
ATOM     37  C   UNL A   1      42.304  27.862  26.756  1.00  0.00     0.031 C 
ATOM     38  C   UNL A   1      38.781  27.502  29.972  1.00  0.00     0.029 A 
ATOM     39  N   UNL A   1      40.455  28.916  30.094  1.00  0.00    -0.354 N 
ATOM     40  C   UNL A   1      44.218  28.075  27.959  1.00  0.00     0.074 A 
ATOM     41  C   UNL A   1      43.615  28.074  26.652  1.00  0.00     0.031 C 
ATOM     42  C   UNL A   1      38.285  28.650  30.496  1.00  0.00     0.029 A 
ATOM     43  C   UNL A   1      39.356  29.629  30.580  1.00  0.00     0.049 A 
ATOM     44  H   UNL A   1      41.377  29.253  30.160  1.00  0.00     0.167 HD
ATOM     45  C   UNL A   1      45.294  28.765  28.415  1.00  0.00     0.034 A 
ATOM     46  C   UNL A   1      39.348  30.928  30.983  1.00  0.00     0.034 A 
ATOM     47  C   UNL A   1      45.561  28.523  29.805  1.00  0.00     0.049 A 
ATOM     48  C   UNL A   1      40.749  31.256  31.340  1.00  0.00     0.074 A 
ATOM     49  C   UNL A   1      45.792  27.392  30.565  1.00  0.00     0.029 A 
ATOM     50  N   UNL A   1      45.207  29.507  30.697  1.00  0.00    -0.354 N 
ATOM     51  N   UNL A   1      41.364  30.745  32.368  1.00  0.00    -0.248 NA
ATOM     52  C   UNL A   1      41.599  31.824  30.305  1.00  0.00     0.031 C 
ATOM     53  C   UNL A   1      45.084  27.617  31.781  1.00  0.00     0.029 A 
ATOM     54  C   UNL A   1      44.516  28.889  31.707  1.00  0.00     0.049 A 
ATOM     55  H   UNL A   1      45.408  30.467  30.625  1.00  0.00     0.167 HD
ATOM     56  C   UNL A   1      42.650  30.511  31.908  1.00  0.00     0.074 A 
ATOM     57  C   UNL A   1      42.762  31.276  30.666  1.00  0.00     0.031 C 
ATOM     58  C   UNL A   1      43.404  29.489  32.404  1.00  0.00     0.034 A 
BRANCH  45  59
ATOM     59  C   UNL A   1      45.881  29.926  27.671  1.00  0.00     0.023 A 
ATOM     60  C   UNL A   1      47.282  30.022  27.587  1.00  0.00     0.012 A 
ATOM     61  C   UNL A   1      45.121  31.042  27.253  1.00  0.00     0.148 A 
ATOM     62  C   UNL A   1      47.896  31.177  27.093  1.00  0.00     0.002 A 
ATOM     63  C   UNL A   1      45.729  32.147  26.678  1.00  0.00     0.091 A 
ATOM     64  F   UNL A   1      43.813  31.099  27.530  1.00  0.00    -0.205 F 
ATOM     65  C   UNL A   1      47.121  32.230  26.617  1.00  0.00     0.022 A 
BRANCH  63  66
ATOM     66  S   UNL A   1      44.760  33.500  26.006  1.00  0.00     0.127 S 
ATOM     67  O   UNL A   1      45.793  34.315  25.376  1.00  0.00    -0.237 OA
ATOM     68  O   UNL A   1      43.867  32.800  25.082  1.00  0.00    -0.237 OA
ATOM     69  O   UNL A   1      44.081  34.093  27.152  1.00  0.00    -0.744 OA
ENDBRANCH  63  66
ENDBRANCH  45  59
BRANCH  46  70
ATOM     70  C   UNL A   1      38.311  31.996  30.940  1.00  0.00     0.023 A 
ATOM     71  C   UNL A   1      37.699  32.323  29.704  1.00  0.00     0.012 A 
ATOM     72  C   UNL A   1      37.692  32.475  32.109  1.00  0.00     0.148 A 
ATOM     73  C   UNL A   1      36.496  33.040  29.640  1.00  0.00     0.002 A 
ATOM     74  C   UNL A   1      36.504  33.206  32.037  1.00  0.00     0.091 A 
ATOM     75  F   UNL A   1      38.193  32.129  33.304  1.00  0.00    -0.205 F 
ATOM     76  C   UNL A   1      35.889  33.475  30.811  1.00  0.00     0.022 A 
BRANCH  74  77
ATOM     77  S   UNL A   1      35.680  33.746  33.530  1.00  0.00     0.127 S 
ATOM     78  O   UNL A   1      36.224  32.861  34.560  1.00  0.00    -0.237 OA
ATOM     79  O   UNL A   1      36.119  35.134  33.624  1.00  0.00    -0.237 OA
ATOM     80  O   UNL A   1      34.263  33.537  33.262  1.00  0.00    -0.744 OA
ENDBRANCH  74  77
ENDBRANCH  46  70
BRANCH  58  81
ATOM     81  C   UNL A   1      42.901  28.735  33.607  1.00  0.00     0.023 A 
ATOM     82  C   UNL A   1      41.903  27.743  33.500  1.00  0.00     0.012 A 
ATOM     83  C   UNL A   1      43.624  28.852  34.804  1.00  0.00     0.148 A 
ATOM     84  C   UNL A   1      41.642  26.876  34.566  1.00  0.00     0.002 A 
ATOM     85  C   UNL A   1      43.391  27.964  35.846  1.00  0.00     0.091 A 
ATOM     86  F   UNL A   1      44.575  29.796  34.875  1.00  0.00    -0.205 F 
ATOM     87  C   UNL A   1      42.400  26.975  35.732  1.00  0.00     0.022 A 
BRANCH  85  88
ATOM     88  S   UNL A   1      44.405  27.953  37.327  1.00  0.00     0.127 S 
ATOM     89  O   UNL A   1      44.173  29.291  37.866  1.00  0.00    -0.237 OA
ATOM     90  O   UNL A   1      43.803  26.868  38.103  1.00  0.00    -0.237 OA
ATOM     91  O   UNL A   1      45.769  27.693  36.885  1.00  0.00    -0.744 OA
ENDBRANCH  85  88
ENDBRANCH  58  81
ENDBRANCH  32  33
ENDBRANCH  25  27
ENDBRANCH  24  25
ENDBRANCH   1  24
TORSDOF 16
ENDMDL
