MODEL 1
REMARK VINA RESULT:     -11.9      0.000      0.000
REMARK SMILES CC(C)(C)OC(=O)N1CC[N@H+](Cc2ccc(Cl)nc2)[C@H](C(=O)OCCOC(=O)c2ccc(-c3c4nc(c(-c5cccc(S(=O)(=O)[O-])c5F)c5ccc([nH]5)c(-c5cccc(S(=O)(=O)[O-])c5F)c5nc(c(-c6cccc(S(=O)(=O)[O-])c6F)c6ccc3[nH]6)C=C5)C=C4)cc2)C1
REMARK SMILES IDX 24 1 23 2 21 3 22 4 20 5 8 6 9 7 92 8 10 9 11 10 6 12 7 13
REMARK SMILES IDX 5 14 2 15 1 16 3 17 4 18 12 19 13 20 14 21 19 22 15 23 18 24
REMARK SMILES IDX 16 25 17 26 25 27 26 28 27 29 28 30 29 31 30 32 91 33 31 34
REMARK SMILES IDX 90 35 32 36 33 37 34 38 84 39 35 40 89 41 83 42 85 43 36 44
REMARK SMILES IDX 88 45 82 46 81 47 37 49 69 50 49 51 68 52 50 53 53 54 67 55
REMARK SMILES IDX 86 56 51 57 52 58 66 60 87 61 54 62 38 63 39 64 47 65 40 66
REMARK SMILES IDX 42 67 48 68 41 69 43 70 44 71 45 72 46 73 70 74 71 75 79 76
REMARK SMILES IDX 72 77 74 78 80 79 73 80 75 81 76 82 77 83 78 84 55 85 56 86
REMARK SMILES IDX 64 87 57 88 59 89 65 90 58 91 60 92 61 93 62 94 63 95
REMARK H PARENT 11 11 85 48 53 59
REMARK Flexibility Score: inf
ROOT
ATOM      1  C   UNL A   1      31.852  28.515  27.595  1.00  0.00     0.274 C 
ENDROOT
BRANCH   1   2
ATOM      2  O   UNL A   1      31.519  27.402  26.735  1.00  0.00    -0.458 OA
BRANCH   2   3
ATOM      3  C   UNL A   1      32.582  26.698  26.241  1.00  0.00     0.366 C 
ATOM      4  O   UNL A   1      33.719  27.151  26.191  1.00  0.00    -0.245 OA
BRANCH   3   5
ATOM      5  C   UNL A   1      32.169  25.291  25.769  1.00  0.00     0.315 C 
ATOM      6  N   UNL A   1      33.063  23.053  24.990  1.00  0.00    -0.296 N 
ATOM      7  C   UNL A   1      32.008  23.001  23.995  1.00  0.00     0.184 C 
ATOM      8  C   UNL A   1      33.394  24.375  25.531  1.00  0.00     0.200 C 
ATOM      9  C   UNL A   1      30.821  23.934  24.281  1.00  0.00     0.285 C 
ATOM     10  N   UNL A   1      31.163  25.313  24.660  1.00  0.00    -0.316 N 
ATOM     11  H   UNL A   1      30.367  25.787  25.085  1.00  0.00     0.349 HD
BRANCH   6  12
ATOM     12  C   UNL A   1      34.028  22.059  24.879  1.00  0.00     0.410 C 
ATOM     13  O   UNL A   1      33.799  20.997  24.301  1.00  0.00    -0.224 OA
BRANCH  12  14
ATOM     14  O   UNL A   1      35.175  22.337  25.547  1.00  0.00    -0.444 OA
BRANCH  14  15
ATOM     15  C   UNL A   1      36.405  22.563  24.793  1.00  0.00     0.106 C 
ATOM     16  C   UNL A   1      37.151  23.672  25.552  1.00  0.00     0.056 C 
ATOM     17  C   UNL A   1      36.074  23.057  23.382  1.00  0.00     0.056 C 
ATOM     18  C   UNL A   1      37.338  21.337  24.751  1.00  0.00     0.056 C 
ENDBRANCH  14  15
ENDBRANCH  12  14
ENDBRANCH   6  12
BRANCH  10  19
ATOM     19  C   UNL A   1      31.295  26.252  23.530  1.00  0.00     0.301 C 
BRANCH  19  20
ATOM     20  C   UNL A   1      30.380  27.448  23.450  1.00  0.00     0.025 A 
ATOM     21  C   UNL A   1      28.990  27.307  23.351  1.00  0.00     0.014 A 
ATOM     22  C   UNL A   1      30.866  28.748  23.516  1.00  0.00     0.122 A 
ATOM     23  C   UNL A   1      28.181  28.423  23.164  1.00  0.00     0.041 A 
ATOM     24  N   UNL A   1      30.101  29.854  23.365  1.00  0.00    -0.244 NA
ATOM     25  C   UNL A   1      28.785  29.663  23.160  1.00  0.00     0.129 A 
ATOM     26  Cl  UNL A   1      27.864  31.069  22.845  1.00  0.00    -0.062 Cl
ENDBRANCH  19  20
ENDBRANCH  10  19
ENDBRANCH   3   5
ENDBRANCH   2   3
ENDBRANCH   1   2
BRANCH   1  27
ATOM     27  C   UNL A   1      31.754  29.859  26.872  1.00  0.00     0.275 C 
BRANCH  27  28
ATOM     28  O   UNL A   1      33.049  30.335  26.464  1.00  0.00    -0.458 OA
BRANCH  28  29
ATOM     29  C   UNL A   1      33.550  31.342  27.215  1.00  0.00     0.338 C 
ATOM     30  O   UNL A   1      32.960  32.339  27.595  1.00  0.00    -0.246 OA
BRANCH  29  31
ATOM     31  C   UNL A   1      34.910  31.016  27.669  1.00  0.00     0.060 A 
ATOM     32  C   UNL A   1      35.167  29.690  27.989  1.00  0.00     0.016 A 
ATOM     33  C   UNL A   1      35.848  31.998  27.976  1.00  0.00     0.016 A 
ATOM     34  C   UNL A   1      36.289  29.346  28.725  1.00  0.00     0.010 A 
ATOM     35  C   UNL A   1      37.045  31.629  28.612  1.00  0.00     0.010 A 
ATOM     36  C   UNL A   1      37.261  30.301  29.023  1.00  0.00    -0.014 A 
BRANCH  36  37
ATOM     37  C   UNL A   1      38.452  29.877  29.806  1.00  0.00     0.031 A 
ATOM     38  C   UNL A   1      39.504  29.019  29.166  1.00  0.00     0.074 A 
ATOM     39  C   UNL A   1      38.637  30.338  31.060  1.00  0.00     0.049 A 
ATOM     40  N   UNL A   1      40.573  28.487  29.698  1.00  0.00    -0.248 NA
ATOM     41  C   UNL A   1      39.330  28.713  27.736  1.00  0.00     0.031 C 
ATOM     42  C   UNL A   1      37.743  31.262  31.759  1.00  0.00     0.029 A 
ATOM     43  N   UNL A   1      39.659  30.131  31.955  1.00  0.00    -0.354 N 
ATOM     44  C   UNL A   1      41.146  27.710  28.701  1.00  0.00     0.074 A 
ATOM     45  C   UNL A   1      40.331  27.874  27.517  1.00  0.00     0.031 C 
ATOM     46  C   UNL A   1      38.291  31.604  32.935  1.00  0.00     0.029 A 
ATOM     47  C   UNL A   1      39.530  30.858  33.118  1.00  0.00     0.049 A 
ATOM     48  H   UNL A   1      40.413  29.522  31.781  1.00  0.00     0.167 HD
ATOM     49  C   UNL A   1      42.239  26.913  28.777  1.00  0.00     0.034 A 
ATOM     50  C   UNL A   1      40.317  30.911  34.211  1.00  0.00     0.034 A 
ATOM     51  C   UNL A   1      43.069  26.796  29.946  1.00  0.00     0.049 A 
ATOM     52  C   UNL A   1      41.529  30.020  34.265  1.00  0.00     0.074 A 
ATOM     53  C   UNL A   1      44.171  25.982  30.141  1.00  0.00     0.029 A 
ATOM     54  N   UNL A   1      42.896  27.521  31.116  1.00  0.00    -0.354 N 
ATOM     55  N   UNL A   1      42.042  29.259  33.330  1.00  0.00    -0.248 NA
ATOM     56  C   UNL A   1      42.261  29.979  35.540  1.00  0.00     0.031 C 
ATOM     57  C   UNL A   1      44.646  26.194  31.440  1.00  0.00     0.029 A 
ATOM     58  C   UNL A   1      43.864  27.167  32.042  1.00  0.00     0.049 A 
ATOM     59  H   UNL A   1      42.189  28.189  31.267  1.00  0.00     0.167 HD
ATOM     60  C   UNL A   1      43.157  28.654  33.897  1.00  0.00     0.074 A 
ATOM     61  C   UNL A   1      43.273  29.175  35.244  1.00  0.00     0.031 C 
ATOM     62  C   UNL A   1      43.990  27.726  33.365  1.00  0.00     0.034 A 
BRANCH  49  63
ATOM     63  C   UNL A   1      42.558  26.064  27.576  1.00  0.00     0.023 A 
ATOM     64  C   UNL A   1      43.294  26.594  26.498  1.00  0.00     0.012 A 
ATOM     65  C   UNL A   1      42.124  24.724  27.526  1.00  0.00     0.148 A 
ATOM     66  C   UNL A   1      43.558  25.814  25.371  1.00  0.00     0.002 A 
ATOM     67  C   UNL A   1      42.430  23.940  26.421  1.00  0.00     0.091 A 
ATOM     68  F   UNL A   1      41.402  24.246  28.549  1.00  0.00    -0.205 F 
ATOM     69  C   UNL A   1      43.134  24.486  25.336  1.00  0.00     0.022 A 
BRANCH  67  70
ATOM     70  S   UNL A   1      41.990  22.201  26.320  1.00  0.00     0.127 S 
ATOM     71  O   UNL A   1      42.398  21.717  27.639  1.00  0.00    -0.237 OA
ATOM     72  O   UNL A   1      40.544  22.261  26.112  1.00  0.00    -0.237 OA
ATOM     73  O   UNL A   1      42.742  21.661  25.195  1.00  0.00    -0.744 OA
ENDBRANCH  67  70
ENDBRANCH  49  63
BRANCH  50  74
ATOM     74  C   UNL A   1      40.002  31.843  35.337  1.00  0.00     0.023 A 
ATOM     75  C   UNL A   1      40.689  33.071  35.427  1.00  0.00     0.012 A 
ATOM     76  C   UNL A   1      39.031  31.535  36.311  1.00  0.00     0.148 A 
ATOM     77  C   UNL A   1      40.438  33.956  36.477  1.00  0.00     0.002 A 
ATOM     78  C   UNL A   1      38.734  32.453  37.311  1.00  0.00     0.091 A 
ATOM     79  F   UNL A   1      38.413  30.348  36.242  1.00  0.00    -0.205 F 
ATOM     80  C   UNL A   1      39.451  33.655  37.411  1.00  0.00     0.022 A 
BRANCH  78  81
ATOM     81  S   UNL A   1      37.374  32.209  38.461  1.00  0.00     0.127 S 
ATOM     82  O   UNL A   1      37.907  32.801  39.685  1.00  0.00    -0.237 OA
ATOM     83  O   UNL A   1      36.297  32.971  37.828  1.00  0.00    -0.237 OA
ATOM     84  O   UNL A   1      37.146  30.771  38.499  1.00  0.00    -0.744 OA
ENDBRANCH  78  81
ENDBRANCH  50  74
BRANCH  62  85
ATOM     85  C   UNL A   1      45.107  27.212  34.235  1.00  0.00     0.023 A 
ATOM     86  C   UNL A   1      46.393  27.779  34.127  1.00  0.00     0.012 A 
ATOM     87  C   UNL A   1      44.867  26.224  35.210  1.00  0.00     0.148 A 
ATOM     88  C   UNL A   1      47.431  27.346  34.953  1.00  0.00     0.002 A 
ATOM     89  C   UNL A   1      45.893  25.835  36.064  1.00  0.00     0.091 A 
ATOM     90  F   UNL A   1      43.641  25.685  35.287  1.00  0.00    -0.205 F 
ATOM     91  C   UNL A   1      47.177  26.385  35.928  1.00  0.00     0.022 A 
BRANCH  89  92
ATOM     92  S   UNL A   1      45.638  24.675  37.413  1.00  0.00     0.127 S 
ATOM     93  O   UNL A   1      44.358  25.128  37.957  1.00  0.00    -0.237 OA
ATOM     94  O   UNL A   1      45.583  23.393  36.711  1.00  0.00    -0.237 OA
ATOM     95  O   UNL A   1      46.782  24.831  38.300  1.00  0.00    -0.744 OA
ENDBRANCH  89  92
ENDBRANCH  62  85
ENDBRANCH  36  37
ENDBRANCH  29  31
ENDBRANCH  28  29
ENDBRANCH  27  28
ENDBRANCH   1  27
TORSDOF 19
ENDMDL
MODEL 2
REMARK VINA RESULT:     -11.7      5.294      8.211
REMARK SMILES CC(C)(C)OC(=O)N1CC[N@H+](Cc2ccc(Cl)nc2)[C@H](C(=O)OCCOC(=O)c2ccc(-c3c4nc(c(-c5cccc(S(=O)(=O)[O-])c5F)c5ccc([nH]5)c(-c5cccc(S(=O)(=O)[O-])c5F)c5nc(c(-c6cccc(S(=O)(=O)[O-])c6F)c6ccc3[nH]6)C=C5)C=C4)cc2)C1
REMARK SMILES IDX 24 1 23 2 21 3 22 4 20 5 8 6 9 7 92 8 10 9 11 10 6 12 7 13
REMARK SMILES IDX 5 14 2 15 1 16 3 17 4 18 12 19 13 20 14 21 19 22 15 23 18 24
REMARK SMILES IDX 16 25 17 26 25 27 26 28 27 29 28 30 29 31 30 32 91 33 31 34
REMARK SMILES IDX 90 35 32 36 33 37 34 38 84 39 35 40 89 41 83 42 85 43 36 44
REMARK SMILES IDX 88 45 82 46 81 47 37 49 69 50 49 51 68 52 50 53 53 54 67 55
REMARK SMILES IDX 86 56 51 57 52 58 66 60 87 61 54 62 38 63 39 64 47 65 40 66
REMARK SMILES IDX 42 67 48 68 41 69 43 70 44 71 45 72 46 73 70 74 71 75 79 76
REMARK SMILES IDX 72 77 74 78 80 79 73 80 75 81 76 82 77 83 78 84 55 85 56 86
REMARK SMILES IDX 64 87 57 88 59 89 65 90 58 91 60 92 61 93 62 94 63 95
REMARK H PARENT 11 11 85 48 53 59
REMARK Flexibility Score: inf
ROOT
ATOM      1  C   UNL A   1      36.123  20.912  24.892  1.00  0.00     0.274 C 
ENDROOT
BRANCH   1   2
ATOM      2  O   UNL A   1      36.038  22.064  25.759  1.00  0.00    -0.458 OA
BRANCH   2   3
ATOM      3  C   UNL A   1      34.805  22.647  25.848  1.00  0.00     0.366 C 
ATOM      4  O   UNL A   1      34.122  22.617  26.865  1.00  0.00    -0.245 OA
BRANCH   3   5
ATOM      5  C   UNL A   1      34.399  23.334  24.530  1.00  0.00     0.315 C 
ATOM      6  N   UNL A   1      33.409  25.448  23.549  1.00  0.00    -0.296 N 
ATOM      7  C   UNL A   1      32.649  24.637  22.617  1.00  0.00     0.184 C 
ATOM      8  C   UNL A   1      33.897  24.780  24.759  1.00  0.00     0.200 C 
ATOM      9  C   UNL A   1      33.190  23.210  22.433  1.00  0.00     0.285 C 
ATOM     10  N   UNL A   1      33.519  22.482  23.668  1.00  0.00    -0.316 N 
ATOM     11  H   UNL A   1      34.106  21.672  23.474  1.00  0.00     0.349 HD
BRANCH   6  12
ATOM     12  C   UNL A   1      33.083  26.799  23.555  1.00  0.00     0.410 C 
ATOM     13  O   UNL A   1      32.440  27.314  22.641  1.00  0.00    -0.224 OA
BRANCH  12  14
ATOM     14  O   UNL A   1      33.625  27.486  24.591  1.00  0.00    -0.444 OA
BRANCH  14  15
ATOM     15  C   UNL A   1      32.745  28.124  25.566  1.00  0.00     0.106 C 
ATOM     16  C   UNL A   1      32.358  29.475  24.943  1.00  0.00     0.056 C 
ATOM     17  C   UNL A   1      33.501  28.373  26.874  1.00  0.00     0.056 C 
ATOM     18  C   UNL A   1      31.436  27.350  25.817  1.00  0.00     0.056 C 
ENDBRANCH  14  15
ENDBRANCH  12  14
ENDBRANCH   6  12
BRANCH  10  19
ATOM     19  C   UNL A   1      32.404  21.707  24.247  1.00  0.00     0.301 C 
BRANCH  19  20
ATOM     20  C   UNL A   1      32.534  20.212  24.381  1.00  0.00     0.025 A 
ATOM     21  C   UNL A   1      32.522  19.368  23.262  1.00  0.00     0.014 A 
ATOM     22  C   UNL A   1      32.715  19.599  25.615  1.00  0.00     0.122 A 
ATOM     23  C   UNL A   1      32.528  17.986  23.423  1.00  0.00     0.041 A 
ATOM     24  N   UNL A   1      32.753  18.259  25.801  1.00  0.00    -0.244 NA
ATOM     25  C   UNL A   1      32.625  17.487  24.706  1.00  0.00     0.129 A 
ATOM     26  Cl  UNL A   1      32.546  15.801  24.983  1.00  0.00    -0.062 Cl
ENDBRANCH  19  20
ENDBRANCH  10  19
ENDBRANCH   3   5
ENDBRANCH   2   3
ENDBRANCH   1   2
BRANCH   1  27
ATOM     27  C   UNL A   1      37.416  20.121  25.100  1.00  0.00     0.275 C 
BRANCH  27  28
ATOM     28  O   UNL A   1      38.567  20.984  25.110  1.00  0.00    -0.458 OA
BRANCH  28  29
ATOM     29  C   UNL A   1      39.453  20.742  26.102  1.00  0.00     0.338 C 
ATOM     30  O   UNL A   1      39.962  19.672  26.389  1.00  0.00    -0.246 OA
BRANCH  29  31
ATOM     31  C   UNL A   1      39.868  22.002  26.738  1.00  0.00     0.060 A 
ATOM     32  C   UNL A   1      39.273  23.167  26.275  1.00  0.00     0.016 A 
ATOM     33  C   UNL A   1      40.952  22.075  27.609  1.00  0.00     0.016 A 
ATOM     34  C   UNL A   1      39.823  24.405  26.567  1.00  0.00     0.010 A 
ATOM     35  C   UNL A   1      41.430  23.335  28.004  1.00  0.00     0.010 A 
ATOM     36  C   UNL A   1      40.890  24.513  27.458  1.00  0.00    -0.014 A 
BRANCH  36  37
ATOM     37  C   UNL A   1      41.435  25.866  27.746  1.00  0.00     0.031 A 
ATOM     38  C   UNL A   1      42.745  26.291  27.150  1.00  0.00     0.074 A 
ATOM     39  C   UNL A   1      40.711  26.749  28.466  1.00  0.00     0.049 A 
ATOM     40  N   UNL A   1      43.420  27.394  27.338  1.00  0.00    -0.248 NA
ATOM     41  C   UNL A   1      43.386  25.347  26.219  1.00  0.00     0.031 C 
ATOM     42  C   UNL A   1      39.378  26.496  29.014  1.00  0.00     0.029 A 
ATOM     43  N   UNL A   1      40.972  28.049  28.824  1.00  0.00    -0.354 N 
ATOM     44  C   UNL A   1      44.604  27.240  26.630  1.00  0.00     0.074 A 
ATOM     45  C   UNL A   1      44.537  25.954  25.970  1.00  0.00     0.031 C 
ATOM     46  C   UNL A   1      38.906  27.624  29.565  1.00  0.00     0.029 A 
ATOM     47  C   UNL A   1      39.933  28.656  29.494  1.00  0.00     0.049 A 
ATOM     48  H   UNL A   1      41.821  28.505  28.621  1.00  0.00     0.167 HD
ATOM     49  C   UNL A   1      45.659  28.087  26.557  1.00  0.00     0.034 A 
ATOM     50  C   UNL A   1      39.823  29.900  30.000  1.00  0.00     0.034 A 
ATOM     51  C   UNL A   1      45.694  29.384  27.179  1.00  0.00     0.049 A 
ATOM     52  C   UNL A   1      41.009  30.821  29.900  1.00  0.00     0.074 A 
ATOM     53  C   UNL A   1      46.732  30.298  27.205  1.00  0.00     0.029 A 
ATOM     54  N   UNL A   1      44.639  29.957  27.874  1.00  0.00    -0.354 N 
ATOM     55  N   UNL A   1      42.140  30.652  29.260  1.00  0.00    -0.248 NA
ATOM     56  C   UNL A   1      40.911  32.103  30.614  1.00  0.00     0.031 C 
ATOM     57  C   UNL A   1      46.315  31.412  27.941  1.00  0.00     0.029 A 
ATOM     58  C   UNL A   1      45.004  31.209  28.342  1.00  0.00     0.049 A 
ATOM     59  H   UNL A   1      43.760  29.537  28.013  1.00  0.00     0.167 HD
ATOM     60  C   UNL A   1      42.885  31.803  29.487  1.00  0.00     0.074 A 
ATOM     61  C   UNL A   1      42.057  32.684  30.286  1.00  0.00     0.031 C 
ATOM     62  C   UNL A   1      44.152  32.091  29.100  1.00  0.00     0.034 A 
BRANCH  49  63
ATOM     63  C   UNL A   1      46.883  27.602  25.828  1.00  0.00     0.023 A 
ATOM     64  C   UNL A   1      47.033  27.832  24.446  1.00  0.00     0.012 A 
ATOM     65  C   UNL A   1      47.895  26.915  26.528  1.00  0.00     0.148 A 
ATOM     66  C   UNL A   1      48.152  27.350  23.766  1.00  0.00     0.002 A 
ATOM     67  C   UNL A   1      49.028  26.480  25.854  1.00  0.00     0.091 A 
ATOM     68  F   UNL A   1      47.722  26.683  27.837  1.00  0.00    -0.205 F 
ATOM     69  C   UNL A   1      49.153  26.683  24.471  1.00  0.00     0.022 A 
BRANCH  67  70
ATOM     70  S   UNL A   1      50.400  25.677  26.691  1.00  0.00     0.127 S 
ATOM     71  O   UNL A   1      51.347  25.489  25.592  1.00  0.00    -0.237 OA
ATOM     72  O   UNL A   1      50.797  26.687  27.672  1.00  0.00    -0.237 OA
ATOM     73  O   UNL A   1      49.859  24.454  27.267  1.00  0.00    -0.744 OA
ENDBRANCH  67  70
ENDBRANCH  49  63
BRANCH  50  74
ATOM     74  C   UNL A   1      38.549  30.360  30.633  1.00  0.00     0.023 A 
ATOM     75  C   UNL A   1      38.343  30.135  32.009  1.00  0.00     0.012 A 
ATOM     76  C   UNL A   1      37.545  31.020  29.895  1.00  0.00     0.148 A 
ATOM     77  C   UNL A   1      37.156  30.529  32.629  1.00  0.00     0.002 A 
ATOM     78  C   UNL A   1      36.398  31.475  30.534  1.00  0.00     0.091 A 
ATOM     79  F   UNL A   1      37.730  31.192  28.579  1.00  0.00    -0.205 F 
ATOM     80  C   UNL A   1      36.190  31.212  31.896  1.00  0.00     0.022 A 
BRANCH  78  81
ATOM     81  S   UNL A   1      35.176  32.494  29.697  1.00  0.00     0.127 S 
ATOM     82  O   UNL A   1      34.241  32.790  30.779  1.00  0.00    -0.237 OA
ATOM     83  O   UNL A   1      35.980  33.633  29.251  1.00  0.00    -0.237 OA
ATOM     84  O   UNL A   1      34.654  31.671  28.615  1.00  0.00    -0.744 OA
ENDBRANCH  78  81
ENDBRANCH  50  74
BRANCH  62  85
ATOM     85  C   UNL A   1      44.727  33.416  29.529  1.00  0.00     0.023 A 
ATOM     86  C   UNL A   1      45.454  33.505  30.733  1.00  0.00     0.012 A 
ATOM     87  C   UNL A   1      44.611  34.554  28.706  1.00  0.00     0.148 A 
ATOM     88  C   UNL A   1      46.030  34.713  31.128  1.00  0.00     0.002 A 
ATOM     89  C   UNL A   1      45.231  35.741  29.081  1.00  0.00     0.091 A 
ATOM     90  F   UNL A   1      43.901  34.454  27.573  1.00  0.00    -0.205 F 
ATOM     91  C   UNL A   1      45.928  35.825  30.296  1.00  0.00     0.022 A 
BRANCH  89  92
ATOM     92  S   UNL A   1      45.238  37.198  28.030  1.00  0.00     0.127 S 
ATOM     93  O   UNL A   1      43.819  37.548  27.995  1.00  0.00    -0.237 OA
ATOM     94  O   UNL A   1      46.075  38.125  28.794  1.00  0.00    -0.237 OA
ATOM     95  O   UNL A   1      45.808  36.777  26.759  1.00  0.00    -0.744 OA
ENDBRANCH  89  92
ENDBRANCH  62  85
ENDBRANCH  36  37
ENDBRANCH  29  31
ENDBRANCH  28  29
ENDBRANCH  27  28
ENDBRANCH   1  27
TORSDOF 19
ENDMDL
MODEL 3
REMARK VINA RESULT:     -11.7      1.580      2.057
REMARK SMILES CC(C)(C)OC(=O)N1CC[N@H+](Cc2ccc(Cl)nc2)[C@H](C(=O)OCCOC(=O)c2ccc(-c3c4nc(c(-c5cccc(S(=O)(=O)[O-])c5F)c5ccc([nH]5)c(-c5cccc(S(=O)(=O)[O-])c5F)c5nc(c(-c6cccc(S(=O)(=O)[O-])c6F)c6ccc3[nH]6)C=C5)C=C4)cc2)C1
REMARK SMILES IDX 24 1 23 2 21 3 22 4 20 5 8 6 9 7 92 8 10 9 11 10 6 12 7 13
REMARK SMILES IDX 5 14 2 15 1 16 3 17 4 18 12 19 13 20 14 21 19 22 15 23 18 24
REMARK SMILES IDX 16 25 17 26 25 27 26 28 27 29 28 30 29 31 30 32 91 33 31 34
REMARK SMILES IDX 90 35 32 36 33 37 34 38 84 39 35 40 89 41 83 42 85 43 36 44
REMARK SMILES IDX 88 45 82 46 81 47 37 49 69 50 49 51 68 52 50 53 53 54 67 55
REMARK SMILES IDX 86 56 51 57 52 58 66 60 87 61 54 62 38 63 39 64 47 65 40 66
REMARK SMILES IDX 42 67 48 68 41 69 43 70 44 71 45 72 46 73 70 74 71 75 79 76
REMARK SMILES IDX 72 77 74 78 80 79 73 80 75 81 76 82 77 83 78 84 55 85 56 86
REMARK SMILES IDX 64 87 57 88 59 89 65 90 58 91 60 92 61 93 62 94 63 95
REMARK H PARENT 11 11 85 48 53 59
REMARK Flexibility Score: inf
ROOT
ATOM      1  C   UNL A   1      33.298  28.809  24.768  1.00  0.00     0.274 C 
ENDROOT
BRANCH   1   2
ATOM      2  O   UNL A   1      33.356  28.821  23.325  1.00  0.00    -0.458 OA
BRANCH   2   3
ATOM      3  C   UNL A   1      33.459  27.595  22.727  1.00  0.00     0.366 C 
ATOM      4  O   UNL A   1      34.010  27.422  21.647  1.00  0.00    -0.245 OA
BRANCH   3   5
ATOM      5  C   UNL A   1      32.809  26.487  23.576  1.00  0.00     0.315 C 
ATOM      6  N   UNL A   1      32.617  23.977  23.859  1.00  0.00    -0.296 N 
ATOM      7  C   UNL A   1      31.202  24.136  24.136  1.00  0.00     0.184 C 
ATOM      8  C   UNL A   1      33.277  25.075  23.146  1.00  0.00     0.200 C 
ATOM      9  C   UNL A   1      30.795  25.558  24.554  1.00  0.00     0.285 C 
ATOM     10  N   UNL A   1      31.328  26.650  23.725  1.00  0.00    -0.316 N 
ATOM     11  H   UNL A   1      31.245  27.548  24.200  1.00  0.00     0.349 HD
BRANCH   6  12
ATOM     12  C   UNL A   1      33.043  22.663  23.709  1.00  0.00     0.410 C 
ATOM     13  O   UNL A   1      33.143  22.138  22.601  1.00  0.00    -0.224 OA
BRANCH  12  14
ATOM     14  O   UNL A   1      33.228  22.013  24.885  1.00  0.00    -0.444 OA
BRANCH  14  15
ATOM     15  C   UNL A   1      34.586  21.765  25.360  1.00  0.00     0.106 C 
ATOM     16  C   UNL A   1      34.906  20.319  24.948  1.00  0.00     0.056 C 
ATOM     17  C   UNL A   1      34.637  21.873  26.887  1.00  0.00     0.056 C 
ATOM     18  C   UNL A   1      35.646  22.670  24.702  1.00  0.00     0.056 C 
ENDBRANCH  14  15
ENDBRANCH  12  14
ENDBRANCH   6  12
BRANCH  10  19
ATOM     19  C   UNL A   1      30.483  27.025  22.575  1.00  0.00     0.301 C 
BRANCH  19  20
ATOM     20  C   UNL A   1      29.690  28.306  22.625  1.00  0.00     0.025 A 
ATOM     21  C   UNL A   1      30.221  29.519  22.167  1.00  0.00     0.014 A 
ATOM     22  C   UNL A   1      28.379  28.340  23.086  1.00  0.00     0.122 A 
ATOM     23  C   UNL A   1      29.511  30.704  22.331  1.00  0.00     0.041 A 
ATOM     24  N   UNL A   1      27.653  29.472  23.231  1.00  0.00    -0.244 NA
ATOM     25  C   UNL A   1      28.248  30.628  22.881  1.00  0.00     0.129 A 
ATOM     26  Cl  UNL A   1      27.357  32.054  23.195  1.00  0.00    -0.062 Cl
ENDBRANCH  19  20
ENDBRANCH  10  19
ENDBRANCH   3   5
ENDBRANCH   2   3
ENDBRANCH   1   2
BRANCH   1  27
ATOM     27  C   UNL A   1      32.324  29.850  25.321  1.00  0.00     0.275 C 
BRANCH  27  28
ATOM     28  O   UNL A   1      32.513  30.052  26.733  1.00  0.00    -0.458 OA
BRANCH  28  29
ATOM     29  C   UNL A   1      33.125  31.211  27.067  1.00  0.00     0.338 C 
ATOM     30  O   UNL A   1      32.625  32.323  27.096  1.00  0.00    -0.246 OA
BRANCH  29  31
ATOM     31  C   UNL A   1      34.486  30.951  27.559  1.00  0.00     0.060 A 
ATOM     32  C   UNL A   1      34.789  29.643  27.912  1.00  0.00     0.016 A 
ATOM     33  C   UNL A   1      35.376  31.976  27.866  1.00  0.00     0.016 A 
ATOM     34  C   UNL A   1      35.907  29.360  28.680  1.00  0.00     0.010 A 
ATOM     35  C   UNL A   1      36.572  31.670  28.536  1.00  0.00     0.010 A 
ATOM     36  C   UNL A   1      36.831  30.361  28.980  1.00  0.00    -0.014 A 
BRANCH  36  37
ATOM     37  C   UNL A   1      38.021  30.001  29.798  1.00  0.00     0.031 A 
ATOM     38  C   UNL A   1      39.149  29.227  29.182  1.00  0.00     0.074 A 
ATOM     39  C   UNL A   1      38.131  30.450  31.066  1.00  0.00     0.049 A 
ATOM     40  N   UNL A   1      40.232  28.758  29.743  1.00  0.00    -0.248 NA
ATOM     41  C   UNL A   1      39.047  28.939  27.742  1.00  0.00     0.031 C 
ATOM     42  C   UNL A   1      37.152  31.299  31.747  1.00  0.00     0.029 A 
ATOM     43  N   UNL A   1      39.132  30.294  31.993  1.00  0.00    -0.354 N 
ATOM     44  C   UNL A   1      40.891  28.040  28.755  1.00  0.00     0.074 A 
ATOM     45  C   UNL A   1      40.109  28.172  27.544  1.00  0.00     0.031 C 
ATOM     46  C   UNL A   1      37.635  31.653  32.947  1.00  0.00     0.029 A 
ATOM     47  C   UNL A   1      38.914  30.988  33.163  1.00  0.00     0.049 A 
ATOM     48  H   UNL A   1      39.931  29.740  31.837  1.00  0.00     0.167 HD
ATOM     49  C   UNL A   1      42.032  27.317  28.856  1.00  0.00     0.034 A 
ATOM     50  C   UNL A   1      39.657  31.072  34.284  1.00  0.00     0.034 A 
ATOM     51  C   UNL A   1      42.826  27.232  30.053  1.00  0.00     0.049 A 
ATOM     52  C   UNL A   1      40.923  30.263  34.367  1.00  0.00     0.074 A 
ATOM     53  C   UNL A   1      43.973  26.490  30.274  1.00  0.00     0.029 A 
ATOM     54  N   UNL A   1      42.564  27.921  31.228  1.00  0.00    -0.354 N 
ATOM     55  N   UNL A   1      41.518  29.556  33.438  1.00  0.00    -0.248 NA
ATOM     56  C   UNL A   1      41.611  30.246  35.666  1.00  0.00     0.031 C 
ATOM     57  C   UNL A   1      44.387  26.708  31.592  1.00  0.00     0.029 A 
ATOM     58  C   UNL A   1      43.521  27.614  32.182  1.00  0.00     0.049 A 
ATOM     59  H   UNL A   1      41.809  28.538  31.364  1.00  0.00     0.167 HD
ATOM     60  C   UNL A   1      42.651  29.015  34.035  1.00  0.00     0.074 A 
ATOM     61  C   UNL A   1      42.685  29.517  35.394  1.00  0.00     0.031 C 
ATOM     62  C   UNL A   1      43.563  28.155  33.518  1.00  0.00     0.034 A 
BRANCH  49  63
ATOM     63  C   UNL A   1      42.449  26.514  27.654  1.00  0.00     0.023 A 
ATOM     64  C   UNL A   1      43.225  27.099  26.635  1.00  0.00     0.012 A 
ATOM     65  C   UNL A   1      42.066  25.162  27.542  1.00  0.00     0.148 A 
ATOM     66  C   UNL A   1      43.580  26.362  25.504  1.00  0.00     0.002 A 
ATOM     67  C   UNL A   1      42.463  24.421  26.437  1.00  0.00     0.091 A 
ATOM     68  F   UNL A   1      41.305  24.630  28.509  1.00  0.00    -0.205 F 
ATOM     69  C   UNL A   1      43.207  25.022  25.409  1.00  0.00     0.022 A 
BRANCH  67  70
ATOM     70  S   UNL A   1      42.091  22.672  26.263  1.00  0.00     0.127 S 
ATOM     71  O   UNL A   1      42.708  22.366  24.972  1.00  0.00    -0.237 OA
ATOM     72  O   UNL A   1      42.778  22.095  27.419  1.00  0.00    -0.237 OA
ATOM     73  O   UNL A   1      40.639  22.563  26.306  1.00  0.00    -0.744 OA
ENDBRANCH  67  70
ENDBRANCH  49  63
BRANCH  50  74
ATOM     74  C   UNL A   1      39.241  31.960  35.413  1.00  0.00     0.023 A 
ATOM     75  C   UNL A   1      38.370  31.456  36.400  1.00  0.00     0.012 A 
ATOM     76  C   UNL A   1      39.699  33.288  35.526  1.00  0.00     0.148 A 
ATOM     77  C   UNL A   1      37.942  32.262  37.456  1.00  0.00     0.002 A 
ATOM     78  C   UNL A   1      39.327  34.061  36.619  1.00  0.00     0.091 A 
ATOM     79  F   UNL A   1      40.493  33.773  34.562  1.00  0.00    -0.205 F 
ATOM     80  C   UNL A   1      38.432  33.560  37.575  1.00  0.00     0.022 A 
BRANCH  78  81
ATOM     81  S   UNL A   1      40.032  35.686  36.926  1.00  0.00     0.127 S 
ATOM     82  O   UNL A   1      41.461  35.388  36.979  1.00  0.00    -0.237 OA
ATOM     83  O   UNL A   1      39.603  36.435  35.744  1.00  0.00    -0.237 OA
ATOM     84  O   UNL A   1      39.432  36.145  38.172  1.00  0.00    -0.744 OA
ENDBRANCH  78  81
ENDBRANCH  50  74
BRANCH  62  85
ATOM     85  C   UNL A   1      44.681  27.700  34.419  1.00  0.00     0.023 A 
ATOM     86  C   UNL A   1      45.859  28.469  34.512  1.00  0.00     0.012 A 
ATOM     87  C   UNL A   1      44.536  26.556  35.228  1.00  0.00     0.148 A 
ATOM     88  C   UNL A   1      46.889  28.087  35.372  1.00  0.00     0.002 A 
ATOM     89  C   UNL A   1      45.545  26.211  36.120  1.00  0.00     0.091 A 
ATOM     90  F   UNL A   1      43.415  25.829  35.114  1.00  0.00    -0.205 F 
ATOM     91  C   UNL A   1      46.726  26.967  36.184  1.00  0.00     0.022 A 
BRANCH  89  92
ATOM     92  S   UNL A   1      45.386  24.844  37.275  1.00  0.00     0.127 S 
ATOM     93  O   UNL A   1      46.737  24.761  37.827  1.00  0.00    -0.237 OA
ATOM     94  O   UNL A   1      44.377  25.344  38.209  1.00  0.00    -0.237 OA
ATOM     95  O   UNL A   1      44.963  23.696  36.486  1.00  0.00    -0.744 OA
ENDBRANCH  89  92
ENDBRANCH  62  85
ENDBRANCH  36  37
ENDBRANCH  29  31
ENDBRANCH  28  29
ENDBRANCH  27  28
ENDBRANCH   1  27
TORSDOF 19
ENDMDL
