MODEL 1
REMARK VINA RESULT:     -16.3      0.000      0.000
REMARK SMILES O=C(CC1(NC(=O)C2(c3ccccc3)CC2)CCC1)OCCOC(=O)c1ccc(-c2c3nc(c(-c4cccc(S(=O)(=O)[O-])c4F)c4ccc([nH]4)c(-c4cccc(S(=O)(=O)[O-])c4F)c4nc(c(-c5cccc(S(=O)(=O)[O-])c5F)c5ccc2[nH]5)C=C4)C=C3)cc1
REMARK SMILES IDX 21 1 20 2 2 3 1 4 3 5 4 6 17 7 19 8 18 9 5 10 6 11 7 13 8 14
REMARK SMILES IDX 15 15 16 16 9 17 10 18 14 19 11 20 13 21 12 22 22 23 23 24
REMARK SMILES IDX 24 25 25 26 26 27 27 28 88 29 28 30 87 31 29 32 30 33 31 34
REMARK SMILES IDX 81 35 32 36 86 37 80 38 82 39 33 40 85 41 79 42 78 43 34 45
REMARK SMILES IDX 66 46 46 47 65 48 47 49 50 50 64 51 83 52 48 53 49 54 63 56
REMARK SMILES IDX 84 57 51 58 35 59 36 60 44 61 37 62 39 63 45 64 38 65 40 66
REMARK SMILES IDX 41 67 42 68 43 69 67 70 68 71 76 72 69 73 71 74 77 75 70 76
REMARK SMILES IDX 72 77 73 78 74 79 75 80 52 81 53 82 61 83 54 84 56 85 62 86
REMARK SMILES IDX 55 87 57 88 58 89 59 90 60 91
REMARK H PARENT 5 12 82 44 50 55
REMARK Flexibility Score: inf
ROOT
ATOM      1  C   UNL A   1      32.748  30.903  26.916  1.00  0.00     0.274 C 
ENDROOT
BRANCH   1   2
ATOM      2  O   UNL A   1      31.759  29.246  26.206  1.00  0.00    -0.462 OA
BRANCH   2   3
ATOM      3  C   UNL A   1      31.492  27.711  26.758  1.00  0.00     0.308 C 
ATOM      4  O   UNL A   1      31.298  27.604  27.977  1.00  0.00    -0.252 OA
BRANCH   3   5
ATOM      5  C   UNL A   1      31.231  26.195  25.687  1.00  0.00     0.151 C 
BRANCH   5   6
ATOM      6  C   UNL A   1      32.096  24.607  25.167  1.00  0.00     0.051 C 
ATOM      7  C   UNL A   1      32.678  23.946  26.469  1.00  0.00     0.029 C 
ATOM      8  C   UNL A   1      31.054  23.419  25.142  1.00  0.00     0.029 C 
ATOM      9  C   UNL A   1      31.779  22.719  26.278  1.00  0.00     0.005 C 
BRANCH   6  10
ATOM     10  N   UNL A   1      33.357  24.283  23.824  1.00  0.00    -0.349 N 
ATOM     11  C   UNL A   1      34.667  23.262  23.716  1.00  0.00     0.231 C 
ATOM     12  H   UNL A   1      33.217  24.827  23.015  1.00  0.00     0.164 HD
ATOM     13  O   UNL A   1      35.449  23.409  22.775  1.00  0.00    -0.274 OA
BRANCH  11  14
ATOM     14  C   UNL A   1      35.064  21.879  24.927  1.00  0.00     0.074 C 
ATOM     15  C   UNL A   1      36.536  21.786  25.410  1.00  0.00     0.023 C 
ATOM     16  C   UNL A   1      35.487  22.291  26.338  1.00  0.00     0.023 C 
BRANCH  14  17
ATOM     17  C   UNL A   1      34.190  20.187  24.691  1.00  0.00    -0.032 A 
ATOM     18  C   UNL A   1      35.209  18.484  24.675  1.00  0.00     0.005 A 
ATOM     19  C   UNL A   1      32.645  20.192  23.906  1.00  0.00     0.005 A 
ATOM     20  C   UNL A   1      34.562  17.071  23.840  1.00  0.00     0.000 A 
ATOM     21  C   UNL A   1      32.159  18.759  23.078  1.00  0.00     0.000 A 
ATOM     22  C   UNL A   1      33.065  17.279  23.044  1.00  0.00     0.000 A 
ENDBRANCH  14  17
ENDBRANCH  11  14
ENDBRANCH   6  10
ENDBRANCH   5   6
ENDBRANCH   3   5
ENDBRANCH   2   3
ENDBRANCH   1   2
BRANCH   1  23
ATOM     23  C   UNL A   1      31.521  32.401  26.742  1.00  0.00     0.275 C 
BRANCH  23  24
ATOM     24  O   UNL A   1      32.154  33.821  27.875  1.00  0.00    -0.458 OA
BRANCH  24  25
ATOM     25  C   UNL A   1      33.311  34.455  28.722  1.00  0.00     0.338 C 
ATOM     26  O   UNL A   1      33.338  35.637  29.089  1.00  0.00    -0.246 OA
BRANCH  25  27
ATOM     27  C   UNL A   1      34.567  33.745  29.147  1.00  0.00     0.060 A 
ATOM     28  C   UNL A   1      34.374  32.667  30.036  1.00  0.00     0.016 A 
ATOM     29  C   UNL A   1      35.846  34.307  29.063  1.00  0.00     0.016 A 
ATOM     30  C   UNL A   1      35.418  32.191  30.819  1.00  0.00     0.010 A 
ATOM     31  C   UNL A   1      36.892  33.839  29.824  1.00  0.00     0.010 A 
ATOM     32  C   UNL A   1      36.672  32.786  30.698  1.00  0.00    -0.014 A 
BRANCH  32  33
ATOM     33  C   UNL A   1      37.865  32.191  31.283  1.00  0.00     0.031 A 
ATOM     34  C   UNL A   1      38.529  31.041  30.614  1.00  0.00     0.074 A 
ATOM     35  C   UNL A   1      38.116  32.618  32.533  1.00  0.00     0.049 A 
ATOM     36  N   UNL A   1      39.550  30.349  31.026  1.00  0.00    -0.248 NA
ATOM     37  C   UNL A   1      37.965  30.583  29.330  1.00  0.00     0.031 C 
ATOM     38  C   UNL A   1      37.326  33.646  33.237  1.00  0.00     0.029 A 
ATOM     39  N   UNL A   1      39.022  32.209  33.458  1.00  0.00    -0.354 N 
ATOM     40  C   UNL A   1      39.756  29.373  30.062  1.00  0.00     0.074 A 
ATOM     41  C   UNL A   1      38.740  29.543  29.049  1.00  0.00     0.031 C 
ATOM     42  C   UNL A   1      37.765  33.758  34.495  1.00  0.00     0.029 A 
ATOM     43  C   UNL A   1      38.848  32.810  34.682  1.00  0.00     0.049 A 
ATOM     44  H   UNL A   1      39.729  31.550  33.272  1.00  0.00     0.167 HD
ATOM     45  C   UNL A   1      40.728  28.431  30.058  1.00  0.00     0.034 A 
ATOM     46  C   UNL A   1      39.501  32.592  35.832  1.00  0.00     0.034 A 
ATOM     47  C   UNL A   1      41.662  28.310  31.147  1.00  0.00     0.049 A 
ATOM     48  C   UNL A   1      40.613  31.593  35.769  1.00  0.00     0.074 A 
ATOM     49  C   UNL A   1      42.759  27.482  31.263  1.00  0.00     0.029 A 
ATOM     50  N   UNL A   1      41.568  29.030  32.336  1.00  0.00    -0.354 N 
ATOM     51  N   UNL A   1      40.950  30.812  34.766  1.00  0.00    -0.248 NA
ATOM     52  C   UNL A   1      41.466  31.477  36.949  1.00  0.00     0.031 C 
ATOM     53  C   UNL A   1      43.299  27.670  32.541  1.00  0.00     0.029 A 
ATOM     54  C   UNL A   1      42.572  28.651  33.204  1.00  0.00     0.049 A 
ATOM     55  H   UNL A   1      40.885  29.712  32.528  1.00  0.00     0.167 HD
ATOM     56  C   UNL A   1      42.077  30.128  35.178  1.00  0.00     0.074 A 
ATOM     57  C   UNL A   1      42.373  30.608  36.520  1.00  0.00     0.031 C 
ATOM     58  C   UNL A   1      42.804  29.187  34.526  1.00  0.00     0.034 A 
BRANCH  45  59
ATOM     59  C   UNL A   1      40.824  27.503  28.874  1.00  0.00     0.023 A 
ATOM     60  C   UNL A   1      39.942  26.406  28.765  1.00  0.00     0.012 A 
ATOM     61  C   UNL A   1      41.755  27.735  27.842  1.00  0.00     0.148 A 
ATOM     62  C   UNL A   1      40.007  25.540  27.670  1.00  0.00     0.002 A 
ATOM     63  C   UNL A   1      41.786  26.894  26.734  1.00  0.00     0.091 A 
ATOM     64  F   UNL A   1      42.602  28.766  27.967  1.00  0.00    -0.205 F 
ATOM     65  C   UNL A   1      40.922  25.790  26.652  1.00  0.00     0.022 A 
BRANCH  63  66
ATOM     66  S   UNL A   1      42.882  27.162  25.335  1.00  0.00     0.127 S 
ATOM     67  O   UNL A   1      42.727  25.910  24.594  1.00  0.00    -0.237 OA
ATOM     68  O   UNL A   1      42.276  28.328  24.693  1.00  0.00    -0.237 OA
ATOM     69  O   UNL A   1      44.207  27.388  25.895  1.00  0.00    -0.744 OA
ENDBRANCH  63  66
ENDBRANCH  45  59
BRANCH  46  70
ATOM     70  C   UNL A   1      39.164  33.393  37.037  1.00  0.00     0.023 A 
ATOM     71  C   UNL A   1      38.277  32.867  37.993  1.00  0.00     0.012 A 
ATOM     72  C   UNL A   1      39.811  34.618  37.301  1.00  0.00     0.148 A 
ATOM     73  C   UNL A   1      38.009  33.562  39.173  1.00  0.00     0.002 A 
ATOM     74  C   UNL A   1      39.579  35.282  38.500  1.00  0.00     0.091 A 
ATOM     75  F   UNL A   1      40.672  35.091  36.388  1.00  0.00    -0.205 F 
ATOM     76  C   UNL A   1      38.665  34.764  39.430  1.00  0.00     0.022 A 
BRANCH  74  77
ATOM     77  S   UNL A   1      40.489  36.757  38.976  1.00  0.00     0.127 S 
ATOM     78  O   UNL A   1      41.536  36.801  37.960  1.00  0.00    -0.237 OA
ATOM     79  O   UNL A   1      39.468  37.799  38.855  1.00  0.00    -0.237 OA
ATOM     80  O   UNL A   1      40.937  36.519  40.341  1.00  0.00    -0.744 OA
ENDBRANCH  74  77
ENDBRANCH  46  70
BRANCH  58  81
ATOM     81  C   UNL A   1      43.983  28.641  35.269  1.00  0.00     0.023 A 
ATOM     82  C   UNL A   1      45.243  29.251  35.125  1.00  0.00     0.012 A 
ATOM     83  C   UNL A   1      43.813  27.572  36.164  1.00  0.00     0.148 A 
ATOM     84  C   UNL A   1      46.335  28.777  35.844  1.00  0.00     0.002 A 
ATOM     85  C   UNL A   1      44.890  27.147  36.924  1.00  0.00     0.091 A 
ATOM     86  F   UNL A   1      42.603  27.002  36.261  1.00  0.00    -0.205 F 
ATOM     87  C   UNL A   1      46.155  27.736  36.754  1.00  0.00     0.022 A 
BRANCH  85  88
ATOM     88  S   UNL A   1      44.727  25.896  38.199  1.00  0.00     0.127 S 
ATOM     89  O   UNL A   1      44.263  24.745  37.426  1.00  0.00    -0.237 OA
ATOM     90  O   UNL A   1      46.097  25.789  38.697  1.00  0.00    -0.237 OA
ATOM     91  O   UNL A   1      43.769  26.423  39.163  1.00  0.00    -0.744 OA
ENDBRANCH  85  88
ENDBRANCH  58  81
ENDBRANCH  32  33
ENDBRANCH  25  27
ENDBRANCH  24  25
ENDBRANCH  23  24
ENDBRANCH   1  23
TORSDOF 18
ENDMDL
MODEL 2
REMARK VINA RESULT:     -16.1      1.759      7.969
REMARK SMILES O=C(CC1(NC(=O)C2(c3ccccc3)CC2)CCC1)OCCOC(=O)c1ccc(-c2c3nc(c(-c4cccc(S(=O)(=O)[O-])c4F)c4ccc([nH]4)c(-c4cccc(S(=O)(=O)[O-])c4F)c4nc(c(-c5cccc(S(=O)(=O)[O-])c5F)c5ccc2[nH]5)C=C4)C=C3)cc1
REMARK SMILES IDX 21 1 20 2 2 3 1 4 3 5 4 6 17 7 19 8 18 9 5 10 6 11 7 13 8 14
REMARK SMILES IDX 15 15 16 16 9 17 10 18 14 19 11 20 13 21 12 22 22 23 23 24
REMARK SMILES IDX 24 25 25 26 26 27 27 28 88 29 28 30 87 31 29 32 30 33 31 34
REMARK SMILES IDX 81 35 32 36 86 37 80 38 82 39 33 40 85 41 79 42 78 43 34 45
REMARK SMILES IDX 66 46 46 47 65 48 47 49 50 50 64 51 83 52 48 53 49 54 63 56
REMARK SMILES IDX 84 57 51 58 35 59 36 60 44 61 37 62 39 63 45 64 38 65 40 66
REMARK SMILES IDX 41 67 42 68 43 69 67 70 68 71 76 72 69 73 71 74 77 75 70 76
REMARK SMILES IDX 72 77 73 78 74 79 75 80 52 81 53 82 61 83 54 84 56 85 62 86
REMARK SMILES IDX 55 87 57 88 58 89 59 90 60 91
REMARK H PARENT 5 12 82 44 50 55
REMARK Flexibility Score: inf
ROOT
ATOM      1  C   UNL A   1      32.561  30.699  26.795  1.00  0.00     0.274 C 
ENDROOT
BRANCH   1   2
ATOM      2  O   UNL A   1      31.462  29.068  26.192  1.00  0.00    -0.462 OA
BRANCH   2   3
ATOM      3  C   UNL A   1      31.676  27.430  26.226  1.00  0.00     0.308 C 
ATOM      4  O   UNL A   1      30.878  26.797  26.933  1.00  0.00    -0.252 OA
BRANCH   3   5
ATOM      5  C   UNL A   1      32.843  26.457  25.127  1.00  0.00     0.151 C 
BRANCH   5   6
ATOM      6  C   UNL A   1      32.892  24.912  24.055  1.00  0.00     0.051 C 
ATOM      7  C   UNL A   1      32.315  23.729  24.915  1.00  0.00     0.029 C 
ATOM      8  C   UNL A   1      31.563  24.815  23.203  1.00  0.00     0.029 C 
ATOM      9  C   UNL A   1      31.150  23.551  23.936  1.00  0.00     0.005 C 
BRANCH   6  10
ATOM     10  N   UNL A   1      34.274  24.173  23.034  1.00  0.00    -0.349 N 
ATOM     11  C   UNL A   1      35.405  22.991  23.338  1.00  0.00     0.231 C 
ATOM     12  H   UNL A   1      34.346  24.562  22.132  1.00  0.00     0.164 HD
ATOM     13  O   UNL A   1      36.335  22.851  22.540  1.00  0.00    -0.274 OA
BRANCH  11  14
ATOM     14  C   UNL A   1      35.389  21.831  24.818  1.00  0.00     0.074 C 
ATOM     15  C   UNL A   1      36.706  21.735  25.634  1.00  0.00     0.023 C 
ATOM     16  C   UNL A   1      35.540  22.467  26.201  1.00  0.00     0.023 C 
BRANCH  14  17
ATOM     17  C   UNL A   1      34.417  20.183  24.670  1.00  0.00    -0.032 A 
ATOM     18  C   UNL A   1      35.344  18.428  24.653  1.00  0.00     0.005 A 
ATOM     19  C   UNL A   1      32.839  20.252  23.956  1.00  0.00     0.005 A 
ATOM     20  C   UNL A   1      34.584  17.031  23.889  1.00  0.00     0.000 A 
ATOM     21  C   UNL A   1      32.240  18.827  23.192  1.00  0.00     0.000 A 
ATOM     22  C   UNL A   1      33.064  17.300  23.157  1.00  0.00     0.000 A 
ENDBRANCH  14  17
ENDBRANCH  11  14
ENDBRANCH   6  10
ENDBRANCH   5   6
ENDBRANCH   3   5
ENDBRANCH   2   3
ENDBRANCH   1   2
BRANCH   1  23
ATOM     23  C   UNL A   1      31.353  32.221  26.777  1.00  0.00     0.275 C 
BRANCH  23  24
ATOM     24  O   UNL A   1      32.288  33.728  27.523  1.00  0.00    -0.458 OA
BRANCH  24  25
ATOM     25  C   UNL A   1      33.558  34.308  28.235  1.00  0.00     0.338 C 
ATOM     26  O   UNL A   1      33.783  35.516  28.382  1.00  0.00    -0.246 OA
BRANCH  25  27
ATOM     27  C   UNL A   1      34.701  33.492  28.773  1.00  0.00     0.060 A 
ATOM     28  C   UNL A   1      34.326  32.368  29.537  1.00  0.00     0.016 A 
ATOM     29  C   UNL A   1      36.006  33.978  28.915  1.00  0.00     0.016 A 
ATOM     30  C   UNL A   1      35.220  31.772  30.418  1.00  0.00     0.010 A 
ATOM     31  C   UNL A   1      36.906  33.392  29.775  1.00  0.00     0.010 A 
ATOM     32  C   UNL A   1      36.507  32.294  30.523  1.00  0.00    -0.014 A 
BRANCH  32  33
ATOM     33  C   UNL A   1      37.570  31.586  31.220  1.00  0.00     0.031 A 
ATOM     34  C   UNL A   1      37.921  31.954  32.618  1.00  0.00     0.074 A 
ATOM     35  C   UNL A   1      38.302  30.796  30.415  1.00  0.00     0.049 A 
ATOM     36  N   UNL A   1      38.877  31.480  33.359  1.00  0.00    -0.248 NA
ATOM     37  C   UNL A   1      37.117  33.009  33.264  1.00  0.00     0.031 C 
ATOM     38  C   UNL A   1      38.027  30.585  28.981  1.00  0.00     0.029 A 
ATOM     39  N   UNL A   1      39.446  30.098  30.636  1.00  0.00    -0.354 N 
ATOM     40  C   UNL A   1      38.800  32.173  34.560  1.00  0.00     0.074 A 
ATOM     41  C   UNL A   1      37.715  33.120  34.444  1.00  0.00     0.031 C 
ATOM     42  C   UNL A   1      39.000  29.838  28.449  1.00  0.00     0.029 A 
ATOM     43  C   UNL A   1      39.959  29.531  29.494  1.00  0.00     0.049 A 
ATOM     44  H   UNL A   1      39.864  30.008  31.522  1.00  0.00     0.167 HD
ATOM     45  C   UNL A   1      39.587  32.001  35.647  1.00  0.00     0.034 A 
ATOM     46  C   UNL A   1      41.101  28.850  29.327  1.00  0.00     0.034 A 
ATOM     47  C   UNL A   1      40.682  31.066  35.641  1.00  0.00     0.049 A 
ATOM     48  C   UNL A   1      41.909  28.622  30.565  1.00  0.00     0.074 A 
ATOM     49  C   UNL A   1      41.516  30.697  36.676  1.00  0.00     0.029 A 
ATOM     50  N   UNL A   1      41.112  30.378  34.508  1.00  0.00    -0.354 N 
ATOM     51  N   UNL A   1      41.709  29.110  31.769  1.00  0.00    -0.248 NA
ATOM     52  C   UNL A   1      43.052  27.719  30.453  1.00  0.00     0.031 C 
ATOM     53  C   UNL A   1      42.478  29.823  36.156  1.00  0.00     0.029 A 
ATOM     54  C   UNL A   1      42.215  29.604  34.809  1.00  0.00     0.049 A 
ATOM     55  H   UNL A   1      40.689  30.435  33.621  1.00  0.00     0.167 HD
ATOM     56  C   UNL A   1      42.683  28.552  32.573  1.00  0.00     0.074 A 
ATOM     57  C   UNL A   1      43.460  27.671  31.714  1.00  0.00     0.031 C 
ATOM     58  C   UNL A   1      42.929  28.744  33.893  1.00  0.00     0.034 A 
BRANCH  45  59
ATOM     59  C   UNL A   1      39.291  32.809  36.884  1.00  0.00     0.023 A 
ATOM     60  C   UNL A   1      39.932  34.050  37.087  1.00  0.00     0.012 A 
ATOM     61  C   UNL A   1      38.345  32.368  37.831  1.00  0.00     0.148 A 
ATOM     62  C   UNL A   1      39.663  34.819  38.221  1.00  0.00     0.002 A 
ATOM     63  C   UNL A   1      38.049  33.158  38.937  1.00  0.00     0.091 A 
ATOM     64  F   UNL A   1      37.759  31.178  37.640  1.00  0.00    -0.205 F 
ATOM     65  C   UNL A   1      38.716  34.378  39.140  1.00  0.00     0.022 A 
BRANCH  63  66
ATOM     66  S   UNL A   1      36.799  32.716  40.149  1.00  0.00     0.127 S 
ATOM     67  O   UNL A   1      36.835  33.869  41.047  1.00  0.00    -0.237 OA
ATOM     68  O   UNL A   1      35.595  32.624  39.323  1.00  0.00    -0.237 OA
ATOM     69  O   UNL A   1      37.235  31.458  40.740  1.00  0.00    -0.744 OA
ENDBRANCH  63  66
ENDBRANCH  45  59
BRANCH  46  70
ATOM     70  C   UNL A   1      41.441  28.293  27.992  1.00  0.00     0.023 A 
ATOM     71  C   UNL A   1      41.908  29.153  26.982  1.00  0.00     0.012 A 
ATOM     72  C   UNL A   1      41.422  26.903  27.757  1.00  0.00     0.148 A 
ATOM     73  C   UNL A   1      42.313  28.644  25.747  1.00  0.00     0.002 A 
ATOM     74  C   UNL A   1      41.874  26.397  26.543  1.00  0.00     0.091 A 
ATOM     75  F   UNL A   1      40.998  26.097  28.741  1.00  0.00    -0.205 F 
ATOM     76  C   UNL A   1      42.304  27.268  25.531  1.00  0.00     0.022 A 
BRANCH  74  77
ATOM     77  S   UNL A   1      42.035  24.634  26.235  1.00  0.00     0.127 S 
ATOM     78  O   UNL A   1      42.664  24.618  24.918  1.00  0.00    -0.237 OA
ATOM     79  O   UNL A   1      42.898  24.208  27.337  1.00  0.00    -0.237 OA
ATOM     80  O   UNL A   1      40.681  24.099  26.299  1.00  0.00    -0.744 OA
ENDBRANCH  74  77
ENDBRANCH  46  70
BRANCH  58  81
ATOM     81  C   UNL A   1      44.078  27.972  34.463  1.00  0.00     0.023 A 
ATOM     82  C   UNL A   1      45.373  28.522  34.433  1.00  0.00     0.012 A 
ATOM     83  C   UNL A   1      43.849  26.736  35.091  1.00  0.00     0.148 A 
ATOM     84  C   UNL A   1      46.439  27.830  34.998  1.00  0.00     0.002 A 
ATOM     85  C   UNL A   1      44.903  26.083  35.707  1.00  0.00     0.091 A 
ATOM     86  F   UNL A   1      42.605  26.233  35.082  1.00  0.00    -0.205 F 
ATOM     87  C   UNL A   1      46.201  26.619  35.647  1.00  0.00     0.022 A 
BRANCH  85  88
ATOM     88  S   UNL A   1      44.672  24.583  36.662  1.00  0.00     0.127 S 
ATOM     89  O   UNL A   1      46.034  24.309  37.115  1.00  0.00    -0.237 OA
ATOM     90  O   UNL A   1      43.755  25.029  37.711  1.00  0.00    -0.237 OA
ATOM     91  O   UNL A   1      44.113  23.600  35.744  1.00  0.00    -0.744 OA
ENDBRANCH  85  88
ENDBRANCH  58  81
ENDBRANCH  32  33
ENDBRANCH  25  27
ENDBRANCH  24  25
ENDBRANCH  23  24
ENDBRANCH   1  23
TORSDOF 18
ENDMDL
MODEL 3
REMARK VINA RESULT:     -15.8      1.727      2.125
REMARK SMILES O=C(CC1(NC(=O)C2(c3ccccc3)CC2)CCC1)OCCOC(=O)c1ccc(-c2c3nc(c(-c4cccc(S(=O)(=O)[O-])c4F)c4ccc([nH]4)c(-c4cccc(S(=O)(=O)[O-])c4F)c4nc(c(-c5cccc(S(=O)(=O)[O-])c5F)c5ccc2[nH]5)C=C4)C=C3)cc1
REMARK SMILES IDX 21 1 20 2 2 3 1 4 3 5 4 6 17 7 19 8 18 9 5 10 6 11 7 13 8 14
REMARK SMILES IDX 15 15 16 16 9 17 10 18 14 19 11 20 13 21 12 22 22 23 23 24
REMARK SMILES IDX 24 25 25 26 26 27 27 28 88 29 28 30 87 31 29 32 30 33 31 34
REMARK SMILES IDX 81 35 32 36 86 37 80 38 82 39 33 40 85 41 79 42 78 43 34 45
REMARK SMILES IDX 66 46 46 47 65 48 47 49 50 50 64 51 83 52 48 53 49 54 63 56
REMARK SMILES IDX 84 57 51 58 35 59 36 60 44 61 37 62 39 63 45 64 38 65 40 66
REMARK SMILES IDX 41 67 42 68 43 69 67 70 68 71 76 72 69 73 71 74 77 75 70 76
REMARK SMILES IDX 72 77 73 78 74 79 75 80 52 81 53 82 61 83 54 84 56 85 62 86
REMARK SMILES IDX 55 87 57 88 58 89 59 90 60 91
REMARK H PARENT 5 12 82 44 50 55
REMARK Flexibility Score: inf
ROOT
ATOM      1  C   UNL A   1      30.687  30.864  25.010  1.00  0.00     0.274 C 
ENDROOT
BRANCH   1   2
ATOM      2  O   UNL A   1      30.671  29.085  23.978  1.00  0.00    -0.462 OA
BRANCH   2   3
ATOM      3  C   UNL A   1      30.721  27.486  24.393  1.00  0.00     0.308 C 
ATOM      4  O   UNL A   1      29.687  26.840  24.171  1.00  0.00    -0.252 OA
BRANCH   3   5
ATOM      5  C   UNL A   1      32.249  26.545  24.936  1.00  0.00     0.151 C 
BRANCH   5   6
ATOM      6  C   UNL A   1      33.086  24.873  24.726  1.00  0.00     0.051 C 
ATOM      7  C   UNL A   1      33.677  24.468  26.126  1.00  0.00     0.029 C 
ATOM      8  C   UNL A   1      32.027  23.719  24.944  1.00  0.00     0.029 C 
ATOM      9  C   UNL A   1      32.759  23.242  26.187  1.00  0.00     0.005 C 
BRANCH   6  10
ATOM     10  N   UNL A   1      34.324  24.274  23.458  1.00  0.00    -0.349 N 
ATOM     11  C   UNL A   1      35.459  23.057  23.464  1.00  0.00     0.231 C 
ATOM     12  H   UNL A   1      34.298  24.782  22.615  1.00  0.00     0.164 HD
ATOM     13  O   UNL A   1      36.285  23.022  22.550  1.00  0.00    -0.274 OA
BRANCH  11  14
ATOM     14  C   UNL A   1      35.592  21.706  24.766  1.00  0.00     0.074 C 
ATOM     15  C   UNL A   1      37.014  21.414  25.315  1.00  0.00     0.023 C 
ATOM     16  C   UNL A   1      36.029  22.134  26.168  1.00  0.00     0.023 C 
BRANCH  14  17
ATOM     17  C   UNL A   1      34.468  20.160  24.589  1.00  0.00    -0.032 A 
ATOM     18  C   UNL A   1      35.227  18.327  24.519  1.00  0.00     0.005 A 
ATOM     19  C   UNL A   1      32.897  20.394  23.897  1.00  0.00     0.005 A 
ATOM     20  C   UNL A   1      34.333  17.028  23.730  1.00  0.00     0.000 A 
ATOM     21  C   UNL A   1      32.160  19.051  23.105  1.00  0.00     0.000 A 
ATOM     22  C   UNL A   1      32.837  17.455  23.022  1.00  0.00     0.000 A 
ENDBRANCH  14  17
ENDBRANCH  11  14
ENDBRANCH   6  10
ENDBRANCH   5   6
ENDBRANCH   3   5
ENDBRANCH   2   3
ENDBRANCH   1   2
BRANCH   1  23
ATOM     23  C   UNL A   1      31.907  30.629  26.505  1.00  0.00     0.275 C 
BRANCH  23  24
ATOM     24  O   UNL A   1      32.418  32.375  27.132  1.00  0.00    -0.458 OA
BRANCH  24  25
ATOM     25  C   UNL A   1      33.504  33.319  27.754  1.00  0.00     0.338 C 
ATOM     26  O   UNL A   1      33.549  34.543  27.574  1.00  0.00    -0.246 OA
BRANCH  25  27
ATOM     27  C   UNL A   1      34.669  32.869  28.593  1.00  0.00     0.060 A 
ATOM     28  C   UNL A   1      35.890  33.520  28.320  1.00  0.00     0.016 A 
ATOM     29  C   UNL A   1      34.714  31.646  29.272  1.00  0.00     0.016 A 
ATOM     30  C   UNL A   1      37.101  32.954  28.697  1.00  0.00     0.010 A 
ATOM     31  C   UNL A   1      35.905  31.079  29.662  1.00  0.00     0.010 A 
ATOM     32  C   UNL A   1      37.092  31.735  29.371  1.00  0.00    -0.014 A 
BRANCH  32  33
ATOM     33  C   UNL A   1      38.281  31.205  30.020  1.00  0.00     0.031 A 
ATOM     34  C   UNL A   1      39.074  30.131  29.363  1.00  0.00     0.074 A 
ATOM     35  C   UNL A   1      38.414  31.601  31.297  1.00  0.00     0.049 A 
ATOM     36  N   UNL A   1      40.111  29.499  29.824  1.00  0.00    -0.248 NA
ATOM     37  C   UNL A   1      38.634  29.683  28.027  1.00  0.00     0.031 C 
ATOM     38  C   UNL A   1      37.504  32.543  31.976  1.00  0.00     0.029 A 
ATOM     39  N   UNL A   1      39.282  31.223  32.271  1.00  0.00    -0.354 N 
ATOM     40  C   UNL A   1      40.456  28.576  28.846  1.00  0.00     0.074 A 
ATOM     41  C   UNL A   1      39.502  28.712  27.769  1.00  0.00     0.031 C 
ATOM     42  C   UNL A   1      37.846  32.638  33.265  1.00  0.00     0.029 A 
ATOM     43  C   UNL A   1      38.981  31.764  33.498  1.00  0.00     0.049 A 
ATOM     44  H   UNL A   1      40.046  30.624  32.115  1.00  0.00     0.167 HD
ATOM     45  C   UNL A   1      41.492  27.707  28.880  1.00  0.00     0.034 A 
ATOM     46  C   UNL A   1      39.567  31.550  34.684  1.00  0.00     0.034 A 
ATOM     47  C   UNL A   1      42.355  27.612  30.028  1.00  0.00     0.049 A 
ATOM     48  C   UNL A   1      40.751  30.636  34.669  1.00  0.00     0.074 A 
ATOM     49  C   UNL A   1      43.500  26.861  30.196  1.00  0.00     0.029 A 
ATOM     50  N   UNL A   1      42.127  28.279  31.230  1.00  0.00    -0.354 N 
ATOM     51  N   UNL A   1      41.213  29.919  33.668  1.00  0.00    -0.248 NA
ATOM     52  C   UNL A   1      41.527  30.536  35.902  1.00  0.00     0.031 C 
ATOM     53  C   UNL A   1      43.935  27.039  31.515  1.00  0.00     0.029 A 
ATOM     54  C   UNL A   1      43.094  27.940  32.156  1.00  0.00     0.049 A 
ATOM     55  H   UNL A   1      41.383  28.902  31.396  1.00  0.00     0.167 HD
ATOM     56  C   UNL A   1      42.356  29.302  34.136  1.00  0.00     0.074 A 
ATOM     57  C   UNL A   1      42.523  29.752  35.511  1.00  0.00     0.031 C 
ATOM     58  C   UNL A   1      43.193  28.441  33.507  1.00  0.00     0.034 A 
BRANCH  45  59
ATOM     59  C   UNL A   1      41.737  26.834  27.677  1.00  0.00     0.023 A 
ATOM     60  C   UNL A   1      42.309  27.385  26.510  1.00  0.00     0.012 A 
ATOM     61  C   UNL A   1      41.446  25.456  27.707  1.00  0.00     0.148 A 
ATOM     62  C   UNL A   1      42.555  26.590  25.387  1.00  0.00     0.002 A 
ATOM     63  C   UNL A   1      41.731  24.661  26.601  1.00  0.00     0.091 A 
ATOM     64  F   UNL A   1      40.882  24.948  28.812  1.00  0.00    -0.205 F 
ATOM     65  C   UNL A   1      42.274  25.229  25.437  1.00  0.00     0.022 A 
BRANCH  63  66
ATOM     66  S   UNL A   1      41.470  22.884  26.581  1.00  0.00     0.127 S 
ATOM     67  O   UNL A   1      40.011  22.799  26.518  1.00  0.00    -0.237 OA
ATOM     68  O   UNL A   1      42.157  22.489  25.351  1.00  0.00    -0.237 OA
ATOM     69  O   UNL A   1      42.066  22.372  27.808  1.00  0.00    -0.744 OA
ENDBRANCH  63  66
ENDBRANCH  45  59
BRANCH  46  70
ATOM     70  C   UNL A   1      39.089  32.279  35.887  1.00  0.00     0.023 A 
ATOM     71  C   UNL A   1      38.203  31.644  36.775  1.00  0.00     0.012 A 
ATOM     72  C   UNL A   1      39.604  33.549  36.220  1.00  0.00     0.148 A 
ATOM     73  C   UNL A   1      37.805  32.276  37.955  1.00  0.00     0.002 A 
ATOM     74  C   UNL A   1      39.244  34.151  37.421  1.00  0.00     0.091 A 
ATOM     75  F   UNL A   1      40.467  34.127  35.373  1.00  0.00    -0.205 F 
ATOM     76  C   UNL A   1      38.331  33.524  38.282  1.00  0.00     0.022 A 
BRANCH  74  77
ATOM     77  S   UNL A   1      39.985  35.688  37.987  1.00  0.00     0.127 S 
ATOM     78  O   UNL A   1      39.200  35.973  39.184  1.00  0.00    -0.237 OA
ATOM     79  O   UNL A   1      41.370  35.285  38.238  1.00  0.00    -0.237 OA
ATOM     80  O   UNL A   1      39.829  36.628  36.885  1.00  0.00    -0.744 OA
ENDBRANCH  74  77
ENDBRANCH  46  70
BRANCH  58  81
ATOM     81  C   UNL A   1      44.356  27.953  34.315  1.00  0.00     0.023 A 
ATOM     82  C   UNL A   1      45.520  28.738  34.408  1.00  0.00     0.012 A 
ATOM     83  C   UNL A   1      44.253  26.752  35.036  1.00  0.00     0.148 A 
ATOM     84  C   UNL A   1      46.589  28.312  35.191  1.00  0.00     0.002 A 
ATOM     85  C   UNL A   1      45.295  26.366  35.862  1.00  0.00     0.091 A 
ATOM     86  F   UNL A   1      43.137  26.019  34.907  1.00  0.00    -0.205 F 
ATOM     87  C   UNL A   1      46.470  27.135  35.929  1.00  0.00     0.022 A 
BRANCH  85  88
ATOM     88  S   UNL A   1      45.185  24.933  36.935  1.00  0.00     0.127 S 
ATOM     89  O   UNL A   1      45.091  23.844  35.965  1.00  0.00    -0.237 OA
ATOM     90  O   UNL A   1      46.452  24.999  37.662  1.00  0.00    -0.237 OA
ATOM     91  O   UNL A   1      44.000  25.134  37.759  1.00  0.00    -0.744 OA
ENDBRANCH  85  88
ENDBRANCH  58  81
ENDBRANCH  32  33
ENDBRANCH  25  27
ENDBRANCH  24  25
ENDBRANCH  23  24
ENDBRANCH   1  23
TORSDOF 18
ENDMDL
