MODEL 1
REMARK VINA RESULT:     -11.8      0.000      0.000
REMARK SMILES Cc1ccc(N2C(=O)/C(=C\c3ccccc3O[C@H](C)C(=O)OCCOC(=O)c3ccc(-c4c5nc(c(-c6cccc(S(=O)(=O)[O-])c6F)c6ccc([nH]6)c(-c6cccc(S(=O)(=O)[O-])c6F)c6nc(c(-c7cccc(S(=O)(=O)[O-])c7F)c7ccc4[nH]7)C=C6)C=C5)cc3)SC2=S)c(C)c1
REMARK SMILES IDX 23 1 22 2 20 3 21 4 18 5 19 6 17 7 16 8 11 9 12 10 13 11
REMARK SMILES IDX 15 12 14 13 10 14 6 15 7 16 92 17 8 18 9 19 91 20 93 21 5 22
REMARK SMILES IDX 1 23 2 24 3 25 96 26 4 27 94 28 95 29 24 30 25 31 26 32
REMARK SMILES IDX 27 33 28 34 29 35 90 36 30 37 89 38 31 39 32 40 33 41 83 42
REMARK SMILES IDX 34 43 88 44 82 45 84 46 35 47 87 48 81 49 80 50 36 52 68 53
REMARK SMILES IDX 48 54 67 55 49 56 52 57 66 58 85 59 50 60 51 61 65 63 86 64
REMARK SMILES IDX 53 65 37 66 38 67 46 68 39 69 41 70 47 71 40 72 42 73 43 74
REMARK SMILES IDX 44 75 45 76 69 77 70 78 78 79 71 80 73 81 79 82 72 83 74 84
REMARK SMILES IDX 75 85 76 86 77 87 54 88 55 89 63 90 56 91 58 92 64 93 57 94
REMARK SMILES IDX 59 95 60 96 61 97 62 98
REMARK H PARENT 84 51 52 62
REMARK Flexibility Score: inf
ROOT
ATOM      1  C   UNL A   1      30.651  32.383  25.627  1.00  0.00     0.274 C 
ENDROOT
BRANCH   1   2
ATOM      2  O   UNL A   1      30.414  31.004  25.288  1.00  0.00    -0.459 OA
BRANCH   2   3
ATOM      3  C   UNL A   1      29.955  30.736  24.032  1.00  0.00     0.347 C 
ATOM      4  O   UNL A   1      29.386  31.554  23.315  1.00  0.00    -0.248 OA
BRANCH   3   5
ATOM      5  C   UNL A   1      30.183  29.270  23.637  1.00  0.00     0.279 C 
ATOM      6  C   UNL A   1      29.560  28.951  22.281  1.00  0.00     0.066 C 
BRANCH   5   7
ATOM      7  O   UNL A   1      31.603  29.111  23.579  1.00  0.00    -0.478 OA
BRANCH   7   8
ATOM      8  C   UNL A   1      32.239  28.808  24.755  1.00  0.00     0.127 A 
ATOM      9  C   UNL A   1      31.934  27.569  25.345  1.00  0.00     0.018 A 
ATOM     10  C   UNL A   1      32.390  27.280  26.638  1.00  0.00     0.012 A 
ATOM     11  C   UNL A   1      33.183  28.200  27.321  1.00  0.00     0.001 A 
ATOM     12  C   UNL A   1      33.065  29.706  25.432  1.00  0.00     0.047 A 
ATOM     13  C   UNL A   1      33.540  29.398  26.709  1.00  0.00     0.004 A 
BRANCH   9  14
ATOM     14  C   UNL A   1      31.217  26.535  24.592  1.00  0.00     0.033 C 
ATOM     15  N   UNL A   1      33.287  23.558  24.068  1.00  0.00    -0.261 N 
ATOM     16  C   UNL A   1      33.150  24.872  24.509  1.00  0.00     0.270 C 
ATOM     17  C   UNL A   1      32.205  23.014  23.391  1.00  0.00     0.152 C 
ATOM     18  O   UNL A   1      34.009  25.555  25.053  1.00  0.00    -0.268 OA
ATOM     19  C   UNL A   1      31.768  25.370  24.217  1.00  0.00     0.081 C 
ATOM     20  S   UNL A   1      30.897  24.197  23.307  1.00  0.00    -0.054 SA
ATOM     21  S   UNL A   1      31.961  21.464  22.807  1.00  0.00    -0.051 S 
BRANCH  15  22
ATOM     22  C   UNL A   1      34.498  22.846  24.322  1.00  0.00     0.054 A 
ATOM     23  C   UNL A   1      38.142  20.601  24.878  1.00  0.00     0.044 C 
ATOM     24  C   UNL A   1      36.893  21.404  24.684  1.00  0.00    -0.051 A 
ATOM     25  C   UNL A   1      36.775  22.311  23.633  1.00  0.00     0.005 A 
ATOM     26  C   UNL A   1      35.833  21.259  25.584  1.00  0.00     0.009 A 
ATOM     27  C   UNL A   1      35.590  23.027  23.456  1.00  0.00     0.027 A 
ATOM     28  C   UNL A   1      34.623  21.953  25.409  1.00  0.00    -0.027 A 
ATOM     29  C   UNL A   1      33.528  21.672  26.399  1.00  0.00     0.046 C 
ENDBRANCH  15  22
ENDBRANCH   9  14
ENDBRANCH   7   8
ENDBRANCH   5   7
ENDBRANCH   3   5
ENDBRANCH   2   3
ENDBRANCH   1   2
BRANCH   1  30
ATOM     30  C   UNL A   1      31.340  32.479  26.985  1.00  0.00     0.275 C 
BRANCH  30  31
ATOM     31  O   UNL A   1      32.675  32.992  26.831  1.00  0.00    -0.458 OA
BRANCH  31  32
ATOM     32  C   UNL A   1      33.181  33.634  27.906  1.00  0.00     0.338 C 
ATOM     33  O   UNL A   1      32.721  34.614  28.475  1.00  0.00    -0.246 OA
BRANCH  32  34
ATOM     34  C   UNL A   1      34.397  32.950  28.353  1.00  0.00     0.060 A 
ATOM     35  C   UNL A   1      34.304  31.660  28.883  1.00  0.00     0.016 A 
ATOM     36  C   UNL A   1      35.614  33.635  28.345  1.00  0.00     0.016 A 
ATOM     37  C   UNL A   1      35.433  31.064  29.445  1.00  0.00     0.010 A 
ATOM     38  C   UNL A   1      36.748  33.023  28.883  1.00  0.00     0.010 A 
ATOM     39  C   UNL A   1      36.659  31.748  29.467  1.00  0.00    -0.014 A 
BRANCH  39  40
ATOM     40  C   UNL A   1      37.841  31.142  30.131  1.00  0.00     0.031 A 
ATOM     41  C   UNL A   1      38.156  31.470  31.563  1.00  0.00     0.074 A 
ATOM     42  C   UNL A   1      38.651  30.322  29.436  1.00  0.00     0.049 A 
ATOM     43  N   UNL A   1      39.141  31.038  32.309  1.00  0.00    -0.248 NA
ATOM     44  C   UNL A   1      37.267  32.428  32.238  1.00  0.00     0.031 C 
ATOM     45  C   UNL A   1      38.490  29.992  28.022  1.00  0.00     0.029 A 
ATOM     46  N   UNL A   1      39.770  29.628  29.821  1.00  0.00    -0.354 N 
ATOM     47  C   UNL A   1      39.034  31.723  33.512  1.00  0.00     0.074 A 
ATOM     48  C   UNL A   1      37.875  32.584  33.407  1.00  0.00     0.031 C 
ATOM     49  C   UNL A   1      39.461  29.137  27.666  1.00  0.00     0.029 A 
ATOM     50  C   UNL A   1      40.301  28.844  28.823  1.00  0.00     0.049 A 
ATOM     51  H   UNL A   1      40.157  29.685  30.724  1.00  0.00     0.167 HD
ATOM     52  C   UNL A   1      39.830  31.644  34.606  1.00  0.00     0.034 A 
ATOM     53  C   UNL A   1      41.326  27.968  28.851  1.00  0.00     0.034 A 
ATOM     54  C   UNL A   1      40.946  30.745  34.733  1.00  0.00     0.049 A 
ATOM     55  C   UNL A   1      42.093  27.783  30.133  1.00  0.00     0.074 A 
ATOM     56  C   UNL A   1      41.787  30.562  35.817  1.00  0.00     0.029 A 
ATOM     57  N   UNL A   1      41.372  29.870  33.747  1.00  0.00    -0.354 N 
ATOM     58  N   UNL A   1      41.898  28.343  31.302  1.00  0.00    -0.248 NA
ATOM     59  C   UNL A   1      43.215  26.832  30.104  1.00  0.00     0.031 C 
ATOM     60  C   UNL A   1      42.722  29.574  35.487  1.00  0.00     0.029 A 
ATOM     61  C   UNL A   1      42.460  29.140  34.197  1.00  0.00     0.049 A 
ATOM     62  H   UNL A   1      40.963  29.779  32.857  1.00  0.00     0.167 HD
ATOM     63  C   UNL A   1      42.871  27.818  32.144  1.00  0.00     0.074 A 
ATOM     64  C   UNL A   1      43.616  26.847  31.368  1.00  0.00     0.031 C 
ATOM     65  C   UNL A   1      43.158  28.143  33.429  1.00  0.00     0.034 A 
BRANCH  52  66
ATOM     66  C   UNL A   1      39.503  32.540  35.768  1.00  0.00     0.023 A 
ATOM     67  C   UNL A   1      40.035  33.843  35.815  1.00  0.00     0.012 A 
ATOM     68  C   UNL A   1      38.633  32.110  36.789  1.00  0.00     0.148 A 
ATOM     69  C   UNL A   1      39.729  34.696  36.875  1.00  0.00     0.002 A 
ATOM     70  C   UNL A   1      38.303  32.978  37.824  1.00  0.00     0.091 A 
ATOM     71  F   UNL A   1      38.159  30.856  36.742  1.00  0.00    -0.205 F 
ATOM     72  C   UNL A   1      38.856  34.268  37.871  1.00  0.00     0.022 A 
BRANCH  70  73
ATOM     73  S   UNL A   1      37.137  32.532  39.115  1.00  0.00     0.127 S 
ATOM     74  O   UNL A   1      37.505  31.141  39.379  1.00  0.00    -0.237 OA
ATOM     75  O   UNL A   1      37.483  33.467  40.186  1.00  0.00    -0.237 OA
ATOM     76  O   UNL A   1      35.814  32.738  38.542  1.00  0.00    -0.744 OA
ENDBRANCH  70  73
ENDBRANCH  52  66
BRANCH  53  77
ATOM     77  C   UNL A   1      41.605  27.102  27.669  1.00  0.00     0.023 A 
ATOM     78  C   UNL A   1      42.280  27.662  26.564  1.00  0.00     0.012 A 
ATOM     79  C   UNL A   1      41.268  25.737  27.639  1.00  0.00     0.148 A 
ATOM     80  C   UNL A   1      42.599  26.885  25.450  1.00  0.00     0.002 A 
ATOM     81  C   UNL A   1      41.648  24.954  26.552  1.00  0.00     0.091 A 
ATOM     82  F   UNL A   1      40.599  25.218  28.678  1.00  0.00    -0.205 F 
ATOM     83  C   UNL A   1      42.300  25.526  25.451  1.00  0.00     0.022 A 
BRANCH  81  84
ATOM     84  S   UNL A   1      41.445  23.169  26.585  1.00  0.00     0.127 S 
ATOM     85  O   UNL A   1      42.210  22.755  25.413  1.00  0.00    -0.237 OA
ATOM     86  O   UNL A   1      42.040  22.804  27.870  1.00  0.00    -0.237 OA
ATOM     87  O   UNL A   1      40.001  22.965  26.523  1.00  0.00    -0.744 OA
ENDBRANCH  81  84
ENDBRANCH  53  77
BRANCH  65  88
ATOM     88  C   UNL A   1      44.343  27.466  34.063  1.00  0.00     0.023 A 
ATOM     89  C   UNL A   1      45.631  27.999  33.848  1.00  0.00     0.012 A 
ATOM     90  C   UNL A   1      44.190  26.350  34.906  1.00  0.00     0.148 A 
ATOM     91  C   UNL A   1      46.750  27.413  34.436  1.00  0.00     0.002 A 
ATOM     92  C   UNL A   1      45.308  25.793  35.519  1.00  0.00     0.091 A 
ATOM     93  F   UNL A   1      42.962  25.838  35.080  1.00  0.00    -0.205 F 
ATOM     94  C   UNL A   1      46.588  26.316  35.279  1.00  0.00     0.022 A 
BRANCH  92  95
ATOM     95  S   UNL A   1      45.167  24.429  36.681  1.00  0.00     0.127 S 
ATOM     96  O   UNL A   1      46.504  24.396  37.269  1.00  0.00    -0.237 OA
ATOM     97  O   UNL A   1      44.114  24.888  37.588  1.00  0.00    -0.237 OA
ATOM     98  O   UNL A   1      44.798  23.271  35.877  1.00  0.00    -0.744 OA
ENDBRANCH  92  95
ENDBRANCH  65  88
ENDBRANCH  39  40
ENDBRANCH  32  34
ENDBRANCH  31  32
ENDBRANCH  30  31
ENDBRANCH   1  30
TORSDOF 18
ENDMDL
MODEL 2
REMARK VINA RESULT:     -11.7      5.779      9.520
REMARK SMILES Cc1ccc(N2C(=O)/C(=C\c3ccccc3O[C@H](C)C(=O)OCCOC(=O)c3ccc(-c4c5nc(c(-c6cccc(S(=O)(=O)[O-])c6F)c6ccc([nH]6)c(-c6cccc(S(=O)(=O)[O-])c6F)c6nc(c(-c7cccc(S(=O)(=O)[O-])c7F)c7ccc4[nH]7)C=C6)C=C5)cc3)SC2=S)c(C)c1
REMARK SMILES IDX 23 1 22 2 20 3 21 4 18 5 19 6 17 7 16 8 11 9 12 10 13 11
REMARK SMILES IDX 15 12 14 13 10 14 6 15 7 16 92 17 8 18 9 19 91 20 93 21 5 22
REMARK SMILES IDX 1 23 2 24 3 25 96 26 4 27 94 28 95 29 24 30 25 31 26 32
REMARK SMILES IDX 27 33 28 34 29 35 90 36 30 37 89 38 31 39 32 40 33 41 83 42
REMARK SMILES IDX 34 43 88 44 82 45 84 46 35 47 87 48 81 49 80 50 36 52 68 53
REMARK SMILES IDX 48 54 67 55 49 56 52 57 66 58 85 59 50 60 51 61 65 63 86 64
REMARK SMILES IDX 53 65 37 66 38 67 46 68 39 69 41 70 47 71 40 72 42 73 43 74
REMARK SMILES IDX 44 75 45 76 69 77 70 78 78 79 71 80 73 81 79 82 72 83 74 84
REMARK SMILES IDX 75 85 76 86 77 87 54 88 55 89 63 90 56 91 58 92 64 93 57 94
REMARK SMILES IDX 59 95 60 96 61 97 62 98
REMARK H PARENT 84 51 52 62
REMARK Flexibility Score: inf
ROOT
ATOM      1  C   UNL A   1      37.895  20.505  25.508  1.00  0.00     0.274 C 
ENDROOT
BRANCH   1   2
ATOM      2  O   UNL A   1      37.471  21.097  24.267  1.00  0.00    -0.459 OA
BRANCH   2   3
ATOM      3  C   UNL A   1      37.120  22.416  24.288  1.00  0.00     0.347 C 
ATOM      4  O   UNL A   1      36.924  23.095  23.285  1.00  0.00    -0.248 OA
BRANCH   3   5
ATOM      5  C   UNL A   1      37.054  22.969  25.718  1.00  0.00     0.279 C 
ATOM      6  C   UNL A   1      38.238  23.883  26.022  1.00  0.00     0.066 C 
BRANCH   5   7
ATOM      7  O   UNL A   1      35.831  23.708  25.782  1.00  0.00    -0.478 OA
BRANCH   7   8
ATOM      8  C   UNL A   1      34.716  23.022  26.188  1.00  0.00     0.127 A 
ATOM      9  C   UNL A   1      33.520  23.278  25.495  1.00  0.00     0.018 A 
ATOM     10  C   UNL A   1      32.309  22.768  25.979  1.00  0.00     0.012 A 
ATOM     11  C   UNL A   1      32.293  21.971  27.123  1.00  0.00     0.001 A 
ATOM     12  C   UNL A   1      34.695  22.192  27.310  1.00  0.00     0.047 A 
ATOM     13  C   UNL A   1      33.487  21.663  27.770  1.00  0.00     0.004 A 
BRANCH   9  14
ATOM     14  C   UNL A   1      33.532  23.999  24.218  1.00  0.00     0.033 C 
ATOM     15  N   UNL A   1      33.513  27.629  24.710  1.00  0.00    -0.261 N 
ATOM     16  C   UNL A   1      33.427  26.340  25.228  1.00  0.00     0.270 C 
ATOM     17  C   UNL A   1      33.529  27.743  23.327  1.00  0.00     0.152 C 
ATOM     18  O   UNL A   1      33.322  26.031  26.408  1.00  0.00    -0.268 OA
ATOM     19  C   UNL A   1      33.471  25.336  24.117  1.00  0.00     0.081 C 
ATOM     20  S   UNL A   1      33.457  26.139  22.595  1.00  0.00    -0.054 SA
ATOM     21  S   UNL A   1      33.719  29.093  22.354  1.00  0.00    -0.051 S 
BRANCH  15  22
ATOM     22  C   UNL A   1      33.580  28.747  25.595  1.00  0.00     0.054 A 
ATOM     23  C   UNL A   1      33.827  31.979  28.445  1.00  0.00     0.044 C 
ATOM     24  C   UNL A   1      33.766  30.867  27.444  1.00  0.00    -0.051 A 
ATOM     25  C   UNL A   1      34.852  30.018  27.242  1.00  0.00     0.005 A 
ATOM     26  C   UNL A   1      32.607  30.687  26.683  1.00  0.00     0.009 A 
ATOM     27  C   UNL A   1      34.761  28.970  26.324  1.00  0.00     0.027 A 
ATOM     28  C   UNL A   1      32.487  29.624  25.772  1.00  0.00    -0.027 A 
ATOM     29  C   UNL A   1      31.172  29.488  25.055  1.00  0.00     0.046 C 
ENDBRANCH  15  22
ENDBRANCH   9  14
ENDBRANCH   7   8
ENDBRANCH   5   7
ENDBRANCH   3   5
ENDBRANCH   2   3
ENDBRANCH   1   2
BRANCH   1  30
ATOM     30  C   UNL A   1      39.146  19.659  25.286  1.00  0.00     0.275 C 
BRANCH  30  31
ATOM     31  O   UNL A   1      40.056  19.818  26.388  1.00  0.00    -0.458 OA
BRANCH  31  32
ATOM     32  C   UNL A   1      41.363  19.644  26.094  1.00  0.00     0.338 C 
ATOM     33  O   UNL A   1      41.904  18.636  25.663  1.00  0.00    -0.246 OA
BRANCH  32  34
ATOM     34  C   UNL A   1      42.086  20.896  26.335  1.00  0.00     0.060 A 
ATOM     35  C   UNL A   1      42.459  21.233  27.638  1.00  0.00     0.016 A 
ATOM     36  C   UNL A   1      42.296  21.782  25.277  1.00  0.00     0.016 A 
ATOM     37  C   UNL A   1      43.013  22.488  27.892  1.00  0.00     0.010 A 
ATOM     38  C   UNL A   1      42.877  23.026  25.531  1.00  0.00     0.010 A 
ATOM     39  C   UNL A   1      43.209  23.402  26.844  1.00  0.00    -0.014 A 
BRANCH  39  40
ATOM     40  C   UNL A   1      43.730  24.763  27.127  1.00  0.00     0.031 A 
ATOM     41  C   UNL A   1      42.836  25.804  27.741  1.00  0.00     0.074 A 
ATOM     42  C   UNL A   1      44.997  25.076  26.799  1.00  0.00     0.049 A 
ATOM     43  N   UNL A   1      43.114  27.042  28.061  1.00  0.00    -0.248 NA
ATOM     44  C   UNL A   1      41.443  25.413  28.007  1.00  0.00     0.031 C 
ATOM     45  C   UNL A   1      45.932  24.175  26.129  1.00  0.00     0.029 A 
ATOM     46  N   UNL A   1      45.711  26.234  26.976  1.00  0.00    -0.354 N 
ATOM     47  C   UNL A   1      41.919  27.599  28.494  1.00  0.00     0.074 A 
ATOM     48  C   UNL A   1      40.915  26.558  28.420  1.00  0.00     0.031 C 
ATOM     49  C   UNL A   1      47.106  24.806  25.977  1.00  0.00     0.029 A 
ATOM     50  C   UNL A   1      47.016  26.146  26.550  1.00  0.00     0.049 A 
ATOM     51  H   UNL A   1      45.328  27.050  27.371  1.00  0.00     0.167 HD
ATOM     52  C   UNL A   1      41.677  28.864  28.917  1.00  0.00     0.034 A 
ATOM     53  C   UNL A   1      48.028  27.033  26.642  1.00  0.00     0.034 A 
ATOM     54  C   UNL A   1      42.684  29.882  29.048  1.00  0.00     0.049 A 
ATOM     55  C   UNL A   1      47.765  28.377  27.266  1.00  0.00     0.074 A 
ATOM     56  C   UNL A   1      42.544  31.180  29.506  1.00  0.00     0.029 A 
ATOM     57  N   UNL A   1      44.023  29.714  28.731  1.00  0.00    -0.354 N 
ATOM     58  N   UNL A   1      46.659  28.844  27.792  1.00  0.00    -0.248 NA
ATOM     59  C   UNL A   1      48.896  29.316  27.321  1.00  0.00     0.031 C 
ATOM     60  C   UNL A   1      43.800  31.798  29.467  1.00  0.00     0.029 A 
ATOM     61  C   UNL A   1      44.722  30.882  28.987  1.00  0.00     0.049 A 
ATOM     62  H   UNL A   1      44.420  28.887  28.375  1.00  0.00     0.167 HD
ATOM     63  C   UNL A   1      46.958  30.125  28.236  1.00  0.00     0.074 A 
ATOM     64  C   UNL A   1      48.366  30.341  27.975  1.00  0.00     0.031 C 
ATOM     65  C   UNL A   1      46.133  31.062  28.767  1.00  0.00     0.034 A 
BRANCH  52  66
ATOM     66  C   UNL A   1      40.263  29.210  29.295  1.00  0.00     0.023 A 
ATOM     67  C   UNL A   1      39.354  29.614  28.298  1.00  0.00     0.012 A 
ATOM     68  C   UNL A   1      39.822  29.092  30.628  1.00  0.00     0.148 A 
ATOM     69  C   UNL A   1      38.034  29.921  28.625  1.00  0.00     0.002 A 
ATOM     70  C   UNL A   1      38.496  29.365  30.941  1.00  0.00     0.091 A 
ATOM     71  F   UNL A   1      40.710  28.734  31.568  1.00  0.00    -0.205 F 
ATOM     72  C   UNL A   1      37.603  29.788  29.942  1.00  0.00     0.022 A 
BRANCH  70  73
ATOM     73  S   UNL A   1      37.839  29.157  32.600  1.00  0.00     0.127 S 
ATOM     74  O   UNL A   1      38.011  27.720  32.808  1.00  0.00    -0.237 OA
ATOM     75  O   UNL A   1      38.733  29.999  33.398  1.00  0.00    -0.237 OA
ATOM     76  O   UNL A   1      36.463  29.628  32.543  1.00  0.00    -0.744 OA
ENDBRANCH  70  73
ENDBRANCH  52  66
BRANCH  53  77
ATOM     77  C   UNL A   1      49.412  26.635  26.254  1.00  0.00     0.023 A 
ATOM     78  C   UNL A   1      50.095  25.695  27.055  1.00  0.00     0.012 A 
ATOM     79  C   UNL A   1      50.039  27.121  25.094  1.00  0.00     0.148 A 
ATOM     80  C   UNL A   1      51.377  25.260  26.716  1.00  0.00     0.002 A 
ATOM     81  C   UNL A   1      51.290  26.633  24.726  1.00  0.00     0.091 A 
ATOM     82  F   UNL A   1      49.399  28.038  24.354  1.00  0.00    -0.205 F 
ATOM     83  C   UNL A   1      51.968  25.715  25.541  1.00  0.00     0.022 A 
BRANCH  81  84
ATOM     84  S   UNL A   1      52.014  27.052  23.136  1.00  0.00     0.127 S 
ATOM     85  O   UNL A   1      53.106  26.090  23.037  1.00  0.00    -0.237 OA
ATOM     86  O   UNL A   1      50.904  26.823  22.211  1.00  0.00    -0.237 OA
ATOM     87  O   UNL A   1      52.394  28.455  23.266  1.00  0.00    -0.744 OA
ENDBRANCH  81  84
ENDBRANCH  53  77
BRANCH  65  88
ATOM     88  C   UNL A   1      46.727  32.411  29.071  1.00  0.00     0.023 A 
ATOM     89  C   UNL A   1      47.270  32.645  30.352  1.00  0.00     0.012 A 
ATOM     90  C   UNL A   1      46.804  33.420  28.094  1.00  0.00     0.148 A 
ATOM     91  C   UNL A   1      47.848  33.874  30.664  1.00  0.00     0.002 A 
ATOM     92  C   UNL A   1      47.418  34.630  28.402  1.00  0.00     0.091 A 
ATOM     93  F   UNL A   1      46.263  33.191  26.888  1.00  0.00    -0.205 F 
ATOM     94  C   UNL A   1      47.932  34.862  29.687  1.00  0.00     0.022 A 
BRANCH  92  95
ATOM     95  S   UNL A   1      47.633  35.921  27.170  1.00  0.00     0.127 S 
ATOM     96  O   UNL A   1      46.315  36.549  27.159  1.00  0.00    -0.237 OA
ATOM     97  O   UNL A   1      48.696  36.744  27.752  1.00  0.00    -0.237 OA
ATOM     98  O   UNL A   1      48.019  35.229  25.947  1.00  0.00    -0.744 OA
ENDBRANCH  92  95
ENDBRANCH  65  88
ENDBRANCH  39  40
ENDBRANCH  32  34
ENDBRANCH  31  32
ENDBRANCH  30  31
ENDBRANCH   1  30
TORSDOF 18
ENDMDL
MODEL 3
REMARK VINA RESULT:     -11.1      1.194      7.352
REMARK SMILES Cc1ccc(N2C(=O)/C(=C\c3ccccc3O[C@H](C)C(=O)OCCOC(=O)c3ccc(-c4c5nc(c(-c6cccc(S(=O)(=O)[O-])c6F)c6ccc([nH]6)c(-c6cccc(S(=O)(=O)[O-])c6F)c6nc(c(-c7cccc(S(=O)(=O)[O-])c7F)c7ccc4[nH]7)C=C6)C=C5)cc3)SC2=S)c(C)c1
REMARK SMILES IDX 23 1 22 2 20 3 21 4 18 5 19 6 17 7 16 8 11 9 12 10 13 11
REMARK SMILES IDX 15 12 14 13 10 14 6 15 7 16 92 17 8 18 9 19 91 20 93 21 5 22
REMARK SMILES IDX 1 23 2 24 3 25 96 26 4 27 94 28 95 29 24 30 25 31 26 32
REMARK SMILES IDX 27 33 28 34 29 35 90 36 30 37 89 38 31 39 32 40 33 41 83 42
REMARK SMILES IDX 34 43 88 44 82 45 84 46 35 47 87 48 81 49 80 50 36 52 68 53
REMARK SMILES IDX 48 54 67 55 49 56 52 57 66 58 85 59 50 60 51 61 65 63 86 64
REMARK SMILES IDX 53 65 37 66 38 67 46 68 39 69 41 70 47 71 40 72 42 73 43 74
REMARK SMILES IDX 44 75 45 76 69 77 70 78 78 79 71 80 73 81 79 82 72 83 74 84
REMARK SMILES IDX 75 85 76 86 77 87 54 88 55 89 63 90 56 91 58 92 64 93 57 94
REMARK SMILES IDX 59 95 60 96 61 97 62 98
REMARK H PARENT 84 51 52 62
REMARK Flexibility Score: inf
ROOT
ATOM      1  C   UNL A   1      30.611  32.445  25.698  1.00  0.00     0.274 C 
ENDROOT
BRANCH   1   2
ATOM      2  O   UNL A   1      30.740  31.112  25.172  1.00  0.00    -0.459 OA
BRANCH   2   3
ATOM      3  C   UNL A   1      29.966  30.782  24.097  1.00  0.00     0.347 C 
ATOM      4  O   UNL A   1      29.198  31.558  23.536  1.00  0.00    -0.248 OA
BRANCH   3   5
ATOM      5  C   UNL A   1      30.127  29.307  23.705  1.00  0.00     0.279 C 
ATOM      6  C   UNL A   1      29.695  29.061  22.262  1.00  0.00     0.066 C 
BRANCH   5   7
ATOM      7  O   UNL A   1      31.521  29.025  23.859  1.00  0.00    -0.478 OA
BRANCH   7   8
ATOM      8  C   UNL A   1      31.947  28.691  25.117  1.00  0.00     0.127 A 
ATOM      9  C   UNL A   1      31.503  27.463  25.638  1.00  0.00     0.018 A 
ATOM     10  C   UNL A   1      31.734  27.149  26.984  1.00  0.00     0.012 A 
ATOM     11  C   UNL A   1      32.442  28.035  27.796  1.00  0.00     0.001 A 
ATOM     12  C   UNL A   1      32.688  29.552  25.928  1.00  0.00     0.047 A 
ATOM     13  C   UNL A   1      32.939  29.220  27.261  1.00  0.00     0.004 A 
BRANCH   9  14
ATOM     14  C   UNL A   1      30.877  26.462  24.769  1.00  0.00     0.033 C 
ATOM     15  N   UNL A   1      33.123  23.643  24.109  1.00  0.00    -0.261 N 
ATOM     16  C   UNL A   1      32.897  24.907  24.648  1.00  0.00     0.270 C 
ATOM     17  C   UNL A   1      32.104  23.106  23.337  1.00  0.00     0.152 C 
ATOM     18  O   UNL A   1      33.693  25.583  25.287  1.00  0.00    -0.268 OA
ATOM     19  C   UNL A   1      31.505  25.360  24.328  1.00  0.00     0.081 C 
ATOM     20  S   UNL A   1      30.741  24.226  23.284  1.00  0.00    -0.054 SA
ATOM     21  S   UNL A   1      31.969  21.600  22.618  1.00  0.00    -0.051 S 
BRANCH  15  22
ATOM     22  C   UNL A   1      34.357  22.973  24.365  1.00  0.00     0.054 A 
ATOM     23  C   UNL A   1      38.063  20.834  24.936  1.00  0.00     0.044 C 
ATOM     24  C   UNL A   1      36.791  21.600  24.734  1.00  0.00    -0.051 A 
ATOM     25  C   UNL A   1      36.610  22.413  23.617  1.00  0.00     0.005 A 
ATOM     26  C   UNL A   1      35.777  21.517  25.691  1.00  0.00     0.009 A 
ATOM     27  C   UNL A   1      35.405  23.095  23.436  1.00  0.00     0.027 A 
ATOM     28  C   UNL A   1      34.548  22.176  25.515  1.00  0.00    -0.027 A 
ATOM     29  C   UNL A   1      33.504  21.963  26.576  1.00  0.00     0.046 C 
ENDBRANCH  15  22
ENDBRANCH   9  14
ENDBRANCH   7   8
ENDBRANCH   5   7
ENDBRANCH   3   5
ENDBRANCH   2   3
ENDBRANCH   1   2
BRANCH   1  30
ATOM     30  C   UNL A   1      31.360  32.563  27.023  1.00  0.00     0.275 C 
BRANCH  30  31
ATOM     31  O   UNL A   1      32.647  33.171  26.815  1.00  0.00    -0.458 OA
BRANCH  31  32
ATOM     32  C   UNL A   1      33.136  33.872  27.861  1.00  0.00     0.338 C 
ATOM     33  O   UNL A   1      32.688  34.901  28.344  1.00  0.00    -0.246 OA
BRANCH  32  34
ATOM     34  C   UNL A   1      34.315  33.186  28.396  1.00  0.00     0.060 A 
ATOM     35  C   UNL A   1      34.177  31.905  28.936  1.00  0.00     0.016 A 
ATOM     36  C   UNL A   1      35.535  33.862  28.458  1.00  0.00     0.016 A 
ATOM     37  C   UNL A   1      35.262  31.309  29.579  1.00  0.00     0.010 A 
ATOM     38  C   UNL A   1      36.626  33.251  29.077  1.00  0.00     0.010 A 
ATOM     39  C   UNL A   1      36.490  31.985  29.672  1.00  0.00    -0.014 A 
BRANCH  39  40
ATOM     40  C   UNL A   1      37.621  31.381  30.421  1.00  0.00     0.031 A 
ATOM     41  C   UNL A   1      38.584  30.460  29.726  1.00  0.00     0.074 A 
ATOM     42  C   UNL A   1      37.762  31.633  31.735  1.00  0.00     0.049 A 
ATOM     43  N   UNL A   1      39.629  29.842  30.215  1.00  0.00    -0.248 NA
ATOM     44  C   UNL A   1      38.326  30.174  28.307  1.00  0.00     0.031 C 
ATOM     45  C   UNL A   1      36.848  32.448  32.532  1.00  0.00     0.029 A 
ATOM     46  N   UNL A   1      38.719  31.226  32.630  1.00  0.00    -0.354 N 
ATOM     47  C   UNL A   1      40.109  29.039  29.189  1.00  0.00     0.074 A 
ATOM     48  C   UNL A   1      39.255  29.265  28.041  1.00  0.00     0.031 C 
ATOM     49  C   UNL A   1      37.304  32.501  33.793  1.00  0.00     0.029 A 
ATOM     50  C   UNL A   1      38.548  31.743  33.893  1.00  0.00     0.049 A 
ATOM     51  H   UNL A   1      39.459  30.621  32.392  1.00  0.00     0.167 HD
ATOM     52  C   UNL A   1      41.165  28.190  29.200  1.00  0.00     0.034 A 
ATOM     53  C   UNL A   1      39.322  31.643  34.992  1.00  0.00     0.034 A 
ATOM     54  C   UNL A   1      42.049  28.010  30.320  1.00  0.00     0.049 A 
ATOM     55  C   UNL A   1      40.580  30.818  34.926  1.00  0.00     0.074 A 
ATOM     56  C   UNL A   1      43.170  27.204  30.414  1.00  0.00     0.029 A 
ATOM     57  N   UNL A   1      41.919  28.654  31.541  1.00  0.00    -0.354 N 
ATOM     58  N   UNL A   1      41.092  30.170  33.907  1.00  0.00    -0.248 NA
ATOM     59  C   UNL A   1      41.377  30.723  36.158  1.00  0.00     0.031 C 
ATOM     60  C   UNL A   1      43.720  27.361  31.692  1.00  0.00     0.029 A 
ATOM     61  C   UNL A   1      42.941  28.268  32.392  1.00  0.00     0.049 A 
ATOM     62  H   UNL A   1      41.205  29.291  31.770  1.00  0.00     0.167 HD
ATOM     63  C   UNL A   1      42.264  29.589  34.375  1.00  0.00     0.074 A 
ATOM     64  C   UNL A   1      42.421  30.013  35.751  1.00  0.00     0.031 C 
ATOM     65  C   UNL A   1      43.110  28.738  33.742  1.00  0.00     0.034 A 
BRANCH  52  66
ATOM     66  C   UNL A   1      41.438  27.407  27.946  1.00  0.00     0.023 A 
ATOM     67  C   UNL A   1      41.955  28.064  26.812  1.00  0.00     0.012 A 
ATOM     68  C   UNL A   1      41.227  26.015  27.904  1.00  0.00     0.148 A 
ATOM     69  C   UNL A   1      42.232  27.352  25.645  1.00  0.00     0.002 A 
ATOM     70  C   UNL A   1      41.540  25.305  26.749  1.00  0.00     0.091 A 
ATOM     71  F   UNL A   1      40.707  25.412  28.984  1.00  0.00    -0.205 F 
ATOM     72  C   UNL A   1      42.035  25.974  25.618  1.00  0.00     0.022 A 
BRANCH  70  73
ATOM     73  S   UNL A   1      41.377  23.519  26.648  1.00  0.00     0.127 S 
ATOM     74  O   UNL A   1      39.928  23.359  26.540  1.00  0.00    -0.237 OA
ATOM     75  O   UNL A   1      42.117  23.207  25.424  1.00  0.00    -0.237 OA
ATOM     76  O   UNL A   1      41.982  22.997  27.865  1.00  0.00    -0.744 OA
ENDBRANCH  70  73
ENDBRANCH  52  66
BRANCH  53  77
ATOM     77  C   UNL A   1      39.006  32.445  36.209  1.00  0.00     0.023 A 
ATOM     78  C   UNL A   1      38.130  31.898  37.171  1.00  0.00     0.012 A 
ATOM     79  C   UNL A   1      39.588  33.700  36.457  1.00  0.00     0.148 A 
ATOM     80  C   UNL A   1      37.832  32.590  38.345  1.00  0.00     0.002 A 
ATOM     81  C   UNL A   1      39.337  34.355  37.660  1.00  0.00     0.091 A 
ATOM     82  F   UNL A   1      40.393  34.230  35.525  1.00  0.00    -0.205 F 
ATOM     83  C   UNL A   1      38.449  33.811  38.598  1.00  0.00     0.022 A 
BRANCH  81  84
ATOM     84  S   UNL A   1      40.243  35.840  38.109  1.00  0.00     0.127 S 
ATOM     85  O   UNL A   1      39.808  36.783  37.084  1.00  0.00    -0.237 OA
ATOM     86  O   UNL A   1      39.745  36.120  39.456  1.00  0.00    -0.237 OA
ATOM     87  O   UNL A   1      41.645  35.438  38.070  1.00  0.00    -0.744 OA
ENDBRANCH  81  84
ENDBRANCH  53  77
BRANCH  65  88
ATOM     88  C   UNL A   1      44.261  28.191  34.541  1.00  0.00     0.023 A 
ATOM     89  C   UNL A   1      45.465  28.924  34.596  1.00  0.00     0.012 A 
ATOM     90  C   UNL A   1      44.146  26.997  35.276  1.00  0.00     0.148 A 
ATOM     91  C   UNL A   1      46.546  28.461  35.343  1.00  0.00     0.002 A 
ATOM     92  C   UNL A   1      45.217  26.560  36.050  1.00  0.00     0.091 A 
ATOM     93  F   UNL A   1      43.004  26.298  35.195  1.00  0.00    -0.205 F 
ATOM     94  C   UNL A   1      46.419  27.284  36.078  1.00  0.00     0.022 A 
BRANCH  92  95
ATOM     95  S   UNL A   1      45.100  25.097  37.087  1.00  0.00     0.127 S 
ATOM     96  O   UNL A   1      45.099  24.025  36.094  1.00  0.00    -0.237 OA
ATOM     97  O   UNL A   1      46.318  25.178  37.894  1.00  0.00    -0.237 OA
ATOM     98  O   UNL A   1      43.868  25.259  37.849  1.00  0.00    -0.744 OA
ENDBRANCH  92  95
ENDBRANCH  65  88
ENDBRANCH  39  40
ENDBRANCH  32  34
ENDBRANCH  31  32
ENDBRANCH  30  31
ENDBRANCH   1  30
TORSDOF 18
ENDMDL
