MODEL 1
REMARK VINA RESULT:     -11.9      0.000      0.000
REMARK SMILES COc1ccc2c(c1)c(Cc1nc(-c3ccc(C(=O)OCCOC(=O)c4ccc(-c5c6nc(c(-c7cccc(S(=O)(=O)[O-])c7F)c7ccc([nH]7)c(-c7cccc(S(=O)(=O)[O-])c7F)c7nc(c(-c8cccc(S(=O)(=O)[O-])c8F)c8ccc5[nH]8)C=C7)C=C6)cc4)cc3)cs1)c(C)n2C(=O)c1ccc(Cl)cc1
REMARK SMILES IDX 21 1 20 2 18 3 19 4 17 5 14 6 15 7 90 8 16 9 89 10 13 11
REMARK SMILES IDX 11 12 12 13 92 14 91 15 10 16 9 17 3 18 4 19 8 20 5 21 7 22
REMARK SMILES IDX 6 23 95 24 93 25 94 26 2 27 1 28 96 29 97 30 98 31 99 32
REMARK SMILES IDX 104 33 100 34 103 35 101 36 102 37 22 38 23 39 24 40 25 41
REMARK SMILES IDX 26 42 27 43 88 44 28 45 87 46 29 47 30 48 31 49 81 50 32 51
REMARK SMILES IDX 86 52 80 53 82 54 33 55 85 56 79 57 78 58 34 60 66 61 46 62
REMARK SMILES IDX 65 63 47 64 50 65 64 66 83 67 48 68 49 69 63 71 84 72 51 73
REMARK SMILES IDX 35 74 36 75 44 76 37 77 39 78 45 79 38 80 40 81 41 82 42 83
REMARK SMILES IDX 43 84 67 85 68 86 76 87 69 88 71 89 77 90 70 91 72 92 73 93
REMARK SMILES IDX 74 94 75 95 52 96 53 97 61 98 54 99 56 100 62 101 55 102
REMARK SMILES IDX 57 103 58 104 59 105 60 106
REMARK H PARENT 82 59 50 70
REMARK Flexibility Score: inf
ROOT
ATOM      1  C   UNL A   1      40.645  21.317  26.632  1.00  0.00     0.275 C 
ENDROOT
BRANCH   1   2
ATOM      2  O   UNL A   1      39.402  21.939  26.235  1.00  0.00    -0.458 OA
BRANCH   2   3
ATOM      3  C   UNL A   1      38.518  21.171  25.545  1.00  0.00     0.338 C 
ATOM      4  O   UNL A   1      38.749  20.076  25.054  1.00  0.00    -0.246 OA
BRANCH   3   5
ATOM      5  C   UNL A   1      37.168  21.800  25.578  1.00  0.00     0.060 A 
ATOM      6  C   UNL A   1      34.570  22.797  26.010  1.00  0.00     0.001 A 
ATOM      7  C   UNL A   1      34.771  21.445  25.724  1.00  0.00     0.011 A 
ATOM      8  C   UNL A   1      35.663  23.669  25.968  1.00  0.00     0.011 A 
ATOM      9  C   UNL A   1      36.057  20.965  25.479  1.00  0.00     0.016 A 
ATOM     10  C   UNL A   1      36.963  23.169  25.770  1.00  0.00     0.016 A 
BRANCH   6  11
ATOM     11  C   UNL A   1      33.239  23.240  26.387  1.00  0.00     0.081 A 
ATOM     12  C   UNL A   1      31.560  24.666  26.361  1.00  0.00     0.098 A 
ATOM     13  N   UNL A   1      32.879  24.572  26.408  1.00  0.00    -0.241 NA
ATOM     14  S   UNL A   1      30.721  23.200  26.716  1.00  0.00    -0.126 S 
ATOM     15  C   UNL A   1      32.208  22.349  26.618  1.00  0.00     0.095 A 
BRANCH  12  16
ATOM     16  C   UNL A   1      30.799  25.889  25.886  1.00  0.00     0.105 C 
BRANCH  16  17
ATOM     17  C   UNL A   1      31.723  27.080  25.805  1.00  0.00    -0.012 A 
ATOM     18  C   UNL A   1      33.480  27.133  22.485  1.00  0.00     0.119 A 
ATOM     19  C   UNL A   1      33.573  28.510  22.459  1.00  0.00     0.048 A 
ATOM     20  C   UNL A   1      32.964  26.520  23.607  1.00  0.00     0.057 A 
ATOM     21  C   UNL A   1      33.413  29.295  23.605  1.00  0.00     0.031 A 
ATOM     22  C   UNL A   1      32.600  27.316  24.715  1.00  0.00     0.008 A 
ATOM     23  C   UNL A   1      32.945  28.671  24.763  1.00  0.00     0.057 A 
ATOM     24  N   UNL A   1      32.733  29.103  26.076  1.00  0.00    -0.280 N 
ATOM     25  C   UNL A   1      31.792  28.199  26.625  1.00  0.00     0.028 A 
ATOM     26  C   UNL A   1      31.013  28.446  27.873  1.00  0.00     0.065 C 
BRANCH  18  27
ATOM     27  O   UNL A   1      33.762  26.376  21.381  1.00  0.00    -0.497 OA
ATOM     28  C   UNL A   1      32.582  25.689  20.950  1.00  0.00     0.278 C 
ENDBRANCH  18  27
BRANCH  24  29
ATOM     29  C   UNL A   1      33.343  30.197  26.767  1.00  0.00     0.262 C 
ATOM     30  O   UNL A   1      32.669  31.226  26.897  1.00  0.00    -0.268 OA
BRANCH  29  31
ATOM     31  C   UNL A   1      34.666  30.263  27.437  1.00  0.00     0.040 A 
ATOM     32  C   UNL A   1      35.541  29.176  27.490  1.00  0.00     0.015 A 
ATOM     33  C   UNL A   1      35.131  31.533  27.821  1.00  0.00     0.015 A 
ATOM     34  C   UNL A   1      36.836  29.345  28.002  1.00  0.00     0.021 A 
ATOM     35  C   UNL A   1      36.424  31.702  28.324  1.00  0.00     0.021 A 
ATOM     36  C   UNL A   1      37.269  30.601  28.427  1.00  0.00     0.041 A 
ATOM     37  Cl  UNL A   1      38.862  30.804  29.049  1.00  0.00    -0.084 Cl
ENDBRANCH  29  31
ENDBRANCH  24  29
ENDBRANCH  16  17
ENDBRANCH  12  16
ENDBRANCH   6  11
ENDBRANCH   3   5
ENDBRANCH   2   3
ENDBRANCH   1   2
BRANCH   1  38
ATOM     38  C   UNL A   1      41.825  21.996  25.927  1.00  0.00     0.275 C 
BRANCH  38  39
ATOM     39  O   UNL A   1      42.092  23.239  26.593  1.00  0.00    -0.458 OA
BRANCH  39  40
ATOM     40  C   UNL A   1      42.595  23.138  27.843  1.00  0.00     0.338 C 
ATOM     41  O   UNL A   1      43.382  22.287  28.244  1.00  0.00    -0.246 OA
BRANCH  40  42
ATOM     42  C   UNL A   1      42.286  24.404  28.537  1.00  0.00     0.060 A 
ATOM     43  C   UNL A   1      41.127  25.141  28.256  1.00  0.00     0.016 A 
ATOM     44  C   UNL A   1      43.282  24.945  29.350  1.00  0.00     0.016 A 
ATOM     45  C   UNL A   1      41.022  26.465  28.689  1.00  0.00     0.010 A 
ATOM     46  C   UNL A   1      43.163  26.261  29.787  1.00  0.00     0.010 A 
ATOM     47  C   UNL A   1      42.070  27.054  29.405  1.00  0.00    -0.014 A 
BRANCH  47  48
ATOM     48  C   UNL A   1      41.881  28.377  30.027  1.00  0.00     0.031 A 
ATOM     49  C   UNL A   1      42.804  29.362  29.415  1.00  0.00     0.074 A 
ATOM     50  C   UNL A   1      41.032  28.787  31.003  1.00  0.00     0.049 A 
ATOM     51  N   UNL A   1      43.974  29.682  29.866  1.00  0.00    -0.248 NA
ATOM     52  C   UNL A   1      42.492  29.902  28.084  1.00  0.00     0.031 C 
ATOM     53  C   UNL A   1      39.938  28.056  31.642  1.00  0.00     0.029 A 
ATOM     54  N   UNL A   1      40.944  30.025  31.605  1.00  0.00    -0.354 N 
ATOM     55  C   UNL A   1      44.423  30.666  28.999  1.00  0.00     0.074 A 
ATOM     56  C   UNL A   1      43.606  30.585  27.814  1.00  0.00     0.031 C 
ATOM     57  C   UNL A   1      39.199  28.901  32.406  1.00  0.00     0.029 A 
ATOM     58  C   UNL A   1      39.824  30.215  32.430  1.00  0.00     0.049 A 
ATOM     59  H   UNL A   1      41.619  30.729  31.465  1.00  0.00     0.167 HD
ATOM     60  C   UNL A   1      45.170  31.706  29.450  1.00  0.00     0.034 A 
ATOM     61  C   UNL A   1      39.467  31.353  33.094  1.00  0.00     0.034 A 
ATOM     62  C   UNL A   1      45.626  31.533  30.797  1.00  0.00     0.049 A 
ATOM     63  C   UNL A   1      40.750  32.036  33.374  1.00  0.00     0.074 A 
ATOM     64  C   UNL A   1      46.623  30.870  31.475  1.00  0.00     0.029 A 
ATOM     65  N   UNL A   1      44.704  31.935  31.721  1.00  0.00    -0.354 N 
ATOM     66  N   UNL A   1      41.598  31.620  34.273  1.00  0.00    -0.248 NA
ATOM     67  C   UNL A   1      41.197  33.154  32.550  1.00  0.00     0.031 C 
ATOM     68  C   UNL A   1      46.218  30.817  32.844  1.00  0.00     0.029 A 
ATOM     69  C   UNL A   1      44.981  31.440  32.962  1.00  0.00     0.049 A 
ATOM     70  H   UNL A   1      43.934  32.512  31.516  1.00  0.00     0.167 HD
ATOM     71  C   UNL A   1      42.801  32.138  33.853  1.00  0.00     0.074 A 
ATOM     72  C   UNL A   1      42.469  33.224  32.944  1.00  0.00     0.031 C 
ATOM     73  C   UNL A   1      43.947  31.418  33.970  1.00  0.00     0.034 A 
BRANCH  60  74
ATOM     74  C   UNL A   1      45.043  33.088  28.874  1.00  0.00     0.023 A 
ATOM     75  C   UNL A   1      43.878  33.828  29.146  1.00  0.00     0.012 A 
ATOM     76  C   UNL A   1      45.904  33.579  27.869  1.00  0.00     0.148 A 
ATOM     77  C   UNL A   1      43.618  35.032  28.482  1.00  0.00     0.002 A 
ATOM     78  C   UNL A   1      45.701  34.823  27.295  1.00  0.00     0.091 A 
ATOM     79  F   UNL A   1      46.847  32.779  27.351  1.00  0.00    -0.205 F 
ATOM     80  C   UNL A   1      44.548  35.551  27.583  1.00  0.00     0.022 A 
BRANCH  78  81
ATOM     81  S   UNL A   1      46.945  35.517  26.205  1.00  0.00     0.127 S 
ATOM     82  O   UNL A   1      48.159  35.350  26.996  1.00  0.00    -0.237 OA
ATOM     83  O   UNL A   1      46.837  34.656  25.027  1.00  0.00    -0.237 OA
ATOM     84  O   UNL A   1      46.507  36.890  25.981  1.00  0.00    -0.744 OA
ENDBRANCH  78  81
ENDBRANCH  60  74
BRANCH  61  85
ATOM     85  C   UNL A   1      38.230  31.971  33.691  1.00  0.00     0.023 A 
ATOM     86  C   UNL A   1      38.305  32.544  34.982  1.00  0.00     0.012 A 
ATOM     87  C   UNL A   1      37.082  32.292  32.951  1.00  0.00     0.148 A 
ATOM     88  C   UNL A   1      37.355  33.463  35.453  1.00  0.00     0.002 A 
ATOM     89  C   UNL A   1      36.152  33.243  33.395  1.00  0.00     0.091 A 
ATOM     90  F   UNL A   1      36.875  31.666  31.801  1.00  0.00    -0.205 F 
ATOM     91  C   UNL A   1      36.294  33.843  34.644  1.00  0.00     0.022 A 
BRANCH  89  92
ATOM     92  S   UNL A   1      34.781  33.742  32.335  1.00  0.00     0.127 S 
ATOM     93  O   UNL A   1      34.149  34.826  33.090  1.00  0.00    -0.237 OA
ATOM     94  O   UNL A   1      35.455  34.180  31.118  1.00  0.00    -0.237 OA
ATOM     95  O   UNL A   1      33.966  32.536  32.234  1.00  0.00    -0.744 OA
ENDBRANCH  89  92
ENDBRANCH  61  85
BRANCH  73  96
ATOM     96  C   UNL A   1      44.028  30.395  35.055  1.00  0.00     0.023 A 
ATOM     97  C   UNL A   1      44.479  30.697  36.353  1.00  0.00     0.012 A 
ATOM     98  C   UNL A   1      43.531  29.112  34.775  1.00  0.00     0.148 A 
ATOM     99  C   UNL A   1      44.431  29.728  37.358  1.00  0.00     0.002 A 
ATOM    100  C   UNL A   1      43.446  28.167  35.784  1.00  0.00     0.091 A 
ATOM    101  F   UNL A   1      43.126  28.853  33.522  1.00  0.00    -0.205 F 
ATOM    102  C   UNL A   1      43.901  28.468  37.077  1.00  0.00     0.022 A 
BRANCH 100 103
ATOM    103  S   UNL A   1      42.674  26.569  35.519  1.00  0.00     0.127 S 
ATOM    104  O   UNL A   1      43.562  25.957  34.533  1.00  0.00    -0.237 OA
ATOM    105  O   UNL A   1      42.737  25.974  36.854  1.00  0.00    -0.237 OA
ATOM    106  O   UNL A   1      41.321  26.845  35.050  1.00  0.00    -0.744 OA
ENDBRANCH 100 103
ENDBRANCH  73  96
ENDBRANCH  47  48
ENDBRANCH  40  42
ENDBRANCH  39  40
ENDBRANCH  38  39
ENDBRANCH   1  38
TORSDOF 20
ENDMDL
MODEL 2
REMARK VINA RESULT:     -11.2      5.916     11.771
REMARK SMILES COc1ccc2c(c1)c(Cc1nc(-c3ccc(C(=O)OCCOC(=O)c4ccc(-c5c6nc(c(-c7cccc(S(=O)(=O)[O-])c7F)c7ccc([nH]7)c(-c7cccc(S(=O)(=O)[O-])c7F)c7nc(c(-c8cccc(S(=O)(=O)[O-])c8F)c8ccc5[nH]8)C=C7)C=C6)cc4)cc3)cs1)c(C)n2C(=O)c1ccc(Cl)cc1
REMARK SMILES IDX 21 1 20 2 18 3 19 4 17 5 14 6 15 7 90 8 16 9 89 10 13 11
REMARK SMILES IDX 11 12 12 13 92 14 91 15 10 16 9 17 3 18 4 19 8 20 5 21 7 22
REMARK SMILES IDX 6 23 95 24 93 25 94 26 2 27 1 28 96 29 97 30 98 31 99 32
REMARK SMILES IDX 104 33 100 34 103 35 101 36 102 37 22 38 23 39 24 40 25 41
REMARK SMILES IDX 26 42 27 43 88 44 28 45 87 46 29 47 30 48 31 49 81 50 32 51
REMARK SMILES IDX 86 52 80 53 82 54 33 55 85 56 79 57 78 58 34 60 66 61 46 62
REMARK SMILES IDX 65 63 47 64 50 65 64 66 83 67 48 68 49 69 63 71 84 72 51 73
REMARK SMILES IDX 35 74 36 75 44 76 37 77 39 78 45 79 38 80 40 81 41 82 42 83
REMARK SMILES IDX 43 84 67 85 68 86 76 87 69 88 71 89 77 90 70 91 72 92 73 93
REMARK SMILES IDX 74 94 75 95 52 96 53 97 61 98 54 99 56 100 62 101 55 102
REMARK SMILES IDX 57 103 58 104 59 105 60 106
REMARK H PARENT 82 59 50 70
REMARK Flexibility Score: inf
ROOT
ATOM      1  C   UNL A   1      36.559  32.656  31.035  1.00  0.00     0.275 C 
ENDROOT
BRANCH   1   2
ATOM      2  O   UNL A   1      37.023  31.302  30.831  1.00  0.00    -0.458 OA
BRANCH   2   3
ATOM      3  C   UNL A   1      36.679  30.699  29.663  1.00  0.00     0.338 C 
ATOM      4  O   UNL A   1      35.705  30.968  28.976  1.00  0.00    -0.246 OA
BRANCH   3   5
ATOM      5  C   UNL A   1      37.740  29.734  29.261  1.00  0.00     0.060 A 
ATOM      6  C   UNL A   1      39.437  27.629  28.470  1.00  0.00     0.001 A 
ATOM      7  C   UNL A   1      38.848  27.626  29.736  1.00  0.00     0.011 A 
ATOM      8  C   UNL A   1      39.261  28.743  27.643  1.00  0.00     0.011 A 
ATOM      9  C   UNL A   1      38.036  28.689  30.133  1.00  0.00     0.016 A 
ATOM     10  C   UNL A   1      38.401  29.786  28.030  1.00  0.00     0.016 A 
BRANCH   6  11
ATOM     11  C   UNL A   1      40.169  26.451  28.039  1.00  0.00     0.081 A 
ATOM     12  C   UNL A   1      41.915  25.107  28.053  1.00  0.00     0.098 A 
ATOM     13  N   UNL A   1      41.547  26.378  28.084  1.00  0.00    -0.241 NA
ATOM     14  S   UNL A   1      40.681  24.012  27.550  1.00  0.00    -0.126 S 
ATOM     15  C   UNL A   1      39.531  25.278  27.685  1.00  0.00     0.095 A 
BRANCH  12  16
ATOM     16  C   UNL A   1      43.246  24.584  28.559  1.00  0.00     0.105 C 
BRANCH  16  17
ATOM     17  C   UNL A   1      44.264  24.579  27.445  1.00  0.00    -0.012 A 
ATOM     18  C   UNL A   1      43.866  21.494  25.339  1.00  0.00     0.119 A 
ATOM     19  C   UNL A   1      44.307  22.118  24.189  1.00  0.00     0.048 A 
ATOM     20  C   UNL A   1      43.897  22.190  26.529  1.00  0.00     0.057 A 
ATOM     21  C   UNL A   1      45.021  23.320  24.213  1.00  0.00     0.031 A 
ATOM     22  C   UNL A   1      44.431  23.497  26.544  1.00  0.00     0.008 A 
ATOM     23  C   UNL A   1      45.106  24.003  25.428  1.00  0.00     0.057 A 
ATOM     24  N   UNL A   1      45.772  25.162  25.841  1.00  0.00    -0.280 N 
ATOM     25  C   UNL A   1      45.074  25.611  26.989  1.00  0.00     0.028 A 
ATOM     26  C   UNL A   1      45.204  26.976  27.574  1.00  0.00     0.065 C 
BRANCH  18  27
ATOM     27  O   UNL A   1      43.279  20.259  25.303  1.00  0.00    -0.497 OA
ATOM     28  C   UNL A   1      44.240  19.278  24.897  1.00  0.00     0.278 C 
ENDBRANCH  18  27
BRANCH  24  29
ATOM     29  C   UNL A   1      46.934  25.775  25.276  1.00  0.00     0.262 C 
ATOM     30  O   UNL A   1      46.771  26.455  24.255  1.00  0.00    -0.268 OA
BRANCH  29  31
ATOM     31  C   UNL A   1      48.329  25.786  25.782  1.00  0.00     0.040 A 
ATOM     32  C   UNL A   1      48.699  25.194  26.992  1.00  0.00     0.015 A 
ATOM     33  C   UNL A   1      49.334  26.207  24.892  1.00  0.00     0.015 A 
ATOM     34  C   UNL A   1      50.055  25.104  27.341  1.00  0.00     0.021 A 
ATOM     35  C   UNL A   1      50.685  26.109  25.237  1.00  0.00     0.021 A 
ATOM     36  C   UNL A   1      51.040  25.571  26.470  1.00  0.00     0.041 A 
ATOM     37  Cl  UNL A   1      52.704  25.452  26.902  1.00  0.00    -0.084 Cl
ENDBRANCH  29  31
ENDBRANCH  24  29
ENDBRANCH  16  17
ENDBRANCH  12  16
ENDBRANCH   6  11
ENDBRANCH   3   5
ENDBRANCH   2   3
ENDBRANCH   1   2
BRANCH   1  38
ATOM     38  C   UNL A   1      37.730  33.562  31.435  1.00  0.00     0.275 C 
BRANCH  38  39
ATOM     39  O   UNL A   1      38.585  33.721  30.293  1.00  0.00    -0.458 OA
BRANCH  39  40
ATOM     40  C   UNL A   1      39.885  33.410  30.486  1.00  0.00     0.338 C 
ATOM     41  O   UNL A   1      40.329  32.322  30.836  1.00  0.00    -0.246 OA
BRANCH  40  42
ATOM     42  C   UNL A   1      40.684  34.502  29.894  1.00  0.00     0.060 A 
ATOM     43  C   UNL A   1      40.314  35.126  28.694  1.00  0.00     0.016 A 
ATOM     44  C   UNL A   1      41.926  34.767  30.469  1.00  0.00     0.016 A 
ATOM     45  C   UNL A   1      41.236  35.921  28.009  1.00  0.00     0.010 A 
ATOM     46  C   UNL A   1      42.835  35.569  29.785  1.00  0.00     0.010 A 
ATOM     47  C   UNL A   1      42.527  36.096  28.521  1.00  0.00    -0.014 A 
BRANCH  47  48
ATOM     48  C   UNL A   1      43.432  37.083  27.906  1.00  0.00     0.031 A 
ATOM     49  C   UNL A   1      44.763  36.474  27.668  1.00  0.00     0.074 A 
ATOM     50  C   UNL A   1      43.224  38.375  27.544  1.00  0.00     0.049 A 
ATOM     51  N   UNL A   1      45.775  36.536  28.472  1.00  0.00    -0.248 NA
ATOM     52  C   UNL A   1      44.935  35.555  26.535  1.00  0.00     0.031 C 
ATOM     53  C   UNL A   1      41.977  39.141  27.531  1.00  0.00     0.029 A 
ATOM     54  N   UNL A   1      44.129  39.285  27.037  1.00  0.00    -0.354 N 
ATOM     55  C   UNL A   1      46.791  35.874  27.802  1.00  0.00     0.074 A 
ATOM     56  C   UNL A   1      46.168  35.098  26.759  1.00  0.00     0.031 C 
ATOM     57  C   UNL A   1      42.166  40.324  26.891  1.00  0.00     0.029 A 
ATOM     58  C   UNL A   1      43.573  40.480  26.554  1.00  0.00     0.049 A 
ATOM     59  H   UNL A   1      45.098  39.108  27.014  1.00  0.00     0.167 HD
ATOM     60  C   UNL A   1      48.080  36.290  27.901  1.00  0.00     0.034 A 
ATOM     61  C   UNL A   1      44.230  41.515  25.953  1.00  0.00     0.034 A 
ATOM     62  C   UNL A   1      48.280  37.272  28.924  1.00  0.00     0.049 A 
ATOM     63  C   UNL A   1      45.588  41.484  26.542  1.00  0.00     0.074 A 
ATOM     64  C   UNL A   1      48.438  37.326  30.290  1.00  0.00     0.029 A 
ATOM     65  N   UNL A   1      48.018  38.541  28.494  1.00  0.00    -0.354 N 
ATOM     66  N   UNL A   1      45.843  41.858  27.764  1.00  0.00    -0.248 NA
ATOM     67  C   UNL A   1      46.706  40.897  25.811  1.00  0.00     0.031 C 
ATOM     68  C   UNL A   1      48.174  38.676  30.676  1.00  0.00     0.029 A 
ATOM     69  C   UNL A   1      47.854  39.406  29.537  1.00  0.00     0.049 A 
ATOM     70  H   UNL A   1      47.955  38.800  27.547  1.00  0.00     0.167 HD
ATOM     71  C   UNL A   1      47.004  41.188  28.076  1.00  0.00     0.074 A 
ATOM     72  C   UNL A   1      47.592  40.802  26.803  1.00  0.00     0.031 C 
ATOM     73  C   UNL A   1      47.198  40.673  29.318  1.00  0.00     0.034 A 
BRANCH  60  74
ATOM     74  C   UNL A   1      49.035  36.206  26.744  1.00  0.00     0.023 A 
ATOM     75  C   UNL A   1      48.956  37.179  25.732  1.00  0.00     0.012 A 
ATOM     76  C   UNL A   1      49.827  35.066  26.488  1.00  0.00     0.148 A 
ATOM     77  C   UNL A   1      49.683  37.043  24.544  1.00  0.00     0.002 A 
ATOM     78  C   UNL A   1      50.628  34.987  25.361  1.00  0.00     0.091 A 
ATOM     79  F   UNL A   1      49.698  33.978  27.261  1.00  0.00    -0.205 F 
ATOM     80  C   UNL A   1      50.550  35.966  24.372  1.00  0.00     0.022 A 
BRANCH  78  81
ATOM     81  S   UNL A   1      51.800  33.640  25.192  1.00  0.00     0.127 S 
ATOM     82  O   UNL A   1      50.913  32.493  25.035  1.00  0.00    -0.237 OA
ATOM     83  O   UNL A   1      52.546  34.030  23.995  1.00  0.00    -0.237 OA
ATOM     84  O   UNL A   1      52.585  33.683  26.422  1.00  0.00    -0.744 OA
ENDBRANCH  78  81
ENDBRANCH  60  74
BRANCH  61  85
ATOM     85  C   UNL A   1      43.920  42.669  25.036  1.00  0.00     0.023 A 
ATOM     86  C   UNL A   1      44.571  43.907  25.247  1.00  0.00     0.012 A 
ATOM     87  C   UNL A   1      43.260  42.534  23.805  1.00  0.00     0.148 A 
ATOM     88  C   UNL A   1      44.653  44.893  24.252  1.00  0.00     0.002 A 
ATOM     89  C   UNL A   1      43.374  43.493  22.789  1.00  0.00     0.091 A 
ATOM     90  F   UNL A   1      42.501  41.464  23.608  1.00  0.00    -0.205 F 
ATOM     91  C   UNL A   1      44.085  44.672  23.005  1.00  0.00     0.022 A 
BRANCH  89  92
ATOM     92  S   UNL A   1      42.644  43.197  21.167  1.00  0.00     0.127 S 
ATOM     93  O   UNL A   1      42.797  41.751  20.988  1.00  0.00    -0.237 OA
ATOM     94  O   UNL A   1      41.264  43.631  21.349  1.00  0.00    -0.237 OA
ATOM     95  O   UNL A   1      43.468  43.996  20.267  1.00  0.00    -0.744 OA
ENDBRANCH  89  92
ENDBRANCH  61  85
BRANCH  73  96
ATOM     96  C   UNL A   1      46.501  41.325  30.467  1.00  0.00     0.023 A 
ATOM     97  C   UNL A   1      47.076  42.370  31.213  1.00  0.00     0.012 A 
ATOM     98  C   UNL A   1      45.178  40.934  30.728  1.00  0.00     0.148 A 
ATOM     99  C   UNL A   1      46.336  43.016  32.206  1.00  0.00     0.002 A 
ATOM    100  C   UNL A   1      44.433  41.605  31.685  1.00  0.00     0.091 A 
ATOM    101  F   UNL A   1      44.666  39.922  30.010  1.00  0.00    -0.205 F 
ATOM    102  C   UNL A   1      45.011  42.644  32.432  1.00  0.00     0.022 A 
BRANCH 100 103
ATOM    103  S   UNL A   1      42.694  41.252  31.947  1.00  0.00     0.127 S 
ATOM    104  O   UNL A   1      42.743  40.155  32.911  1.00  0.00    -0.237 OA
ATOM    105  O   UNL A   1      42.203  42.521  32.486  1.00  0.00    -0.237 OA
ATOM    106  O   UNL A   1      42.148  40.906  30.640  1.00  0.00    -0.744 OA
ENDBRANCH 100 103
ENDBRANCH  73  96
ENDBRANCH  47  48
ENDBRANCH  40  42
ENDBRANCH  39  40
ENDBRANCH  38  39
ENDBRANCH   1  38
TORSDOF 20
ENDMDL
MODEL 3
REMARK VINA RESULT:     -11.2      5.458     10.128
REMARK SMILES COc1ccc2c(c1)c(Cc1nc(-c3ccc(C(=O)OCCOC(=O)c4ccc(-c5c6nc(c(-c7cccc(S(=O)(=O)[O-])c7F)c7ccc([nH]7)c(-c7cccc(S(=O)(=O)[O-])c7F)c7nc(c(-c8cccc(S(=O)(=O)[O-])c8F)c8ccc5[nH]8)C=C7)C=C6)cc4)cc3)cs1)c(C)n2C(=O)c1ccc(Cl)cc1
REMARK SMILES IDX 21 1 20 2 18 3 19 4 17 5 14 6 15 7 90 8 16 9 89 10 13 11
REMARK SMILES IDX 11 12 12 13 92 14 91 15 10 16 9 17 3 18 4 19 8 20 5 21 7 22
REMARK SMILES IDX 6 23 95 24 93 25 94 26 2 27 1 28 96 29 97 30 98 31 99 32
REMARK SMILES IDX 104 33 100 34 103 35 101 36 102 37 22 38 23 39 24 40 25 41
REMARK SMILES IDX 26 42 27 43 88 44 28 45 87 46 29 47 30 48 31 49 81 50 32 51
REMARK SMILES IDX 86 52 80 53 82 54 33 55 85 56 79 57 78 58 34 60 66 61 46 62
REMARK SMILES IDX 65 63 47 64 50 65 64 66 83 67 48 68 49 69 63 71 84 72 51 73
REMARK SMILES IDX 35 74 36 75 44 76 37 77 39 78 45 79 38 80 40 81 41 82 42 83
REMARK SMILES IDX 43 84 67 85 68 86 76 87 69 88 71 89 77 90 70 91 72 92 73 93
REMARK SMILES IDX 74 94 75 95 52 96 53 97 61 98 54 99 56 100 62 101 55 102
REMARK SMILES IDX 57 103 58 104 59 105 60 106
REMARK H PARENT 82 59 50 70
REMARK Flexibility Score: inf
ROOT
ATOM      1  C   UNL A   1      40.185  30.349  32.567  1.00  0.00     0.275 C 
ENDROOT
BRANCH   1   2
ATOM      2  O   UNL A   1      39.600  29.955  31.305  1.00  0.00    -0.458 OA
BRANCH   2   3
ATOM      3  C   UNL A   1      38.453  29.227  31.354  1.00  0.00     0.338 C 
ATOM      4  O   UNL A   1      38.158  28.411  32.214  1.00  0.00    -0.246 OA
BRANCH   3   5
ATOM      5  C   UNL A   1      37.531  29.662  30.268  1.00  0.00     0.060 A 
ATOM      6  C   UNL A   1      35.620  30.103  28.246  1.00  0.00     0.001 A 
ATOM      7  C   UNL A   1      36.692  29.234  28.030  1.00  0.00     0.011 A 
ATOM      8  C   UNL A   1      35.571  30.836  29.436  1.00  0.00     0.011 A 
ATOM      9  C   UNL A   1      37.652  29.046  29.024  1.00  0.00     0.016 A 
ATOM     10  C   UNL A   1      36.515  30.603  30.453  1.00  0.00     0.016 A 
BRANCH   6  11
ATOM     11  C   UNL A   1      34.571  30.178  27.245  1.00  0.00     0.081 A 
ATOM     12  C   UNL A   1      33.562  29.519  25.401  1.00  0.00     0.098 A 
ATOM     13  N   UNL A   1      34.746  29.730  25.952  1.00  0.00    -0.241 NA
ATOM     14  S   UNL A   1      32.239  30.242  26.241  1.00  0.00    -0.126 S 
ATOM     15  C   UNL A   1      33.285  30.578  27.558  1.00  0.00     0.095 A 
BRANCH  12  16
ATOM     16  C   UNL A   1      33.311  28.598  24.222  1.00  0.00     0.105 C 
BRANCH  16  17
ATOM     17  C   UNL A   1      32.504  27.399  24.658  1.00  0.00    -0.012 A 
ATOM     18  C   UNL A   1      28.943  27.749  23.513  1.00  0.00     0.119 A 
ATOM     19  C   UNL A   1      28.759  26.386  23.389  1.00  0.00     0.048 A 
ATOM     20  C   UNL A   1      30.134  28.217  24.028  1.00  0.00     0.057 A 
ATOM     21  C   UNL A   1      29.609  25.455  23.994  1.00  0.00     0.031 A 
ATOM     22  C   UNL A   1      31.103  27.287  24.463  1.00  0.00     0.008 A 
ATOM     23  C   UNL A   1      30.790  25.928  24.569  1.00  0.00     0.057 A 
ATOM     24  N   UNL A   1      31.819  25.325  25.300  1.00  0.00    -0.280 N 
ATOM     25  C   UNL A   1      32.940  26.176  25.149  1.00  0.00     0.028 A 
ATOM     26  C   UNL A   1      34.344  25.784  25.464  1.00  0.00     0.065 C 
BRANCH  18  27
ATOM     27  O   UNL A   1      28.033  28.642  23.019  1.00  0.00    -0.497 OA
ATOM     28  C   UNL A   1      26.728  28.333  23.521  1.00  0.00     0.278 C 
ENDBRANCH  18  27
BRANCH  24  29
ATOM     29  C   UNL A   1      31.778  24.126  26.078  1.00  0.00     0.262 C 
ATOM     30  O   UNL A   1      31.272  24.203  27.205  1.00  0.00    -0.268 OA
BRANCH  29  31
ATOM     31  C   UNL A   1      32.190  22.749  25.705  1.00  0.00     0.040 A 
ATOM     32  C   UNL A   1      32.003  22.227  24.423  1.00  0.00     0.015 A 
ATOM     33  C   UNL A   1      33.001  22.050  26.616  1.00  0.00     0.015 A 
ATOM     34  C   UNL A   1      32.550  20.978  24.091  1.00  0.00     0.021 A 
ATOM     35  C   UNL A   1      33.553  20.810  26.281  1.00  0.00     0.021 A 
ATOM     36  C   UNL A   1      33.311  20.271  25.021  1.00  0.00     0.041 A 
ATOM     37  Cl  UNL A   1      33.986  18.741  24.605  1.00  0.00    -0.084 Cl
ENDBRANCH  29  31
ENDBRANCH  24  29
ENDBRANCH  16  17
ENDBRANCH  12  16
ENDBRANCH   6  11
ENDBRANCH   3   5
ENDBRANCH   2   3
ENDBRANCH   1   2
BRANCH   1  38
ATOM     38  C   UNL A   1      40.998  31.638  32.393  1.00  0.00     0.275 C 
BRANCH  38  39
ATOM     39  O   UNL A   1      40.704  32.183  31.098  1.00  0.00    -0.458 OA
BRANCH  39  40
ATOM     40  C   UNL A   1      39.925  33.287  31.090  1.00  0.00     0.338 C 
ATOM     41  O   UNL A   1      38.894  33.456  31.733  1.00  0.00    -0.246 OA
BRANCH  40  42
ATOM     42  C   UNL A   1      40.699  34.357  30.431  1.00  0.00     0.060 A 
ATOM     43  C   UNL A   1      40.353  34.852  29.166  1.00  0.00     0.016 A 
ATOM     44  C   UNL A   1      41.904  34.731  31.025  1.00  0.00     0.016 A 
ATOM     45  C   UNL A   1      41.268  35.624  28.446  1.00  0.00     0.010 A 
ATOM     46  C   UNL A   1      42.805  35.509  30.305  1.00  0.00     0.010 A 
ATOM     47  C   UNL A   1      42.528  35.905  28.987  1.00  0.00    -0.014 A 
BRANCH  47  48
ATOM     48  C   UNL A   1      43.414  36.874  28.318  1.00  0.00     0.031 A 
ATOM     49  C   UNL A   1      44.728  36.249  28.033  1.00  0.00     0.074 A 
ATOM     50  C   UNL A   1      43.202  38.161  27.945  1.00  0.00     0.049 A 
ATOM     51  N   UNL A   1      45.774  36.314  28.791  1.00  0.00    -0.248 NA
ATOM     52  C   UNL A   1      44.843  35.311  26.908  1.00  0.00     0.031 C 
ATOM     53  C   UNL A   1      41.963  38.939  27.973  1.00  0.00     0.029 A 
ATOM     54  N   UNL A   1      44.092  39.055  27.385  1.00  0.00    -0.354 N 
ATOM     55  C   UNL A   1      46.754  35.632  28.088  1.00  0.00     0.074 A 
ATOM     56  C   UNL A   1      46.080  34.845  27.086  1.00  0.00     0.031 C 
ATOM     57  C   UNL A   1      42.135  40.110  27.307  1.00  0.00     0.029 A 
ATOM     58  C   UNL A   1      43.527  40.248  26.907  1.00  0.00     0.049 A 
ATOM     59  H   UNL A   1      45.058  38.868  27.323  1.00  0.00     0.167 HD
ATOM     60  C   UNL A   1      48.050  36.036  28.125  1.00  0.00     0.034 A 
ATOM     61  C   UNL A   1      44.166  41.267  26.262  1.00  0.00     0.034 A 
ATOM     62  C   UNL A   1      48.303  37.032  29.124  1.00  0.00     0.049 A 
ATOM     63  C   UNL A   1      45.548  41.232  26.792  1.00  0.00     0.074 A 
ATOM     64  C   UNL A   1      48.520  37.106  30.480  1.00  0.00     0.029 A 
ATOM     65  N   UNL A   1      48.034  38.297  28.685  1.00  0.00    -0.354 N 
ATOM     66  N   UNL A   1      45.859  41.623  27.997  1.00  0.00    -0.248 NA
ATOM     67  C   UNL A   1      46.629  40.624  26.024  1.00  0.00     0.031 C 
ATOM     68  C   UNL A   1      48.285  38.464  30.856  1.00  0.00     0.029 A 
ATOM     69  C   UNL A   1      47.923  39.180  29.720  1.00  0.00     0.049 A 
ATOM     70  H   UNL A   1      47.932  38.542  27.737  1.00  0.00     0.167 HD
ATOM     71  C   UNL A   1      47.026  40.946  28.268  1.00  0.00     0.074 A 
ATOM     72  C   UNL A   1      47.556  40.535  26.978  1.00  0.00     0.031 C 
ATOM     73  C   UNL A   1      47.269  40.449  29.510  1.00  0.00     0.034 A 
BRANCH  60  74
ATOM     74  C   UNL A   1      48.954  35.926  26.930  1.00  0.00     0.023 A 
ATOM     75  C   UNL A   1      48.866  36.904  25.925  1.00  0.00     0.012 A 
ATOM     76  C   UNL A   1      49.697  34.761  26.640  1.00  0.00     0.148 A 
ATOM     77  C   UNL A   1      49.538  36.749  24.707  1.00  0.00     0.002 A 
ATOM     78  C   UNL A   1      50.448  34.660  25.480  1.00  0.00     0.091 A 
ATOM     79  F   UNL A   1      49.564  33.676  27.415  1.00  0.00    -0.205 F 
ATOM     80  C   UNL A   1      50.361  35.644  24.498  1.00  0.00     0.022 A 
BRANCH  78  81
ATOM     81  S   UNL A   1      51.568  33.276  25.260  1.00  0.00     0.127 S 
ATOM     82  O   UNL A   1      50.689  32.141  25.515  1.00  0.00    -0.237 OA
ATOM     83  O   UNL A   1      51.995  33.444  23.871  1.00  0.00    -0.237 OA
ATOM     84  O   UNL A   1      52.625  33.504  26.239  1.00  0.00    -0.744 OA
ENDBRANCH  78  81
ENDBRANCH  60  74
BRANCH  61  85
ATOM     85  C   UNL A   1      43.827  42.410  25.341  1.00  0.00     0.023 A 
ATOM     86  C   UNL A   1      44.555  43.618  25.449  1.00  0.00     0.012 A 
ATOM     87  C   UNL A   1      43.047  42.275  24.182  1.00  0.00     0.148 A 
ATOM     88  C   UNL A   1      44.590  44.570  24.419  1.00  0.00     0.002 A 
ATOM     89  C   UNL A   1      43.111  43.198  23.130  1.00  0.00     0.091 A 
ATOM     90  F   UNL A   1      42.221  41.241  24.093  1.00  0.00    -0.205 F 
ATOM     91  C   UNL A   1      43.896  44.344  23.239  1.00  0.00     0.022 A 
BRANCH  89  92
ATOM     92  S   UNL A   1      42.216  42.895  21.594  1.00  0.00     0.127 S 
ATOM     93  O   UNL A   1      42.589  44.037  20.756  1.00  0.00    -0.237 OA
ATOM     94  O   UNL A   1      42.768  41.622  21.143  1.00  0.00    -0.237 OA
ATOM     95  O   UNL A   1      40.816  42.892  22.004  1.00  0.00    -0.744 OA
ENDBRANCH  89  92
ENDBRANCH  61  85
BRANCH  73  96
ATOM     96  C   UNL A   1      46.628  41.125  30.677  1.00  0.00     0.023 A 
ATOM     97  C   UNL A   1      47.193  42.247  31.312  1.00  0.00     0.012 A 
ATOM     98  C   UNL A   1      45.360  40.671  31.072  1.00  0.00     0.148 A 
ATOM     99  C   UNL A   1      46.497  42.905  32.328  1.00  0.00     0.002 A 
ATOM    100  C   UNL A   1      44.654  41.352  32.052  1.00  0.00     0.091 A 
ATOM    101  F   UNL A   1      44.858  39.589  30.458  1.00  0.00    -0.205 F 
ATOM    102  C   UNL A   1      45.222  42.467  32.687  1.00  0.00     0.022 A 
BRANCH 100 103
ATOM    103  S   UNL A   1      42.969  40.910  32.481  1.00  0.00     0.127 S 
ATOM    104  O   UNL A   1      42.621  41.938  33.460  1.00  0.00    -0.237 OA
ATOM    105  O   UNL A   1      42.284  41.033  31.194  1.00  0.00    -0.237 OA
ATOM    106  O   UNL A   1      43.026  39.550  33.002  1.00  0.00    -0.744 OA
ENDBRANCH 100 103
ENDBRANCH  73  96
ENDBRANCH  47  48
ENDBRANCH  40  42
ENDBRANCH  39  40
ENDBRANCH  38  39
ENDBRANCH   1  38
TORSDOF 20
ENDMDL
