MODEL 1
REMARK VINA RESULT:     -12.8      0.000      0.000
REMARK SMILES Cc1cccc(S(=O)(=O)Nc2cc(C(=O)OCCOC(=O)c3ccc(-c4c5nc(c(-c6cccc(S(=O)(=O)[O-])c6F)c6ccc([nH]6)c(-c6cccc(S(=O)(=O)[O-])c6F)c6nc(c(-c7cccc(S(=O)(=O)[O-])c7F)c7ccc4[nH]7)C=C6)C=C5)cc3)cnc2N2CCC[C@H](C)C2)c1
REMARK SMILES IDX 17 1 16 2 14 3 15 4 13 5 11 6 12 7 87 8 86 9 85 10 10 11
REMARK SMILES IDX 7 13 8 14 9 15 6 16 1 17 2 18 3 19 95 20 4 21 5 22 88 23
REMARK SMILES IDX 89 24 94 25 90 26 92 27 91 28 93 29 18 30 19 31 20 32 21 33
REMARK SMILES IDX 22 34 23 35 84 36 24 37 83 38 25 39 26 40 27 41 77 42 28 43
REMARK SMILES IDX 82 44 76 45 78 46 29 47 81 48 75 49 74 50 30 52 62 53 42 54
REMARK SMILES IDX 61 55 43 56 46 57 60 58 79 59 44 60 45 61 59 63 80 64 47 65
REMARK SMILES IDX 31 66 32 67 40 68 33 69 35 70 41 71 34 72 36 73 37 74 38 75
REMARK SMILES IDX 39 76 63 77 64 78 72 79 65 80 67 81 73 82 66 83 68 84 69 85
REMARK SMILES IDX 70 86 71 87 48 88 49 89 57 90 50 91 52 92 58 93 51 94 53 95
REMARK SMILES IDX 54 96 55 97 56 98
REMARK H PARENT 10 12 78 51 46 62
REMARK Flexibility Score: inf
ROOT
ATOM      1  C   UNL A   1      40.531  21.621  27.118  1.00  0.00     0.275 C 
ENDROOT
BRANCH   1   2
ATOM      2  O   UNL A   1      39.595  22.094  26.150  1.00  0.00    -0.458 OA
BRANCH   2   3
ATOM      3  C   UNL A   1      38.656  21.252  25.659  1.00  0.00     0.339 C 
ATOM      4  O   UNL A   1      38.813  20.143  25.228  1.00  0.00    -0.246 OA
BRANCH   3   5
ATOM      5  C   UNL A   1      37.383  21.990  25.698  1.00  0.00     0.080 A 
ATOM      6  C   UNL A   1      34.964  22.023  25.872  1.00  0.00     0.092 A 
ATOM      7  C   UNL A   1      36.169  21.322  25.733  1.00  0.00     0.048 A 
ATOM      8  C   UNL A   1      35.015  23.445  25.939  1.00  0.00     0.153 A 
ATOM      9  N   UNL A   1      36.226  24.067  25.828  1.00  0.00    -0.236 NA
ATOM     10  C   UNL A   1      37.373  23.357  25.749  1.00  0.00     0.129 A 
BRANCH   6  11
ATOM     11  N   UNL A   1      33.747  21.285  26.084  1.00  0.00    -0.276 N 
ATOM     12  H   UNL A   1      33.412  21.232  27.009  1.00  0.00     0.180 HD
BRANCH  11  13
ATOM     13  S   UNL A   1      32.848  20.510  24.905  1.00  0.00     0.262 S 
ATOM     14  O   UNL A   1      33.169  21.105  23.624  1.00  0.00    -0.201 OA
ATOM     15  O   UNL A   1      31.496  20.584  25.425  1.00  0.00    -0.201 OA
BRANCH  13  16
ATOM     16  C   UNL A   1      33.282  18.791  24.824  1.00  0.00     0.088 A 
ATOM     17  C   UNL A   1      32.198  15.305  25.910  1.00  0.00     0.044 C 
ATOM     18  C   UNL A   1      32.987  16.441  25.353  1.00  0.00    -0.050 A 
ATOM     19  C   UNL A   1      34.275  16.172  24.905  1.00  0.00     0.003 A 
ATOM     20  C   UNL A   1      32.467  17.749  25.269  1.00  0.00     0.025 A 
ATOM     21  C   UNL A   1      35.066  17.204  24.429  1.00  0.00     0.002 A 
ATOM     22  C   UNL A   1      34.579  18.506  24.387  1.00  0.00     0.022 A 
ENDBRANCH  13  16
ENDBRANCH  11  13
ENDBRANCH   6  11
BRANCH   8  23
ATOM     23  N   UNL A   1      33.940  24.308  26.044  1.00  0.00    -0.355 N 
ATOM     24  C   UNL A   1      32.569  24.063  26.466  1.00  0.00     0.118 C 
ATOM     25  C   UNL A   1      34.108  25.663  25.492  1.00  0.00     0.121 C 
ATOM     26  C   UNL A   1      31.678  24.059  25.215  1.00  0.00     0.022 C 
ATOM     27  C   UNL A   1      33.326  25.741  24.166  1.00  0.00     0.005 C 
ATOM     28  C   UNL A   1      31.852  25.350  24.394  1.00  0.00     0.007 C 
ATOM     29  C   UNL A   1      33.980  24.881  23.078  1.00  0.00     0.009 C 
ENDBRANCH   8  23
ENDBRANCH   3   5
ENDBRANCH   2   3
ENDBRANCH   1   2
BRANCH   1  30
ATOM     30  C   UNL A   1      41.862  21.009  26.645  1.00  0.00     0.275 C 
BRANCH  30  31
ATOM     31  O   UNL A   1      42.513  21.331  25.376  1.00  0.00    -0.458 OA
BRANCH  31  32
ATOM     32  C   UNL A   1      43.349  22.330  25.000  1.00  0.00     0.338 C 
ATOM     33  O   UNL A   1      44.126  22.203  24.065  1.00  0.00    -0.246 OA
BRANCH  32  34
ATOM     34  C   UNL A   1      43.341  23.541  25.826  1.00  0.00     0.060 A 
ATOM     35  C   UNL A   1      44.308  23.777  26.821  1.00  0.00     0.016 A 
ATOM     36  C   UNL A   1      42.369  24.479  25.544  1.00  0.00     0.016 A 
ATOM     37  C   UNL A   1      44.339  24.997  27.512  1.00  0.00     0.010 A 
ATOM     38  C   UNL A   1      42.505  25.719  26.101  1.00  0.00     0.010 A 
ATOM     39  C   UNL A   1      43.409  25.964  27.169  1.00  0.00    -0.014 A 
BRANCH  39  40
ATOM     40  C   UNL A   1      43.055  27.178  27.924  1.00  0.00     0.031 A 
ATOM     41  C   UNL A   1      41.918  28.080  27.622  1.00  0.00     0.074 A 
ATOM     42  C   UNL A   1      43.601  27.095  29.164  1.00  0.00     0.049 A 
ATOM     43  N   UNL A   1      41.212  28.577  28.577  1.00  0.00    -0.248 NA
ATOM     44  C   UNL A   1      41.386  28.447  26.305  1.00  0.00     0.031 C 
ATOM     45  C   UNL A   1      43.184  27.592  30.462  1.00  0.00     0.029 A 
ATOM     46  N   UNL A   1      44.825  26.474  29.457  1.00  0.00    -0.354 N 
ATOM     47  C   UNL A   1      40.132  29.250  28.049  1.00  0.00     0.074 A 
ATOM     48  C   UNL A   1      40.227  29.066  26.624  1.00  0.00     0.031 C 
ATOM     49  C   UNL A   1      44.254  27.586  31.285  1.00  0.00     0.029 A 
ATOM     50  C   UNL A   1      45.409  27.234  30.467  1.00  0.00     0.049 A 
ATOM     51  H   UNL A   1      45.195  25.666  29.034  1.00  0.00     0.167 HD
ATOM     52  C   UNL A   1      39.331  29.896  28.938  1.00  0.00     0.034 A 
ATOM     53  C   UNL A   1      46.406  28.075  30.046  1.00  0.00     0.034 A 
ATOM     54  C   UNL A   1      40.190  30.315  30.054  1.00  0.00     0.049 A 
ATOM     55  C   UNL A   1      45.954  29.523  30.142  1.00  0.00     0.074 A 
ATOM     56  C   UNL A   1      40.472  29.842  31.320  1.00  0.00     0.029 A 
ATOM     57  N   UNL A   1      41.188  31.230  29.739  1.00  0.00    -0.354 N 
ATOM     58  N   UNL A   1      44.709  29.909  30.246  1.00  0.00    -0.248 NA
ATOM     59  C   UNL A   1      46.882  30.642  30.227  1.00  0.00     0.031 C 
ATOM     60  C   UNL A   1      41.759  30.359  31.680  1.00  0.00     0.029 A 
ATOM     61  C   UNL A   1      42.227  31.167  30.650  1.00  0.00     0.049 A 
ATOM     62  H   UNL A   1      41.160  31.842  28.969  1.00  0.00     0.167 HD
ATOM     63  C   UNL A   1      44.634  31.265  30.373  1.00  0.00     0.074 A 
ATOM     64  C   UNL A   1      46.033  31.669  30.407  1.00  0.00     0.031 C 
ATOM     65  C   UNL A   1      43.443  31.946  30.404  1.00  0.00     0.034 A 
BRANCH  52  66
ATOM     66  C   UNL A   1      37.839  30.181  28.917  1.00  0.00     0.023 A 
ATOM     67  C   UNL A   1      37.062  29.290  28.131  1.00  0.00     0.012 A 
ATOM     68  C   UNL A   1      37.168  31.329  29.407  1.00  0.00     0.148 A 
ATOM     69  C   UNL A   1      35.729  29.533  27.789  1.00  0.00     0.002 A 
ATOM     70  C   UNL A   1      35.819  31.570  29.067  1.00  0.00     0.091 A 
ATOM     71  F   UNL A   1      37.838  32.197  30.173  1.00  0.00    -0.205 F 
ATOM     72  C   UNL A   1      35.112  30.680  28.247  1.00  0.00     0.022 A 
BRANCH  70  73
ATOM     73  S   UNL A   1      34.869  33.021  29.571  1.00  0.00     0.127 S 
ATOM     74  O   UNL A   1      33.810  33.058  28.559  1.00  0.00    -0.237 OA
ATOM     75  O   UNL A   1      34.408  32.654  30.910  1.00  0.00    -0.237 OA
ATOM     76  O   UNL A   1      35.785  34.150  29.538  1.00  0.00    -0.744 OA
ENDBRANCH  70  73
ENDBRANCH  52  66
BRANCH  53  77
ATOM     77  C   UNL A   1      47.231  27.436  28.934  1.00  0.00     0.023 A 
ATOM     78  C   UNL A   1      47.942  26.245  29.276  1.00  0.00     0.012 A 
ATOM     79  C   UNL A   1      47.014  27.688  27.566  1.00  0.00     0.148 A 
ATOM     80  C   UNL A   1      48.243  25.266  28.323  1.00  0.00     0.002 A 
ATOM     81  C   UNL A   1      47.373  26.725  26.609  1.00  0.00     0.091 A 
ATOM     82  F   UNL A   1      46.419  28.834  27.206  1.00  0.00    -0.205 F 
ATOM     83  C   UNL A   1      47.934  25.495  26.990  1.00  0.00     0.022 A 
BRANCH  81  84
ATOM     84  S   UNL A   1      47.037  26.984  24.857  1.00  0.00     0.127 S 
ATOM     85  O   UNL A   1      47.872  28.144  24.563  1.00  0.00    -0.237 OA
ATOM     86  O   UNL A   1      47.491  25.737  24.240  1.00  0.00    -0.237 OA
ATOM     87  O   UNL A   1      45.596  27.189  24.789  1.00  0.00    -0.744 OA
ENDBRANCH  81  84
ENDBRANCH  53  77
BRANCH  65  88
ATOM     88  C   UNL A   1      43.331  33.441  30.146  1.00  0.00     0.023 A 
ATOM     89  C   UNL A   1      43.278  34.370  31.203  1.00  0.00     0.012 A 
ATOM     90  C   UNL A   1      43.452  33.984  28.841  1.00  0.00     0.148 A 
ATOM     91  C   UNL A   1      43.229  35.748  30.988  1.00  0.00     0.002 A 
ATOM     92  C   UNL A   1      43.559  35.359  28.644  1.00  0.00     0.091 A 
ATOM     93  F   UNL A   1      43.462  33.176  27.771  1.00  0.00    -0.205 F 
ATOM     94  C   UNL A   1      43.392  36.246  29.708  1.00  0.00     0.022 A 
BRANCH  92  95
ATOM     95  S   UNL A   1      44.109  36.028  27.068  1.00  0.00     0.127 S 
ATOM     96  O   UNL A   1      42.919  35.869  26.238  1.00  0.00    -0.237 OA
ATOM     97  O   UNL A   1      44.433  37.414  27.413  1.00  0.00    -0.237 OA
ATOM     98  O   UNL A   1      45.265  35.221  26.705  1.00  0.00    -0.744 OA
ENDBRANCH  92  95
ENDBRANCH  65  88
ENDBRANCH  39  40
ENDBRANCH  32  34
ENDBRANCH  31  32
ENDBRANCH  30  31
ENDBRANCH   1  30
TORSDOF 18
ENDMDL
MODEL 2
REMARK VINA RESULT:     -12.6      4.365     10.186
REMARK SMILES Cc1cccc(S(=O)(=O)Nc2cc(C(=O)OCCOC(=O)c3ccc(-c4c5nc(c(-c6cccc(S(=O)(=O)[O-])c6F)c6ccc([nH]6)c(-c6cccc(S(=O)(=O)[O-])c6F)c6nc(c(-c7cccc(S(=O)(=O)[O-])c7F)c7ccc4[nH]7)C=C6)C=C5)cc3)cnc2N2CCC[C@H](C)C2)c1
REMARK SMILES IDX 17 1 16 2 14 3 15 4 13 5 11 6 12 7 87 8 86 9 85 10 10 11
REMARK SMILES IDX 7 13 8 14 9 15 6 16 1 17 2 18 3 19 95 20 4 21 5 22 88 23
REMARK SMILES IDX 89 24 94 25 90 26 92 27 91 28 93 29 18 30 19 31 20 32 21 33
REMARK SMILES IDX 22 34 23 35 84 36 24 37 83 38 25 39 26 40 27 41 77 42 28 43
REMARK SMILES IDX 82 44 76 45 78 46 29 47 81 48 75 49 74 50 30 52 62 53 42 54
REMARK SMILES IDX 61 55 43 56 46 57 60 58 79 59 44 60 45 61 59 63 80 64 47 65
REMARK SMILES IDX 31 66 32 67 40 68 33 69 35 70 41 71 34 72 36 73 37 74 38 75
REMARK SMILES IDX 39 76 63 77 64 78 72 79 65 80 67 81 73 82 66 83 68 84 69 85
REMARK SMILES IDX 70 86 71 87 48 88 49 89 57 90 50 91 52 92 58 93 51 94 53 95
REMARK SMILES IDX 54 96 55 97 56 98
REMARK H PARENT 10 12 78 51 46 62
REMARK Flexibility Score: inf
ROOT
ATOM      1  C   UNL A   1      33.234  32.846  28.171  1.00  0.00     0.275 C 
ENDROOT
BRANCH   1   2
ATOM      2  O   UNL A   1      33.188  31.787  27.216  1.00  0.00    -0.458 OA
BRANCH   2   3
ATOM      3  C   UNL A   1      34.126  30.812  27.251  1.00  0.00     0.339 C 
ATOM      4  O   UNL A   1      35.258  30.892  27.642  1.00  0.00    -0.246 OA
BRANCH   3   5
ATOM      5  C   UNL A   1      33.502  29.622  26.650  1.00  0.00     0.080 A 
ATOM      6  C   UNL A   1      32.358  28.542  24.803  1.00  0.00     0.092 A 
ATOM      7  C   UNL A   1      32.862  29.693  25.422  1.00  0.00     0.048 A 
ATOM      8  C   UNL A   1      32.485  27.299  25.488  1.00  0.00     0.153 A 
ATOM      9  N   UNL A   1      33.057  27.284  26.728  1.00  0.00    -0.236 NA
ATOM     10  C   UNL A   1      33.581  28.406  27.270  1.00  0.00     0.129 A 
BRANCH   6  11
ATOM     11  N   UNL A   1      31.864  28.632  23.455  1.00  0.00    -0.276 N 
ATOM     12  H   UNL A   1      32.521  28.845  22.752  1.00  0.00     0.180 HD
BRANCH  11  13
ATOM     13  S   UNL A   1      30.279  28.406  22.970  1.00  0.00     0.262 S 
ATOM     14  O   UNL A   1      29.585  27.677  24.012  1.00  0.00    -0.201 OA
ATOM     15  O   UNL A   1      30.422  27.829  21.647  1.00  0.00    -0.201 OA
BRANCH  13  16
ATOM     16  C   UNL A   1      29.463  29.969  22.771  1.00  0.00     0.088 A 
ATOM     17  C   UNL A   1      27.953  32.330  20.191  1.00  0.00     0.044 C 
ATOM     18  C   UNL A   1      28.468  31.759  21.469  1.00  0.00    -0.050 A 
ATOM     19  C   UNL A   1      28.504  32.595  22.579  1.00  0.00     0.003 A 
ATOM     20  C   UNL A   1      28.906  30.423  21.574  1.00  0.00     0.025 A 
ATOM     21  C   UNL A   1      29.023  32.128  23.774  1.00  0.00     0.002 A 
ATOM     22  C   UNL A   1      29.502  30.826  23.876  1.00  0.00     0.022 A 
ENDBRANCH  13  16
ENDBRANCH  11  13
ENDBRANCH   6  11
BRANCH   8  23
ATOM     23  N   UNL A   1      32.027  26.067  25.059  1.00  0.00    -0.355 N 
ATOM     24  C   UNL A   1      31.052  25.163  25.652  1.00  0.00     0.118 C 
ATOM     25  C   UNL A   1      32.728  25.446  23.923  1.00  0.00     0.121 C 
ATOM     26  C   UNL A   1      31.813  23.991  26.289  1.00  0.00     0.022 C 
ATOM     27  C   UNL A   1      33.610  24.306  24.468  1.00  0.00     0.005 C 
ATOM     28  C   UNL A   1      32.754  23.311  25.277  1.00  0.00     0.007 C 
ATOM     29  C   UNL A   1      34.782  24.849  25.294  1.00  0.00     0.009 C 
ENDBRANCH   8  23
ENDBRANCH   3   5
ENDBRANCH   2   3
ENDBRANCH   1   2
BRANCH   1  30
ATOM     30  C   UNL A   1      34.268  33.973  28.001  1.00  0.00     0.275 C 
BRANCH  30  31
ATOM     31  O   UNL A   1      35.245  34.357  29.019  1.00  0.00    -0.458 OA
BRANCH  31  32
ATOM     32  C   UNL A   1      35.484  33.910  30.277  1.00  0.00     0.338 C 
ATOM     33  O   UNL A   1      34.916  34.384  31.249  1.00  0.00    -0.246 OA
BRANCH  32  34
ATOM     34  C   UNL A   1      36.526  32.890  30.425  1.00  0.00     0.060 A 
ATOM     35  C   UNL A   1      36.579  32.027  31.535  1.00  0.00     0.016 A 
ATOM     36  C   UNL A   1      37.430  32.769  29.389  1.00  0.00     0.016 A 
ATOM     37  C   UNL A   1      37.519  30.988  31.588  1.00  0.00     0.010 A 
ATOM     38  C   UNL A   1      38.229  31.662  29.371  1.00  0.00     0.010 A 
ATOM     39  C   UNL A   1      38.371  30.824  30.509  1.00  0.00    -0.014 A 
BRANCH  39  40
ATOM     40  C   UNL A   1      39.602  30.018  30.451  1.00  0.00     0.031 A 
ATOM     41  C   UNL A   1      39.668  28.561  30.185  1.00  0.00     0.074 A 
ATOM     42  C   UNL A   1      40.652  30.844  30.209  1.00  0.00     0.049 A 
ATOM     43  N   UNL A   1      40.595  28.079  29.434  1.00  0.00    -0.248 NA
ATOM     44  C   UNL A   1      38.719  27.526  30.610  1.00  0.00     0.031 C 
ATOM     45  C   UNL A   1      41.908  30.664  29.501  1.00  0.00     0.029 A 
ATOM     46  N   UNL A   1      40.754  32.164  30.674  1.00  0.00    -0.354 N 
ATOM     47  C   UNL A   1      40.359  26.739  29.214  1.00  0.00     0.074 A 
ATOM     48  C   UNL A   1      39.122  26.453  29.892  1.00  0.00     0.031 C 
ATOM     49  C   UNL A   1      42.756  31.643  29.883  1.00  0.00     0.029 A 
ATOM     50  C   UNL A   1      42.100  32.366  30.967  1.00  0.00     0.049 A 
ATOM     51  H   UNL A   1      40.022  32.815  30.772  1.00  0.00     0.167 HD
ATOM     52  C   UNL A   1      41.300  26.072  28.494  1.00  0.00     0.034 A 
ATOM     53  C   UNL A   1      42.409  32.307  32.301  1.00  0.00     0.034 A 
ATOM     54  C   UNL A   1      42.587  26.720  28.778  1.00  0.00     0.049 A 
ATOM     55  C   UNL A   1      43.224  31.059  32.603  1.00  0.00     0.074 A 
ATOM     56  C   UNL A   1      43.392  27.646  28.145  1.00  0.00     0.029 A 
ATOM     57  N   UNL A   1      43.025  26.648  30.096  1.00  0.00    -0.354 N 
ATOM     58  N   UNL A   1      43.307  30.016  31.817  1.00  0.00    -0.248 NA
ATOM     59  C   UNL A   1      44.085  30.935  33.769  1.00  0.00     0.031 C 
ATOM     60  C   UNL A   1      44.200  28.257  29.160  1.00  0.00     0.029 A 
ATOM     61  C   UNL A   1      43.906  27.672  30.385  1.00  0.00     0.049 A 
ATOM     62  H   UNL A   1      42.743  25.957  30.738  1.00  0.00     0.167 HD
ATOM     63  C   UNL A   1      44.160  29.090  32.337  1.00  0.00     0.074 A 
ATOM     64  C   UNL A   1      44.661  29.741  33.540  1.00  0.00     0.031 C 
ATOM     65  C   UNL A   1      44.361  27.857  31.766  1.00  0.00     0.034 A 
BRANCH  52  66
ATOM     66  C   UNL A   1      41.182  24.895  27.541  1.00  0.00     0.023 A 
ATOM     67  C   UNL A   1      39.892  24.308  27.458  1.00  0.00     0.012 A 
ATOM     68  C   UNL A   1      42.230  24.193  26.894  1.00  0.00     0.148 A 
ATOM     69  C   UNL A   1      39.647  23.080  26.839  1.00  0.00     0.002 A 
ATOM     70  C   UNL A   1      41.980  22.956  26.263  1.00  0.00     0.091 A 
ATOM     71  F   UNL A   1      43.466  24.705  26.916  1.00  0.00    -0.205 F 
ATOM     72  C   UNL A   1      40.694  22.398  26.252  1.00  0.00     0.022 A 
BRANCH  70  73
ATOM     73  S   UNL A   1      43.234  21.933  25.461  1.00  0.00     0.127 S 
ATOM     74  O   UNL A   1      43.402  22.610  24.172  1.00  0.00    -0.237 OA
ATOM     75  O   UNL A   1      44.379  22.063  26.362  1.00  0.00    -0.237 OA
ATOM     76  O   UNL A   1      42.684  20.589  25.377  1.00  0.00    -0.744 OA
ENDBRANCH  70  73
ENDBRANCH  52  66
BRANCH  53  77
ATOM     77  C   UNL A   1      41.296  32.912  33.151  1.00  0.00     0.023 A 
ATOM     78  C   UNL A   1      40.701  34.112  32.656  1.00  0.00     0.012 A 
ATOM     79  C   UNL A   1      40.572  32.181  34.112  1.00  0.00     0.148 A 
ATOM     80  C   UNL A   1      39.379  34.458  32.954  1.00  0.00     0.002 A 
ATOM     81  C   UNL A   1      39.265  32.568  34.450  1.00  0.00     0.091 A 
ATOM     82  F   UNL A   1      41.134  31.092  34.655  1.00  0.00    -0.205 F 
ATOM     83  C   UNL A   1      38.650  33.669  33.833  1.00  0.00     0.022 A 
BRANCH  81  84
ATOM     84  S   UNL A   1      38.284  31.609  35.619  1.00  0.00     0.127 S 
ATOM     85  O   UNL A   1      38.222  30.308  34.958  1.00  0.00    -0.237 OA
ATOM     86  O   UNL A   1      39.094  31.633  36.837  1.00  0.00    -0.237 OA
ATOM     87  O   UNL A   1      37.028  32.341  35.727  1.00  0.00    -0.744 OA
ENDBRANCH  81  84
ENDBRANCH  53  77
BRANCH  65  88
ATOM     88  C   UNL A   1      44.975  26.683  32.512  1.00  0.00     0.023 A 
ATOM     89  C   UNL A   1      46.357  26.417  32.458  1.00  0.00     0.012 A 
ATOM     90  C   UNL A   1      44.225  25.908  33.433  1.00  0.00     0.148 A 
ATOM     91  C   UNL A   1      46.949  25.377  33.177  1.00  0.00     0.002 A 
ATOM     92  C   UNL A   1      44.847  24.977  34.261  1.00  0.00     0.091 A 
ATOM     93  F   UNL A   1      42.895  26.060  33.519  1.00  0.00    -0.205 F 
ATOM     94  C   UNL A   1      46.198  24.669  34.099  1.00  0.00     0.022 A 
BRANCH  92  95
ATOM     95  S   UNL A   1      43.993  24.291  35.688  1.00  0.00     0.127 S 
ATOM     96  O   UNL A   1      45.062  23.555  36.357  1.00  0.00    -0.237 OA
ATOM     97  O   UNL A   1      43.547  25.495  36.394  1.00  0.00    -0.237 OA
ATOM     98  O   UNL A   1      42.910  23.496  35.127  1.00  0.00    -0.744 OA
ENDBRANCH  92  95
ENDBRANCH  65  88
ENDBRANCH  39  40
ENDBRANCH  32  34
ENDBRANCH  31  32
ENDBRANCH  30  31
ENDBRANCH   1  30
TORSDOF 18
ENDMDL
MODEL 3
REMARK VINA RESULT:     -12.5      5.174      8.137
REMARK SMILES Cc1cccc(S(=O)(=O)Nc2cc(C(=O)OCCOC(=O)c3ccc(-c4c5nc(c(-c6cccc(S(=O)(=O)[O-])c6F)c6ccc([nH]6)c(-c6cccc(S(=O)(=O)[O-])c6F)c6nc(c(-c7cccc(S(=O)(=O)[O-])c7F)c7ccc4[nH]7)C=C6)C=C5)cc3)cnc2N2CCC[C@H](C)C2)c1
REMARK SMILES IDX 17 1 16 2 14 3 15 4 13 5 11 6 12 7 87 8 86 9 85 10 10 11
REMARK SMILES IDX 7 13 8 14 9 15 6 16 1 17 2 18 3 19 95 20 4 21 5 22 88 23
REMARK SMILES IDX 89 24 94 25 90 26 92 27 91 28 93 29 18 30 19 31 20 32 21 33
REMARK SMILES IDX 22 34 23 35 84 36 24 37 83 38 25 39 26 40 27 41 77 42 28 43
REMARK SMILES IDX 82 44 76 45 78 46 29 47 81 48 75 49 74 50 30 52 62 53 42 54
REMARK SMILES IDX 61 55 43 56 46 57 60 58 79 59 44 60 45 61 59 63 80 64 47 65
REMARK SMILES IDX 31 66 32 67 40 68 33 69 35 70 41 71 34 72 36 73 37 74 38 75
REMARK SMILES IDX 39 76 63 77 64 78 72 79 65 80 67 81 73 82 66 83 68 84 69 85
REMARK SMILES IDX 70 86 71 87 48 88 49 89 57 90 50 91 52 92 58 93 51 94 53 95
REMARK SMILES IDX 54 96 55 97 56 98
REMARK H PARENT 10 12 78 51 46 62
REMARK Flexibility Score: inf
ROOT
ATOM      1  C   UNL A   1      47.781  30.160  28.750  1.00  0.00     0.275 C 
ENDROOT
BRANCH   1   2
ATOM      2  O   UNL A   1      47.090  29.026  29.271  1.00  0.00    -0.458 OA
BRANCH   2   3
ATOM      3  C   UNL A   1      47.356  27.794  28.776  1.00  0.00     0.339 C 
ATOM      4  O   UNL A   1      48.425  27.331  28.487  1.00  0.00    -0.246 OA
BRANCH   3   5
ATOM      5  C   UNL A   1      46.053  27.134  28.597  1.00  0.00     0.080 A 
ATOM      6  C   UNL A   1      44.727  25.236  27.873  1.00  0.00     0.092 A 
ATOM      7  C   UNL A   1      45.952  25.911  27.953  1.00  0.00     0.048 A 
ATOM      8  C   UNL A   1      43.577  25.859  28.437  1.00  0.00     0.153 A 
ATOM      9  N   UNL A   1      43.706  27.098  28.998  1.00  0.00    -0.236 NA
ATOM     10  C   UNL A   1      44.913  27.695  29.105  1.00  0.00     0.129 A 
BRANCH   6  11
ATOM     11  N   UNL A   1      44.701  23.893  27.358  1.00  0.00    -0.276 N 
ATOM     12  H   UNL A   1      44.299  23.202  27.933  1.00  0.00     0.180 HD
BRANCH  11  13
ATOM     13  S   UNL A   1      45.290  23.397  25.872  1.00  0.00     0.262 S 
ATOM     14  O   UNL A   1      46.732  23.296  25.966  1.00  0.00    -0.201 OA
ATOM     15  O   UNL A   1      44.683  24.338  24.950  1.00  0.00    -0.201 OA
BRANCH  13  16
ATOM     16  C   UNL A   1      44.664  21.788  25.462  1.00  0.00     0.088 A 
ATOM     17  C   UNL A   1      41.907  19.282  26.256  1.00  0.00     0.044 C 
ATOM     18  C   UNL A   1      43.142  19.913  25.708  1.00  0.00    -0.050 A 
ATOM     19  C   UNL A   1      44.000  19.111  24.965  1.00  0.00     0.003 A 
ATOM     20  C   UNL A   1      43.450  21.273  25.920  1.00  0.00     0.025 A 
ATOM     21  C   UNL A   1      45.186  19.638  24.480  1.00  0.00     0.002 A 
ATOM     22  C   UNL A   1      45.521  20.966  24.725  1.00  0.00     0.022 A 
ENDBRANCH  13  16
ENDBRANCH  11  13
ENDBRANCH   6  11
BRANCH   8  23
ATOM     23  N   UNL A   1      42.283  25.370  28.431  1.00  0.00    -0.355 N 
ATOM     24  C   UNL A   1      41.789  24.007  28.300  1.00  0.00     0.118 C 
ATOM     25  C   UNL A   1      41.191  26.355  28.371  1.00  0.00     0.121 C 
ATOM     26  C   UNL A   1      41.224  23.839  26.881  1.00  0.00     0.022 C 
ATOM     27  C   UNL A   1      40.610  26.342  26.944  1.00  0.00     0.005 C 
ATOM     28  C   UNL A   1      40.168  24.914  26.563  1.00  0.00     0.007 C 
ATOM     29  C   UNL A   1      41.602  26.919  25.928  1.00  0.00     0.009 C 
ENDBRANCH   8  23
ENDBRANCH   3   5
ENDBRANCH   2   3
ENDBRANCH   1   2
BRANCH   1  30
ATOM     30  C   UNL A   1      47.658  30.498  27.253  1.00  0.00     0.275 C 
BRANCH  30  31
ATOM     31  O   UNL A   1      46.435  30.336  26.469  1.00  0.00    -0.458 OA
BRANCH  31  32
ATOM     32  C   UNL A   1      45.357  31.134  26.273  1.00  0.00     0.338 C 
ATOM     33  O   UNL A   1      45.336  31.985  25.396  1.00  0.00    -0.246 OA
BRANCH  32  34
ATOM     34  C   UNL A   1      44.249  30.989  27.222  1.00  0.00     0.060 A 
ATOM     35  C   UNL A   1      43.156  30.138  26.975  1.00  0.00     0.016 A 
ATOM     36  C   UNL A   1      44.353  31.685  28.409  1.00  0.00     0.016 A 
ATOM     37  C   UNL A   1      42.173  29.935  27.954  1.00  0.00     0.010 A 
ATOM     38  C   UNL A   1      43.486  31.358  29.412  1.00  0.00     0.010 A 
ATOM     39  C   UNL A   1      42.325  30.575  29.172  1.00  0.00    -0.014 A 
BRANCH  39  40
ATOM     40  C   UNL A   1      41.312  30.754  30.226  1.00  0.00     0.031 A 
ATOM     41  C   UNL A   1      40.329  31.862  30.298  1.00  0.00     0.074 A 
ATOM     42  C   UNL A   1      41.097  29.558  30.831  1.00  0.00     0.049 A 
ATOM     43  N   UNL A   1      39.117  31.632  30.665  1.00  0.00    -0.248 NA
ATOM     44  C   UNL A   1      40.521  33.261  29.904  1.00  0.00     0.031 C 
ATOM     45  C   UNL A   1      39.929  28.961  31.452  1.00  0.00     0.029 A 
ATOM     46  N   UNL A   1      42.079  28.575  31.026  1.00  0.00    -0.354 N 
ATOM     47  C   UNL A   1      38.363  32.774  30.506  1.00  0.00     0.074 A 
ATOM     48  C   UNL A   1      39.259  33.747  29.939  1.00  0.00     0.031 C 
ATOM     49  C   UNL A   1      40.337  27.944  32.241  1.00  0.00     0.029 A 
ATOM     50  C   UNL A   1      41.796  27.987  32.256  1.00  0.00     0.049 A 
ATOM     51  H   UNL A   1      42.817  28.347  30.416  1.00  0.00     0.167 HD
ATOM     52  C   UNL A   1      37.071  32.707  30.925  1.00  0.00     0.034 A 
ATOM     53  C   UNL A   1      42.596  28.406  33.287  1.00  0.00     0.034 A 
ATOM     54  C   UNL A   1      37.040  31.762  32.049  1.00  0.00     0.049 A 
ATOM     55  C   UNL A   1      41.799  29.252  34.267  1.00  0.00     0.074 A 
ATOM     56  C   UNL A   1      36.704  30.433  32.219  1.00  0.00     0.029 A 
ATOM     57  N   UNL A   1      37.764  32.135  33.176  1.00  0.00    -0.354 N 
ATOM     58  N   UNL A   1      40.647  29.812  34.002  1.00  0.00    -0.248 NA
ATOM     59  C   UNL A   1      42.196  29.449  35.653  1.00  0.00     0.031 C 
ATOM     60  C   UNL A   1      37.399  29.974  33.386  1.00  0.00     0.029 A 
ATOM     61  C   UNL A   1      38.115  31.033  33.932  1.00  0.00     0.049 A 
ATOM     62  H   UNL A   1      37.996  33.064  33.405  1.00  0.00     0.167 HD
ATOM     63  C   UNL A   1      40.159  30.453  35.102  1.00  0.00     0.074 A 
ATOM     64  C   UNL A   1      41.149  30.148  36.126  1.00  0.00     0.031 C 
ATOM     65  C   UNL A   1      39.012  31.206  35.078  1.00  0.00     0.034 A 
BRANCH  52  66
ATOM     66  C   UNL A   1      35.817  33.397  30.416  1.00  0.00     0.023 A 
ATOM     67  C   UNL A   1      35.648  33.388  29.007  1.00  0.00     0.012 A 
ATOM     68  C   UNL A   1      34.919  34.214  31.147  1.00  0.00     0.148 A 
ATOM     69  C   UNL A   1      34.705  34.176  28.343  1.00  0.00     0.002 A 
ATOM     70  C   UNL A   1      33.961  35.004  30.476  1.00  0.00     0.091 A 
ATOM     71  F   UNL A   1      35.010  34.249  32.482  1.00  0.00    -0.205 F 
ATOM     72  C   UNL A   1      33.870  34.994  29.077  1.00  0.00     0.022 A 
BRANCH  70  73
ATOM     73  S   UNL A   1      32.804  36.133  31.282  1.00  0.00     0.127 S 
ATOM     74  O   UNL A   1      31.901  36.481  30.181  1.00  0.00    -0.237 OA
ATOM     75  O   UNL A   1      32.199  35.290  32.313  1.00  0.00    -0.237 OA
ATOM     76  O   UNL A   1      33.593  37.241  31.796  1.00  0.00    -0.744 OA
ENDBRANCH  70  73
ENDBRANCH  52  66
BRANCH  53  77
ATOM     77  C   UNL A   1      44.026  28.640  32.813  1.00  0.00     0.023 A 
ATOM     78  C   UNL A   1      44.500  29.986  32.869  1.00  0.00     0.012 A 
ATOM     79  C   UNL A   1      44.991  27.619  32.730  1.00  0.00     0.148 A 
ATOM     80  C   UNL A   1      45.857  30.285  33.032  1.00  0.00     0.002 A 
ATOM     81  C   UNL A   1      46.356  27.932  32.836  1.00  0.00     0.091 A 
ATOM     82  F   UNL A   1      44.580  26.350  32.598  1.00  0.00    -0.205 F 
ATOM     83  C   UNL A   1      46.785  29.253  33.041  1.00  0.00     0.022 A 
BRANCH  81  84
ATOM     84  S   UNL A   1      47.612  26.639  32.811  1.00  0.00     0.127 S 
ATOM     85  O   UNL A   1      48.839  27.419  32.680  1.00  0.00    -0.237 OA
ATOM     86  O   UNL A   1      47.445  25.984  34.109  1.00  0.00    -0.237 OA
ATOM     87  O   UNL A   1      47.251  25.803  31.674  1.00  0.00    -0.744 OA
ENDBRANCH  81  84
ENDBRANCH  53  77
BRANCH  65  88
ATOM     88  C   UNL A   1      38.665  32.232  36.146  1.00  0.00     0.023 A 
ATOM     89  C   UNL A   1      37.944  31.877  37.303  1.00  0.00     0.012 A 
ATOM     90  C   UNL A   1      39.198  33.546  36.120  1.00  0.00     0.148 A 
ATOM     91  C   UNL A   1      37.662  32.791  38.320  1.00  0.00     0.002 A 
ATOM     92  C   UNL A   1      39.045  34.404  37.206  1.00  0.00     0.091 A 
ATOM     93  F   UNL A   1      39.859  33.986  35.038  1.00  0.00    -0.205 F 
ATOM     94  C   UNL A   1      38.232  34.051  38.284  1.00  0.00     0.022 A 
BRANCH  92  95
ATOM     95  S   UNL A   1      40.038  35.896  37.354  1.00  0.00     0.127 S 
ATOM     96  O   UNL A   1      39.717  36.599  36.116  1.00  0.00    -0.237 OA
ATOM     97  O   UNL A   1      39.496  36.514  38.566  1.00  0.00    -0.237 OA
ATOM     98  O   UNL A   1      41.407  35.419  37.493  1.00  0.00    -0.744 OA
ENDBRANCH  92  95
ENDBRANCH  65  88
ENDBRANCH  39  40
ENDBRANCH  32  34
ENDBRANCH  31  32
ENDBRANCH  30  31
ENDBRANCH   1  30
TORSDOF 18
ENDMDL
