MODEL 1
REMARK VINA RESULT:     -11.7      0.000      0.000
REMARK SMILES Cc1ncsc1[C@@H]1[NH2+][C@H](C(=O)OCCOC(=O)c2ccc(-c3c4nc(c(-c5cccc(S(=O)(=O)[O-])c5F)c5ccc([nH]5)c(-c5cccc(S(=O)(=O)[O-])c5F)c5nc(c(-c6cccc(S(=O)(=O)[O-])c6F)c6ccc3[nH]6)C=C5)C=C4)cc2)C(C)(C)S1
REMARK SMILES IDX 14 1 13 2 12 3 10 4 11 5 9 6 7 7 8 8 84 9 81 12 82 13 83 14
REMARK SMILES IDX 6 15 1 16 2 17 3 18 4 19 5 20 15 21 16 22 17 23 18 24 19 25
REMARK SMILES IDX 80 26 20 27 79 28 21 29 22 30 23 31 73 32 24 33 78 34 72 35
REMARK SMILES IDX 74 36 25 37 77 38 71 39 70 40 26 42 58 43 38 44 57 45 39 46
REMARK SMILES IDX 42 47 56 48 75 49 40 50 41 51 55 53 76 54 43 55 27 56 28 57
REMARK SMILES IDX 36 58 29 59 31 60 37 61 30 62 32 63 33 64 34 65 35 66 59 67
REMARK SMILES IDX 60 68 68 69 61 70 63 71 69 72 62 73 64 74 65 75 66 76 67 77
REMARK SMILES IDX 44 78 45 79 53 80 46 81 48 82 54 83 47 84 49 85 50 86 51 87
REMARK SMILES IDX 52 88
REMARK H PARENT 8 10 8 11 74 41 42 52
REMARK Flexibility Score: inf
ROOT
ATOM      1  C   UNL A   1      31.566  29.463  27.163  1.00  0.00     0.275 C 
ENDROOT
BRANCH   1   2
ATOM      2  C   UNL A   1      31.898  27.989  27.440  1.00  0.00     0.274 C 
BRANCH   2   3
ATOM      3  O   UNL A   1      30.919  27.061  26.915  1.00  0.00    -0.458 OA
BRANCH   3   4
ATOM      4  C   UNL A   1      31.505  25.953  26.367  1.00  0.00     0.366 C 
ATOM      5  O   UNL A   1      32.689  25.920  26.112  1.00  0.00    -0.245 OA
BRANCH   4   6
ATOM      6  C   UNL A   1      30.502  24.820  26.068  1.00  0.00     0.310 C 
ATOM      7  C   UNL A   1      30.884  24.193  23.732  1.00  0.00     0.286 C 
ATOM      8  N   UNL A   1      29.986  24.923  24.656  1.00  0.00    -0.318 N 
ATOM      9  S   UNL A   1      31.767  22.930  24.718  1.00  0.00    -0.080 SA
ATOM     10  H   UNL A   1      29.051  24.519  24.607  1.00  0.00     0.348 HD
ATOM     11  H   UNL A   1      29.953  25.905  24.382  1.00  0.00     0.348 HD
ATOM     12  C   UNL A   1      31.011  23.388  26.314  1.00  0.00     0.079 C 
ATOM     13  C   UNL A   1      29.849  22.406  26.552  1.00  0.00     0.030 C 
ATOM     14  C   UNL A   1      31.999  23.249  27.477  1.00  0.00     0.030 C 
BRANCH   7  15
ATOM     15  C   UNL A   1      31.798  25.017  22.845  1.00  0.00     0.095 A 
ATOM     16  C   UNL A   1      33.236  23.233  21.622  1.00  0.00     0.068 C 
ATOM     17  C   UNL A   1      32.857  24.610  22.028  1.00  0.00     0.058 A 
ATOM     18  N   UNL A   1      33.642  25.637  21.524  1.00  0.00    -0.249 NA
ATOM     19  C   UNL A   1      33.089  26.793  21.796  1.00  0.00     0.176 A 
ATOM     20  S   UNL A   1      31.520  26.689  22.459  1.00  0.00    -0.120 S 
ENDBRANCH   7  15
ENDBRANCH   4   6
ENDBRANCH   3   4
ENDBRANCH   2   3
ENDBRANCH   1   2
BRANCH   1  21
ATOM     21  O   UNL A   1      32.608  30.133  26.424  1.00  0.00    -0.458 OA
BRANCH  21  22
ATOM     22  C   UNL A   1      33.162  31.224  27.009  1.00  0.00     0.338 C 
ATOM     23  O   UNL A   1      32.607  32.297  27.191  1.00  0.00    -0.246 OA
BRANCH  22  24
ATOM     24  C   UNL A   1      34.548  30.965  27.473  1.00  0.00     0.060 A 
ATOM     25  C   UNL A   1      34.981  29.666  27.708  1.00  0.00     0.016 A 
ATOM     26  C   UNL A   1      35.368  32.025  27.864  1.00  0.00     0.016 A 
ATOM     27  C   UNL A   1      36.156  29.419  28.418  1.00  0.00     0.010 A 
ATOM     28  C   UNL A   1      36.604  31.772  28.487  1.00  0.00     0.010 A 
ATOM     29  C   UNL A   1      36.999  30.461  28.810  1.00  0.00    -0.014 A 
BRANCH  29  30
ATOM     30  C   UNL A   1      38.245  30.162  29.582  1.00  0.00     0.031 A 
ATOM     31  C   UNL A   1      39.327  29.299  28.982  1.00  0.00     0.074 A 
ATOM     32  C   UNL A   1      38.441  30.682  30.814  1.00  0.00     0.049 A 
ATOM     33  N   UNL A   1      40.378  28.771  29.557  1.00  0.00    -0.248 NA
ATOM     34  C   UNL A   1      39.213  28.983  27.548  1.00  0.00     0.031 C 
ATOM     35  C   UNL A   1      37.524  31.585  31.508  1.00  0.00     0.029 A 
ATOM     36  N   UNL A   1      39.480  30.526  31.705  1.00  0.00    -0.354 N 
ATOM     37  C   UNL A   1      40.985  27.977  28.592  1.00  0.00     0.074 A 
ATOM     38  C   UNL A   1      40.217  28.134  27.375  1.00  0.00     0.031 C 
ATOM     39  C   UNL A   1      38.048  31.928  32.693  1.00  0.00     0.029 A 
ATOM     40  C   UNL A   1      39.282  31.183  32.901  1.00  0.00     0.049 A 
ATOM     41  H   UNL A   1      40.287  29.997  31.508  1.00  0.00     0.167 HD
ATOM     42  C   UNL A   1      42.070  27.176  28.718  1.00  0.00     0.034 A 
ATOM     43  C   UNL A   1      39.970  31.146  34.060  1.00  0.00     0.034 A 
ATOM     44  C   UNL A   1      42.878  27.080  29.905  1.00  0.00     0.049 A 
ATOM     45  C   UNL A   1      41.174  30.250  34.167  1.00  0.00     0.074 A 
ATOM     46  C   UNL A   1      44.007  26.306  30.112  1.00  0.00     0.029 A 
ATOM     47  N   UNL A   1      42.653  27.778  31.080  1.00  0.00    -0.354 N 
ATOM     48  N   UNL A   1      41.737  29.507  33.245  1.00  0.00    -0.248 NA
ATOM     49  C   UNL A   1      41.837  30.180  35.478  1.00  0.00     0.031 C 
ATOM     50  C   UNL A   1      44.444  26.509  31.425  1.00  0.00     0.029 A 
ATOM     51  C   UNL A   1      43.613  27.444  32.019  1.00  0.00     0.049 A 
ATOM     52  H   UNL A   1      41.918  28.418  31.225  1.00  0.00     0.167 HD
ATOM     53  C   UNL A   1      42.821  28.893  33.861  1.00  0.00     0.074 A 
ATOM     54  C   UNL A   1      42.865  29.385  35.221  1.00  0.00     0.031 C 
ATOM     55  C   UNL A   1      43.685  27.980  33.354  1.00  0.00     0.034 A 
BRANCH  42  56
ATOM     56  C   UNL A   1      42.441  26.295  27.555  1.00  0.00     0.023 A 
ATOM     57  C   UNL A   1      43.317  26.755  26.554  1.00  0.00     0.012 A 
ATOM     58  C   UNL A   1      41.985  24.960  27.517  1.00  0.00     0.148 A 
ATOM     59  C   UNL A   1      43.719  25.904  25.523  1.00  0.00     0.002 A 
ATOM     60  C   UNL A   1      42.425  24.107  26.515  1.00  0.00     0.091 A 
ATOM     61  F   UNL A   1      41.137  24.550  28.472  1.00  0.00    -0.205 F 
ATOM     62  C   UNL A   1      43.284  24.581  25.510  1.00  0.00     0.022 A 
BRANCH  60  63
ATOM     63  S   UNL A   1      41.992  22.365  26.464  1.00  0.00     0.127 S 
ATOM     64  O   UNL A   1      40.544  22.427  26.266  1.00  0.00    -0.237 OA
ATOM     65  O   UNL A   1      42.745  21.897  25.300  1.00  0.00    -0.237 OA
ATOM     66  O   UNL A   1      42.420  21.802  27.735  1.00  0.00    -0.744 OA
ENDBRANCH  60  63
ENDBRANCH  42  56
BRANCH  43  67
ATOM     67  C   UNL A   1      39.513  31.943  35.240  1.00  0.00     0.023 A 
ATOM     68  C   UNL A   1      38.683  31.345  36.209  1.00  0.00     0.012 A 
ATOM     69  C   UNL A   1      39.884  33.293  35.399  1.00  0.00     0.148 A 
ATOM     70  C   UNL A   1      38.204  32.087  37.290  1.00  0.00     0.002 A 
ATOM     71  C   UNL A   1      39.466  34.003  36.517  1.00  0.00     0.091 A 
ATOM     72  F   UNL A   1      40.638  33.865  34.449  1.00  0.00    -0.205 F 
ATOM     73  C   UNL A   1      38.606  33.411  37.453  1.00  0.00     0.022 A 
BRANCH  71  74
ATOM     74  S   UNL A   1      40.062  35.660  36.870  1.00  0.00     0.127 S 
ATOM     75  O   UNL A   1      39.461  35.925  38.174  1.00  0.00    -0.237 OA
ATOM     76  O   UNL A   1      41.513  35.467  36.891  1.00  0.00    -0.237 OA
ATOM     77  O   UNL A   1      39.588  36.488  35.769  1.00  0.00    -0.744 OA
ENDBRANCH  71  74
ENDBRANCH  43  67
BRANCH  55  78
ATOM     78  C   UNL A   1      44.782  27.477  34.255  1.00  0.00     0.023 A 
ATOM     79  C   UNL A   1      45.998  28.183  34.347  1.00  0.00     0.012 A 
ATOM     80  C   UNL A   1      44.578  26.342  35.064  1.00  0.00     0.148 A 
ATOM     81  C   UNL A   1      47.008  27.746  35.204  1.00  0.00     0.002 A 
ATOM     82  C   UNL A   1      45.569  25.942  35.953  1.00  0.00     0.091 A 
ATOM     83  F   UNL A   1      43.421  25.675  34.950  1.00  0.00    -0.205 F 
ATOM     84  C   UNL A   1      46.790  26.634  36.014  1.00  0.00     0.022 A 
BRANCH  82  85
ATOM     85  S   UNL A   1      45.340  24.582  37.103  1.00  0.00     0.127 S 
ATOM     86  O   UNL A   1      46.644  24.527  37.763  1.00  0.00    -0.237 OA
ATOM     87  O   UNL A   1      44.249  25.071  37.947  1.00  0.00    -0.237 OA
ATOM     88  O   UNL A   1      45.003  23.419  36.293  1.00  0.00    -0.744 OA
ENDBRANCH  82  85
ENDBRANCH  55  78
ENDBRANCH  29  30
ENDBRANCH  22  24
ENDBRANCH  21  22
ENDBRANCH   1  21
TORSDOF 15
ENDMDL
MODEL 2
REMARK VINA RESULT:     -11.7      1.143      1.965
REMARK SMILES Cc1ncsc1[C@@H]1[NH2+][C@H](C(=O)OCCOC(=O)c2ccc(-c3c4nc(c(-c5cccc(S(=O)(=O)[O-])c5F)c5ccc([nH]5)c(-c5cccc(S(=O)(=O)[O-])c5F)c5nc(c(-c6cccc(S(=O)(=O)[O-])c6F)c6ccc3[nH]6)C=C5)C=C4)cc2)C(C)(C)S1
REMARK SMILES IDX 14 1 13 2 12 3 10 4 11 5 9 6 7 7 8 8 84 9 81 12 82 13 83 14
REMARK SMILES IDX 6 15 1 16 2 17 3 18 4 19 5 20 15 21 16 22 17 23 18 24 19 25
REMARK SMILES IDX 80 26 20 27 79 28 21 29 22 30 23 31 73 32 24 33 78 34 72 35
REMARK SMILES IDX 74 36 25 37 77 38 71 39 70 40 26 42 58 43 38 44 57 45 39 46
REMARK SMILES IDX 42 47 56 48 75 49 40 50 41 51 55 53 76 54 43 55 27 56 28 57
REMARK SMILES IDX 36 58 29 59 31 60 37 61 30 62 32 63 33 64 34 65 35 66 59 67
REMARK SMILES IDX 60 68 68 69 61 70 63 71 69 72 62 73 64 74 65 75 66 76 67 77
REMARK SMILES IDX 44 78 45 79 53 80 46 81 48 82 54 83 47 84 49 85 50 86 51 87
REMARK SMILES IDX 52 88
REMARK H PARENT 8 10 8 11 74 41 42 52
REMARK Flexibility Score: inf
ROOT
ATOM      1  C   UNL A   1      31.444  29.510  26.432  1.00  0.00     0.275 C 
ENDROOT
BRANCH   1   2
ATOM      2  C   UNL A   1      31.566  28.257  27.313  1.00  0.00     0.274 C 
BRANCH   2   3
ATOM      3  O   UNL A   1      32.582  27.328  26.870  1.00  0.00    -0.458 OA
BRANCH   3   4
ATOM      4  C   UNL A   1      32.046  26.263  26.199  1.00  0.00     0.366 C 
ATOM      5  O   UNL A   1      31.471  25.370  26.782  1.00  0.00    -0.245 OA
BRANCH   4   6
ATOM      6  C   UNL A   1      32.308  26.306  24.681  1.00  0.00     0.310 C 
ATOM      7  C   UNL A   1      33.047  24.052  24.069  1.00  0.00     0.286 C 
ATOM      8  N   UNL A   1      33.491  25.443  24.319  1.00  0.00    -0.318 N 
ATOM      9  S   UNL A   1      31.281  24.121  23.601  1.00  0.00    -0.080 SA
ATOM     10  H   UNL A   1      33.934  25.813  23.477  1.00  0.00     0.348 HD
ATOM     11  H   UNL A   1      34.158  25.448  25.090  1.00  0.00     0.348 HD
ATOM     12  C   UNL A   1      31.117  25.929  23.780  1.00  0.00     0.079 C 
ATOM     13  C   UNL A   1      31.260  26.529  22.370  1.00  0.00     0.030 C 
ATOM     14  C   UNL A   1      29.745  26.329  24.332  1.00  0.00     0.030 C 
BRANCH   7  15
ATOM     15  C   UNL A   1      33.353  23.018  25.136  1.00  0.00     0.095 A 
ATOM     16  C   UNL A   1      32.618  20.778  24.044  1.00  0.00     0.068 C 
ATOM     17  C   UNL A   1      33.078  21.647  25.157  1.00  0.00     0.058 A 
ATOM     18  N   UNL A   1      33.278  21.024  26.380  1.00  0.00    -0.249 NA
ATOM     19  C   UNL A   1      33.862  21.851  27.210  1.00  0.00     0.176 A 
ATOM     20  S   UNL A   1      34.388  23.312  26.501  1.00  0.00    -0.120 S 
ENDBRANCH   7  15
ENDBRANCH   4   6
ENDBRANCH   3   4
ENDBRANCH   2   3
ENDBRANCH   1   2
BRANCH   1  21
ATOM     21  O   UNL A   1      32.726  30.084  26.110  1.00  0.00    -0.458 OA
BRANCH  21  22
ATOM     22  C   UNL A   1      33.161  31.088  26.912  1.00  0.00     0.338 C 
ATOM     23  O   UNL A   1      32.512  32.066  27.250  1.00  0.00    -0.246 OA
BRANCH  22  24
ATOM     24  C   UNL A   1      34.542  30.850  27.405  1.00  0.00     0.060 A 
ATOM     25  C   UNL A   1      34.991  29.557  27.645  1.00  0.00     0.016 A 
ATOM     26  C   UNL A   1      35.336  31.922  27.815  1.00  0.00     0.016 A 
ATOM     27  C   UNL A   1      36.155  29.328  28.379  1.00  0.00     0.010 A 
ATOM     28  C   UNL A   1      36.563  31.687  28.463  1.00  0.00     0.010 A 
ATOM     29  C   UNL A   1      36.972  30.382  28.791  1.00  0.00    -0.014 A 
BRANCH  29  30
ATOM     30  C   UNL A   1      38.207  30.101  29.588  1.00  0.00     0.031 A 
ATOM     31  C   UNL A   1      39.309  29.246  29.014  1.00  0.00     0.074 A 
ATOM     32  C   UNL A   1      38.375  30.631  30.820  1.00  0.00     0.049 A 
ATOM     33  N   UNL A   1      40.354  28.733  29.612  1.00  0.00    -0.248 NA
ATOM     34  C   UNL A   1      39.224  28.919  27.580  1.00  0.00     0.031 C 
ATOM     35  C   UNL A   1      37.435  31.530  31.491  1.00  0.00     0.029 A 
ATOM     36  N   UNL A   1      39.399  30.492  31.731  1.00  0.00    -0.354 N 
ATOM     37  C   UNL A   1      40.987  27.939  28.663  1.00  0.00     0.074 A 
ATOM     38  C   UNL A   1      40.241  28.079  27.432  1.00  0.00     0.031 C 
ATOM     39  C   UNL A   1      37.933  31.886  32.683  1.00  0.00     0.029 A 
ATOM     40  C   UNL A   1      39.171  31.155  32.918  1.00  0.00     0.049 A 
ATOM     41  H   UNL A   1      40.214  29.970  31.552  1.00  0.00     0.167 HD
ATOM     42  C   UNL A   1      42.078  27.150  28.815  1.00  0.00     0.034 A 
ATOM     43  C   UNL A   1      39.838  31.132  34.090  1.00  0.00     0.034 A 
ATOM     44  C   UNL A   1      42.865  27.070  30.018  1.00  0.00     0.049 A 
ATOM     45  C   UNL A   1      41.048  30.250  34.226  1.00  0.00     0.074 A 
ATOM     46  C   UNL A   1      43.998  26.310  30.251  1.00  0.00     0.029 A 
ATOM     47  N   UNL A   1      42.611  27.774  31.184  1.00  0.00    -0.354 N 
ATOM     48  N   UNL A   1      41.636  29.507  33.319  1.00  0.00    -0.248 NA
ATOM     49  C   UNL A   1      41.688  30.196  35.549  1.00  0.00     0.031 C 
ATOM     50  C   UNL A   1      44.408  26.526  31.570  1.00  0.00     0.029 A 
ATOM     51  C   UNL A   1      43.557  27.456  32.143  1.00  0.00     0.049 A 
ATOM     52  H   UNL A   1      41.867  28.407  31.310  1.00  0.00     0.167 HD
ATOM     53  C   UNL A   1      42.715  28.908  33.959  1.00  0.00     0.074 A 
ATOM     54  C   UNL A   1      42.729  29.409  35.317  1.00  0.00     0.031 C 
ATOM     55  C   UNL A   1      43.597  28.001  33.474  1.00  0.00     0.034 A 
BRANCH  42  56
ATOM     56  C   UNL A   1      42.480  26.265  27.665  1.00  0.00     0.023 A 
ATOM     57  C   UNL A   1      43.439  26.693  26.729  1.00  0.00     0.012 A 
ATOM     58  C   UNL A   1      41.962  24.955  27.579  1.00  0.00     0.148 A 
ATOM     59  C   UNL A   1      43.865  25.836  25.713  1.00  0.00     0.002 A 
ATOM     60  C   UNL A   1      42.424  24.093  26.594  1.00  0.00     0.091 A 
ATOM     61  F   UNL A   1      41.036  24.576  28.472  1.00  0.00    -0.205 F 
ATOM     62  C   UNL A   1      43.368  24.535  25.653  1.00  0.00     0.022 A 
BRANCH  60  63
ATOM     63  S   UNL A   1      41.911  22.375  26.490  1.00  0.00     0.127 S 
ATOM     64  O   UNL A   1      42.665  21.912  25.326  1.00  0.00    -0.237 OA
ATOM     65  O   UNL A   1      42.376  21.839  27.769  1.00  0.00    -0.237 OA
ATOM     66  O   UNL A   1      40.465  22.392  26.324  1.00  0.00    -0.744 OA
ENDBRANCH  60  63
ENDBRANCH  42  56
BRANCH  43  67
ATOM     67  C   UNL A   1      39.350  31.932  35.256  1.00  0.00     0.023 A 
ATOM     68  C   UNL A   1      38.430  31.365  36.158  1.00  0.00     0.012 A 
ATOM     69  C   UNL A   1      39.784  33.257  35.467  1.00  0.00     0.148 A 
ATOM     70  C   UNL A   1      37.923  32.113  37.223  1.00  0.00     0.002 A 
ATOM     71  C   UNL A   1      39.334  33.969  36.571  1.00  0.00     0.091 A 
ATOM     72  F   UNL A   1      40.626  33.803  34.578  1.00  0.00    -0.205 F 
ATOM     73  C   UNL A   1      38.386  33.409  37.439  1.00  0.00     0.022 A 
BRANCH  71  74
ATOM     74  S   UNL A   1      39.997  35.584  36.997  1.00  0.00     0.127 S 
ATOM     75  O   UNL A   1      39.316  35.865  38.257  1.00  0.00    -0.237 OA
ATOM     76  O   UNL A   1      41.428  35.306  37.120  1.00  0.00    -0.237 OA
ATOM     77  O   UNL A   1      39.653  36.452  35.878  1.00  0.00    -0.744 OA
ENDBRANCH  71  74
ENDBRANCH  43  67
BRANCH  55  78
ATOM     78  C   UNL A   1      44.683  27.516  34.400  1.00  0.00     0.023 A 
ATOM     79  C   UNL A   1      45.906  28.211  34.477  1.00  0.00     0.012 A 
ATOM     80  C   UNL A   1      44.461  26.410  35.243  1.00  0.00     0.148 A 
ATOM     81  C   UNL A   1      46.905  27.791  35.355  1.00  0.00     0.002 A 
ATOM     82  C   UNL A   1      45.441  26.028  36.152  1.00  0.00     0.091 A 
ATOM     83  F   UNL A   1      43.297  25.752  35.143  1.00  0.00    -0.205 F 
ATOM     84  C   UNL A   1      46.669  26.708  36.199  1.00  0.00     0.022 A 
BRANCH  82  85
ATOM     85  S   UNL A   1      45.189  24.709  37.344  1.00  0.00     0.127 S 
ATOM     86  O   UNL A   1      44.029  25.198  38.089  1.00  0.00    -0.237 OA
ATOM     87  O   UNL A   1      44.920  23.559  36.481  1.00  0.00    -0.237 OA
ATOM     88  O   UNL A   1      46.425  24.615  38.110  1.00  0.00    -0.744 OA
ENDBRANCH  82  85
ENDBRANCH  55  78
ENDBRANCH  29  30
ENDBRANCH  22  24
ENDBRANCH  21  22
ENDBRANCH   1  21
TORSDOF 15
ENDMDL
MODEL 3
REMARK VINA RESULT:     -11.5      5.412      9.929
REMARK SMILES Cc1ncsc1[C@@H]1[NH2+][C@H](C(=O)OCCOC(=O)c2ccc(-c3c4nc(c(-c5cccc(S(=O)(=O)[O-])c5F)c5ccc([nH]5)c(-c5cccc(S(=O)(=O)[O-])c5F)c5nc(c(-c6cccc(S(=O)(=O)[O-])c6F)c6ccc3[nH]6)C=C5)C=C4)cc2)C(C)(C)S1
REMARK SMILES IDX 14 1 13 2 12 3 10 4 11 5 9 6 7 7 8 8 84 9 81 12 82 13 83 14
REMARK SMILES IDX 6 15 1 16 2 17 3 18 4 19 5 20 15 21 16 22 17 23 18 24 19 25
REMARK SMILES IDX 80 26 20 27 79 28 21 29 22 30 23 31 73 32 24 33 78 34 72 35
REMARK SMILES IDX 74 36 25 37 77 38 71 39 70 40 26 42 58 43 38 44 57 45 39 46
REMARK SMILES IDX 42 47 56 48 75 49 40 50 41 51 55 53 76 54 43 55 27 56 28 57
REMARK SMILES IDX 36 58 29 59 31 60 37 61 30 62 32 63 33 64 34 65 35 66 59 67
REMARK SMILES IDX 60 68 68 69 61 70 63 71 69 72 62 73 64 74 65 75 66 76 67 77
REMARK SMILES IDX 44 78 45 79 53 80 46 81 48 82 54 83 47 84 49 85 50 86 51 87
REMARK SMILES IDX 52 88
REMARK H PARENT 8 10 8 11 74 41 42 52
REMARK Flexibility Score: inf
ROOT
ATOM      1  C   UNL A   1      35.911  21.062  25.282  1.00  0.00     0.275 C 
ENDROOT
BRANCH   1   2
ATOM      2  C   UNL A   1      35.111  22.021  26.176  1.00  0.00     0.274 C 
BRANCH   2   3
ATOM      3  O   UNL A   1      35.236  23.413  25.801  1.00  0.00    -0.458 OA
BRANCH   3   4
ATOM      4  C   UNL A   1      34.158  23.850  25.082  1.00  0.00     0.366 C 
ATOM      5  O   UNL A   1      34.283  24.329  23.976  1.00  0.00    -0.245 OA
BRANCH   4   6
ATOM      6  C   UNL A   1      32.825  23.721  25.846  1.00  0.00     0.310 C 
ATOM      7  C   UNL A   1      31.542  25.731  25.288  1.00  0.00     0.286 C 
ATOM      8  N   UNL A   1      32.357  25.069  26.333  1.00  0.00    -0.318 N 
ATOM      9  S   UNL A   1      30.864  24.416  24.213  1.00  0.00    -0.080 SA
ATOM     10  H   UNL A   1      31.793  24.947  27.174  1.00  0.00     0.348 HD
ATOM     11  H   UNL A   1      33.168  25.650  26.542  1.00  0.00     0.348 HD
ATOM     12  C   UNL A   1      31.676  23.035  25.085  1.00  0.00     0.079 C 
ATOM     13  C   UNL A   1      30.631  22.443  26.048  1.00  0.00     0.030 C 
ATOM     14  C   UNL A   1      32.116  21.928  24.121  1.00  0.00     0.030 C 
BRANCH   7  15
ATOM     15  C   UNL A   1      32.180  26.873  24.522  1.00  0.00     0.095 A 
ATOM     16  C   UNL A   1      30.269  27.717  22.977  1.00  0.00     0.068 C 
ATOM     17  C   UNL A   1      31.666  27.646  23.475  1.00  0.00     0.058 A 
ATOM     18  N   UNL A   1      32.589  28.460  22.835  1.00  0.00    -0.249 NA
ATOM     19  C   UNL A   1      33.723  28.447  23.489  1.00  0.00     0.176 A 
ATOM     20  S   UNL A   1      33.661  27.649  24.996  1.00  0.00    -0.120 S 
ENDBRANCH   7  15
ENDBRANCH   4   6
ENDBRANCH   3   4
ENDBRANCH   2   3
ENDBRANCH   1   2
BRANCH   1  21
ATOM     21  O   UNL A   1      37.142  21.646  24.811  1.00  0.00    -0.458 OA
BRANCH  21  22
ATOM     22  C   UNL A   1      38.280  21.251  25.434  1.00  0.00     0.338 C 
ATOM     23  O   UNL A   1      38.771  20.133  25.385  1.00  0.00    -0.246 OA
BRANCH  22  24
ATOM     24  C   UNL A   1      38.930  22.365  26.170  1.00  0.00     0.060 A 
ATOM     25  C   UNL A   1      38.429  23.658  26.077  1.00  0.00     0.016 A 
ATOM     26  C   UNL A   1      40.157  22.167  26.804  1.00  0.00     0.016 A 
ATOM     27  C   UNL A   1      39.182  24.751  26.506  1.00  0.00     0.010 A 
ATOM     28  C   UNL A   1      40.867  23.261  27.331  1.00  0.00     0.010 A 
ATOM     29  C   UNL A   1      40.407  24.579  27.153  1.00  0.00    -0.014 A 
BRANCH  29  30
ATOM     30  C   UNL A   1      41.194  25.774  27.589  1.00  0.00     0.031 A 
ATOM     31  C   UNL A   1      40.568  26.819  28.478  1.00  0.00     0.074 A 
ATOM     32  C   UNL A   1      42.486  25.925  27.224  1.00  0.00     0.049 A 
ATOM     33  N   UNL A   1      41.015  28.007  28.799  1.00  0.00    -0.248 NA
ATOM     34  C   UNL A   1      39.266  26.490  29.083  1.00  0.00     0.031 C 
ATOM     35  C   UNL A   1      43.258  24.975  26.422  1.00  0.00     0.029 A 
ATOM     36  N   UNL A   1      43.385  26.938  27.480  1.00  0.00    -0.354 N 
ATOM     37  C   UNL A   1      40.008  28.606  29.547  1.00  0.00     0.074 A 
ATOM     38  C   UNL A   1      38.947  27.631  29.680  1.00  0.00     0.031 C 
ATOM     39  C   UNL A   1      44.511  25.427  26.279  1.00  0.00     0.029 A 
ATOM     40  C   UNL A   1      44.609  26.752  26.875  1.00  0.00     0.049 A 
ATOM     41  H   UNL A   1      43.173  27.719  28.040  1.00  0.00     0.167 HD
ATOM     42  C   UNL A   1      39.968  29.860  30.056  1.00  0.00     0.034 A 
ATOM     43  C   UNL A   1      45.672  27.572  26.751  1.00  0.00     0.034 A 
ATOM     44  C   UNL A   1      41.054  30.802  29.990  1.00  0.00     0.049 A 
ATOM     45  C   UNL A   1      45.599  28.958  27.331  1.00  0.00     0.074 A 
ATOM     46  C   UNL A   1      41.104  32.089  30.496  1.00  0.00     0.029 A 
ATOM     47  N   UNL A   1      42.279  30.563  29.389  1.00  0.00    -0.354 N 
ATOM     48  N   UNL A   1      44.641  29.509  28.037  1.00  0.00    -0.248 NA
ATOM     49  C   UNL A   1      46.750  29.842  27.093  1.00  0.00     0.031 C 
ATOM     50  C   UNL A   1      42.346  32.642  30.170  1.00  0.00     0.029 A 
ATOM     51  C   UNL A   1      43.087  31.682  29.501  1.00  0.00     0.049 A 
ATOM     52  H   UNL A   1      42.538  29.721  28.948  1.00  0.00     0.167 HD
ATOM     53  C   UNL A   1      45.079  30.794  28.334  1.00  0.00     0.074 A 
ATOM     54  C   UNL A   1      46.406  30.926  27.773  1.00  0.00     0.031 C 
ATOM     55  C   UNL A   1      44.428  31.787  28.988  1.00  0.00     0.034 A 
BRANCH  42  56
ATOM     56  C   UNL A   1      38.690  30.323  30.704  1.00  0.00     0.023 A 
ATOM     57  C   UNL A   1      38.506  30.210  32.094  1.00  0.00     0.012 A 
ATOM     58  C   UNL A   1      37.704  30.965  29.924  1.00  0.00     0.148 A 
ATOM     59  C   UNL A   1      37.352  30.714  32.697  1.00  0.00     0.002 A 
ATOM     60  C   UNL A   1      36.582  31.505  30.536  1.00  0.00     0.091 A 
ATOM     61  F   UNL A   1      37.894  31.045  28.598  1.00  0.00    -0.205 F 
ATOM     62  C   UNL A   1      36.399  31.371  31.921  1.00  0.00     0.022 A 
BRANCH  60  63
ATOM     63  S   UNL A   1      35.344  32.444  29.636  1.00  0.00     0.127 S 
ATOM     64  O   UNL A   1      34.419  32.815  30.706  1.00  0.00    -0.237 OA
ATOM     65  O   UNL A   1      36.132  33.555  29.101  1.00  0.00    -0.237 OA
ATOM     66  O   UNL A   1      34.799  31.542  28.632  1.00  0.00    -0.744 OA
ENDBRANCH  60  63
ENDBRANCH  42  56
BRANCH  43  67
ATOM     67  C   UNL A   1      46.888  27.130  26.000  1.00  0.00     0.023 A 
ATOM     68  C   UNL A   1      47.824  26.281  26.623  1.00  0.00     0.012 A 
ATOM     69  C   UNL A   1      47.128  27.558  24.679  1.00  0.00     0.148 A 
ATOM     70  C   UNL A   1      48.992  25.900  25.957  1.00  0.00     0.002 A 
ATOM     71  C   UNL A   1      48.253  27.112  23.997  1.00  0.00     0.091 A 
ATOM     72  F   UNL A   1      46.253  28.401  24.111  1.00  0.00    -0.205 F 
ATOM     73  C   UNL A   1      49.199  26.302  24.640  1.00  0.00     0.022 A 
BRANCH  71  74
ATOM     74  S   UNL A   1      48.511  27.467  22.254  1.00  0.00     0.127 S 
ATOM     75  O   UNL A   1      47.301  28.211  21.916  1.00  0.00    -0.237 OA
ATOM     76  O   UNL A   1      49.737  28.266  22.281  1.00  0.00    -0.237 OA
ATOM     77  O   UNL A   1      48.662  26.168  21.611  1.00  0.00    -0.744 OA
ENDBRANCH  71  74
ENDBRANCH  43  67
BRANCH  55  78
ATOM     78  C   UNL A   1      45.150  33.096  29.172  1.00  0.00     0.023 A 
ATOM     79  C   UNL A   1      46.001  33.281  30.279  1.00  0.00     0.012 A 
ATOM     80  C   UNL A   1      45.036  34.117  28.208  1.00  0.00     0.148 A 
ATOM     81  C   UNL A   1      46.702  34.476  30.442  1.00  0.00     0.002 A 
ATOM     82  C   UNL A   1      45.777  35.285  28.350  1.00  0.00     0.091 A 
ATOM     83  F   UNL A   1      44.208  33.927  27.171  1.00  0.00    -0.205 F 
ATOM     84  C   UNL A   1      46.599  35.472  29.473  1.00  0.00     0.022 A 
BRANCH  82  85
ATOM     85  S   UNL A   1      45.782  36.579  27.106  1.00  0.00     0.127 S 
ATOM     86  O   UNL A   1      46.274  35.861  25.930  1.00  0.00    -0.237 OA
ATOM     87  O   UNL A   1      44.370  36.956  27.044  1.00  0.00    -0.237 OA
ATOM     88  O   UNL A   1      46.665  37.622  27.611  1.00  0.00    -0.744 OA
ENDBRANCH  82  85
ENDBRANCH  55  78
ENDBRANCH  29  30
ENDBRANCH  22  24
ENDBRANCH  21  22
ENDBRANCH   1  21
TORSDOF 15
ENDMDL
