MODEL 1
REMARK VINA RESULT:     -12.4      0.000      0.000
REMARK SMILES NC(=O)COc1ccc(/C=C2\SC(=S)N(CCC(=O)OCCOC(=O)c3ccc(-c4c5nc(c(-c6cccc(S(=O)(=O)[O-])c6F)c6ccc([nH]6)c(-c6cccc(S(=O)(=O)[O-])c6F)c6nc(c(-c7cccc(S(=O)(=O)[O-])c7F)c7ccc4[nH]7)C=C6)C=C5)cc3)C2=O)cc1
REMARK SMILES IDX 20 1 18 2 19 3 17 4 16 5 15 6 10 7 11 8 12 9 89 10 13 11
REMARK SMILES IDX 90 12 14 13 9 14 6 15 7 16 92 17 8 18 91 19 5 20 4 21 2 22
REMARK SMILES IDX 1 23 3 26 21 27 22 28 23 29 24 30 25 31 26 32 27 33 88 34
REMARK SMILES IDX 28 35 87 36 29 37 30 38 31 39 81 40 32 41 86 42 80 43 82 44
REMARK SMILES IDX 33 45 85 46 79 47 78 48 34 50 66 51 46 52 65 53 47 54 50 55
REMARK SMILES IDX 64 56 83 57 48 58 49 59 63 61 84 62 51 63 35 64 36 65 44 66
REMARK SMILES IDX 37 67 39 68 45 69 38 70 40 71 41 72 42 73 43 74 67 75 68 76
REMARK SMILES IDX 76 77 69 78 71 79 77 80 70 81 72 82 73 83 74 84 75 85 52 86
REMARK SMILES IDX 53 87 61 88 54 89 56 90 62 91 55 92 57 93 58 94 59 95 60 96
REMARK H PARENT 1 24 1 25 82 49 50 60
REMARK Flexibility Score: inf
ROOT
ATOM      1  O   UNL A   1      36.001  22.001  25.732  1.00  0.00    -0.462 OA
ENDROOT
BRANCH   1   2
ATOM      2  C   UNL A   1      34.819  22.354  26.291  1.00  0.00     0.307 C 
ATOM      3  O   UNL A   1      34.654  23.313  27.032  1.00  0.00    -0.252 OA
BRANCH   2   4
ATOM      4  C   UNL A   1      33.719  21.367  25.974  1.00  0.00     0.144 C 
BRANCH   4   5
ATOM      5  C   UNL A   1      32.320  21.801  26.423  1.00  0.00     0.139 C 
BRANCH   5   6
ATOM      6  N   UNL A   1      31.714  22.742  25.479  1.00  0.00    -0.292 N 
ATOM      7  C   UNL A   1      30.632  26.125  25.154  1.00  0.00     0.029 C 
ATOM      8  C   UNL A   1      30.879  24.840  24.877  1.00  0.00     0.081 C 
ATOM      9  S   UNL A   1      31.068  24.064  23.361  1.00  0.00    -0.054 SA
ATOM     10  C   UNL A   1      31.109  23.881  25.972  1.00  0.00     0.266 C 
ATOM     11  C   UNL A   1      31.722  22.606  24.107  1.00  0.00     0.148 C 
ATOM     12  O   UNL A   1      30.786  24.118  27.124  1.00  0.00    -0.268 OA
ATOM     13  S   UNL A   1      32.275  21.322  23.197  1.00  0.00    -0.052 S 
BRANCH   7  14
ATOM     14  C   UNL A   1      30.350  27.138  24.148  1.00  0.00    -0.024 A 
ATOM     15  C   UNL A   1      29.892  29.120  22.244  1.00  0.00     0.120 A 
ATOM     16  C   UNL A   1      28.830  28.340  22.707  1.00  0.00     0.047 A 
ATOM     17  C   UNL A   1      31.176  28.921  22.748  1.00  0.00     0.047 A 
ATOM     18  C   UNL A   1      29.060  27.336  23.652  1.00  0.00     0.012 A 
ATOM     19  C   UNL A   1      31.406  27.927  23.691  1.00  0.00     0.012 A 
BRANCH  15  20
ATOM     20  O   UNL A   1      29.589  30.109  21.348  1.00  0.00    -0.484 OA
BRANCH  20  21
ATOM     21  C   UNL A   1      28.222  30.518  21.391  1.00  0.00     0.329 C 
BRANCH  21  22
ATOM     22  C   UNL A   1      27.975  32.018  21.219  1.00  0.00     0.255 C 
ATOM     23  N   UNL A   1      27.978  32.474  19.932  1.00  0.00    -0.367 N 
ATOM     24  H   UNL A   1      27.825  33.429  19.748  1.00  0.00     0.159 HD
ATOM     25  H   UNL A   1      28.133  31.848  19.188  1.00  0.00     0.159 HD
ATOM     26  O   UNL A   1      27.803  32.786  22.161  1.00  0.00    -0.271 OA
ENDBRANCH  21  22
ENDBRANCH  20  21
ENDBRANCH  15  20
ENDBRANCH   7  14
ENDBRANCH   5   6
ENDBRANCH   4   5
ENDBRANCH   2   4
ENDBRANCH   1   2
BRANCH   1  27
ATOM     27  C   UNL A   1      36.082  20.687  25.144  1.00  0.00     0.274 C 
BRANCH  27  28
ATOM     28  C   UNL A   1      37.527  20.192  25.020  1.00  0.00     0.275 C 
BRANCH  28  29
ATOM     29  O   UNL A   1      38.454  21.277  25.196  1.00  0.00    -0.458 OA
BRANCH  29  30
ATOM     30  C   UNL A   1      39.412  21.075  26.126  1.00  0.00     0.338 C 
ATOM     31  O   UNL A   1      39.998  20.042  26.394  1.00  0.00    -0.246 OA
BRANCH  30  32
ATOM     32  C   UNL A   1      39.786  22.346  26.746  1.00  0.00     0.060 A 
ATOM     33  C   UNL A   1      39.181  23.510  26.264  1.00  0.00     0.016 A 
ATOM     34  C   UNL A   1      40.832  22.402  27.667  1.00  0.00     0.016 A 
ATOM     35  C   UNL A   1      39.646  24.750  26.680  1.00  0.00     0.010 A 
ATOM     36  C   UNL A   1      41.293  23.648  28.088  1.00  0.00     0.010 A 
ATOM     37  C   UNL A   1      40.723  24.824  27.570  1.00  0.00    -0.014 A 
BRANCH  37  38
ATOM     38  C   UNL A   1      41.308  26.145  27.884  1.00  0.00     0.031 A 
ATOM     39  C   UNL A   1      42.707  26.457  27.437  1.00  0.00     0.074 A 
ATOM     40  C   UNL A   1      40.577  27.053  28.552  1.00  0.00     0.049 A 
ATOM     41  N   UNL A   1      43.406  27.546  27.619  1.00  0.00    -0.248 NA
ATOM     42  C   UNL A   1      43.414  25.407  26.685  1.00  0.00     0.031 C 
ATOM     43  C   UNL A   1      39.209  26.846  29.032  1.00  0.00     0.029 A 
ATOM     44  N   UNL A   1      40.886  28.325  28.955  1.00  0.00    -0.354 N 
ATOM     45  C   UNL A   1      44.645  27.300  27.041  1.00  0.00     0.074 A 
ATOM     46  C   UNL A   1      44.605  25.958  26.504  1.00  0.00     0.031 C 
ATOM     47  C   UNL A   1      38.803  27.950  29.678  1.00  0.00     0.029 A 
ATOM     48  C   UNL A   1      39.885  28.930  29.675  1.00  0.00     0.049 A 
ATOM     49  H   UNL A   1      41.744  28.763  28.749  1.00  0.00     0.167 HD
ATOM     50  C   UNL A   1      45.713  28.128  26.953  1.00  0.00     0.034 A 
ATOM     51  C   UNL A   1      39.852  30.138  30.268  1.00  0.00     0.034 A 
ATOM     52  C   UNL A   1      45.728  29.474  27.459  1.00  0.00     0.049 A 
ATOM     53  C   UNL A   1      41.041  31.048  30.126  1.00  0.00     0.074 A 
ATOM     54  C   UNL A   1      46.749  30.405  27.400  1.00  0.00     0.029 A 
ATOM     55  N   UNL A   1      44.668  30.082  28.113  1.00  0.00    -0.354 N 
ATOM     56  N   UNL A   1      42.169  30.839  29.489  1.00  0.00    -0.248 NA
ATOM     57  C   UNL A   1      40.941  32.375  30.749  1.00  0.00     0.031 C 
ATOM     58  C   UNL A   1      46.305  31.579  28.021  1.00  0.00     0.029 A 
ATOM     59  C   UNL A   1      45.004  31.379  28.457  1.00  0.00     0.049 A 
ATOM     60  H   UNL A   1      43.802  29.653  28.304  1.00  0.00     0.167 HD
ATOM     61  C   UNL A   1      42.897  32.018  29.603  1.00  0.00     0.074 A 
ATOM     62  C   UNL A   1      42.073  32.944  30.355  1.00  0.00     0.031 C 
ATOM     63  C   UNL A   1      44.140  32.303  29.146  1.00  0.00     0.034 A 
BRANCH  50  64
ATOM     64  C   UNL A   1      46.938  27.612  26.247  1.00  0.00     0.023 A 
ATOM     65  C   UNL A   1      47.872  26.834  26.961  1.00  0.00     0.012 A 
ATOM     66  C   UNL A   1      47.146  27.856  24.877  1.00  0.00     0.148 A 
ATOM     67  C   UNL A   1      49.007  26.328  26.328  1.00  0.00     0.002 A 
ATOM     68  C   UNL A   1      48.261  27.318  24.243  1.00  0.00     0.091 A 
ATOM     69  F   UNL A   1      46.263  28.622  24.221  1.00  0.00    -0.205 F 
ATOM     70  C   UNL A   1      49.196  26.562  24.969  1.00  0.00     0.022 A 
BRANCH  68  71
ATOM     71  S   UNL A   1      48.552  27.509  22.481  1.00  0.00     0.127 S 
ATOM     72  O   UNL A   1      47.389  28.297  22.074  1.00  0.00    -0.237 OA
ATOM     73  O   UNL A   1      49.821  28.236  22.450  1.00  0.00    -0.237 OA
ATOM     74  O   UNL A   1      48.617  26.158  21.940  1.00  0.00    -0.744 OA
ENDBRANCH  68  71
ENDBRANCH  50  64
BRANCH  51  75
ATOM     75  C   UNL A   1      38.622  30.574  30.987  1.00  0.00     0.023 A 
ATOM     76  C   UNL A   1      38.529  30.378  32.378  1.00  0.00     0.012 A 
ATOM     77  C   UNL A   1      37.570  31.223  30.314  1.00  0.00     0.148 A 
ATOM     78  C   UNL A   1      37.401  30.798  33.081  1.00  0.00     0.002 A 
ATOM     79  C   UNL A   1      36.471  31.686  31.028  1.00  0.00     0.091 A 
ATOM     80  F   UNL A   1      37.666  31.385  28.986  1.00  0.00    -0.205 F 
ATOM     81  C   UNL A   1      36.377  31.462  32.410  1.00  0.00     0.022 A 
BRANCH  79  82
ATOM     82  S   UNL A   1      35.178  32.668  30.257  1.00  0.00     0.127 S 
ATOM     83  O   UNL A   1      34.272  32.904  31.378  1.00  0.00    -0.237 OA
ATOM     84  O   UNL A   1      35.915  33.848  29.801  1.00  0.00    -0.237 OA
ATOM     85  O   UNL A   1      34.658  31.839  29.178  1.00  0.00    -0.744 OA
ENDBRANCH  79  82
ENDBRANCH  51  75
BRANCH  63  86
ATOM     86  C   UNL A   1      44.676  33.683  29.411  1.00  0.00     0.023 A 
ATOM     87  C   UNL A   1      45.455  33.918  30.561  1.00  0.00     0.012 A 
ATOM     88  C   UNL A   1      44.469  34.727  28.488  1.00  0.00     0.148 A 
ATOM     89  C   UNL A   1      45.997  35.180  30.802  1.00  0.00     0.002 A 
ATOM     90  C   UNL A   1      45.047  35.970  28.714  1.00  0.00     0.091 A 
ATOM     91  F   UNL A   1      43.704  34.492  27.412  1.00  0.00    -0.205 F 
ATOM     92  C   UNL A   1      45.804  36.201  29.874  1.00  0.00     0.022 A 
BRANCH  90  93
ATOM     93  S   UNL A   1      44.914  37.305  27.518  1.00  0.00     0.127 S 
ATOM     94  O   UNL A   1      45.148  38.481  28.354  1.00  0.00    -0.237 OA
ATOM     95  O   UNL A   1      45.994  37.000  26.578  1.00  0.00    -0.237 OA
ATOM     96  O   UNL A   1      43.577  37.185  26.951  1.00  0.00    -0.744 OA
ENDBRANCH  90  93
ENDBRANCH  63  86
ENDBRANCH  37  38
ENDBRANCH  30  32
ENDBRANCH  29  30
ENDBRANCH  28  29
ENDBRANCH  27  28
ENDBRANCH   1  27
TORSDOF 20
ENDMDL
MODEL 2
REMARK VINA RESULT:     -12.2      5.270     10.847
REMARK SMILES NC(=O)COc1ccc(/C=C2\SC(=S)N(CCC(=O)OCCOC(=O)c3ccc(-c4c5nc(c(-c6cccc(S(=O)(=O)[O-])c6F)c6ccc([nH]6)c(-c6cccc(S(=O)(=O)[O-])c6F)c6nc(c(-c7cccc(S(=O)(=O)[O-])c7F)c7ccc4[nH]7)C=C6)C=C5)cc3)C2=O)cc1
REMARK SMILES IDX 20 1 18 2 19 3 17 4 16 5 15 6 10 7 11 8 12 9 89 10 13 11
REMARK SMILES IDX 90 12 14 13 9 14 6 15 7 16 92 17 8 18 91 19 5 20 4 21 2 22
REMARK SMILES IDX 1 23 3 26 21 27 22 28 23 29 24 30 25 31 26 32 27 33 88 34
REMARK SMILES IDX 28 35 87 36 29 37 30 38 31 39 81 40 32 41 86 42 80 43 82 44
REMARK SMILES IDX 33 45 85 46 79 47 78 48 34 50 66 51 46 52 65 53 47 54 50 55
REMARK SMILES IDX 64 56 83 57 48 58 49 59 63 61 84 62 51 63 35 64 36 65 44 66
REMARK SMILES IDX 37 67 39 68 45 69 38 70 40 71 41 72 42 73 43 74 67 75 68 76
REMARK SMILES IDX 76 77 69 78 71 79 77 80 70 81 72 82 73 83 74 84 75 85 52 86
REMARK SMILES IDX 53 87 61 88 54 89 56 90 62 91 55 92 57 93 58 94 59 95 60 96
REMARK H PARENT 1 24 1 25 82 49 50 60
REMARK Flexibility Score: inf
ROOT
ATOM      1  O   UNL A   1      31.310  28.726  25.449  1.00  0.00    -0.462 OA
ENDROOT
BRANCH   1   2
ATOM      2  C   UNL A   1      32.427  28.026  25.138  1.00  0.00     0.307 C 
ATOM      3  O   UNL A   1      33.045  27.312  25.916  1.00  0.00    -0.252 OA
BRANCH   2   4
ATOM      4  C   UNL A   1      32.898  28.296  23.728  1.00  0.00     0.144 C 
BRANCH   4   5
ATOM      5  C   UNL A   1      31.996  27.726  22.630  1.00  0.00     0.139 C 
BRANCH   5   6
ATOM      6  N   UNL A   1      31.729  26.301  22.832  1.00  0.00    -0.292 N 
ATOM      7  C   UNL A   1      33.346  23.151  23.260  1.00  0.00     0.029 C 
ATOM      8  C   UNL A   1      32.393  24.078  23.118  1.00  0.00     0.081 C 
ATOM      9  S   UNL A   1      30.751  24.043  23.604  1.00  0.00    -0.054 SA
ATOM     10  C   UNL A   1      32.723  25.390  22.533  1.00  0.00     0.266 C 
ATOM     11  C   UNL A   1      30.558  25.775  23.336  1.00  0.00     0.148 C 
ATOM     12  O   UNL A   1      33.740  25.577  21.886  1.00  0.00    -0.268 OA
ATOM     13  S   UNL A   1      29.141  26.573  23.705  1.00  0.00    -0.052 S 
BRANCH   7  14
ATOM     14  C   UNL A   1      33.113  21.814  23.786  1.00  0.00    -0.024 A 
ATOM     15  C   UNL A   1      32.607  19.239  24.723  1.00  0.00     0.120 A 
ATOM     16  C   UNL A   1      33.187  20.186  25.569  1.00  0.00     0.047 A 
ATOM     17  C   UNL A   1      32.263  19.587  23.417  1.00  0.00     0.047 A 
ATOM     18  C   UNL A   1      33.454  21.474  25.097  1.00  0.00     0.012 A 
ATOM     19  C   UNL A   1      32.524  20.867  22.948  1.00  0.00     0.012 A 
BRANCH  15  20
ATOM     20  O   UNL A   1      32.338  18.009  25.262  1.00  0.00    -0.484 OA
BRANCH  20  21
ATOM     21  C   UNL A   1      32.789  16.923  24.454  1.00  0.00     0.329 C 
BRANCH  21  22
ATOM     22  C   UNL A   1      32.935  15.581  25.174  1.00  0.00     0.255 C 
ATOM     23  N   UNL A   1      31.806  15.111  25.783  1.00  0.00    -0.367 N 
ATOM     24  H   UNL A   1      31.828  14.252  26.264  1.00  0.00     0.159 HD
ATOM     25  H   UNL A   1      30.971  15.630  25.740  1.00  0.00     0.159 HD
ATOM     26  O   UNL A   1      33.990  14.957  25.232  1.00  0.00    -0.271 OA
ENDBRANCH  21  22
ENDBRANCH  20  21
ENDBRANCH  15  20
ENDBRANCH   7  14
ENDBRANCH   5   6
ENDBRANCH   4   5
ENDBRANCH   2   4
ENDBRANCH   1   2
BRANCH   1  27
ATOM     27  C   UNL A   1      31.361  30.156  25.269  1.00  0.00     0.274 C 
BRANCH  27  28
ATOM     28  C   UNL A   1      31.845  30.884  26.527  1.00  0.00     0.275 C 
BRANCH  28  29
ATOM     29  O   UNL A   1      33.159  31.431  26.326  1.00  0.00    -0.458 OA
BRANCH  29  30
ATOM     30  C   UNL A   1      33.634  32.187  27.338  1.00  0.00     0.338 C 
ATOM     31  O   UNL A   1      33.079  33.096  27.927  1.00  0.00    -0.246 OA
BRANCH  30  32
ATOM     32  C   UNL A   1      34.942  31.689  27.766  1.00  0.00     0.060 A 
ATOM     33  C   UNL A   1      35.082  30.314  27.972  1.00  0.00     0.016 A 
ATOM     34  C   UNL A   1      35.957  32.579  28.114  1.00  0.00     0.016 A 
ATOM     35  C   UNL A   1      36.235  29.821  28.565  1.00  0.00     0.010 A 
ATOM     36  C   UNL A   1      37.118  32.081  28.704  1.00  0.00     0.010 A 
ATOM     37  C   UNL A   1      37.245  30.705  28.961  1.00  0.00    -0.014 A 
BRANCH  37  38
ATOM     38  C   UNL A   1      38.397  30.186  29.729  1.00  0.00     0.031 A 
ATOM     39  C   UNL A   1      38.599  30.634  31.148  1.00  0.00     0.074 A 
ATOM     40  C   UNL A   1      39.238  29.310  29.154  1.00  0.00     0.049 A 
ATOM     41  N   UNL A   1      39.546  30.309  31.987  1.00  0.00    -0.248 NA
ATOM     42  C   UNL A   1      37.604  31.572  31.696  1.00  0.00     0.031 C 
ATOM     43  C   UNL A   1      39.129  28.815  27.780  1.00  0.00     0.029 A 
ATOM     44  N   UNL A   1      40.357  28.694  29.647  1.00  0.00    -0.354 N 
ATOM     45  C   UNL A   1      39.287  31.029  33.146  1.00  0.00     0.074 A 
ATOM     46  C   UNL A   1      38.094  31.810  32.904  1.00  0.00     0.031 C 
ATOM     47  C   UNL A   1      40.151  27.980  27.537  1.00  0.00     0.029 A 
ATOM     48  C   UNL A   1      40.994  27.899  28.726  1.00  0.00     0.049 A 
ATOM     49  H   UNL A   1      40.675  28.810  30.572  1.00  0.00     0.167 HD
ATOM     50  C   UNL A   1      39.973  31.023  34.313  1.00  0.00     0.034 A 
ATOM     51  C   UNL A   1      42.135  27.190  28.833  1.00  0.00     0.034 A 
ATOM     52  C   UNL A   1      41.137  30.213  34.555  1.00  0.00     0.049 A 
ATOM     53  C   UNL A   1      42.859  27.178  30.151  1.00  0.00     0.074 A 
ATOM     54  C   UNL A   1      41.893  30.113  35.709  1.00  0.00     0.029 A 
ATOM     55  N   UNL A   1      41.709  29.358  33.625  1.00  0.00    -0.354 N 
ATOM     56  N   UNL A   1      42.545  27.785  31.271  1.00  0.00    -0.248 NA
ATOM     57  C   UNL A   1      44.072  26.353  30.236  1.00  0.00     0.031 C 
ATOM     58  C   UNL A   1      42.925  29.197  35.475  1.00  0.00     0.029 A 
ATOM     59  C   UNL A   1      42.804  28.720  34.179  1.00  0.00     0.049 A 
ATOM     60  H   UNL A   1      41.383  29.225  32.705  1.00  0.00     0.167 HD
ATOM     61  C   UNL A   1      43.498  27.389  32.202  1.00  0.00     0.074 A 
ATOM     62  C   UNL A   1      44.390  26.473  31.519  1.00  0.00     0.031 C 
ATOM     63  C   UNL A   1      43.636  27.762  33.498  1.00  0.00     0.034 A 
BRANCH  50  64
ATOM     64  C   UNL A   1      39.457  31.890  35.429  1.00  0.00     0.023 A 
ATOM     65  C   UNL A   1      38.527  31.358  36.345  1.00  0.00     0.012 A 
ATOM     66  C   UNL A   1      39.919  33.208  35.600  1.00  0.00     0.148 A 
ATOM     67  C   UNL A   1      38.044  32.134  37.399  1.00  0.00     0.002 A 
ATOM     68  C   UNL A   1      39.461  33.965  36.674  1.00  0.00     0.091 A 
ATOM     69  F   UNL A   1      40.781  33.708  34.703  1.00  0.00    -0.205 F 
ATOM     70  C   UNL A   1      38.519  33.431  37.569  1.00  0.00     0.022 A 
BRANCH  68  71
ATOM     71  S   UNL A   1      40.068  35.622  37.012  1.00  0.00     0.127 S 
ATOM     72  O   UNL A   1      39.617  36.348  35.827  1.00  0.00    -0.237 OA
ATOM     73  O   UNL A   1      39.360  35.969  38.245  1.00  0.00    -0.237 OA
ATOM     74  O   UNL A   1      41.511  35.493  37.161  1.00  0.00    -0.744 OA
ENDBRANCH  68  71
ENDBRANCH  50  64
BRANCH  51  75
ATOM     75  C   UNL A   1      42.614  26.384  27.677  1.00  0.00     0.023 A 
ATOM     76  C   UNL A   1      43.549  26.944  26.785  1.00  0.00     0.012 A 
ATOM     77  C   UNL A   1      42.191  25.056  27.483  1.00  0.00     0.148 A 
ATOM     78  C   UNL A   1      44.034  26.204  25.707  1.00  0.00     0.002 A 
ATOM     79  C   UNL A   1      42.718  24.306  26.438  1.00  0.00     0.091 A 
ATOM     80  F   UNL A   1      41.286  24.545  28.330  1.00  0.00    -0.205 F 
ATOM     81  C   UNL A   1      43.629  24.882  25.539  1.00  0.00     0.022 A 
BRANCH  79  82
ATOM     82  S   UNL A   1      42.348  22.559  26.237  1.00  0.00     0.127 S 
ATOM     83  O   UNL A   1      42.883  22.290  24.905  1.00  0.00    -0.237 OA
ATOM     84  O   UNL A   1      43.099  21.954  27.337  1.00  0.00    -0.237 OA
ATOM     85  O   UNL A   1      40.901  22.454  26.376  1.00  0.00    -0.744 OA
ENDBRANCH  79  82
ENDBRANCH  51  75
BRANCH  63  86
ATOM     86  C   UNL A   1      44.770  27.153  34.277  1.00  0.00     0.023 A 
ATOM     87  C   UNL A   1      46.050  27.737  34.211  1.00  0.00     0.012 A 
ATOM     88  C   UNL A   1      44.552  26.051  35.126  1.00  0.00     0.148 A 
ATOM     89  C   UNL A   1      47.104  27.214  34.960  1.00  0.00     0.002 A 
ATOM     90  C   UNL A   1      45.598  25.563  35.900  1.00  0.00     0.091 A 
ATOM     91  F   UNL A   1      43.333  25.493  35.157  1.00  0.00    -0.205 F 
ATOM     92  C   UNL A   1      46.876  26.137  35.812  1.00  0.00     0.022 A 
BRANCH  90  93
ATOM     93  S   UNL A   1      45.354  24.234  37.086  1.00  0.00     0.127 S 
ATOM     94  O   UNL A   1      45.024  23.109  36.212  1.00  0.00    -0.237 OA
ATOM     95  O   UNL A   1      46.663  24.139  37.734  1.00  0.00    -0.237 OA
ATOM     96  O   UNL A   1      44.284  24.690  37.964  1.00  0.00    -0.744 OA
ENDBRANCH  90  93
ENDBRANCH  63  86
ENDBRANCH  37  38
ENDBRANCH  30  32
ENDBRANCH  29  30
ENDBRANCH  28  29
ENDBRANCH  27  28
ENDBRANCH   1  27
TORSDOF 20
ENDMDL
MODEL 3
REMARK VINA RESULT:     -11.9      1.233      7.574
REMARK SMILES NC(=O)COc1ccc(/C=C2\SC(=S)N(CCC(=O)OCCOC(=O)c3ccc(-c4c5nc(c(-c6cccc(S(=O)(=O)[O-])c6F)c6ccc([nH]6)c(-c6cccc(S(=O)(=O)[O-])c6F)c6nc(c(-c7cccc(S(=O)(=O)[O-])c7F)c7ccc4[nH]7)C=C6)C=C5)cc3)C2=O)cc1
REMARK SMILES IDX 20 1 18 2 19 3 17 4 16 5 15 6 10 7 11 8 12 9 89 10 13 11
REMARK SMILES IDX 90 12 14 13 9 14 6 15 7 16 92 17 8 18 91 19 5 20 4 21 2 22
REMARK SMILES IDX 1 23 3 26 21 27 22 28 23 29 24 30 25 31 26 32 27 33 88 34
REMARK SMILES IDX 28 35 87 36 29 37 30 38 31 39 81 40 32 41 86 42 80 43 82 44
REMARK SMILES IDX 33 45 85 46 79 47 78 48 34 50 66 51 46 52 65 53 47 54 50 55
REMARK SMILES IDX 64 56 83 57 48 58 49 59 63 61 84 62 51 63 35 64 36 65 44 66
REMARK SMILES IDX 37 67 39 68 45 69 38 70 40 71 41 72 42 73 43 74 67 75 68 76
REMARK SMILES IDX 76 77 69 78 71 79 77 80 70 81 72 82 73 83 74 84 75 85 52 86
REMARK SMILES IDX 53 87 61 88 54 89 56 90 62 91 55 92 57 93 58 94 59 95 60 96
REMARK H PARENT 1 24 1 25 82 49 50 60
REMARK Flexibility Score: inf
ROOT
ATOM      1  O   UNL A   1      35.288  22.650  24.386  1.00  0.00    -0.462 OA
ENDROOT
BRANCH   1   2
ATOM      2  C   UNL A   1      34.783  22.613  25.641  1.00  0.00     0.307 C 
ATOM      3  O   UNL A   1      35.048  23.415  26.526  1.00  0.00    -0.252 OA
BRANCH   2   4
ATOM      4  C   UNL A   1      33.912  21.400  25.873  1.00  0.00     0.144 C 
BRANCH   4   5
ATOM      5  C   UNL A   1      32.487  21.713  26.341  1.00  0.00     0.139 C 
BRANCH   5   6
ATOM      6  N   UNL A   1      31.825  22.676  25.460  1.00  0.00    -0.292 N 
ATOM      7  C   UNL A   1      30.790  26.083  25.256  1.00  0.00     0.029 C 
ATOM      8  C   UNL A   1      30.986  24.796  24.948  1.00  0.00     0.081 C 
ATOM      9  S   UNL A   1      31.033  24.033  23.415  1.00  0.00    -0.054 SA
ATOM     10  C   UNL A   1      31.286  23.821  26.011  1.00  0.00     0.266 C 
ATOM     11  C   UNL A   1      31.716  22.554  24.090  1.00  0.00     0.148 C 
ATOM     12  O   UNL A   1      31.065  24.052  27.188  1.00  0.00    -0.268 OA
ATOM     13  S   UNL A   1      32.165  21.269  23.126  1.00  0.00    -0.052 S 
BRANCH   7  14
ATOM     14  C   UNL A   1      30.447  27.112  24.287  1.00  0.00    -0.024 A 
ATOM     15  C   UNL A   1      29.710  29.036  22.410  1.00  0.00     0.120 A 
ATOM     16  C   UNL A   1      31.037  28.951  22.837  1.00  0.00     0.047 A 
ATOM     17  C   UNL A   1      28.759  28.146  22.908  1.00  0.00     0.047 A 
ATOM     18  C   UNL A   1      31.406  27.995  23.788  1.00  0.00     0.012 A 
ATOM     19  C   UNL A   1      29.124  27.194  23.850  1.00  0.00     0.012 A 
BRANCH  15  20
ATOM     20  O   UNL A   1      29.427  29.969  21.449  1.00  0.00    -0.484 OA
BRANCH  20  21
ATOM     21  C   UNL A   1      28.146  30.576  21.606  1.00  0.00     0.329 C 
BRANCH  21  22
ATOM     22  C   UNL A   1      28.065  31.688  22.654  1.00  0.00     0.255 C 
ATOM     23  N   UNL A   1      29.064  32.620  22.605  1.00  0.00    -0.367 N 
ATOM     24  H   UNL A   1      29.074  33.364  23.250  1.00  0.00     0.159 HD
ATOM     25  H   UNL A   1      29.772  32.547  21.926  1.00  0.00     0.159 HD
ATOM     26  O   UNL A   1      27.184  31.751  23.505  1.00  0.00    -0.271 OA
ENDBRANCH  21  22
ENDBRANCH  20  21
ENDBRANCH  15  20
ENDBRANCH   7  14
ENDBRANCH   5   6
ENDBRANCH   4   5
ENDBRANCH   2   4
ENDBRANCH   1   2
BRANCH   1  27
ATOM     27  C   UNL A   1      36.723  22.597  24.254  1.00  0.00     0.274 C 
BRANCH  27  28
ATOM     28  C   UNL A   1      37.293  21.229  24.641  1.00  0.00     0.275 C 
BRANCH  28  29
ATOM     29  O   UNL A   1      37.755  21.235  26.003  1.00  0.00    -0.458 OA
BRANCH  29  30
ATOM     30  C   UNL A   1      39.095  21.204  26.161  1.00  0.00     0.338 C 
ATOM     31  O   UNL A   1      39.874  20.331  25.826  1.00  0.00    -0.246 OA
BRANCH  30  32
ATOM     32  C   UNL A   1      39.566  22.474  26.715  1.00  0.00     0.060 A 
ATOM     33  C   UNL A   1      39.037  23.653  26.185  1.00  0.00     0.016 A 
ATOM     34  C   UNL A   1      40.626  22.499  27.621  1.00  0.00     0.016 A 
ATOM     35  C   UNL A   1      39.593  24.875  26.536  1.00  0.00     0.010 A 
ATOM     36  C   UNL A   1      41.179  23.728  27.977  1.00  0.00     0.010 A 
ATOM     37  C   UNL A   1      40.685  24.916  27.409  1.00  0.00    -0.014 A 
BRANCH  37  38
ATOM     38  C   UNL A   1      41.366  26.205  27.653  1.00  0.00     0.031 A 
ATOM     39  C   UNL A   1      40.682  27.255  28.479  1.00  0.00     0.074 A 
ATOM     40  C   UNL A   1      42.592  26.415  27.145  1.00  0.00     0.049 A 
ATOM     41  N   UNL A   1      41.098  28.452  28.800  1.00  0.00    -0.248 NA
ATOM     42  C   UNL A   1      39.353  26.917  29.016  1.00  0.00     0.031 C 
ATOM     43  C   UNL A   1      43.341  25.458  26.328  1.00  0.00     0.029 A 
ATOM     44  N   UNL A   1      43.418  27.505  27.229  1.00  0.00    -0.354 N 
ATOM     45  C   UNL A   1      40.072  29.023  29.542  1.00  0.00     0.074 A 
ATOM     46  C   UNL A   1      39.010  28.045  29.622  1.00  0.00     0.031 C 
ATOM     47  C   UNL A   1      44.511  26.011  25.973  1.00  0.00     0.029 A 
ATOM     48  C   UNL A   1      44.585  27.363  26.520  1.00  0.00     0.049 A 
ATOM     49  H   UNL A   1      43.195  28.312  27.748  1.00  0.00     0.167 HD
ATOM     50  C   UNL A   1      40.029  30.248  30.117  1.00  0.00     0.034 A 
ATOM     51  C   UNL A   1      45.596  28.233  26.330  1.00  0.00     0.034 A 
ATOM     52  C   UNL A   1      41.107  31.198  30.061  1.00  0.00     0.049 A 
ATOM     53  C   UNL A   1      45.534  29.574  27.008  1.00  0.00     0.074 A 
ATOM     54  C   UNL A   1      41.175  32.457  30.631  1.00  0.00     0.029 A 
ATOM     55  N   UNL A   1      42.307  30.990  29.400  1.00  0.00    -0.354 N 
ATOM     56  N   UNL A   1      44.600  30.061  27.790  1.00  0.00    -0.248 NA
ATOM     57  C   UNL A   1      46.681  30.471  26.813  1.00  0.00     0.031 C 
ATOM     58  C   UNL A   1      42.421  33.011  30.312  1.00  0.00     0.029 A 
ATOM     59  C   UNL A   1      43.129  32.093  29.553  1.00  0.00     0.049 A 
ATOM     60  H   UNL A   1      42.541  30.177  28.897  1.00  0.00     0.167 HD
ATOM     61  C   UNL A   1      45.061  31.304  28.208  1.00  0.00     0.074 A 
ATOM     62  C   UNL A   1      46.368  31.486  27.607  1.00  0.00     0.031 C 
ATOM     63  C   UNL A   1      44.453  32.220  29.000  1.00  0.00     0.034 A 
BRANCH  50  64
ATOM     64  C   UNL A   1      38.790  30.610  30.891  1.00  0.00     0.023 A 
ATOM     65  C   UNL A   1      38.724  30.316  32.268  1.00  0.00     0.012 A 
ATOM     66  C   UNL A   1      37.714  31.275  30.274  1.00  0.00     0.148 A 
ATOM     67  C   UNL A   1      37.594  30.657  33.013  1.00  0.00     0.002 A 
ATOM     68  C   UNL A   1      36.607  31.644  31.030  1.00  0.00     0.091 A 
ATOM     69  F   UNL A   1      37.782  31.520  28.957  1.00  0.00    -0.205 F 
ATOM     70  C   UNL A   1      36.543  31.328  32.397  1.00  0.00     0.022 A 
BRANCH  68  71
ATOM     71  S   UNL A   1      35.234  32.572  30.337  1.00  0.00     0.127 S 
ATOM     72  O   UNL A   1      35.898  33.800  29.902  1.00  0.00    -0.237 OA
ATOM     73  O   UNL A   1      34.787  31.703  29.248  1.00  0.00    -0.237 OA
ATOM     74  O   UNL A   1      34.272  32.726  31.420  1.00  0.00    -0.744 OA
ENDBRANCH  68  71
ENDBRANCH  50  64
BRANCH  51  75
ATOM     75  C   UNL A   1      46.776  27.826  25.519  1.00  0.00     0.023 A 
ATOM     76  C   UNL A   1      46.743  27.991  24.121  1.00  0.00     0.012 A 
ATOM     77  C   UNL A   1      47.945  27.326  26.124  1.00  0.00     0.148 A 
ATOM     78  C   UNL A   1      47.844  27.642  23.338  1.00  0.00     0.002 A 
ATOM     79  C   UNL A   1      49.057  27.030  25.344  1.00  0.00     0.091 A 
ATOM     80  F   UNL A   1      47.953  27.158  27.454  1.00  0.00    -0.205 F 
ATOM     81  C   UNL A   1      49.004  27.173  23.949  1.00  0.00     0.022 A 
BRANCH  79  82
ATOM     82  S   UNL A   1      50.629  26.550  26.069  1.00  0.00     0.127 S 
ATOM     83  O   UNL A   1      50.289  25.286  26.716  1.00  0.00    -0.237 OA
ATOM     84  O   UNL A   1      51.489  26.428  24.891  1.00  0.00    -0.237 OA
ATOM     85  O   UNL A   1      50.993  27.646  26.958  1.00  0.00    -0.744 OA
ENDBRANCH  79  82
ENDBRANCH  51  75
BRANCH  63  86
ATOM     86  C   UNL A   1      45.206  33.489  29.296  1.00  0.00     0.023 A 
ATOM     87  C   UNL A   1      46.021  33.562  30.443  1.00  0.00     0.012 A 
ATOM     88  C   UNL A   1      45.162  34.579  28.406  1.00  0.00     0.148 A 
ATOM     89  C   UNL A   1      46.760  34.713  30.713  1.00  0.00     0.002 A 
ATOM     90  C   UNL A   1      45.935  35.706  28.659  1.00  0.00     0.091 A 
ATOM     91  F   UNL A   1      44.362  34.501  27.332  1.00  0.00    -0.205 F 
ATOM     92  C   UNL A   1      46.727  35.779  29.816  1.00  0.00     0.022 A 
BRANCH  90  93
ATOM     93  S   UNL A   1      46.009  37.079  27.502  1.00  0.00     0.127 S 
ATOM     94  O   UNL A   1      44.635  37.578  27.541  1.00  0.00    -0.237 OA
ATOM     95  O   UNL A   1      46.996  37.965  28.121  1.00  0.00    -0.237 OA
ATOM     96  O   UNL A   1      46.438  36.498  26.238  1.00  0.00    -0.744 OA
ENDBRANCH  90  93
ENDBRANCH  63  86
ENDBRANCH  37  38
ENDBRANCH  30  32
ENDBRANCH  29  30
ENDBRANCH  28  29
ENDBRANCH  27  28
ENDBRANCH   1  27
TORSDOF 20
ENDMDL
