MODEL 1
REMARK VINA RESULT:     -12.2      0.000      0.000
REMARK SMILES COC(=O)c1cccc(NC(=O)[C@@H]2[C@@H]3CC[C@@H](C3)[C@@H]2C(=O)OCCOC(=O)c2ccc(-c3c4nc(c(-c5cccc(S(=O)(=O)[O-])c5F)c5ccc([nH]5)c(-c5cccc(S(=O)(=O)[O-])c5F)c5nc(c(-c6cccc(S(=O)(=O)[O-])c6F)c6ccc3[nH]6)C=C5)C=C4)cc2)c1
REMARK SMILES IDX 23 1 22 2 20 3 21 4 19 5 13 6 14 7 15 8 18 9 17 10 16 11
REMARK SMILES IDX 11 12 10 13 12 15 9 16 5 17 6 18 91 19 7 20 8 21 3 22 4 23
REMARK SMILES IDX 2 24 1 25 24 26 25 27 26 28 27 29 28 30 29 31 90 32 30 33
REMARK SMILES IDX 89 34 31 35 32 36 33 37 83 38 34 39 88 40 82 41 84 42 35 43
REMARK SMILES IDX 87 44 81 45 80 46 36 48 68 49 48 50 67 51 49 52 52 53 66 54
REMARK SMILES IDX 85 55 50 56 51 57 65 59 86 60 53 61 37 62 38 63 46 64 39 65
REMARK SMILES IDX 41 66 47 67 40 68 42 69 43 70 44 71 45 72 69 73 70 74 78 75
REMARK SMILES IDX 71 76 73 77 79 78 72 79 74 80 75 81 76 82 77 83 54 84 55 85
REMARK SMILES IDX 63 86 56 87 58 88 64 89 57 90 59 91 60 92 61 93 62 94
REMARK H PARENT 10 14 84 47 52 58
REMARK Flexibility Score: inf
ROOT
ATOM      1  C   UNL A   1      35.213  23.263  24.119  1.00  0.00     0.274 C 
ENDROOT
BRANCH   1   2
ATOM      2  O   UNL A   1      34.377  23.656  25.229  1.00  0.00    -0.462 OA
BRANCH   2   3
ATOM      3  C   UNL A   1      33.677  24.815  25.039  1.00  0.00     0.310 C 
ATOM      4  O   UNL A   1      34.189  25.854  24.656  1.00  0.00    -0.252 OA
BRANCH   3   5
ATOM      5  C   UNL A   1      32.223  24.637  25.475  1.00  0.00     0.115 C 
ATOM      6  C   UNL A   1      31.168  24.302  24.391  1.00  0.00     0.096 C 
ATOM      7  C   UNL A   1      30.151  25.479  24.555  1.00  0.00     0.003 C 
ATOM      8  C   UNL A   1      30.706  26.889  24.222  1.00  0.00     0.005 C 
ATOM      9  C   UNL A   1      30.106  25.580  26.083  1.00  0.00     0.009 C 
ATOM     10  C   UNL A   1      31.609  25.876  26.197  1.00  0.00     0.004 C 
ATOM     11  C   UNL A   1      31.686  27.166  25.363  1.00  0.00     0.005 C 
BRANCH   6  12
ATOM     12  C   UNL A   1      31.702  24.173  22.996  1.00  0.00     0.228 C 
ATOM     13  N   UNL A   1      32.172  23.051  22.408  1.00  0.00    -0.326 N 
ATOM     14  H   UNL A   1      32.777  23.283  21.666  1.00  0.00     0.169 HD
ATOM     15  O   UNL A   1      31.804  25.198  22.320  1.00  0.00    -0.274 OA
BRANCH  13  16
ATOM     16  C   UNL A   1      32.065  21.660  22.526  1.00  0.00     0.042 A 
ATOM     17  C   UNL A   1      32.442  19.780  24.061  1.00  0.00     0.062 A 
ATOM     18  C   UNL A   1      32.308  18.897  22.990  1.00  0.00     0.016 A 
ATOM     19  C   UNL A   1      32.295  21.151  23.823  1.00  0.00     0.041 A 
ATOM     20  C   UNL A   1      32.023  19.385  21.713  1.00  0.00     0.003 A 
ATOM     21  C   UNL A   1      31.910  20.764  21.477  1.00  0.00     0.026 A 
BRANCH  17  22
ATOM     22  C   UNL A   1      32.812  19.234  25.394  1.00  0.00     0.337 C 
ATOM     23  O   UNL A   1      33.591  19.810  26.150  1.00  0.00    -0.246 OA
BRANCH  22  24
ATOM     24  O   UNL A   1      32.208  18.047  25.630  1.00  0.00    -0.465 OA
ATOM     25  C   UNL A   1      33.101  16.926  25.691  1.00  0.00     0.282 C 
ENDBRANCH  22  24
ENDBRANCH  17  22
ENDBRANCH  13  16
ENDBRANCH   6  12
ENDBRANCH   3   5
ENDBRANCH   2   3
ENDBRANCH   1   2
BRANCH   1  26
ATOM     26  C   UNL A   1      35.930  21.938  24.364  1.00  0.00     0.275 C 
BRANCH  26  27
ATOM     27  O   UNL A   1      37.353  22.071  24.207  1.00  0.00    -0.458 OA
BRANCH  27  28
ATOM     28  C   UNL A   1      38.095  21.501  25.190  1.00  0.00     0.338 C 
ATOM     29  O   UNL A   1      38.432  20.328  25.242  1.00  0.00    -0.246 OA
BRANCH  28  30
ATOM     30  C   UNL A   1      38.577  22.486  26.191  1.00  0.00     0.060 A 
ATOM     31  C   UNL A   1      38.049  23.763  26.240  1.00  0.00     0.016 A 
ATOM     32  C   UNL A   1      39.763  22.217  26.887  1.00  0.00     0.016 A 
ATOM     33  C   UNL A   1      38.837  24.799  26.761  1.00  0.00     0.010 A 
ATOM     34  C   UNL A   1      40.469  23.248  27.532  1.00  0.00     0.010 A 
ATOM     35  C   UNL A   1      40.066  24.583  27.407  1.00  0.00    -0.014 A 
BRANCH  35  36
ATOM     36  C   UNL A   1      40.914  25.725  27.908  1.00  0.00     0.031 A 
ATOM     37  C   UNL A   1      40.339  26.826  28.787  1.00  0.00     0.074 A 
ATOM     38  C   UNL A   1      42.227  25.799  27.597  1.00  0.00     0.049 A 
ATOM     39  N   UNL A   1      40.826  28.012  29.067  1.00  0.00    -0.248 NA
ATOM     40  C   UNL A   1      39.045  26.566  29.435  1.00  0.00     0.031 C 
ATOM     41  C   UNL A   1      42.980  24.805  26.832  1.00  0.00     0.029 A 
ATOM     42  N   UNL A   1      43.169  26.764  27.881  1.00  0.00    -0.354 N 
ATOM     43  C   UNL A   1      39.858  28.668  29.828  1.00  0.00     0.074 A 
ATOM     44  C   UNL A   1      38.770  27.731  30.008  1.00  0.00     0.031 C 
ATOM     45  C   UNL A   1      44.265  25.165  26.767  1.00  0.00     0.029 A 
ATOM     46  C   UNL A   1      44.393  26.508  27.305  1.00  0.00     0.049 A 
ATOM     47  H   UNL A   1      42.986  27.554  28.439  1.00  0.00     0.167 HD
ATOM     48  C   UNL A   1      39.870  29.935  30.317  1.00  0.00     0.034 A 
ATOM     49  C   UNL A   1      45.475  27.285  27.110  1.00  0.00     0.034 A 
ATOM     50  C   UNL A   1      40.993  30.834  30.204  1.00  0.00     0.049 A 
ATOM     51  C   UNL A   1      45.442  28.705  27.574  1.00  0.00     0.074 A 
ATOM     52  C   UNL A   1      41.119  32.125  30.687  1.00  0.00     0.029 A 
ATOM     53  N   UNL A   1      42.187  30.535  29.565  1.00  0.00    -0.354 N 
ATOM     54  N   UNL A   1      44.504  29.330  28.241  1.00  0.00    -0.248 NA
ATOM     55  C   UNL A   1      46.612  29.530  27.249  1.00  0.00     0.031 C 
ATOM     56  C   UNL A   1      42.372  32.620  30.308  1.00  0.00     0.029 A 
ATOM     57  C   UNL A   1      43.045  31.623  29.621  1.00  0.00     0.049 A 
ATOM     58  H   UNL A   1      42.397  29.674  29.136  1.00  0.00     0.167 HD
ATOM     59  C   UNL A   1      44.975  30.621  28.433  1.00  0.00     0.074 A 
ATOM     60  C   UNL A   1      46.292  30.679  27.829  1.00  0.00     0.031 C 
ATOM     61  C   UNL A   1      44.364  31.665  29.044  1.00  0.00     0.034 A 
BRANCH  48  62
ATOM     62  C   UNL A   1      38.623  30.457  30.999  1.00  0.00     0.023 A 
ATOM     63  C   UNL A   1      38.458  30.338  32.393  1.00  0.00     0.012 A 
ATOM     64  C   UNL A   1      37.635  31.137  30.251  1.00  0.00     0.148 A 
ATOM     65  C   UNL A   1      37.321  30.855  33.023  1.00  0.00     0.002 A 
ATOM     66  C   UNL A   1      36.529  31.687  30.890  1.00  0.00     0.091 A 
ATOM     67  F   UNL A   1      37.793  31.231  28.923  1.00  0.00    -0.205 F 
ATOM     68  C   UNL A   1      36.364  31.536  32.275  1.00  0.00     0.022 A 
BRANCH  66  69
ATOM     69  S   UNL A   1      35.290  32.653  30.014  1.00  0.00     0.127 S 
ATOM     70  O   UNL A   1      34.793  31.685  29.038  1.00  0.00    -0.237 OA
ATOM     71  O   UNL A   1      34.342  32.988  31.077  1.00  0.00    -0.237 OA
ATOM     72  O   UNL A   1      36.000  33.797  29.459  1.00  0.00    -0.744 OA
ENDBRANCH  66  69
ENDBRANCH  48  62
BRANCH  49  73
ATOM     73  C   UNL A   1      46.647  26.719  26.382  1.00  0.00     0.023 A 
ATOM     74  C   UNL A   1      46.751  26.904  24.992  1.00  0.00     0.012 A 
ATOM     75  C   UNL A   1      47.717  26.119  27.080  1.00  0.00     0.148 A 
ATOM     76  C   UNL A   1      47.907  26.517  24.313  1.00  0.00     0.002 A 
ATOM     77  C   UNL A   1      48.894  25.810  26.411  1.00  0.00     0.091 A 
ATOM     78  F   UNL A   1      47.585  25.926  28.401  1.00  0.00    -0.205 F 
ATOM     79  C   UNL A   1      48.986  25.994  25.025  1.00  0.00     0.022 A 
BRANCH  77  80
ATOM     80  S   UNL A   1      50.389  25.321  27.281  1.00  0.00     0.127 S 
ATOM     81  O   UNL A   1      51.309  25.066  26.175  1.00  0.00    -0.237 OA
ATOM     82  O   UNL A   1      50.688  26.520  28.067  1.00  0.00    -0.237 OA
ATOM     83  O   UNL A   1      50.020  24.160  28.079  1.00  0.00    -0.744 OA
ENDBRANCH  77  80
ENDBRANCH  49  73
BRANCH  61  84
ATOM     84  C   UNL A   1      45.138  32.953  29.124  1.00  0.00     0.023 A 
ATOM     85  C   UNL A   1      46.027  33.173  30.194  1.00  0.00     0.012 A 
ATOM     86  C   UNL A   1      44.995  33.936  28.127  1.00  0.00     0.148 A 
ATOM     87  C   UNL A   1      46.733  34.372  30.291  1.00  0.00     0.002 A 
ATOM     88  C   UNL A   1      45.738  35.107  28.204  1.00  0.00     0.091 A 
ATOM     89  F   UNL A   1      44.126  33.715  27.130  1.00  0.00    -0.205 F 
ATOM     90  C   UNL A   1      46.595  35.334  29.293  1.00  0.00     0.022 A 
BRANCH  88  91
ATOM     91  S   UNL A   1      45.687  36.364  26.922  1.00  0.00     0.127 S 
ATOM     92  O   UNL A   1      46.640  37.349  27.432  1.00  0.00    -0.237 OA
ATOM     93  O   UNL A   1      46.146  35.624  25.745  1.00  0.00    -0.237 OA
ATOM     94  O   UNL A   1      44.303  36.811  26.852  1.00  0.00    -0.744 OA
ENDBRANCH  88  91
ENDBRANCH  61  84
ENDBRANCH  35  36
ENDBRANCH  28  30
ENDBRANCH  27  28
ENDBRANCH  26  27
ENDBRANCH   1  26
TORSDOF 18
ENDMDL
MODEL 2
REMARK VINA RESULT:     -11.1      4.466      7.305
REMARK SMILES COC(=O)c1cccc(NC(=O)[C@@H]2[C@@H]3CC[C@@H](C3)[C@@H]2C(=O)OCCOC(=O)c2ccc(-c3c4nc(c(-c5cccc(S(=O)(=O)[O-])c5F)c5ccc([nH]5)c(-c5cccc(S(=O)(=O)[O-])c5F)c5nc(c(-c6cccc(S(=O)(=O)[O-])c6F)c6ccc3[nH]6)C=C5)C=C4)cc2)c1
REMARK SMILES IDX 23 1 22 2 20 3 21 4 19 5 13 6 14 7 15 8 18 9 17 10 16 11
REMARK SMILES IDX 11 12 10 13 12 15 9 16 5 17 6 18 91 19 7 20 8 21 3 22 4 23
REMARK SMILES IDX 2 24 1 25 24 26 25 27 26 28 27 29 28 30 29 31 90 32 30 33
REMARK SMILES IDX 89 34 31 35 32 36 33 37 83 38 34 39 88 40 82 41 84 42 35 43
REMARK SMILES IDX 87 44 81 45 80 46 36 48 68 49 48 50 67 51 49 52 52 53 66 54
REMARK SMILES IDX 85 55 50 56 51 57 65 59 86 60 53 61 37 62 38 63 46 64 39 65
REMARK SMILES IDX 41 66 47 67 40 68 42 69 43 70 44 71 45 72 69 73 70 74 78 75
REMARK SMILES IDX 71 76 73 77 79 78 72 79 74 80 75 81 76 82 77 83 54 84 55 85
REMARK SMILES IDX 63 86 56 87 58 88 64 89 57 90 59 91 60 92 61 93 62 94
REMARK H PARENT 10 14 84 47 52 58
REMARK Flexibility Score: inf
ROOT
ATOM      1  C   UNL A   1      31.530  28.873  25.843  1.00  0.00     0.274 C 
ENDROOT
BRANCH   1   2
ATOM      2  O   UNL A   1      32.605  28.139  25.217  1.00  0.00    -0.462 OA
BRANCH   2   3
ATOM      3  C   UNL A   1      32.419  26.786  25.159  1.00  0.00     0.310 C 
ATOM      4  O   UNL A   1      32.231  26.091  26.144  1.00  0.00    -0.252 OA
BRANCH   3   5
ATOM      5  C   UNL A   1      32.589  26.286  23.726  1.00  0.00     0.115 C 
ATOM      6  C   UNL A   1      31.550  25.278  23.172  1.00  0.00     0.096 C 
ATOM      7  C   UNL A   1      32.456  24.070  22.766  1.00  0.00     0.003 C 
ATOM      8  C   UNL A   1      33.186  23.363  23.938  1.00  0.00     0.005 C 
ATOM      9  C   UNL A   1      33.639  24.820  22.147  1.00  0.00     0.009 C 
ATOM     10  C   UNL A   1      33.952  25.579  23.445  1.00  0.00     0.004 C 
ATOM     11  C   UNL A   1      34.226  24.392  24.383  1.00  0.00     0.005 C 
BRANCH   6  12
ATOM     12  C   UNL A   1      30.454  24.902  24.123  1.00  0.00     0.228 C 
ATOM     13  N   UNL A   1      29.359  25.633  24.428  1.00  0.00    -0.326 N 
ATOM     14  H   UNL A   1      29.002  25.360  25.304  1.00  0.00     0.169 HD
ATOM     15  O   UNL A   1      30.578  23.856  24.762  1.00  0.00    -0.274 OA
BRANCH  13  16
ATOM     16  C   UNL A   1      28.575  26.658  23.885  1.00  0.00     0.042 A 
ATOM     17  C   UNL A   1      28.688  28.856  22.795  1.00  0.00     0.062 A 
ATOM     18  C   UNL A   1      27.325  29.029  23.035  1.00  0.00     0.016 A 
ATOM     19  C   UNL A   1      29.294  27.661  23.201  1.00  0.00     0.041 A 
ATOM     20  C   UNL A   1      26.591  28.018  23.659  1.00  0.00     0.003 A 
ATOM     21  C   UNL A   1      27.214  26.838  24.092  1.00  0.00     0.026 A 
BRANCH  17  22
ATOM     22  C   UNL A   1      29.455  29.977  22.189  1.00  0.00     0.337 C 
ATOM     23  O   UNL A   1      30.499  29.802  21.567  1.00  0.00    -0.246 OA
BRANCH  22  24
ATOM     24  O   UNL A   1      28.867  31.171  22.436  1.00  0.00    -0.465 OA
ATOM     25  C   UNL A   1      28.349  31.831  21.273  1.00  0.00     0.282 C 
ENDBRANCH  22  24
ENDBRANCH  17  22
ENDBRANCH  13  16
ENDBRANCH   6  12
ENDBRANCH   3   5
ENDBRANCH   2   3
ENDBRANCH   1   2
BRANCH   1  26
ATOM     26  C   UNL A   1      31.809  30.372  25.919  1.00  0.00     0.275 C 
BRANCH  26  27
ATOM     27  O   UNL A   1      32.127  30.782  27.260  1.00  0.00    -0.458 OA
BRANCH  27  28
ATOM     28  C   UNL A   1      33.064  31.758  27.355  1.00  0.00     0.338 C 
ATOM     29  O   UNL A   1      32.847  32.961  27.354  1.00  0.00    -0.246 OA
BRANCH  28  30
ATOM     30  C   UNL A   1      34.431  31.223  27.579  1.00  0.00     0.060 A 
ATOM     31  C   UNL A   1      34.657  29.860  27.641  1.00  0.00     0.016 A 
ATOM     32  C   UNL A   1      35.436  32.096  28.017  1.00  0.00     0.016 A 
ATOM     33  C   UNL A   1      35.760  29.391  28.369  1.00  0.00     0.010 A 
ATOM     34  C   UNL A   1      36.609  31.601  28.615  1.00  0.00     0.010 A 
ATOM     35  C   UNL A   1      36.758  30.236  28.886  1.00  0.00    -0.014 A 
BRANCH  35  36
ATOM     36  C   UNL A   1      37.903  29.704  29.710  1.00  0.00     0.031 A 
ATOM     37  C   UNL A   1      38.133  30.150  31.147  1.00  0.00     0.074 A 
ATOM     38  C   UNL A   1      38.762  28.796  29.196  1.00  0.00     0.049 A 
ATOM     39  N   UNL A   1      39.202  30.030  31.899  1.00  0.00    -0.248 NA
ATOM     40  C   UNL A   1      37.018  30.822  31.831  1.00  0.00     0.031 C 
ATOM     41  C   UNL A   1      38.668  28.190  27.867  1.00  0.00     0.029 A 
ATOM     42  N   UNL A   1      39.898  28.226  29.727  1.00  0.00    -0.354 N 
ATOM     43  C   UNL A   1      38.924  30.698  33.091  1.00  0.00     0.074 A 
ATOM     44  C   UNL A   1      37.566  31.184  32.985  1.00  0.00     0.031 C 
ATOM     45  C   UNL A   1      39.644  27.291  27.712  1.00  0.00     0.029 A 
ATOM     46  C   UNL A   1      40.552  27.401  28.840  1.00  0.00     0.049 A 
ATOM     47  H   UNL A   1      40.210  28.392  30.646  1.00  0.00     0.167 HD
ATOM     48  C   UNL A   1      39.730  30.900  34.165  1.00  0.00     0.034 A 
ATOM     49  C   UNL A   1      41.790  26.871  28.850  1.00  0.00     0.034 A 
ATOM     50  C   UNL A   1      41.055  30.341  34.297  1.00  0.00     0.049 A 
ATOM     51  C   UNL A   1      42.700  27.173  29.995  1.00  0.00     0.074 A 
ATOM     52  C   UNL A   1      41.942  30.460  35.354  1.00  0.00     0.029 A 
ATOM     53  N   UNL A   1      41.682  29.553  33.343  1.00  0.00    -0.354 N 
ATOM     54  N   UNL A   1      42.448  27.850  31.088  1.00  0.00    -0.248 NA
ATOM     55  C   UNL A   1      44.067  26.648  29.905  1.00  0.00     0.031 C 
ATOM     56  C   UNL A   1      43.119  29.777  35.023  1.00  0.00     0.029 A 
ATOM     57  C   UNL A   1      42.951  29.199  33.775  1.00  0.00     0.049 A 
ATOM     58  H   UNL A   1      41.283  29.283  32.484  1.00  0.00     0.167 HD
ATOM     59  C   UNL A   1      43.621  27.819  31.828  1.00  0.00     0.074 A 
ATOM     60  C   UNL A   1      44.576  27.038  31.066  1.00  0.00     0.031 C 
ATOM     61  C   UNL A   1      43.885  28.398  33.025  1.00  0.00     0.034 A 
BRANCH  48  62
ATOM     62  C   UNL A   1      39.231  31.787  35.286  1.00  0.00     0.023 A 
ATOM     63  C   UNL A   1      38.358  31.286  36.271  1.00  0.00     0.012 A 
ATOM     64  C   UNL A   1      39.695  33.118  35.399  1.00  0.00     0.148 A 
ATOM     65  C   UNL A   1      37.929  32.098  37.325  1.00  0.00     0.002 A 
ATOM     66  C   UNL A   1      39.299  33.907  36.474  1.00  0.00     0.091 A 
ATOM     67  F   UNL A   1      40.513  33.591  34.448  1.00  0.00    -0.205 F 
ATOM     68  C   UNL A   1      38.406  33.403  37.432  1.00  0.00     0.022 A 
BRANCH  66  69
ATOM     69  S   UNL A   1      39.932  35.570  36.733  1.00  0.00     0.127 S 
ATOM     70  O   UNL A   1      41.376  35.340  36.755  1.00  0.00    -0.237 OA
ATOM     71  O   UNL A   1      39.447  36.280  35.548  1.00  0.00    -0.237 OA
ATOM     72  O   UNL A   1      39.348  36.026  37.987  1.00  0.00    -0.744 OA
ENDBRANCH  66  69
ENDBRANCH  48  62
BRANCH  49  73
ATOM     73  C   UNL A   1      42.232  26.051  27.685  1.00  0.00     0.023 A 
ATOM     74  C   UNL A   1      43.089  26.620  26.727  1.00  0.00     0.012 A 
ATOM     75  C   UNL A   1      41.915  24.678  27.599  1.00  0.00     0.148 A 
ATOM     76  C   UNL A   1      43.636  25.832  25.713  1.00  0.00     0.002 A 
ATOM     77  C   UNL A   1      42.525  23.886  26.636  1.00  0.00     0.091 A 
ATOM     78  F   UNL A   1      41.072  24.163  28.507  1.00  0.00    -0.205 F 
ATOM     79  C   UNL A   1      43.374  24.463  25.683  1.00  0.00     0.022 A 
BRANCH  77  80
ATOM     80  S   UNL A   1      42.396  22.092  26.651  1.00  0.00     0.127 S 
ATOM     81  O   UNL A   1      42.657  21.785  28.055  1.00  0.00    -0.237 OA
ATOM     82  O   UNL A   1      41.012  21.885  26.221  1.00  0.00    -0.237 OA
ATOM     83  O   UNL A   1      43.395  21.617  25.703  1.00  0.00    -0.744 OA
ENDBRANCH  77  80
ENDBRANCH  49  73
BRANCH  61  84
ATOM     84  C   UNL A   1      45.255  28.171  33.603  1.00  0.00     0.023 A 
ATOM     85  C   UNL A   1      45.491  27.060  34.436  1.00  0.00     0.012 A 
ATOM     86  C   UNL A   1      46.313  29.050  33.304  1.00  0.00     0.148 A 
ATOM     87  C   UNL A   1      46.751  26.850  34.996  1.00  0.00     0.002 A 
ATOM     88  C   UNL A   1      47.577  28.808  33.825  1.00  0.00     0.091 A 
ATOM     89  F   UNL A   1      46.060  30.114  32.527  1.00  0.00    -0.205 F 
ATOM     90  C   UNL A   1      47.794  27.719  34.684  1.00  0.00     0.022 A 
BRANCH  88  91
ATOM     91  S   UNL A   1      48.998  29.825  33.410  1.00  0.00     0.127 S 
ATOM     92  O   UNL A   1      48.612  31.120  33.967  1.00  0.00    -0.237 OA
ATOM     93  O   UNL A   1      50.081  29.151  34.129  1.00  0.00    -0.237 OA
ATOM     94  O   UNL A   1      49.116  29.778  31.959  1.00  0.00    -0.744 OA
ENDBRANCH  88  91
ENDBRANCH  61  84
ENDBRANCH  35  36
ENDBRANCH  28  30
ENDBRANCH  27  28
ENDBRANCH  26  27
ENDBRANCH   1  26
TORSDOF 18
ENDMDL
MODEL 3
REMARK VINA RESULT:     -11.0      1.914      4.105
REMARK SMILES COC(=O)c1cccc(NC(=O)[C@@H]2[C@@H]3CC[C@@H](C3)[C@@H]2C(=O)OCCOC(=O)c2ccc(-c3c4nc(c(-c5cccc(S(=O)(=O)[O-])c5F)c5ccc([nH]5)c(-c5cccc(S(=O)(=O)[O-])c5F)c5nc(c(-c6cccc(S(=O)(=O)[O-])c6F)c6ccc3[nH]6)C=C5)C=C4)cc2)c1
REMARK SMILES IDX 23 1 22 2 20 3 21 4 19 5 13 6 14 7 15 8 18 9 17 10 16 11
REMARK SMILES IDX 11 12 10 13 12 15 9 16 5 17 6 18 91 19 7 20 8 21 3 22 4 23
REMARK SMILES IDX 2 24 1 25 24 26 25 27 26 28 27 29 28 30 29 31 90 32 30 33
REMARK SMILES IDX 89 34 31 35 32 36 33 37 83 38 34 39 88 40 82 41 84 42 35 43
REMARK SMILES IDX 87 44 81 45 80 46 36 48 68 49 48 50 67 51 49 52 52 53 66 54
REMARK SMILES IDX 85 55 50 56 51 57 65 59 86 60 53 61 37 62 38 63 46 64 39 65
REMARK SMILES IDX 41 66 47 67 40 68 42 69 43 70 44 71 45 72 69 73 70 74 78 75
REMARK SMILES IDX 71 76 73 77 79 78 72 79 74 80 75 81 76 82 77 83 54 84 55 85
REMARK SMILES IDX 63 86 56 87 58 88 64 89 57 90 59 91 60 92 61 93 62 94
REMARK H PARENT 10 14 84 47 52 58
REMARK Flexibility Score: inf
ROOT
ATOM      1  C   UNL A   1      36.692  22.250  25.352  1.00  0.00     0.274 C 
ENDROOT
BRANCH   1   2
ATOM      2  O   UNL A   1      35.711  22.310  24.294  1.00  0.00    -0.462 OA
BRANCH   2   3
ATOM      3  C   UNL A   1      34.948  23.445  24.281  1.00  0.00     0.310 C 
ATOM      4  O   UNL A   1      35.247  24.462  24.884  1.00  0.00    -0.252 OA
BRANCH   3   5
ATOM      5  C   UNL A   1      33.652  23.207  23.508  1.00  0.00     0.115 C 
ATOM      6  C   UNL A   1      32.349  23.856  24.041  1.00  0.00     0.096 C 
ATOM      7  C   UNL A   1      31.425  22.610  24.239  1.00  0.00     0.003 C 
ATOM      8  C   UNL A   1      31.896  21.597  25.316  1.00  0.00     0.005 C 
ATOM      9  C   UNL A   1      31.774  21.816  22.976  1.00  0.00     0.009 C 
ATOM     10  C   UNL A   1      33.260  21.705  23.349  1.00  0.00     0.004 C 
ATOM     11  C   UNL A   1      33.139  20.963  24.691  1.00  0.00     0.005 C 
BRANCH   6  12
ATOM     12  C   UNL A   1      32.507  24.679  25.284  1.00  0.00     0.228 C 
ATOM     13  N   UNL A   1      32.784  26.000  25.352  1.00  0.00    -0.326 N 
ATOM     14  H   UNL A   1      33.185  26.218  26.225  1.00  0.00     0.169 HD
ATOM     15  O   UNL A   1      32.458  24.099  26.370  1.00  0.00    -0.274 OA
BRANCH  13  16
ATOM     16  C   UNL A   1      32.677  27.154  24.568  1.00  0.00     0.042 A 
ATOM     17  C   UNL A   1      31.123  28.454  23.179  1.00  0.00     0.062 A 
ATOM     18  C   UNL A   1      32.203  29.174  22.669  1.00  0.00     0.016 A 
ATOM     19  C   UNL A   1      31.368  27.468  24.142  1.00  0.00     0.041 A 
ATOM     20  C   UNL A   1      33.496  28.911  23.126  1.00  0.00     0.003 A 
ATOM     21  C   UNL A   1      33.737  27.898  24.067  1.00  0.00     0.026 A 
BRANCH  17  22
ATOM     22  C   UNL A   1      29.767  28.711  22.624  1.00  0.00     0.337 C 
ATOM     23  O   UNL A   1      28.758  28.175  23.073  1.00  0.00    -0.246 OA
BRANCH  22  24
ATOM     24  O   UNL A   1      29.814  29.568  21.578  1.00  0.00    -0.465 OA
ATOM     25  C   UNL A   1      28.665  30.418  21.453  1.00  0.00     0.282 C 
ENDBRANCH  22  24
ENDBRANCH  17  22
ENDBRANCH  13  16
ENDBRANCH   6  12
ENDBRANCH   3   5
ENDBRANCH   2   3
ENDBRANCH   1   2
BRANCH   1  26
ATOM     26  C   UNL A   1      37.923  21.434  24.966  1.00  0.00     0.275 C 
BRANCH  26  27
ATOM     27  O   UNL A   1      38.720  21.107  26.117  1.00  0.00    -0.458 OA
BRANCH  27  28
ATOM     28  C   UNL A   1      39.951  21.677  26.144  1.00  0.00     0.338 C 
ATOM     29  O   UNL A   1      40.912  21.334  25.472  1.00  0.00    -0.246 OA
BRANCH  28  30
ATOM     30  C   UNL A   1      40.011  22.875  27.018  1.00  0.00     0.060 A 
ATOM     31  C   UNL A   1      39.445  24.073  26.619  1.00  0.00     0.016 A 
ATOM     32  C   UNL A   1      40.890  22.873  28.110  1.00  0.00     0.016 A 
ATOM     33  C   UNL A   1      39.957  25.269  27.142  1.00  0.00     0.010 A 
ATOM     34  C   UNL A   1      41.282  24.078  28.721  1.00  0.00     0.010 A 
ATOM     35  C   UNL A   1      40.891  25.314  28.192  1.00  0.00    -0.014 A 
BRANCH  35  36
ATOM     36  C   UNL A   1      41.461  26.615  28.695  1.00  0.00     0.031 A 
ATOM     37  C   UNL A   1      40.576  27.704  29.286  1.00  0.00     0.074 A 
ATOM     38  C   UNL A   1      42.790  26.854  28.646  1.00  0.00     0.049 A 
ATOM     39  N   UNL A   1      40.839  28.972  29.498  1.00  0.00    -0.248 NA
ATOM     40  C   UNL A   1      39.216  27.320  29.693  1.00  0.00     0.031 C 
ATOM     41  C   UNL A   1      43.809  25.909  28.185  1.00  0.00     0.029 A 
ATOM     42  N   UNL A   1      43.520  27.973  28.981  1.00  0.00    -0.354 N 
ATOM     43  C   UNL A   1      39.655  29.550  29.956  1.00  0.00     0.074 A 
ATOM     44  C   UNL A   1      38.680  28.485  30.038  1.00  0.00     0.031 C 
ATOM     45  C   UNL A   1      45.022  26.449  28.331  1.00  0.00     0.029 A 
ATOM     46  C   UNL A   1      44.862  27.845  28.700  1.00  0.00     0.049 A 
ATOM     47  H   UNL A   1      43.123  28.780  29.381  1.00  0.00     0.167 HD
ATOM     48  C   UNL A   1      39.403  30.848  30.264  1.00  0.00     0.034 A 
ATOM     49  C   UNL A   1      45.855  28.751  28.623  1.00  0.00     0.034 A 
ATOM     50  C   UNL A   1      40.403  31.890  30.259  1.00  0.00     0.049 A 
ATOM     51  C   UNL A   1      45.545  30.190  28.877  1.00  0.00     0.074 A 
ATOM     52  C   UNL A   1      40.258  33.228  30.581  1.00  0.00     0.029 A 
ATOM     53  N   UNL A   1      41.735  31.708  29.917  1.00  0.00    -0.354 N 
ATOM     54  N   UNL A   1      44.415  30.733  29.254  1.00  0.00    -0.248 NA
ATOM     55  C   UNL A   1      46.645  31.143  28.685  1.00  0.00     0.031 C 
ATOM     56  C   UNL A   1      41.492  33.864  30.397  1.00  0.00     0.029 A 
ATOM     57  C   UNL A   1      42.416  32.912  29.997  1.00  0.00     0.049 A 
ATOM     58  H   UNL A   1      42.138  30.848  29.657  1.00  0.00     0.167 HD
ATOM     59  C   UNL A   1      44.668  32.093  29.363  1.00  0.00     0.074 A 
ATOM     60  C   UNL A   1      46.067  32.285  29.032  1.00  0.00     0.031 C 
ATOM     61  C   UNL A   1      43.814  33.092  29.695  1.00  0.00     0.034 A 
BRANCH  48  62
ATOM     62  C   UNL A   1      37.982  31.245  30.608  1.00  0.00     0.023 A 
ATOM     63  C   UNL A   1      37.556  31.317  31.948  1.00  0.00     0.012 A 
ATOM     64  C   UNL A   1      37.082  31.620  29.585  1.00  0.00     0.148 A 
ATOM     65  C   UNL A   1      36.254  31.721  32.263  1.00  0.00     0.002 A 
ATOM     66  C   UNL A   1      35.803  32.062  29.907  1.00  0.00     0.091 A 
ATOM     67  F   UNL A   1      37.491  31.533  28.311  1.00  0.00    -0.205 F 
ATOM     68  C   UNL A   1      35.383  32.101  31.245  1.00  0.00     0.022 A 
BRANCH  66  69
ATOM     69  S   UNL A   1      34.645  32.651  28.663  1.00  0.00     0.127 S 
ATOM     70  O   UNL A   1      33.736  33.468  29.464  1.00  0.00    -0.237 OA
ATOM     71  O   UNL A   1      35.512  33.410  27.761  1.00  0.00    -0.237 OA
ATOM     72  O   UNL A   1      34.059  31.456  28.069  1.00  0.00    -0.744 OA
ENDBRANCH  66  69
ENDBRANCH  48  62
BRANCH  49  73
ATOM     73  C   UNL A   1      47.218  28.295  28.225  1.00  0.00     0.023 A 
ATOM     74  C   UNL A   1      48.158  27.981  29.222  1.00  0.00     0.012 A 
ATOM     75  C   UNL A   1      47.537  28.045  26.873  1.00  0.00     0.148 A 
ATOM     76  C   UNL A   1      49.385  27.411  28.881  1.00  0.00     0.002 A 
ATOM     77  C   UNL A   1      48.725  27.404  26.549  1.00  0.00     0.091 A 
ATOM     78  F   UNL A   1      46.636  28.379  25.936  1.00  0.00    -0.205 F 
ATOM     79  C   UNL A   1      49.657  27.100  27.549  1.00  0.00     0.022 A 
BRANCH  77  80
ATOM     80  S   UNL A   1      49.062  26.794  24.891  1.00  0.00     0.127 S 
ATOM     81  O   UNL A   1      49.196  28.038  24.137  1.00  0.00    -0.237 OA
ATOM     82  O   UNL A   1      50.310  26.055  25.089  1.00  0.00    -0.237 OA
ATOM     83  O   UNL A   1      47.922  25.959  24.538  1.00  0.00    -0.744 OA
ENDBRANCH  77  80
ENDBRANCH  49  73
BRANCH  61  84
ATOM     84  C   UNL A   1      44.385  34.483  29.755  1.00  0.00     0.023 A 
ATOM     85  C   UNL A   1      44.960  34.955  30.951  1.00  0.00     0.012 A 
ATOM     86  C   UNL A   1      44.366  35.313  28.619  1.00  0.00     0.148 A 
ATOM     87  C   UNL A   1      45.473  36.250  31.026  1.00  0.00     0.002 A 
ATOM     88  C   UNL A   1      44.922  36.584  28.687  1.00  0.00     0.091 A 
ATOM     89  F   UNL A   1      43.793  34.851  27.498  1.00  0.00    -0.205 F 
ATOM     90  C   UNL A   1      45.461  37.060  29.894  1.00  0.00     0.022 A 
BRANCH  88  91
ATOM     91  S   UNL A   1      45.027  37.665  27.257  1.00  0.00     0.127 S 
ATOM     92  O   UNL A   1      43.635  37.708  26.811  1.00  0.00    -0.237 OA
ATOM     93  O   UNL A   1      45.516  38.912  27.846  1.00  0.00    -0.237 OA
ATOM     94  O   UNL A   1      45.958  37.026  26.337  1.00  0.00    -0.744 OA
ENDBRANCH  88  91
ENDBRANCH  61  84
ENDBRANCH  35  36
ENDBRANCH  28  30
ENDBRANCH  27  28
ENDBRANCH  26  27
ENDBRANCH   1  26
TORSDOF 18
ENDMDL
