MODEL 1
REMARK VINA RESULT:     -12.0      0.000      0.000
REMARK SMILES O=C(OCCOC(=O)[C@@H](Cc1ccc(O)cc1)Nc1c2ccccc2nc2ccccc12)c1ccc(-c2c3nc(c(-c4cccc(S(=O)(=O)[O-])c4F)c4ccc([nH]4)c(-c4cccc(S(=O)(=O)[O-])c4F)c4nc(c(-c5cccc(S(=O)(=O)[O-])c5F)c5ccc2[nH]5)C=C4)C=C3)cc1
REMARK SMILES IDX 4 1 3 2 2 3 1 4 33 5 34 6 95 7 35 8 94 9 36 10 37 11 38 12
REMARK SMILES IDX 88 13 39 14 93 15 87 16 89 17 40 18 92 19 86 20 85 21 41 23
REMARK SMILES IDX 73 24 53 25 72 26 54 27 57 28 71 29 90 30 55 31 56 32 70 34
REMARK SMILES IDX 91 35 58 36 42 37 43 38 51 39 44 40 46 41 52 42 45 43 47 44
REMARK SMILES IDX 48 45 49 46 50 47 74 48 75 49 83 50 76 51 78 52 84 53 77 54
REMARK SMILES IDX 79 55 80 56 81 57 82 58 59 59 60 60 68 61 61 62 63 63 69 64
REMARK SMILES IDX 62 65 64 66 65 67 66 68 67 69 5 70 6 71 7 72 8 73 9 74 10 75
REMARK SMILES IDX 11 76 12 77 17 78 13 79 16 80 14 81 15 82 18 84 19 86 20 87
REMARK SMILES IDX 32 88 21 89 25 90 27 91 31 92 22 93 24 94 26 95 28 96 30 97
REMARK SMILES IDX 23 98 29 99
REMARK H PARENT 89 22 57 33 15 83 18 85
REMARK Flexibility Score: inf
ROOT
ATOM      1  C   UNL A   1      37.199  20.839  24.442  1.00  0.00     0.275 C 
ENDROOT
BRANCH   1   2
ATOM      2  O   UNL A   1      37.907  20.605  25.693  1.00  0.00    -0.458 OA
BRANCH   2   3
ATOM      3  C   UNL A   1      39.184  20.854  26.091  1.00  0.00     0.338 C 
ATOM      4  O   UNL A   1      39.945  19.907  26.277  1.00  0.00    -0.246 OA
BRANCH   3   5
ATOM      5  C   UNL A   1      39.648  22.202  26.543  1.00  0.00     0.060 A 
ATOM      6  C   UNL A   1      40.842  22.435  27.207  1.00  0.00     0.016 A 
ATOM      7  C   UNL A   1      38.813  23.315  26.302  1.00  0.00     0.016 A 
ATOM      8  C   UNL A   1      41.279  23.767  27.397  1.00  0.00     0.010 A 
ATOM      9  C   UNL A   1      39.253  24.652  26.508  1.00  0.00     0.010 A 
ATOM     10  C   UNL A   1      40.547  24.911  26.955  1.00  0.00    -0.014 A 
BRANCH  10  11
ATOM     11  C   UNL A   1      41.240  26.282  26.948  1.00  0.00     0.031 A 
ATOM     12  C   UNL A   1      40.654  27.330  27.848  1.00  0.00     0.074 A 
ATOM     13  C   UNL A   1      42.482  26.563  26.451  1.00  0.00     0.049 A 
ATOM     14  N   UNL A   1      41.238  28.342  28.435  1.00  0.00    -0.248 NA
ATOM     15  C   UNL A   1      39.233  27.159  28.174  1.00  0.00     0.031 C 
ATOM     16  C   UNL A   1      43.282  25.727  25.570  1.00  0.00     0.029 A 
ATOM     17  N   UNL A   1      43.367  27.602  26.748  1.00  0.00    -0.354 N 
ATOM     18  C   UNL A   1      40.257  28.920  29.219  1.00  0.00     0.074 A 
ATOM     19  C   UNL A   1      39.066  28.102  29.085  1.00  0.00     0.031 C 
ATOM     20  C   UNL A   1      44.558  26.149  25.551  1.00  0.00     0.029 A 
ATOM     21  C   UNL A   1      44.670  27.392  26.303  1.00  0.00     0.049 A 
ATOM     22  H   UNL A   1      43.093  28.415  27.231  1.00  0.00     0.167 HD
ATOM     23  C   UNL A   1      40.298  30.058  29.947  1.00  0.00     0.034 A 
ATOM     24  C   UNL A   1      45.820  28.101  26.452  1.00  0.00     0.034 A 
ATOM     25  C   UNL A   1      41.365  31.015  29.964  1.00  0.00     0.049 A 
ATOM     26  C   UNL A   1      45.787  29.442  27.155  1.00  0.00     0.074 A 
ATOM     27  C   UNL A   1      41.354  32.286  30.512  1.00  0.00     0.029 A 
ATOM     28  N   UNL A   1      42.597  30.852  29.363  1.00  0.00    -0.354 N 
ATOM     29  N   UNL A   1      44.860  29.952  27.926  1.00  0.00    -0.248 NA
ATOM     30  C   UNL A   1      46.959  30.324  26.980  1.00  0.00     0.031 C 
ATOM     31  C   UNL A   1      42.567  32.910  30.207  1.00  0.00     0.029 A 
ATOM     32  C   UNL A   1      43.353  32.004  29.519  1.00  0.00     0.049 A 
ATOM     33  H   UNL A   1      42.895  30.040  28.893  1.00  0.00     0.167 HD
ATOM     34  C   UNL A   1      45.332  31.207  28.311  1.00  0.00     0.074 A 
ATOM     35  C   UNL A   1      46.659  31.352  27.759  1.00  0.00     0.031 C 
ATOM     36  C   UNL A   1      44.693  32.166  29.021  1.00  0.00     0.034 A 
BRANCH  23  37
ATOM     37  C   UNL A   1      39.041  30.383  30.685  1.00  0.00     0.023 A 
ATOM     38  C   UNL A   1      38.847  29.894  31.991  1.00  0.00     0.012 A 
ATOM     39  C   UNL A   1      38.031  31.118  30.043  1.00  0.00     0.148 A 
ATOM     40  C   UNL A   1      37.636  30.112  32.640  1.00  0.00     0.002 A 
ATOM     41  C   UNL A   1      36.843  31.359  30.709  1.00  0.00     0.091 A 
ATOM     42  F   UNL A   1      38.241  31.523  28.783  1.00  0.00    -0.205 F 
ATOM     43  C   UNL A   1      36.639  30.848  32.003  1.00  0.00     0.022 A 
BRANCH  41  44
ATOM     44  S   UNL A   1      35.515  32.313  29.978  1.00  0.00     0.127 S 
ATOM     45  O   UNL A   1      36.194  33.572  29.674  1.00  0.00    -0.237 OA
ATOM     46  O   UNL A   1      35.172  31.502  28.810  1.00  0.00    -0.237 OA
ATOM     47  O   UNL A   1      34.474  32.401  30.992  1.00  0.00    -0.744 OA
ENDBRANCH  41  44
ENDBRANCH  23  37
BRANCH  24  48
ATOM     48  C   UNL A   1      47.146  27.657  25.875  1.00  0.00     0.023 A 
ATOM     49  C   UNL A   1      47.413  27.831  24.494  1.00  0.00     0.012 A 
ATOM     50  C   UNL A   1      48.076  26.925  26.638  1.00  0.00     0.148 A 
ATOM     51  C   UNL A   1      48.531  27.242  23.890  1.00  0.00     0.002 A 
ATOM     52  C   UNL A   1      49.230  26.415  26.048  1.00  0.00     0.091 A 
ATOM     53  F   UNL A   1      47.793  26.687  27.926  1.00  0.00    -0.205 F 
ATOM     54  C   UNL A   1      49.446  26.543  24.670  1.00  0.00     0.022 A 
BRANCH  52  55
ATOM     55  S   UNL A   1      50.518  25.616  27.011  1.00  0.00     0.127 S 
ATOM     56  O   UNL A   1      49.814  24.455  27.549  1.00  0.00    -0.237 OA
ATOM     57  O   UNL A   1      51.518  25.311  25.987  1.00  0.00    -0.237 OA
ATOM     58  O   UNL A   1      50.938  26.613  27.987  1.00  0.00    -0.744 OA
ENDBRANCH  52  55
ENDBRANCH  24  48
BRANCH  36  59
ATOM     59  C   UNL A   1      45.396  33.480  29.272  1.00  0.00     0.023 A 
ATOM     60  C   UNL A   1      46.233  33.632  30.396  1.00  0.00     0.012 A 
ATOM     61  C   UNL A   1      45.300  34.536  28.344  1.00  0.00     0.148 A 
ATOM     62  C   UNL A   1      46.934  34.821  30.609  1.00  0.00     0.002 A 
ATOM     63  C   UNL A   1      46.043  35.698  28.534  1.00  0.00     0.091 A 
ATOM     64  F   UNL A   1      44.487  34.387  27.288  1.00  0.00    -0.205 F 
ATOM     65  C   UNL A   1      46.850  35.847  29.673  1.00  0.00     0.022 A 
BRANCH  63  66
ATOM     66  S   UNL A   1      46.077  37.029  27.327  1.00  0.00     0.127 S 
ATOM     67  O   UNL A   1      44.709  37.537  27.405  1.00  0.00    -0.237 OA
ATOM     68  O   UNL A   1      47.093  37.925  27.880  1.00  0.00    -0.237 OA
ATOM     69  O   UNL A   1      46.442  36.411  26.060  1.00  0.00    -0.744 OA
ENDBRANCH  63  66
ENDBRANCH  36  59
ENDBRANCH  10  11
ENDBRANCH   3   5
ENDBRANCH   2   3
ENDBRANCH   1   2
BRANCH   1  70
ATOM     70  C   UNL A   1      35.937  21.692  24.663  1.00  0.00     0.274 C 
BRANCH  70  71
ATOM     71  O   UNL A   1      36.163  22.984  24.096  1.00  0.00    -0.461 OA
BRANCH  71  72
ATOM     72  C   UNL A   1      35.269  23.489  23.202  1.00  0.00     0.329 C 
ATOM     73  O   UNL A   1      34.837  22.862  22.236  1.00  0.00    -0.250 OA
BRANCH  72  74
ATOM     74  C   UNL A   1      34.743  24.836  23.709  1.00  0.00     0.194 C 
BRANCH  74  75
ATOM     75  C   UNL A   1      33.446  25.239  22.979  1.00  0.00     0.072 C 
BRANCH  75  76
ATOM     76  C   UNL A   1      32.748  26.578  22.876  1.00  0.00    -0.045 A 
ATOM     77  C   UNL A   1      31.363  26.582  23.152  1.00  0.00     0.007 A 
ATOM     78  C   UNL A   1      33.364  27.810  22.707  1.00  0.00     0.007 A 
ATOM     79  C   UNL A   1      30.618  27.737  23.333  1.00  0.00     0.046 A 
ATOM     80  C   UNL A   1      32.621  28.990  22.889  1.00  0.00     0.046 A 
ATOM     81  C   UNL A   1      31.266  28.944  23.222  1.00  0.00     0.115 A 
BRANCH  81  82
ATOM     82  O   UNL A   1      30.594  30.107  23.451  1.00  0.00    -0.508 OA
ATOM     83  H   UNL A   1      29.923  30.384  22.861  1.00  0.00     0.293 HD
ENDBRANCH  81  82
ENDBRANCH  75  76
ENDBRANCH  74  75
BRANCH  74  84
ATOM     84  N   UNL A   1      34.582  24.999  25.144  1.00  0.00    -0.371 N 
ATOM     85  H   UNL A   1      35.376  24.783  25.683  1.00  0.00     0.161 HD
BRANCH  84  86
ATOM     86  C   UNL A   1      33.460  25.418  25.872  1.00  0.00     0.054 A 
ATOM     87  C   UNL A   1      33.172  26.771  26.261  1.00  0.00     0.024 A 
ATOM     88  C   UNL A   1      32.444  24.443  26.039  1.00  0.00     0.024 A 
ATOM     89  C   UNL A   1      34.040  27.889  26.155  1.00  0.00     0.012 A 
ATOM     90  C   UNL A   1      31.876  27.038  26.764  1.00  0.00     0.073 A 
ATOM     91  C   UNL A   1      31.196  24.849  26.541  1.00  0.00     0.073 A 
ATOM     92  C   UNL A   1      32.635  23.082  25.705  1.00  0.00     0.012 A 
ATOM     93  C   UNL A   1      33.652  29.191  26.496  1.00  0.00     0.001 A 
ATOM     94  C   UNL A   1      31.504  28.338  27.096  1.00  0.00     0.029 A 
ATOM     95  N   UNL A   1      30.938  26.104  26.922  1.00  0.00    -0.248 NA
ATOM     96  C   UNL A   1      30.176  23.913  26.628  1.00  0.00     0.029 A 
ATOM     97  C   UNL A   1      31.606  22.155  25.819  1.00  0.00     0.001 A 
ATOM     98  C   UNL A   1      32.371  29.419  26.964  1.00  0.00     0.002 A 
ATOM     99  C   UNL A   1      30.365  22.578  26.267  1.00  0.00     0.002 A 
ENDBRANCH  84  86
ENDBRANCH  74  84
ENDBRANCH  72  74
ENDBRANCH  71  72
ENDBRANCH  70  71
ENDBRANCH   1  70
TORSDOF 19
ENDMDL
MODEL 2
REMARK VINA RESULT:     -11.6      1.392      2.498
REMARK SMILES O=C(OCCOC(=O)[C@@H](Cc1ccc(O)cc1)Nc1c2ccccc2nc2ccccc12)c1ccc(-c2c3nc(c(-c4cccc(S(=O)(=O)[O-])c4F)c4ccc([nH]4)c(-c4cccc(S(=O)(=O)[O-])c4F)c4nc(c(-c5cccc(S(=O)(=O)[O-])c5F)c5ccc2[nH]5)C=C4)C=C3)cc1
REMARK SMILES IDX 4 1 3 2 2 3 1 4 33 5 34 6 95 7 35 8 94 9 36 10 37 11 38 12
REMARK SMILES IDX 88 13 39 14 93 15 87 16 89 17 40 18 92 19 86 20 85 21 41 23
REMARK SMILES IDX 73 24 53 25 72 26 54 27 57 28 71 29 90 30 55 31 56 32 70 34
REMARK SMILES IDX 91 35 58 36 42 37 43 38 51 39 44 40 46 41 52 42 45 43 47 44
REMARK SMILES IDX 48 45 49 46 50 47 74 48 75 49 83 50 76 51 78 52 84 53 77 54
REMARK SMILES IDX 79 55 80 56 81 57 82 58 59 59 60 60 68 61 61 62 63 63 69 64
REMARK SMILES IDX 62 65 64 66 65 67 66 68 67 69 5 70 6 71 7 72 8 73 9 74 10 75
REMARK SMILES IDX 11 76 12 77 17 78 13 79 16 80 14 81 15 82 18 84 19 86 20 87
REMARK SMILES IDX 32 88 21 89 25 90 27 91 31 92 22 93 24 94 26 95 28 96 30 97
REMARK SMILES IDX 23 98 29 99
REMARK H PARENT 89 22 57 33 15 83 18 85
REMARK Flexibility Score: inf
ROOT
ATOM      1  C   UNL A   1      35.997  20.238  25.052  1.00  0.00     0.275 C 
ENDROOT
BRANCH   1   2
ATOM      2  O   UNL A   1      37.289  20.853  24.776  1.00  0.00    -0.458 OA
BRANCH   2   3
ATOM      3  C   UNL A   1      38.462  20.882  25.464  1.00  0.00     0.338 C 
ATOM      4  O   UNL A   1      38.969  19.821  25.824  1.00  0.00    -0.246 OA
BRANCH   3   5
ATOM      5  C   UNL A   1      39.052  22.141  26.016  1.00  0.00     0.060 A 
ATOM      6  C   UNL A   1      40.336  22.246  26.526  1.00  0.00     0.016 A 
ATOM      7  C   UNL A   1      38.248  23.302  26.044  1.00  0.00     0.016 A 
ATOM      8  C   UNL A   1      40.861  23.525  26.821  1.00  0.00     0.010 A 
ATOM      9  C   UNL A   1      38.779  24.585  26.355  1.00  0.00     0.010 A 
ATOM     10  C   UNL A   1      40.133  24.740  26.640  1.00  0.00    -0.014 A 
BRANCH  10  11
ATOM     11  C   UNL A   1      40.887  26.078  26.712  1.00  0.00     0.031 A 
ATOM     12  C   UNL A   1      40.356  27.092  27.682  1.00  0.00     0.074 A 
ATOM     13  C   UNL A   1      42.135  26.335  26.219  1.00  0.00     0.049 A 
ATOM     14  N   UNL A   1      40.989  28.038  28.324  1.00  0.00    -0.248 NA
ATOM     15  C   UNL A   1      38.931  26.963  28.013  1.00  0.00     0.031 C 
ATOM     16  C   UNL A   1      42.889  25.522  25.277  1.00  0.00     0.029 A 
ATOM     17  N   UNL A   1      43.068  27.313  26.569  1.00  0.00    -0.354 N 
ATOM     18  C   UNL A   1      40.042  28.608  29.155  1.00  0.00     0.074 A 
ATOM     19  C   UNL A   1      38.814  27.853  28.984  1.00  0.00     0.031 C 
ATOM     20  C   UNL A   1      44.182  25.889  25.269  1.00  0.00     0.029 A 
ATOM     21  C   UNL A   1      44.357  27.075  26.097  1.00  0.00     0.049 A 
ATOM     22  H   UNL A   1      42.835  28.105  27.105  1.00  0.00     0.167 HD
ATOM     23  C   UNL A   1      40.140  29.695  29.952  1.00  0.00     0.034 A 
ATOM     24  C   UNL A   1      45.538  27.723  26.276  1.00  0.00     0.034 A 
ATOM     25  C   UNL A   1      41.248  30.601  30.016  1.00  0.00     0.049 A 
ATOM     26  C   UNL A   1      45.570  29.017  27.062  1.00  0.00     0.074 A 
ATOM     27  C   UNL A   1      41.299  31.834  30.643  1.00  0.00     0.029 A 
ATOM     28  N   UNL A   1      42.466  30.423  29.391  1.00  0.00    -0.354 N 
ATOM     29  N   UNL A   1      44.674  29.517  27.874  1.00  0.00    -0.248 NA
ATOM     30  C   UNL A   1      46.779  29.856  26.928  1.00  0.00     0.031 C 
ATOM     31  C   UNL A   1      42.535  32.422  30.363  1.00  0.00     0.029 A 
ATOM     32  C   UNL A   1      43.275  31.528  29.610  1.00  0.00     0.049 A 
ATOM     33  H   UNL A   1      42.724  29.629  28.868  1.00  0.00     0.167 HD
ATOM     34  C   UNL A   1      45.205  30.723  28.332  1.00  0.00     0.074 A 
ATOM     35  C   UNL A   1      46.532  30.844  27.774  1.00  0.00     0.031 C 
ATOM     36  C   UNL A   1      44.616  31.663  29.108  1.00  0.00     0.034 A 
BRANCH  23  37
ATOM     37  C   UNL A   1      38.905  30.027  30.724  1.00  0.00     0.023 A 
ATOM     38  C   UNL A   1      38.674  29.420  31.973  1.00  0.00     0.012 A 
ATOM     39  C   UNL A   1      37.950  30.892  30.164  1.00  0.00     0.148 A 
ATOM     40  C   UNL A   1      37.479  29.653  32.646  1.00  0.00     0.002 A 
ATOM     41  C   UNL A   1      36.779  31.143  30.856  1.00  0.00     0.091 A 
ATOM     42  F   UNL A   1      38.192  31.409  28.952  1.00  0.00    -0.205 F 
ATOM     43  C   UNL A   1      36.536  30.517  32.091  1.00  0.00     0.022 A 
BRANCH  41  44
ATOM     44  S   UNL A   1      35.522  32.256  30.231  1.00  0.00     0.127 S 
ATOM     45  O   UNL A   1      35.058  31.535  29.046  1.00  0.00    -0.237 OA
ATOM     46  O   UNL A   1      34.572  32.288  31.342  1.00  0.00    -0.237 OA
ATOM     47  O   UNL A   1      36.196  33.517  29.962  1.00  0.00    -0.744 OA
ENDBRANCH  41  44
ENDBRANCH  23  37
BRANCH  24  48
ATOM     48  C   UNL A   1      46.837  27.258  25.656  1.00  0.00     0.023 A 
ATOM     49  C   UNL A   1      47.789  26.563  26.443  1.00  0.00     0.012 A 
ATOM     50  C   UNL A   1      47.209  27.633  24.351  1.00  0.00     0.148 A 
ATOM     51  C   UNL A   1      49.082  26.311  25.965  1.00  0.00     0.002 A 
ATOM     52  C   UNL A   1      48.467  27.302  23.852  1.00  0.00     0.091 A 
ATOM     53  F   UNL A   1      46.346  28.360  23.629  1.00  0.00    -0.205 F 
ATOM     54  C   UNL A   1      49.417  26.671  24.665  1.00  0.00     0.022 A 
BRANCH  52  55
ATOM     55  S   UNL A   1      48.926  27.617  22.144  1.00  0.00     0.127 S 
ATOM     56  O   UNL A   1      50.278  28.151  22.290  1.00  0.00    -0.237 OA
ATOM     57  O   UNL A   1      48.851  26.279  21.558  1.00  0.00    -0.237 OA
ATOM     58  O   UNL A   1      47.925  28.552  21.646  1.00  0.00    -0.744 OA
ENDBRANCH  52  55
ENDBRANCH  24  48
BRANCH  36  59
ATOM     59  C   UNL A   1      45.378  32.926  29.432  1.00  0.00     0.023 A 
ATOM     60  C   UNL A   1      46.231  32.971  30.554  1.00  0.00     0.012 A 
ATOM     61  C   UNL A   1      45.322  34.042  28.573  1.00  0.00     0.148 A 
ATOM     62  C   UNL A   1      46.986  34.112  30.833  1.00  0.00     0.002 A 
ATOM     63  C   UNL A   1      46.117  35.155  28.826  1.00  0.00     0.091 A 
ATOM     64  F   UNL A   1      44.494  33.995  27.518  1.00  0.00    -0.205 F 
ATOM     65  C   UNL A   1      46.940  35.197  29.963  1.00  0.00     0.022 A 
BRANCH  63  66
ATOM     66  S   UNL A   1      46.200  36.556  27.704  1.00  0.00     0.127 S 
ATOM     67  O   UNL A   1      47.301  37.331  28.275  1.00  0.00    -0.237 OA
ATOM     68  O   UNL A   1      46.507  35.913  26.425  1.00  0.00    -0.237 OA
ATOM     69  O   UNL A   1      44.892  37.193  27.761  1.00  0.00    -0.744 OA
ENDBRANCH  63  66
ENDBRANCH  36  59
ENDBRANCH  10  11
ENDBRANCH   3   5
ENDBRANCH   2   3
ENDBRANCH   1   2
BRANCH   1  70
ATOM     70  C   UNL A   1      34.879  21.294  25.123  1.00  0.00     0.274 C 
BRANCH  70  71
ATOM     71  O   UNL A   1      35.302  22.446  24.392  1.00  0.00    -0.461 OA
BRANCH  71  72
ATOM     72  C   UNL A   1      34.499  22.952  23.416  1.00  0.00     0.329 C 
ATOM     73  O   UNL A   1      33.767  22.265  22.705  1.00  0.00    -0.250 OA
BRANCH  72  74
ATOM     74  C   UNL A   1      34.495  24.483  23.498  1.00  0.00     0.194 C 
BRANCH  74  75
ATOM     75  C   UNL A   1      33.575  25.096  22.423  1.00  0.00     0.072 C 
BRANCH  75  76
ATOM     76  C   UNL A   1      32.909  26.454  22.353  1.00  0.00    -0.045 A 
ATOM     77  C   UNL A   1      31.507  26.468  22.517  1.00  0.00     0.007 A 
ATOM     78  C   UNL A   1      33.556  27.681  22.319  1.00  0.00     0.007 A 
ATOM     79  C   UNL A   1      30.767  27.624  22.713  1.00  0.00     0.046 A 
ATOM     80  C   UNL A   1      32.818  28.862  22.519  1.00  0.00     0.046 A 
ATOM     81  C   UNL A   1      31.440  28.822  22.737  1.00  0.00     0.115 A 
BRANCH  81  82
ATOM     82  O   UNL A   1      30.770  29.981  22.989  1.00  0.00    -0.508 OA
ATOM     83  H   UNL A   1      31.027  30.524  23.707  1.00  0.00     0.293 HD
ENDBRANCH  81  82
ENDBRANCH  75  76
ENDBRANCH  74  75
BRANCH  74  84
ATOM     84  N   UNL A   1      34.225  25.086  24.792  1.00  0.00    -0.371 N 
ATOM     85  H   UNL A   1      35.020  25.312  25.325  1.00  0.00     0.161 HD
BRANCH  84  86
ATOM     86  C   UNL A   1      32.997  25.394  25.392  1.00  0.00     0.054 A 
ATOM     87  C   UNL A   1      31.948  24.455  25.681  1.00  0.00     0.024 A 
ATOM     88  C   UNL A   1      32.896  26.698  25.940  1.00  0.00     0.024 A 
ATOM     89  C   UNL A   1      31.873  23.105  25.250  1.00  0.00     0.012 A 
ATOM     90  C   UNL A   1      30.895  24.897  26.518  1.00  0.00     0.073 A 
ATOM     91  C   UNL A   1      31.800  27.000  26.765  1.00  0.00     0.073 A 
ATOM     92  C   UNL A   1      33.866  27.699  25.699  1.00  0.00     0.012 A 
ATOM     93  C   UNL A   1      30.844  22.236  25.637  1.00  0.00     0.001 A 
ATOM     94  C   UNL A   1      29.881  24.021  26.896  1.00  0.00     0.029 A 
ATOM     95  N   UNL A   1      30.815  26.132  27.014  1.00  0.00    -0.248 NA
ATOM     96  C   UNL A   1      31.743  28.249  27.366  1.00  0.00     0.029 A 
ATOM     97  C   UNL A   1      33.779  28.952  26.294  1.00  0.00     0.001 A 
ATOM     98  C   UNL A   1      29.844  22.696  26.472  1.00  0.00     0.002 A 
ATOM     99  C   UNL A   1      32.721  29.221  27.146  1.00  0.00     0.002 A 
ENDBRANCH  84  86
ENDBRANCH  74  84
ENDBRANCH  72  74
ENDBRANCH  71  72
ENDBRANCH  70  71
ENDBRANCH   1  70
TORSDOF 19
ENDMDL
MODEL 3
REMARK VINA RESULT:     -11.6      4.609      7.936
REMARK SMILES O=C(OCCOC(=O)[C@@H](Cc1ccc(O)cc1)Nc1c2ccccc2nc2ccccc12)c1ccc(-c2c3nc(c(-c4cccc(S(=O)(=O)[O-])c4F)c4ccc([nH]4)c(-c4cccc(S(=O)(=O)[O-])c4F)c4nc(c(-c5cccc(S(=O)(=O)[O-])c5F)c5ccc2[nH]5)C=C4)C=C3)cc1
REMARK SMILES IDX 4 1 3 2 2 3 1 4 33 5 34 6 95 7 35 8 94 9 36 10 37 11 38 12
REMARK SMILES IDX 88 13 39 14 93 15 87 16 89 17 40 18 92 19 86 20 85 21 41 23
REMARK SMILES IDX 73 24 53 25 72 26 54 27 57 28 71 29 90 30 55 31 56 32 70 34
REMARK SMILES IDX 91 35 58 36 42 37 43 38 51 39 44 40 46 41 52 42 45 43 47 44
REMARK SMILES IDX 48 45 49 46 50 47 74 48 75 49 83 50 76 51 78 52 84 53 77 54
REMARK SMILES IDX 79 55 80 56 81 57 82 58 59 59 60 60 68 61 61 62 63 63 69 64
REMARK SMILES IDX 62 65 64 66 65 67 66 68 67 69 5 70 6 71 7 72 8 73 9 74 10 75
REMARK SMILES IDX 11 76 12 77 17 78 13 79 16 80 14 81 15 82 18 84 19 86 20 87
REMARK SMILES IDX 32 88 21 89 25 90 27 91 31 92 22 93 24 94 26 95 28 96 30 97
REMARK SMILES IDX 23 98 29 99
REMARK H PARENT 89 22 57 33 15 83 18 85
REMARK Flexibility Score: inf
ROOT
ATOM      1  C   UNL A   1      33.264  30.694  26.497  1.00  0.00     0.275 C 
ENDROOT
BRANCH   1   2
ATOM      2  O   UNL A   1      33.454  31.497  27.698  1.00  0.00    -0.458 OA
BRANCH   2   3
ATOM      3  C   UNL A   1      34.453  31.555  28.620  1.00  0.00     0.338 C 
ATOM      4  O   UNL A   1      34.439  32.455  29.458  1.00  0.00    -0.246 OA
BRANCH   3   5
ATOM      5  C   UNL A   1      35.695  30.727  28.529  1.00  0.00     0.060 A 
ATOM      6  C   UNL A   1      36.684  30.904  27.574  1.00  0.00     0.016 A 
ATOM      7  C   UNL A   1      35.874  29.680  29.459  1.00  0.00     0.016 A 
ATOM      8  C   UNL A   1      37.909  30.210  27.710  1.00  0.00     0.010 A 
ATOM      9  C   UNL A   1      37.104  28.976  29.583  1.00  0.00     0.010 A 
ATOM     10  C   UNL A   1      38.193  29.309  28.781  1.00  0.00    -0.014 A 
BRANCH  10  11
ATOM     11  C   UNL A   1      39.640  28.839  28.995  1.00  0.00     0.031 A 
ATOM     12  C   UNL A   1      40.393  29.489  30.119  1.00  0.00     0.074 A 
ATOM     13  C   UNL A   1      40.214  27.711  28.480  1.00  0.00     0.049 A 
ATOM     14  N   UNL A   1      41.366  29.014  30.850  1.00  0.00    -0.248 NA
ATOM     15  C   UNL A   1      39.927  30.828  30.500  1.00  0.00     0.031 C 
ATOM     16  C   UNL A   1      39.700  26.882  27.400  1.00  0.00     0.029 A 
ATOM     17  N   UNL A   1      41.317  26.972  28.912  1.00  0.00    -0.354 N 
ATOM     18  C   UNL A   1      41.618  29.990  31.797  1.00  0.00     0.074 A 
ATOM     19  C   UNL A   1      40.647  31.048  31.587  1.00  0.00     0.031 C 
ATOM     20  C   UNL A   1      40.330  25.695  27.378  1.00  0.00     0.029 A 
ATOM     21  C   UNL A   1      41.417  25.702  28.348  1.00  0.00     0.049 A 
ATOM     22  H   UNL A   1      41.970  27.319  29.561  1.00  0.00     0.167 HD
ATOM     23  C   UNL A   1      42.596  30.054  32.727  1.00  0.00     0.034 A 
ATOM     24  C   UNL A   1      42.272  24.666  28.554  1.00  0.00     0.034 A 
ATOM     25  C   UNL A   1      43.701  29.151  32.858  1.00  0.00     0.049 A 
ATOM     26  C   UNL A   1      43.438  24.837  29.506  1.00  0.00     0.074 A 
ATOM     27  C   UNL A   1      44.831  29.304  33.643  1.00  0.00     0.029 A 
ATOM     28  N   UNL A   1      43.861  27.974  32.155  1.00  0.00    -0.354 N 
ATOM     29  N   UNL A   1      43.635  25.751  30.421  1.00  0.00    -0.248 NA
ATOM     30  C   UNL A   1      44.524  23.838  29.427  1.00  0.00     0.031 C 
ATOM     31  C   UNL A   1      45.697  28.238  33.384  1.00  0.00     0.029 A 
ATOM     32  C   UNL A   1      45.077  27.393  32.481  1.00  0.00     0.049 A 
ATOM     33  H   UNL A   1      43.210  27.602  31.518  1.00  0.00     0.167 HD
ATOM     34  C   UNL A   1      44.861  25.443  31.011  1.00  0.00     0.074 A 
ATOM     35  C   UNL A   1      45.327  24.215  30.410  1.00  0.00     0.031 C 
ATOM     36  C   UNL A   1      45.553  26.149  31.936  1.00  0.00     0.034 A 
BRANCH  23  37
ATOM     37  C   UNL A   1      42.563  31.267  33.598  1.00  0.00     0.023 A 
ATOM     38  C   UNL A   1      43.176  32.458  33.165  1.00  0.00     0.012 A 
ATOM     39  C   UNL A   1      41.979  31.189  34.873  1.00  0.00     0.148 A 
ATOM     40  C   UNL A   1      43.233  33.557  34.016  1.00  0.00     0.002 A 
ATOM     41  C   UNL A   1      42.010  32.298  35.700  1.00  0.00     0.091 A 
ATOM     42  F   UNL A   1      41.449  30.021  35.261  1.00  0.00    -0.205 F 
ATOM     43  C   UNL A   1      42.646  33.479  35.278  1.00  0.00     0.022 A 
BRANCH  41  44
ATOM     44  S   UNL A   1      41.263  32.296  37.327  1.00  0.00     0.127 S 
ATOM     45  O   UNL A   1      39.906  31.843  37.024  1.00  0.00    -0.237 OA
ATOM     46  O   UNL A   1      42.092  31.323  38.036  1.00  0.00    -0.237 OA
ATOM     47  O   UNL A   1      41.363  33.662  37.819  1.00  0.00    -0.744 OA
ENDBRANCH  41  44
ENDBRANCH  23  37
BRANCH  24  48
ATOM     48  C   UNL A   1      42.172  23.351  27.814  1.00  0.00     0.023 A 
ATOM     49  C   UNL A   1      41.211  22.387  28.207  1.00  0.00     0.012 A 
ATOM     50  C   UNL A   1      43.115  22.981  26.836  1.00  0.00     0.148 A 
ATOM     51  C   UNL A   1      41.234  21.086  27.691  1.00  0.00     0.002 A 
ATOM     52  C   UNL A   1      43.077  21.711  26.263  1.00  0.00     0.091 A 
ATOM     53  F   UNL A   1      44.076  23.857  26.516  1.00  0.00    -0.205 F 
ATOM     54  C   UNL A   1      42.160  20.751  26.709  1.00  0.00     0.022 A 
BRANCH  52  55
ATOM     55  S   UNL A   1      44.154  21.249  24.902  1.00  0.00     0.127 S 
ATOM     56  O   UNL A   1      43.719  19.882  24.626  1.00  0.00    -0.237 OA
ATOM     57  O   UNL A   1      43.790  22.230  23.880  1.00  0.00    -0.237 OA
ATOM     58  O   UNL A   1      45.508  21.391  25.422  1.00  0.00    -0.744 OA
ENDBRANCH  52  55
ENDBRANCH  24  48
BRANCH  36  59
ATOM     59  C   UNL A   1      46.900  25.637  32.389  1.00  0.00     0.023 A 
ATOM     60  C   UNL A   1      48.074  26.048  31.727  1.00  0.00     0.012 A 
ATOM     61  C   UNL A   1      47.011  24.818  33.531  1.00  0.00     0.148 A 
ATOM     62  C   UNL A   1      49.330  25.629  32.172  1.00  0.00     0.002 A 
ATOM     63  C   UNL A   1      48.268  24.447  34.001  1.00  0.00     0.091 A 
ATOM     64  F   UNL A   1      45.886  24.418  34.142  1.00  0.00    -0.205 F 
ATOM     65  C   UNL A   1      49.427  24.841  33.315  1.00  0.00     0.022 A 
BRANCH  63  66
ATOM     66  S   UNL A   1      48.493  23.520  35.524  1.00  0.00     0.127 S 
ATOM     67  O   UNL A   1      49.947  23.383  35.576  1.00  0.00    -0.237 OA
ATOM     68  O   UNL A   1      47.929  24.426  36.525  1.00  0.00    -0.237 OA
ATOM     69  O   UNL A   1      47.754  22.278  35.349  1.00  0.00    -0.744 OA
ENDBRANCH  63  66
ENDBRANCH  36  59
ENDBRANCH  10  11
ENDBRANCH   3   5
ENDBRANCH   2   3
ENDBRANCH   1   2
BRANCH   1  70
ATOM     70  C   UNL A   1      32.112  29.689  26.672  1.00  0.00     0.274 C 
BRANCH  70  71
ATOM     71  O   UNL A   1      32.642  28.491  27.242  1.00  0.00    -0.461 OA
BRANCH  71  72
ATOM     72  C   UNL A   1      31.910  27.345  27.192  1.00  0.00     0.329 C 
ATOM     73  O   UNL A   1      30.682  27.312  27.249  1.00  0.00    -0.250 OA
BRANCH  72  74
ATOM     74  C   UNL A   1      32.826  26.166  26.842  1.00  0.00     0.194 C 
BRANCH  74  75
ATOM     75  C   UNL A   1      32.007  24.913  26.473  1.00  0.00     0.072 C 
BRANCH  75  76
ATOM     76  C   UNL A   1      32.386  23.448  26.490  1.00  0.00    -0.045 A 
ATOM     77  C   UNL A   1      31.964  22.682  25.381  1.00  0.00     0.007 A 
ATOM     78  C   UNL A   1      33.244  22.836  27.393  1.00  0.00     0.007 A 
ATOM     79  C   UNL A   1      32.413  21.398  25.117  1.00  0.00     0.046 A 
ATOM     80  C   UNL A   1      33.710  21.533  27.137  1.00  0.00     0.046 A 
ATOM     81  C   UNL A   1      33.311  20.838  25.994  1.00  0.00     0.115 A 
BRANCH  81  82
ATOM     82  O   UNL A   1      33.832  19.603  25.748  1.00  0.00    -0.508 OA
ATOM     83  H   UNL A   1      33.677  18.901  26.347  1.00  0.00     0.293 HD
ENDBRANCH  81  82
ENDBRANCH  75  76
ENDBRANCH  74  75
BRANCH  74  84
ATOM     84  N   UNL A   1      33.866  26.393  25.853  1.00  0.00    -0.371 N 
ATOM     85  H   UNL A   1      34.405  27.205  25.988  1.00  0.00     0.161 HD
BRANCH  84  86
ATOM     86  C   UNL A   1      34.214  25.625  24.734  1.00  0.00     0.054 A 
ATOM     87  C   UNL A   1      35.137  24.524  24.728  1.00  0.00     0.024 A 
ATOM     88  C   UNL A   1      33.418  25.838  23.578  1.00  0.00     0.024 A 
ATOM     89  C   UNL A   1      36.000  24.132  25.784  1.00  0.00     0.012 A 
ATOM     90  C   UNL A   1      35.167  23.710  23.570  1.00  0.00     0.073 A 
ATOM     91  C   UNL A   1      33.542  24.944  22.502  1.00  0.00     0.073 A 
ATOM     92  C   UNL A   1      32.496  26.905  23.478  1.00  0.00     0.012 A 
ATOM     93  C   UNL A   1      36.820  22.999  25.720  1.00  0.00     0.001 A 
ATOM     94  C   UNL A   1      35.986  22.585  23.521  1.00  0.00     0.029 A 
ATOM     95  N   UNL A   1      34.417  23.934  22.490  1.00  0.00    -0.248 NA
ATOM     96  C   UNL A   1      32.708  25.103  21.405  1.00  0.00     0.029 A 
ATOM     97  C   UNL A   1      31.683  27.059  22.362  1.00  0.00     0.001 A 
ATOM     98  C   UNL A   1      36.809  22.215  24.581  1.00  0.00     0.002 A 
ATOM     99  C   UNL A   1      31.778  26.142  21.328  1.00  0.00     0.002 A 
ENDBRANCH  84  86
ENDBRANCH  74  84
ENDBRANCH  72  74
ENDBRANCH  71  72
ENDBRANCH  70  71
ENDBRANCH   1  70
TORSDOF 19
ENDMDL
