MODEL 1
REMARK VINA RESULT:     -14.1      0.000      0.000
REMARK SMILES Cc1c(CC(=O)OCCOC(=O)c2ccc(-c3c4nc(c(-c5cccc(S(=O)(=O)[O-])c5F)c5ccc([nH]5)c(-c5cccc(S(=O)(=O)[O-])c5F)c5nc(c(-c6cccc(S(=O)(=O)[O-])c6F)c6ccc3[nH]6)C=C5)C=C4)cc2)cc(-c2ccccc2)cc1-c1ccccc1
REMARK SMILES IDX 9 1 8 2 7 3 5 4 6 5 4 6 3 7 1 8 2 9 85 10 76 11 84 12 77 13
REMARK SMILES IDX 86 14 87 15 91 16 88 17 90 18 89 19 78 20 79 21 83 22 80 23
REMARK SMILES IDX 82 24 81 25 10 26 11 27 12 28 13 29 14 30 75 31 15 32 74 33
REMARK SMILES IDX 16 34 17 35 18 36 68 37 19 38 73 39 67 40 69 41 20 42 72 43
REMARK SMILES IDX 66 44 65 45 21 47 53 48 33 49 52 50 34 51 37 52 51 53 70 54
REMARK SMILES IDX 35 55 36 56 50 58 71 59 38 60 22 61 23 62 31 63 24 64 26 65
REMARK SMILES IDX 32 66 25 67 27 68 28 69 29 70 30 71 54 72 55 73 63 74 56 75
REMARK SMILES IDX 58 76 64 77 57 78 59 79 60 80 61 81 62 82 39 83 40 84 48 85
REMARK SMILES IDX 41 86 43 87 49 88 42 89 44 90 45 91 46 92 47 93
REMARK H PARENT 69 46 37 57
REMARK Flexibility Score: inf
ROOT
ATOM      1  C   UNL A   1      43.253  20.034  25.518  1.00  0.00     0.275 C 
ENDROOT
BRANCH   1   2
ATOM      2  C   UNL A   1      42.242  19.130  26.226  1.00  0.00     0.274 C 
BRANCH   2   3
ATOM      3  O   UNL A   1      40.959  19.332  25.612  1.00  0.00    -0.462 OA
BRANCH   3   4
ATOM      4  C   UNL A   1      40.021  20.165  26.340  1.00  0.00     0.310 C 
ATOM      5  O   UNL A   1      40.317  19.973  27.562  1.00  0.00    -0.252 OA
BRANCH   4   6
ATOM      6  C   UNL A   1      38.563  21.488  25.421  1.00  0.00     0.158 C 
BRANCH   6   7
ATOM      7  C   UNL A   1      36.836  21.479  25.206  1.00  0.00    -0.033 A 
ATOM      8  C   UNL A   1      36.680  24.036  25.317  1.00  0.00     0.045 C 
ATOM      9  C   UNL A   1      36.042  22.668  25.237  1.00  0.00    -0.039 A 
ATOM     10  C   UNL A   1      34.621  22.561  25.131  1.00  0.00    -0.015 A 
ATOM     11  C   UNL A   1      36.193  20.298  24.803  1.00  0.00     0.013 A 
ATOM     12  C   UNL A   1      34.029  21.285  25.029  1.00  0.00     0.017 A 
ATOM     13  C   UNL A   1      34.808  20.143  24.875  1.00  0.00    -0.017 A 
BRANCH  10  14
ATOM     14  C   UNL A   1      33.723  23.732  25.126  1.00  0.00    -0.018 A 
ATOM     15  C   UNL A   1      33.440  24.417  23.936  1.00  0.00     0.009 A 
ATOM     16  C   UNL A   1      33.125  24.185  26.315  1.00  0.00     0.009 A 
ATOM     17  C   UNL A   1      32.563  25.506  23.928  1.00  0.00     0.001 A 
ATOM     18  C   UNL A   1      32.240  25.266  26.306  1.00  0.00     0.001 A 
ATOM     19  C   UNL A   1      31.956  25.923  25.111  1.00  0.00     0.000 A 
ENDBRANCH  10  14
BRANCH  13  20
ATOM     20  C   UNL A   1      34.270  18.780  24.894  1.00  0.00    -0.018 A 
ATOM     21  C   UNL A   1      34.993  17.760  24.243  1.00  0.00     0.009 A 
ATOM     22  C   UNL A   1      33.027  18.463  25.441  1.00  0.00     0.009 A 
ATOM     23  C   UNL A   1      34.466  16.482  24.081  1.00  0.00     0.001 A 
ATOM     24  C   UNL A   1      32.505  17.172  25.301  1.00  0.00     0.001 A 
ATOM     25  C   UNL A   1      33.216  16.189  24.609  1.00  0.00     0.000 A 
ENDBRANCH  13  20
ENDBRANCH   6   7
ENDBRANCH   4   6
ENDBRANCH   3   4
ENDBRANCH   2   3
ENDBRANCH   1   2
BRANCH   1  26
ATOM     26  O   UNL A   1      42.896  21.440  25.400  1.00  0.00    -0.458 OA
BRANCH  26  27
ATOM     27  C   UNL A   1      42.933  22.412  26.353  1.00  0.00     0.338 C 
ATOM     28  O   UNL A   1      43.640  22.308  27.345  1.00  0.00    -0.246 OA
BRANCH  27  29
ATOM     29  C   UNL A   1      41.890  23.463  26.313  1.00  0.00     0.060 A 
ATOM     30  C   UNL A   1      42.409  24.961  25.446  1.00  0.00     0.016 A 
ATOM     31  C   UNL A   1      40.659  23.551  27.627  1.00  0.00     0.016 A 
ATOM     32  C   UNL A   1      41.883  26.584  26.088  1.00  0.00     0.010 A 
ATOM     33  C   UNL A   1      40.118  25.165  28.234  1.00  0.00     0.010 A 
ATOM     34  C   UNL A   1      40.826  26.674  27.532  1.00  0.00    -0.014 A 
BRANCH  34  35
ATOM     35  C   UNL A   1      40.923  27.752  28.507  1.00  0.00     0.031 A 
ATOM     36  C   UNL A   1      39.967  28.864  28.471  1.00  0.00     0.074 A 
ATOM     37  C   UNL A   1      41.682  27.554  29.615  1.00  0.00     0.049 A 
ATOM     38  N   UNL A   1      40.081  29.892  29.234  1.00  0.00    -0.248 NA
ATOM     39  C   UNL A   1      38.837  28.956  27.553  1.00  0.00     0.031 C 
ATOM     40  C   UNL A   1      41.523  28.178  30.927  1.00  0.00     0.029 A 
ATOM     41  N   UNL A   1      42.854  26.818  29.770  1.00  0.00    -0.354 N 
ATOM     42  C   UNL A   1      38.900  30.580  29.164  1.00  0.00     0.074 A 
ATOM     43  C   UNL A   1      38.235  30.066  27.996  1.00  0.00     0.031 C 
ATOM     44  C   UNL A   1      42.659  28.032  31.625  1.00  0.00     0.029 A 
ATOM     45  C   UNL A   1      43.642  27.449  30.735  1.00  0.00     0.049 A 
ATOM     46  H   UNL A   1      43.087  25.995  29.281  1.00  0.00     0.167 HD
ATOM     47  C   UNL A   1      38.575  31.395  30.202  1.00  0.00     0.034 A 
ATOM     48  C   UNL A   1      44.907  27.909  30.503  1.00  0.00     0.034 A 
ATOM     49  C   UNL A   1      39.728  31.608  31.095  1.00  0.00     0.049 A 
ATOM     50  C   UNL A   1      44.981  29.427  30.668  1.00  0.00     0.074 A 
ATOM     51  C   UNL A   1      40.071  31.239  32.384  1.00  0.00     0.029 A 
ATOM     52  N   UNL A   1      40.896  32.101  30.530  1.00  0.00    -0.354 N 
ATOM     53  N   UNL A   1      44.036  30.179  31.167  1.00  0.00    -0.248 NA
ATOM     54  C   UNL A   1      46.085  30.224  30.134  1.00  0.00     0.031 C 
ATOM     55  C   UNL A   1      41.477  31.470  32.551  1.00  0.00     0.029 A 
ATOM     56  C   UNL A   1      41.977  32.037  31.389  1.00  0.00     0.049 A 
ATOM     57  H   UNL A   1      40.949  32.459  29.615  1.00  0.00     0.167 HD
ATOM     58  C   UNL A   1      44.242  31.483  30.776  1.00  0.00     0.074 A 
ATOM     59  C   UNL A   1      45.559  31.458  30.159  1.00  0.00     0.031 C 
ATOM     60  C   UNL A   1      43.288  32.465  30.891  1.00  0.00     0.034 A 
BRANCH  47  61
ATOM     61  C   UNL A   1      37.187  31.929  30.475  1.00  0.00     0.023 A 
ATOM     62  C   UNL A   1      36.195  31.675  29.504  1.00  0.00     0.012 A 
ATOM     63  C   UNL A   1      36.798  32.741  31.572  1.00  0.00     0.148 A 
ATOM     64  C   UNL A   1      34.897  32.188  29.613  1.00  0.00     0.002 A 
ATOM     65  C   UNL A   1      35.480  33.184  31.722  1.00  0.00     0.091 A 
ATOM     66  F   UNL A   1      37.716  33.195  32.431  1.00  0.00    -0.205 F 
ATOM     67  C   UNL A   1      34.531  32.923  30.733  1.00  0.00     0.022 A 
BRANCH  65  68
ATOM     68  S   UNL A   1      34.930  34.081  33.186  1.00  0.00     0.127 S 
ATOM     69  O   UNL A   1      35.622  35.362  33.038  1.00  0.00    -0.237 OA
ATOM     70  O   UNL A   1      33.482  34.148  32.993  1.00  0.00    -0.237 OA
ATOM     71  O   UNL A   1      35.344  33.277  34.330  1.00  0.00    -0.744 OA
ENDBRANCH  65  68
ENDBRANCH  47  61
BRANCH  48  72
ATOM     72  C   UNL A   1      45.638  27.111  29.463  1.00  0.00     0.023 A 
ATOM     73  C   UNL A   1      45.818  25.728  29.715  1.00  0.00     0.012 A 
ATOM     74  C   UNL A   1      45.770  27.566  28.141  1.00  0.00     0.148 A 
ATOM     75  C   UNL A   1      45.946  24.816  28.663  1.00  0.00     0.002 A 
ATOM     76  C   UNL A   1      45.898  26.654  27.097  1.00  0.00     0.091 A 
ATOM     77  F   UNL A   1      45.683  28.875  27.883  1.00  0.00    -0.205 F 
ATOM     78  C   UNL A   1      45.945  25.277  27.350  1.00  0.00     0.022 A 
BRANCH  76  79
ATOM     79  S   UNL A   1      45.759  27.235  25.399  1.00  0.00     0.127 S 
ATOM     80  O   UNL A   1      45.605  25.990  24.646  1.00  0.00    -0.237 OA
ATOM     81  O   UNL A   1      44.562  28.066  25.410  1.00  0.00    -0.237 OA
ATOM     82  O   UNL A   1      47.031  27.922  25.211  1.00  0.00    -0.744 OA
ENDBRANCH  76  79
ENDBRANCH  48  72
BRANCH  60  83
ATOM     83  C   UNL A   1      43.520  33.923  30.480  1.00  0.00     0.023 A 
ATOM     84  C   UNL A   1      43.602  34.946  31.447  1.00  0.00     0.012 A 
ATOM     85  C   UNL A   1      43.546  34.355  29.125  1.00  0.00     0.148 A 
ATOM     86  C   UNL A   1      43.807  36.290  31.104  1.00  0.00     0.002 A 
ATOM     87  C   UNL A   1      43.663  35.701  28.783  1.00  0.00     0.091 A 
ATOM     88  F   UNL A   1      43.463  33.467  28.132  1.00  0.00    -0.205 F 
ATOM     89  C   UNL A   1      43.831  36.670  29.772  1.00  0.00     0.022 A 
BRANCH  87  90
ATOM     90  S   UNL A   1      43.510  36.286  27.086  1.00  0.00     0.127 S 
ATOM     91  O   UNL A   1      44.698  35.696  26.468  1.00  0.00    -0.237 OA
ATOM     92  O   UNL A   1      42.244  35.684  26.672  1.00  0.00    -0.237 OA
ATOM     93  O   UNL A   1      43.513  37.740  27.147  1.00  0.00    -0.744 OA
ENDBRANCH  87  90
ENDBRANCH  60  83
ENDBRANCH  34  35
ENDBRANCH  27  29
ENDBRANCH  26  27
ENDBRANCH   1  26
TORSDOF 17
ENDMDL
MODEL 2
REMARK VINA RESULT:     -13.9      2.042      2.533
REMARK SMILES Cc1c(CC(=O)OCCOC(=O)c2ccc(-c3c4nc(c(-c5cccc(S(=O)(=O)[O-])c5F)c5ccc([nH]5)c(-c5cccc(S(=O)(=O)[O-])c5F)c5nc(c(-c6cccc(S(=O)(=O)[O-])c6F)c6ccc3[nH]6)C=C5)C=C4)cc2)cc(-c2ccccc2)cc1-c1ccccc1
REMARK SMILES IDX 9 1 8 2 7 3 5 4 6 5 4 6 3 7 1 8 2 9 85 10 76 11 84 12 77 13
REMARK SMILES IDX 86 14 87 15 91 16 88 17 90 18 89 19 78 20 79 21 83 22 80 23
REMARK SMILES IDX 82 24 81 25 10 26 11 27 12 28 13 29 14 30 75 31 15 32 74 33
REMARK SMILES IDX 16 34 17 35 18 36 68 37 19 38 73 39 67 40 69 41 20 42 72 43
REMARK SMILES IDX 66 44 65 45 21 47 53 48 33 49 52 50 34 51 37 52 51 53 70 54
REMARK SMILES IDX 35 55 36 56 50 58 71 59 38 60 22 61 23 62 31 63 24 64 26 65
REMARK SMILES IDX 32 66 25 67 27 68 28 69 29 70 30 71 54 72 55 73 63 74 56 75
REMARK SMILES IDX 58 76 64 77 57 78 59 79 60 80 61 81 62 82 39 83 40 84 48 85
REMARK SMILES IDX 41 86 43 87 49 88 42 89 44 90 45 91 46 92 47 93
REMARK H PARENT 69 46 37 57
REMARK Flexibility Score: inf
ROOT
ATOM      1  C   UNL A   1      42.821  20.951  26.025  1.00  0.00     0.275 C 
ENDROOT
BRANCH   1   2
ATOM      2  C   UNL A   1      41.801  19.828  26.226  1.00  0.00     0.274 C 
BRANCH   2   3
ATOM      3  O   UNL A   1      40.563  20.422  26.646  1.00  0.00    -0.462 OA
BRANCH   3   4
ATOM      4  C   UNL A   1      39.410  20.172  25.802  1.00  0.00     0.310 C 
ATOM      5  O   UNL A   1      39.583  18.984  25.382  1.00  0.00    -0.252 OA
BRANCH   4   6
ATOM      6  C   UNL A   1      37.766  21.560  25.502  1.00  0.00     0.158 C 
BRANCH   6   7
ATOM      7  C   UNL A   1      36.086  21.425  25.070  1.00  0.00    -0.033 A 
ATOM      8  C   UNL A   1      35.773  23.968  24.972  1.00  0.00     0.045 C 
ATOM      9  C   UNL A   1      35.229  22.559  24.912  1.00  0.00    -0.039 A 
ATOM     10  C   UNL A   1      33.843  22.353  24.633  1.00  0.00    -0.015 A 
ATOM     11  C   UNL A   1      35.568  20.181  24.676  1.00  0.00     0.013 A 
ATOM     12  C   UNL A   1      33.341  21.037  24.551  1.00  0.00     0.017 A 
ATOM     13  C   UNL A   1      34.197  19.941  24.582  1.00  0.00    -0.017 A 
BRANCH  10  14
ATOM     14  C   UNL A   1      32.889  23.460  24.428  1.00  0.00    -0.018 A 
ATOM     15  C   UNL A   1      32.603  23.934  23.140  1.00  0.00     0.009 A 
ATOM     16  C   UNL A   1      32.239  24.062  25.520  1.00  0.00     0.009 A 
ATOM     17  C   UNL A   1      31.675  24.961  22.945  1.00  0.00     0.001 A 
ATOM     18  C   UNL A   1      31.303  25.080  25.325  1.00  0.00     0.001 A 
ATOM     19  C   UNL A   1      31.018  25.526  24.037  1.00  0.00     0.000 A 
ENDBRANCH  10  14
BRANCH  13  20
ATOM     20  C   UNL A   1      33.739  18.550  24.632  1.00  0.00    -0.018 A 
ATOM     21  C   UNL A   1      32.905  18.150  25.694  1.00  0.00     0.009 A 
ATOM     22  C   UNL A   1      34.171  17.577  23.729  1.00  0.00     0.009 A 
ATOM     23  C   UNL A   1      32.565  16.815  25.894  1.00  0.00     0.001 A 
ATOM     24  C   UNL A   1      33.813  16.237  23.914  1.00  0.00     0.001 A 
ATOM     25  C   UNL A   1      33.025  15.856  25.003  1.00  0.00     0.000 A 
ENDBRANCH  13  20
ENDBRANCH   6   7
ENDBRANCH   4   6
ENDBRANCH   3   4
ENDBRANCH   2   3
ENDBRANCH   1   2
BRANCH   1  26
ATOM     26  O   UNL A   1      42.293  22.307  25.970  1.00  0.00    -0.458 OA
BRANCH  26  27
ATOM     27  C   UNL A   1      42.231  23.238  26.962  1.00  0.00     0.338 C 
ATOM     28  O   UNL A   1      42.873  23.115  27.996  1.00  0.00    -0.246 OA
BRANCH  27  29
ATOM     29  C   UNL A   1      41.157  24.255  26.893  1.00  0.00     0.060 A 
ATOM     30  C   UNL A   1      41.505  25.592  25.728  1.00  0.00     0.016 A 
ATOM     31  C   UNL A   1      40.109  24.548  28.331  1.00  0.00     0.016 A 
ATOM     32  C   UNL A   1      41.014  27.294  26.160  1.00  0.00     0.010 A 
ATOM     33  C   UNL A   1      39.599  26.235  28.732  1.00  0.00     0.010 A 
ATOM     34  C   UNL A   1      40.155  27.612  27.701  1.00  0.00    -0.014 A 
BRANCH  34  35
ATOM     35  C   UNL A   1      40.344  28.839  28.463  1.00  0.00     0.031 A 
ATOM     36  C   UNL A   1      39.269  29.835  28.531  1.00  0.00     0.074 A 
ATOM     37  C   UNL A   1      41.371  28.899  29.347  1.00  0.00     0.049 A 
ATOM     38  N   UNL A   1      39.428  30.980  29.093  1.00  0.00    -0.248 NA
ATOM     39  C   UNL A   1      37.946  29.668  27.940  1.00  0.00     0.031 C 
ATOM     40  C   UNL A   1      41.458  29.711  30.560  1.00  0.00     0.029 A 
ATOM     41  N   UNL A   1      42.633  28.312  29.285  1.00  0.00    -0.354 N 
ATOM     42  C   UNL A   1      38.185  31.532  29.245  1.00  0.00     0.074 A 
ATOM     43  C   UNL A   1      37.328  30.773  28.373  1.00  0.00     0.031 C 
ATOM     44  C   UNL A   1      42.740  29.790  30.947  1.00  0.00     0.029 A 
ATOM     45  C   UNL A   1      43.543  29.165  29.916  1.00  0.00     0.049 A 
ATOM     46  H   UNL A   1      42.847  27.446  28.868  1.00  0.00     0.167 HD
ATOM     47  C   UNL A   1      38.020  32.472  30.213  1.00  0.00     0.034 A 
ATOM     48  C   UNL A   1      44.639  29.699  29.299  1.00  0.00     0.034 A 
ATOM     49  C   UNL A   1      39.318  32.936  30.734  1.00  0.00     0.049 A 
ATOM     50  C   UNL A   1      44.547  31.224  29.234  1.00  0.00     0.074 A 
ATOM     51  C   UNL A   1      40.013  32.818  31.924  1.00  0.00     0.029 A 
ATOM     52  N   UNL A   1      40.234  33.438  29.821  1.00  0.00    -0.354 N 
ATOM     53  N   UNL A   1      43.662  31.954  29.859  1.00  0.00    -0.248 NA
ATOM     54  C   UNL A   1      45.370  32.023  28.327  1.00  0.00     0.031 C 
ATOM     55  C   UNL A   1      41.373  33.205  31.683  1.00  0.00     0.029 A 
ATOM     56  C   UNL A   1      41.492  33.619  30.365  1.00  0.00     0.049 A 
ATOM     57  H   UNL A   1      40.012  33.646  28.885  1.00  0.00     0.167 HD
ATOM     58  C   UNL A   1      43.589  33.190  29.257  1.00  0.00     0.074 A 
ATOM     59  C   UNL A   1      44.705  33.189  28.325  1.00  0.00     0.031 C 
ATOM     60  C   UNL A   1      42.570  34.082  29.487  1.00  0.00     0.034 A 
BRANCH  47  61
ATOM     61  C   UNL A   1      36.683  32.908  30.768  1.00  0.00     0.023 A 
ATOM     62  C   UNL A   1      36.347  32.467  32.065  1.00  0.00     0.012 A 
ATOM     63  C   UNL A   1      35.686  33.647  30.079  1.00  0.00     0.148 A 
ATOM     64  C   UNL A   1      35.103  32.743  32.648  1.00  0.00     0.002 A 
ATOM     65  C   UNL A   1      34.478  33.992  30.692  1.00  0.00     0.091 A 
ATOM     66  F   UNL A   1      35.837  33.933  28.782  1.00  0.00    -0.205 F 
ATOM     67  C   UNL A   1      34.177  33.526  31.972  1.00  0.00     0.022 A 
BRANCH  65  68
ATOM     68  S   UNL A   1      33.267  35.063  29.892  1.00  0.00     0.127 S 
ATOM     69  O   UNL A   1      32.757  34.203  28.824  1.00  0.00    -0.237 OA
ATOM     70  O   UNL A   1      32.312  35.324  30.969  1.00  0.00    -0.237 OA
ATOM     71  O   UNL A   1      34.003  36.241  29.448  1.00  0.00    -0.744 OA
ENDBRANCH  65  68
ENDBRANCH  47  61
BRANCH  48  72
ATOM     72  C   UNL A   1      45.191  28.814  28.219  1.00  0.00     0.023 A 
ATOM     73  C   UNL A   1      45.019  29.244  26.879  1.00  0.00     0.012 A 
ATOM     74  C   UNL A   1      46.178  27.852  28.485  1.00  0.00     0.148 A 
ATOM     75  C   UNL A   1      45.918  28.859  25.880  1.00  0.00     0.002 A 
ATOM     76  C   UNL A   1      47.070  27.472  27.486  1.00  0.00     0.091 A 
ATOM     77  F   UNL A   1      46.312  27.370  29.725  1.00  0.00    -0.205 F 
ATOM     78  C   UNL A   1      46.970  28.003  26.194  1.00  0.00     0.022 A 
BRANCH  76  79
ATOM     79  S   UNL A   1      48.506  26.478  27.921  1.00  0.00     0.127 S 
ATOM     80  O   UNL A   1      49.342  26.580  26.725  1.00  0.00    -0.237 OA
ATOM     81  O   UNL A   1      49.063  27.155  29.085  1.00  0.00    -0.237 OA
ATOM     82  O   UNL A   1      47.908  25.169  28.152  1.00  0.00    -0.744 OA
ENDBRANCH  76  79
ENDBRANCH  48  72
BRANCH  60  83
ATOM     83  C   UNL A   1      42.497  35.469  28.838  1.00  0.00     0.023 A 
ATOM     84  C   UNL A   1      41.990  35.635  27.533  1.00  0.00     0.012 A 
ATOM     85  C   UNL A   1      43.034  36.641  29.442  1.00  0.00     0.148 A 
ATOM     86  C   UNL A   1      41.916  36.887  26.909  1.00  0.00     0.002 A 
ATOM     87  C   UNL A   1      43.039  37.870  28.786  1.00  0.00     0.091 A 
ATOM     88  F   UNL A   1      43.549  36.589  30.672  1.00  0.00    -0.205 F 
ATOM     89  C   UNL A   1      42.446  38.005  27.532  1.00  0.00     0.022 A 
BRANCH  87  90
ATOM     90  S   UNL A   1      43.879  39.318  29.452  1.00  0.00     0.127 S 
ATOM     91  O   UNL A   1      45.275  38.879  29.433  1.00  0.00    -0.237 OA
ATOM     92  O   UNL A   1      43.547  40.341  28.463  1.00  0.00    -0.237 OA
ATOM     93  O   UNL A   1      43.328  39.541  30.781  1.00  0.00    -0.744 OA
ENDBRANCH  87  90
ENDBRANCH  60  83
ENDBRANCH  34  35
ENDBRANCH  27  29
ENDBRANCH  26  27
ENDBRANCH   1  26
TORSDOF 17
ENDMDL
MODEL 3
REMARK VINA RESULT:     -13.9      5.745     11.417
REMARK SMILES Cc1c(CC(=O)OCCOC(=O)c2ccc(-c3c4nc(c(-c5cccc(S(=O)(=O)[O-])c5F)c5ccc([nH]5)c(-c5cccc(S(=O)(=O)[O-])c5F)c5nc(c(-c6cccc(S(=O)(=O)[O-])c6F)c6ccc3[nH]6)C=C5)C=C4)cc2)cc(-c2ccccc2)cc1-c1ccccc1
REMARK SMILES IDX 9 1 8 2 7 3 5 4 6 5 4 6 3 7 1 8 2 9 85 10 76 11 84 12 77 13
REMARK SMILES IDX 86 14 87 15 91 16 88 17 90 18 89 19 78 20 79 21 83 22 80 23
REMARK SMILES IDX 82 24 81 25 10 26 11 27 12 28 13 29 14 30 75 31 15 32 74 33
REMARK SMILES IDX 16 34 17 35 18 36 68 37 19 38 73 39 67 40 69 41 20 42 72 43
REMARK SMILES IDX 66 44 65 45 21 47 53 48 33 49 52 50 34 51 37 52 51 53 70 54
REMARK SMILES IDX 35 55 36 56 50 58 71 59 38 60 22 61 23 62 31 63 24 64 26 65
REMARK SMILES IDX 32 66 25 67 27 68 28 69 29 70 30 71 54 72 55 73 63 74 56 75
REMARK SMILES IDX 58 76 64 77 57 78 59 79 60 80 61 81 62 82 39 83 40 84 48 85
REMARK SMILES IDX 41 86 43 87 49 88 42 89 44 90 45 91 46 92 47 93
REMARK H PARENT 69 46 37 57
REMARK Flexibility Score: inf
ROOT
ATOM      1  C   UNL A   1      45.294  20.784  24.542  1.00  0.00     0.275 C 
ENDROOT
BRANCH   1   2
ATOM      2  C   UNL A   1      44.690  19.498  25.113  1.00  0.00     0.274 C 
BRANCH   2   3
ATOM      3  O   UNL A   1      43.310  19.442  24.719  1.00  0.00    -0.462 OA
BRANCH   3   4
ATOM      4  C   UNL A   1      42.357  19.102  25.758  1.00  0.00     0.310 C 
ATOM      5  O   UNL A   1      42.328  17.831  25.749  1.00  0.00    -0.252 OA
BRANCH   4   6
ATOM      6  C   UNL A   1      41.361  20.538  27.048  1.00  0.00     0.158 C 
BRANCH   6   7
ATOM      7  C   UNL A   1      40.285  21.885  26.813  1.00  0.00    -0.033 A 
ATOM      8  C   UNL A   1      38.530  20.442  25.624  1.00  0.00     0.045 C 
ATOM      9  C   UNL A   1      39.050  21.780  26.100  1.00  0.00    -0.039 A 
ATOM     10  C   UNL A   1      38.265  22.954  25.886  1.00  0.00    -0.015 A 
ATOM     11  C   UNL A   1      40.522  23.090  27.495  1.00  0.00     0.013 A 
ATOM     12  C   UNL A   1      38.738  24.198  26.354  1.00  0.00     0.017 A 
ATOM     13  C   UNL A   1      39.875  24.278  27.152  1.00  0.00    -0.017 A 
BRANCH  10  14
ATOM     14  C   UNL A   1      36.966  22.939  25.186  1.00  0.00    -0.018 A 
ATOM     15  C   UNL A   1      36.903  22.973  23.785  1.00  0.00     0.009 A 
ATOM     16  C   UNL A   1      35.760  22.884  25.907  1.00  0.00     0.009 A 
ATOM     17  C   UNL A   1      35.673  22.925  23.123  1.00  0.00     0.001 A 
ATOM     18  C   UNL A   1      34.531  22.824  25.245  1.00  0.00     0.001 A 
ATOM     19  C   UNL A   1      34.489  22.841  23.853  1.00  0.00     0.000 A 
ENDBRANCH  10  14
BRANCH  13  20
ATOM     20  C   UNL A   1      40.495  25.540  27.565  1.00  0.00    -0.018 A 
ATOM     21  C   UNL A   1      40.470  26.629  26.672  1.00  0.00     0.009 A 
ATOM     22  C   UNL A   1      41.197  25.683  28.762  1.00  0.00     0.009 A 
ATOM     23  C   UNL A   1      41.176  27.801  26.929  1.00  0.00     0.001 A 
ATOM     24  C   UNL A   1      41.889  26.869  29.034  1.00  0.00     0.001 A 
ATOM     25  C   UNL A   1      41.891  27.918  28.113  1.00  0.00     0.000 A 
ENDBRANCH  13  20
ENDBRANCH   6   7
ENDBRANCH   4   6
ENDBRANCH   3   4
ENDBRANCH   2   3
ENDBRANCH   1   2
BRANCH   1  26
ATOM     26  O   UNL A   1      45.050  22.006  25.296  1.00  0.00    -0.458 OA
BRANCH  26  27
ATOM     27  C   UNL A   1      43.880  22.680  25.470  1.00  0.00     0.338 C 
ATOM     28  O   UNL A   1      43.032  22.728  24.589  1.00  0.00    -0.246 OA
BRANCH  27  29
ATOM     29  C   UNL A   1      43.772  23.594  26.630  1.00  0.00     0.060 A 
ATOM     30  C   UNL A   1      44.179  25.310  26.237  1.00  0.00     0.016 A 
ATOM     31  C   UNL A   1      44.027  22.956  28.298  1.00  0.00     0.016 A 
ATOM     32  C   UNL A   1      45.095  26.306  27.458  1.00  0.00     0.010 A 
ATOM     33  C   UNL A   1      44.907  23.965  29.512  1.00  0.00     0.010 A 
ATOM     34  C   UNL A   1      45.536  25.594  29.042  1.00  0.00    -0.014 A 
BRANCH  34  35
ATOM     35  C   UNL A   1      46.767  25.939  29.740  1.00  0.00     0.031 A 
ATOM     36  C   UNL A   1      48.067  25.599  29.152  1.00  0.00     0.074 A 
ATOM     37  C   UNL A   1      46.704  26.840  30.753  1.00  0.00     0.049 A 
ATOM     38  N   UNL A   1      49.174  25.778  29.780  1.00  0.00    -0.248 NA
ATOM     39  C   UNL A   1      48.247  24.985  27.841  1.00  0.00     0.031 C 
ATOM     40  C   UNL A   1      47.763  27.734  31.219  1.00  0.00     0.029 A 
ATOM     41  N   UNL A   1      45.686  27.071  31.675  1.00  0.00    -0.354 N 
ATOM     42  C   UNL A   1      50.184  25.645  28.867  1.00  0.00     0.074 A 
ATOM     43  C   UNL A   1      49.581  24.992  27.734  1.00  0.00     0.031 C 
ATOM     44  C   UNL A   1      47.456  28.180  32.445  1.00  0.00     0.029 A 
ATOM     45  C   UNL A   1      46.270  27.471  32.880  1.00  0.00     0.049 A 
ATOM     46  H   UNL A   1      44.721  26.970  31.507  1.00  0.00     0.167 HD
ATOM     47  C   UNL A   1      51.372  26.246  29.138  1.00  0.00     0.034 A 
ATOM     48  C   UNL A   1      46.103  26.809  34.063  1.00  0.00     0.034 A 
ATOM     49  C   UNL A   1      51.434  26.697  30.539  1.00  0.00     0.049 A 
ATOM     50  C   UNL A   1      47.432  26.255  34.578  1.00  0.00     0.074 A 
ATOM     51  C   UNL A   1      51.447  27.916  31.193  1.00  0.00     0.029 A 
ATOM     52  N   UNL A   1      51.214  25.750  31.530  1.00  0.00    -0.354 N 
ATOM     53  N   UNL A   1      48.609  26.540  34.089  1.00  0.00    -0.248 NA
ATOM     54  C   UNL A   1      47.506  25.211  35.600  1.00  0.00     0.031 C 
ATOM     55  C   UNL A   1      51.172  27.677  32.581  1.00  0.00     0.029 A 
ATOM     56  C   UNL A   1      51.055  26.311  32.783  1.00  0.00     0.049 A 
ATOM     57  H   UNL A   1      51.176  24.782  31.358  1.00  0.00     0.167 HD
ATOM     58  C   UNL A   1      49.507  25.573  34.478  1.00  0.00     0.074 A 
ATOM     59  C   UNL A   1      48.769  24.784  35.452  1.00  0.00     0.031 C 
ATOM     60  C   UNL A   1      50.749  25.422  33.909  1.00  0.00     0.034 A 
BRANCH  47  61
ATOM     61  C   UNL A   1      52.450  26.522  28.114  1.00  0.00     0.023 A 
ATOM     62  C   UNL A   1      53.710  25.925  28.326  1.00  0.00     0.012 A 
ATOM     63  C   UNL A   1      52.350  27.398  27.001  1.00  0.00     0.148 A 
ATOM     64  C   UNL A   1      54.803  26.174  27.488  1.00  0.00     0.002 A 
ATOM     65  C   UNL A   1      53.418  27.581  26.118  1.00  0.00     0.091 A 
ATOM     66  F   UNL A   1      51.261  28.157  26.839  1.00  0.00    -0.205 F 
ATOM     67  C   UNL A   1      54.653  26.983  26.369  1.00  0.00     0.022 A 
BRANCH  65  68
ATOM     68  S   UNL A   1      53.261  28.564  24.614  1.00  0.00     0.127 S 
ATOM     69  O   UNL A   1      54.504  28.249  23.911  1.00  0.00    -0.237 OA
ATOM     70  O   UNL A   1      52.056  28.009  23.995  1.00  0.00    -0.237 OA
ATOM     71  O   UNL A   1      53.123  29.949  25.050  1.00  0.00    -0.744 OA
ENDBRANCH  65  68
ENDBRANCH  47  61
BRANCH  48  72
ATOM     72  C   UNL A   1      44.775  26.115  34.163  1.00  0.00     0.023 A 
ATOM     73  C   UNL A   1      44.689  24.803  33.632  1.00  0.00     0.012 A 
ATOM     74  C   UNL A   1      43.794  26.526  35.079  1.00  0.00     0.148 A 
ATOM     75  C   UNL A   1      43.763  23.884  34.136  1.00  0.00     0.002 A 
ATOM     76  C   UNL A   1      42.874  25.606  35.577  1.00  0.00     0.091 A 
ATOM     77  F   UNL A   1      43.804  27.782  35.537  1.00  0.00    -0.205 F 
ATOM     78  C   UNL A   1      42.882  24.276  35.140  1.00  0.00     0.022 A 
BRANCH  76  79
ATOM     79  S   UNL A   1      41.830  26.072  36.967  1.00  0.00     0.127 S 
ATOM     80  O   UNL A   1      42.803  26.307  38.034  1.00  0.00    -0.237 OA
ATOM     81  O   UNL A   1      41.156  27.281  36.510  1.00  0.00    -0.237 OA
ATOM     82  O   UNL A   1      41.001  24.884  37.132  1.00  0.00    -0.744 OA
ENDBRANCH  76  79
ENDBRANCH  48  72
BRANCH  60  83
ATOM     83  C   UNL A   1      51.762  24.362  34.355  1.00  0.00     0.023 A 
ATOM     84  C   UNL A   1      52.827  24.693  35.217  1.00  0.00     0.012 A 
ATOM     85  C   UNL A   1      51.773  23.033  33.848  1.00  0.00     0.148 A 
ATOM     86  C   UNL A   1      53.775  23.750  35.639  1.00  0.00     0.002 A 
ATOM     87  C   UNL A   1      52.764  22.119  34.199  1.00  0.00     0.091 A 
ATOM     88  F   UNL A   1      50.814  22.622  33.015  1.00  0.00    -0.205 F 
ATOM     89  C   UNL A   1      53.748  22.463  35.125  1.00  0.00     0.022 A 
BRANCH  87  90
ATOM     90  S   UNL A   1      52.902  20.498  33.427  1.00  0.00     0.127 S 
ATOM     91  O   UNL A   1      53.940  19.872  34.248  1.00  0.00    -0.237 OA
ATOM     92  O   UNL A   1      51.559  19.955  33.622  1.00  0.00    -0.237 OA
ATOM     93  O   UNL A   1      53.280  20.730  32.040  1.00  0.00    -0.744 OA
ENDBRANCH  87  90
ENDBRANCH  60  83
ENDBRANCH  34  35
ENDBRANCH  27  29
ENDBRANCH  26  27
ENDBRANCH   1  26
TORSDOF 17
ENDMDL
