MODEL 1
REMARK VINA RESULT:     -12.2      0.000      0.000
REMARK SMILES Cc1c[nH]c(C[N@H+]2C[C@@H]3CN(S(C)(=O)=O)C[C@]3(C(=O)OCCOC(=O)c3ccc(-c4c5nc(c(-c6cccc(S(=O)(=O)[O-])c6F)c6ccc([nH]6)c(-c6cccc(S(=O)(=O)[O-])c6F)c6nc(c(-c7cccc(S(=O)(=O)[O-])c7F)c7ccc4[nH]7)C=C6)C=C5)cc3)C2)n1
REMARK SMILES IDX 22 1 21 2 20 3 18 4 19 5 17 6 7 7 8 8 89 9 9 11 10 12 16 13
REMARK SMILES IDX 11 14 6 15 5 16 1 17 2 18 3 19 90 20 4 21 12 23 13 24 14 25
REMARK SMILES IDX 15 26 23 27 24 28 25 29 26 30 27 31 88 32 28 33 87 34 29 35
REMARK SMILES IDX 30 36 31 37 81 38 32 39 86 40 80 41 82 42 33 43 85 44 79 45
REMARK SMILES IDX 78 46 34 48 66 49 46 50 65 51 47 52 50 53 64 54 83 55 48 56
REMARK SMILES IDX 49 57 63 59 84 60 51 61 35 62 36 63 44 64 37 65 39 66 45 67
REMARK SMILES IDX 38 68 40 69 41 70 42 71 43 72 67 73 68 74 76 75 69 76 71 77
REMARK SMILES IDX 77 78 70 79 72 80 73 81 74 82 75 83 52 84 53 85 61 86 54 87
REMARK SMILES IDX 56 88 62 89 55 90 57 91 58 92 59 93 60 94
REMARK H PARENT 7 10 4 22 82 47 50 58
REMARK Flexibility Score: inf
ROOT
ATOM      1  C   UNL A   1      31.781  28.870  26.134  1.00  0.00     0.275 C 
ENDROOT
BRANCH   1   2
ATOM      2  C   UNL A   1      32.301  27.412  26.191  1.00  0.00     0.274 C 
BRANCH   2   3
ATOM      3  O   UNL A   1      31.376  26.419  25.666  1.00  0.00    -0.461 OA
BRANCH   3   4
ATOM      4  C   UNL A   1      31.715  25.116  25.924  1.00  0.00     0.319 C 
ATOM      5  O   UNL A   1      31.422  24.637  27.011  1.00  0.00    -0.251 OA
BRANCH   4   6
ATOM      6  C   UNL A   1      32.587  24.421  24.742  1.00  0.00     0.140 C 
ATOM      7  N   UNL A   1      34.433  22.754  25.440  1.00  0.00    -0.327 N 
ATOM      8  C   UNL A   1      34.203  22.524  24.043  1.00  0.00     0.268 C 
ATOM      9  C   UNL A   1      33.268  23.522  25.897  1.00  0.00     0.283 C 
ATOM     10  H   UNL A   1      35.313  23.254  25.564  1.00  0.00     0.348 HD
ATOM     11  C   UNL A   1      32.801  23.073  23.843  1.00  0.00     0.084 C 
ATOM     12  C   UNL A   1      32.631  23.362  22.358  1.00  0.00     0.113 C 
ATOM     13  C   UNL A   1      31.317  24.631  23.784  1.00  0.00     0.127 C 
ATOM     14  N   UNL A   1      31.831  24.568  22.386  1.00  0.00    -0.200 NA
BRANCH   7  15
ATOM     15  C   UNL A   1      34.636  21.529  26.251  1.00  0.00     0.338 C 
BRANCH  15  16
ATOM     16  C   UNL A   1      34.161  20.219  25.670  1.00  0.00     0.161 A 
ATOM     17  C   UNL A   1      34.251  17.294  23.624  1.00  0.00     0.068 C 
ATOM     18  C   UNL A   1      33.923  18.363  24.592  1.00  0.00     0.056 A 
ATOM     19  C   UNL A   1      32.778  18.514  25.338  1.00  0.00     0.107 A 
ATOM     20  N   UNL A   1      34.781  19.415  24.826  1.00  0.00    -0.233 NA
ATOM     21  N   UNL A   1      32.931  19.697  26.000  1.00  0.00    -0.344 N 
ATOM     22  H   UNL A   1      32.274  20.107  26.607  1.00  0.00     0.167 HD
ENDBRANCH  15  16
ENDBRANCH   7  15
BRANCH  14  23
ATOM     23  S   UNL A   1      32.488  25.959  21.676  1.00  0.00     0.211 S 
ATOM     24  C   UNL A   1      32.481  25.596  19.924  1.00  0.00     0.176 C 
ATOM     25  O   UNL A   1      31.562  27.045  21.893  1.00  0.00    -0.213 OA
ATOM     26  O   UNL A   1      33.875  26.070  22.088  1.00  0.00    -0.213 OA
ENDBRANCH  14  23
ENDBRANCH   4   6
ENDBRANCH   3   4
ENDBRANCH   2   3
ENDBRANCH   1   2
BRANCH   1  27
ATOM     27  O   UNL A   1      32.821  29.824  25.812  1.00  0.00    -0.458 OA
BRANCH  27  28
ATOM     28  C   UNL A   1      33.041  30.822  26.706  1.00  0.00     0.338 C 
ATOM     29  O   UNL A   1      32.241  31.676  27.051  1.00  0.00    -0.246 OA
BRANCH  28  30
ATOM     30  C   UNL A   1      34.373  30.686  27.339  1.00  0.00     0.060 A 
ATOM     31  C   UNL A   1      34.759  29.421  27.766  1.00  0.00     0.016 A 
ATOM     32  C   UNL A   1      35.173  31.778  27.668  1.00  0.00     0.016 A 
ATOM     33  C   UNL A   1      35.929  29.217  28.484  1.00  0.00     0.010 A 
ATOM     34  C   UNL A   1      36.382  31.570  28.364  1.00  0.00     0.010 A 
ATOM     35  C   UNL A   1      36.775  30.284  28.781  1.00  0.00    -0.014 A 
BRANCH  35  36
ATOM     36  C   UNL A   1      38.025  30.021  29.556  1.00  0.00     0.031 A 
ATOM     37  C   UNL A   1      39.109  29.149  28.982  1.00  0.00     0.074 A 
ATOM     38  C   UNL A   1      38.222  30.616  30.752  1.00  0.00     0.049 A 
ATOM     39  N   UNL A   1      40.204  28.711  29.549  1.00  0.00    -0.248 NA
ATOM     40  C   UNL A   1      38.953  28.725  27.581  1.00  0.00     0.031 C 
ATOM     41  C   UNL A   1      37.299  31.556  31.393  1.00  0.00     0.029 A 
ATOM     42  N   UNL A   1      39.261  30.516  31.650  1.00  0.00    -0.354 N 
ATOM     43  C   UNL A   1      40.835  27.916  28.600  1.00  0.00     0.074 A 
ATOM     44  C   UNL A   1      40.014  27.951  27.409  1.00  0.00     0.031 C 
ATOM     45  C   UNL A   1      37.812  31.950  32.568  1.00  0.00     0.029 A 
ATOM     46  C   UNL A   1      39.044  31.213  32.817  1.00  0.00     0.049 A 
ATOM     47  H   UNL A   1      40.078  29.996  31.475  1.00  0.00     0.167 HD
ATOM     48  C   UNL A   1      41.989  27.216  28.713  1.00  0.00     0.034 A 
ATOM     49  C   UNL A   1      39.712  31.210  33.989  1.00  0.00     0.034 A 
ATOM     50  C   UNL A   1      42.813  27.199  29.893  1.00  0.00     0.049 A 
ATOM     51  C   UNL A   1      40.925  30.333  34.129  1.00  0.00     0.074 A 
ATOM     52  C   UNL A   1      43.998  26.518  30.104  1.00  0.00     0.029 A 
ATOM     53  N   UNL A   1      42.528  27.879  31.067  1.00  0.00    -0.354 N 
ATOM     54  N   UNL A   1      41.523  29.605  33.219  1.00  0.00    -0.248 NA
ATOM     55  C   UNL A   1      41.550  30.271  35.458  1.00  0.00     0.031 C 
ATOM     56  C   UNL A   1      44.409  26.754  31.420  1.00  0.00     0.029 A 
ATOM     57  C   UNL A   1      43.499  27.611  32.018  1.00  0.00     0.049 A 
ATOM     58  H   UNL A   1      41.751  28.467  31.205  1.00  0.00     0.167 HD
ATOM     59  C   UNL A   1      42.600  29.005  33.859  1.00  0.00     0.074 A 
ATOM     60  C   UNL A   1      42.592  29.483  35.227  1.00  0.00     0.031 C 
ATOM     61  C   UNL A   1      43.501  28.121  33.365  1.00  0.00     0.034 A 
BRANCH  48  62
ATOM     62  C   UNL A   1      42.419  26.382  27.535  1.00  0.00     0.023 A 
ATOM     63  C   UNL A   1      43.251  26.933  26.540  1.00  0.00     0.012 A 
ATOM     64  C   UNL A   1      42.026  25.031  27.439  1.00  0.00     0.148 A 
ATOM     65  C   UNL A   1      43.660  26.162  25.452  1.00  0.00     0.002 A 
ATOM     66  C   UNL A   1      42.472  24.258  26.373  1.00  0.00     0.091 A 
ATOM     67  F   UNL A   1      41.218  24.533  28.384  1.00  0.00    -0.205 F 
ATOM     68  C   UNL A   1      43.279  24.824  25.374  1.00  0.00     0.022 A 
BRANCH  66  69
ATOM     69  S   UNL A   1      42.090  22.510  26.222  1.00  0.00     0.127 S 
ATOM     70  O   UNL A   1      42.783  22.164  24.981  1.00  0.00    -0.237 OA
ATOM     71  O   UNL A   1      42.697  21.957  27.434  1.00  0.00    -0.237 OA
ATOM     72  O   UNL A   1      40.638  22.417  26.173  1.00  0.00    -0.744 OA
ENDBRANCH  66  69
ENDBRANCH  48  62
BRANCH  49  73
ATOM     73  C   UNL A   1      39.213  32.024  35.137  1.00  0.00     0.023 A 
ATOM     74  C   UNL A   1      38.301  31.463  36.050  1.00  0.00     0.012 A 
ATOM     75  C   UNL A   1      39.666  33.343  35.344  1.00  0.00     0.148 A 
ATOM     76  C   UNL A   1      37.841  32.203  37.140  1.00  0.00     0.002 A 
ATOM     77  C   UNL A   1      39.257  34.049  36.469  1.00  0.00     0.091 A 
ATOM     78  F   UNL A   1      40.506  33.875  34.446  1.00  0.00    -0.205 F 
ATOM     79  C   UNL A   1      38.331  33.489  37.359  1.00  0.00     0.022 A 
BRANCH  77  80
ATOM     80  S   UNL A   1      39.955  35.647  36.906  1.00  0.00     0.127 S 
ATOM     81  O   UNL A   1      39.276  35.934  38.167  1.00  0.00    -0.237 OA
ATOM     82  O   UNL A   1      41.378  35.329  37.030  1.00  0.00    -0.237 OA
ATOM     83  O   UNL A   1      39.633  36.534  35.797  1.00  0.00    -0.744 OA
ENDBRANCH  77  80
ENDBRANCH  49  73
BRANCH  61  84
ATOM     84  C   UNL A   1      44.569  27.620  34.299  1.00  0.00     0.023 A 
ATOM     85  C   UNL A   1      45.736  28.384  34.500  1.00  0.00     0.012 A 
ATOM     86  C   UNL A   1      44.382  26.434  35.036  1.00  0.00     0.148 A 
ATOM     87  C   UNL A   1      46.710  27.963  35.404  1.00  0.00     0.002 A 
ATOM     88  C   UNL A   1      45.333  26.047  35.970  1.00  0.00     0.091 A 
ATOM     89  F   UNL A   1      43.272  25.715  34.815  1.00  0.00    -0.205 F 
ATOM     90  C   UNL A   1      46.504  26.804  36.147  1.00  0.00     0.022 A 
BRANCH  88  91
ATOM     91  S   UNL A   1      45.115  24.621  37.039  1.00  0.00     0.127 S 
ATOM     92  O   UNL A   1      43.873  24.958  37.735  1.00  0.00    -0.237 OA
ATOM     93  O   UNL A   1      44.997  23.528  36.074  1.00  0.00    -0.237 OA
ATOM     94  O   UNL A   1      46.301  24.562  37.883  1.00  0.00    -0.744 OA
ENDBRANCH  88  91
ENDBRANCH  61  84
ENDBRANCH  35  36
ENDBRANCH  28  30
ENDBRANCH  27  28
ENDBRANCH   1  27
TORSDOF 17
ENDMDL
MODEL 2
REMARK VINA RESULT:     -12.2      2.070      2.626
REMARK SMILES Cc1c[nH]c(C[N@H+]2C[C@@H]3CN(S(C)(=O)=O)C[C@]3(C(=O)OCCOC(=O)c3ccc(-c4c5nc(c(-c6cccc(S(=O)(=O)[O-])c6F)c6ccc([nH]6)c(-c6cccc(S(=O)(=O)[O-])c6F)c6nc(c(-c7cccc(S(=O)(=O)[O-])c7F)c7ccc4[nH]7)C=C6)C=C5)cc3)C2)n1
REMARK SMILES IDX 22 1 21 2 20 3 18 4 19 5 17 6 7 7 8 8 89 9 9 11 10 12 16 13
REMARK SMILES IDX 11 14 6 15 5 16 1 17 2 18 3 19 90 20 4 21 12 23 13 24 14 25
REMARK SMILES IDX 15 26 23 27 24 28 25 29 26 30 27 31 88 32 28 33 87 34 29 35
REMARK SMILES IDX 30 36 31 37 81 38 32 39 86 40 80 41 82 42 33 43 85 44 79 45
REMARK SMILES IDX 78 46 34 48 66 49 46 50 65 51 47 52 50 53 64 54 83 55 48 56
REMARK SMILES IDX 49 57 63 59 84 60 51 61 35 62 36 63 44 64 37 65 39 66 45 67
REMARK SMILES IDX 38 68 40 69 41 70 42 71 43 72 67 73 68 74 76 75 69 76 71 77
REMARK SMILES IDX 77 78 70 79 72 80 73 81 74 82 75 83 52 84 53 85 61 86 54 87
REMARK SMILES IDX 56 88 62 89 55 90 57 91 58 92 59 93 60 94
REMARK H PARENT 7 10 4 22 82 47 50 58
REMARK Flexibility Score: inf
ROOT
ATOM      1  C   UNL A   1      31.752  29.571  26.932  1.00  0.00     0.275 C 
ENDROOT
BRANCH   1   2
ATOM      2  C   UNL A   1      31.785  28.226  27.698  1.00  0.00     0.274 C 
BRANCH   2   3
ATOM      3  O   UNL A   1      32.275  27.099  26.920  1.00  0.00    -0.461 OA
BRANCH   3   4
ATOM      4  C   UNL A   1      31.352  26.524  26.084  1.00  0.00     0.319 C 
ATOM      5  O   UNL A   1      30.395  25.943  26.577  1.00  0.00    -0.251 OA
BRANCH   4   6
ATOM      6  C   UNL A   1      31.753  26.610  24.512  1.00  0.00     0.140 C 
ATOM      7  N   UNL A   1      33.762  25.199  23.710  1.00  0.00    -0.327 N 
ATOM      8  C   UNL A   1      33.047  25.573  22.524  1.00  0.00     0.268 C 
ATOM      9  C   UNL A   1      32.825  25.442  24.814  1.00  0.00     0.283 C 
ATOM     10  H   UNL A   1      34.617  25.751  23.783  1.00  0.00     0.348 HD
ATOM     11  C   UNL A   1      31.656  25.871  23.057  1.00  0.00     0.084 C 
ATOM     12  C   UNL A   1      30.953  26.751  22.032  1.00  0.00     0.113 C 
ATOM     13  C   UNL A   1      30.217  26.974  24.219  1.00  0.00     0.127 C 
ATOM     14  N   UNL A   1      30.191  27.639  22.884  1.00  0.00    -0.200 NA
BRANCH   7  15
ATOM     15  C   UNL A   1      34.272  23.806  23.720  1.00  0.00     0.338 C 
BRANCH  15  16
ATOM     16  C   UNL A   1      35.568  23.542  24.449  1.00  0.00     0.161 A 
ATOM     17  C   UNL A   1      38.309  24.193  26.644  1.00  0.00     0.068 C 
ATOM     18  C   UNL A   1      37.327  23.616  25.700  1.00  0.00     0.056 A 
ATOM     19  C   UNL A   1      37.403  22.427  25.014  1.00  0.00     0.107 A 
ATOM     20  N   UNL A   1      36.173  24.286  25.357  1.00  0.00    -0.233 NA
ATOM     21  N   UNL A   1      36.298  22.399  24.214  1.00  0.00    -0.344 N 
ATOM     22  H   UNL A   1      36.065  21.686  23.578  1.00  0.00     0.167 HD
ENDBRANCH  15  16
ENDBRANCH   7  15
BRANCH  14  23
ATOM     23  S   UNL A   1      30.515  29.298  22.773  1.00  0.00     0.211 S 
ATOM     24  C   UNL A   1      29.254  29.914  21.665  1.00  0.00     0.176 C 
ATOM     25  O   UNL A   1      30.271  29.883  24.070  1.00  0.00    -0.213 OA
ATOM     26  O   UNL A   1      31.795  29.470  22.109  1.00  0.00    -0.213 OA
ENDBRANCH  14  23
ENDBRANCH   4   6
ENDBRANCH   3   4
ENDBRANCH   2   3
ENDBRANCH   1   2
BRANCH   1  27
ATOM     27  O   UNL A   1      33.070  30.031  26.548  1.00  0.00    -0.458 OA
BRANCH  27  28
ATOM     28  C   UNL A   1      33.561  31.115  27.202  1.00  0.00     0.338 C 
ATOM     29  O   UNL A   1      32.962  32.152  27.436  1.00  0.00    -0.246 OA
BRANCH  28  30
ATOM     30  C   UNL A   1      34.917  30.849  27.731  1.00  0.00     0.060 A 
ATOM     31  C   UNL A   1      35.159  29.600  28.290  1.00  0.00     0.016 A 
ATOM     32  C   UNL A   1      35.897  31.833  27.840  1.00  0.00     0.016 A 
ATOM     33  C   UNL A   1      36.356  29.302  28.927  1.00  0.00     0.010 A 
ATOM     34  C   UNL A   1      37.129  31.524  28.453  1.00  0.00     0.010 A 
ATOM     35  C   UNL A   1      37.374  30.251  29.004  1.00  0.00    -0.014 A 
BRANCH  35  36
ATOM     36  C   UNL A   1      38.646  29.891  29.698  1.00  0.00     0.031 A 
ATOM     37  C   UNL A   1      39.610  28.921  29.069  1.00  0.00     0.074 A 
ATOM     38  C   UNL A   1      38.975  30.481  30.867  1.00  0.00     0.049 A 
ATOM     39  N   UNL A   1      40.700  28.397  29.569  1.00  0.00    -0.248 NA
ATOM     40  C   UNL A   1      39.323  28.495  27.690  1.00  0.00     0.031 C 
ATOM     41  C   UNL A   1      38.182  31.506  31.552  1.00  0.00     0.029 A 
ATOM     42  N   UNL A   1      40.061  30.303  31.695  1.00  0.00    -0.354 N 
ATOM     43  C   UNL A   1      41.194  27.538  28.595  1.00  0.00     0.074 A 
ATOM     44  C   UNL A   1      40.300  27.630  27.460  1.00  0.00     0.031 C 
ATOM     45  C   UNL A   1      38.806  31.869  32.682  1.00  0.00     0.029 A 
ATOM     46  C   UNL A   1      39.985  31.031  32.861  1.00  0.00     0.049 A 
ATOM     47  H   UNL A   1      40.816  29.712  31.475  1.00  0.00     0.167 HD
ATOM     48  C   UNL A   1      42.289  26.743  28.643  1.00  0.00     0.034 A 
ATOM     49  C   UNL A   1      40.729  30.985  33.986  1.00  0.00     0.034 A 
ATOM     50  C   UNL A   1      43.188  26.669  29.764  1.00  0.00     0.049 A 
ATOM     51  C   UNL A   1      41.869  30.008  34.060  1.00  0.00     0.074 A 
ATOM     52  C   UNL A   1      44.322  25.891  29.908  1.00  0.00     0.029 A 
ATOM     53  N   UNL A   1      43.043  27.386  30.943  1.00  0.00    -0.354 N 
ATOM     54  N   UNL A   1      42.339  29.219  33.125  1.00  0.00    -0.248 NA
ATOM     55  C   UNL A   1      42.576  29.908  35.345  1.00  0.00     0.031 C 
ATOM     56  C   UNL A   1      44.841  26.106  31.189  1.00  0.00     0.029 A 
ATOM     57  C   UNL A   1      44.050  27.046  31.830  1.00  0.00     0.049 A 
ATOM     58  H   UNL A   1      42.330  28.041  31.121  1.00  0.00     0.167 HD
ATOM     59  C   UNL A   1      43.402  28.536  33.703  1.00  0.00     0.074 A 
ATOM     60  C   UNL A   1      43.529  29.030  35.059  1.00  0.00     0.031 C 
ATOM     61  C   UNL A   1      44.188  27.571  33.165  1.00  0.00     0.034 A 
BRANCH  48  62
ATOM     62  C   UNL A   1      42.564  25.860  27.453  1.00  0.00     0.023 A 
ATOM     63  C   UNL A   1      43.255  26.369  26.336  1.00  0.00     0.012 A 
ATOM     64  C   UNL A   1      42.170  24.507  27.466  1.00  0.00     0.148 A 
ATOM     65  C   UNL A   1      43.521  25.553  25.236  1.00  0.00     0.002 A 
ATOM     66  C   UNL A   1      42.476  23.690  26.384  1.00  0.00     0.091 A 
ATOM     67  F   UNL A   1      41.497  24.048  28.530  1.00  0.00    -0.205 F 
ATOM     68  C   UNL A   1      43.141  24.213  25.264  1.00  0.00     0.022 A 
BRANCH  66  69
ATOM     69  S   UNL A   1      42.087  21.936  26.358  1.00  0.00     0.127 S 
ATOM     70  O   UNL A   1      40.665  21.956  26.015  1.00  0.00    -0.237 OA
ATOM     71  O   UNL A   1      42.964  21.443  25.294  1.00  0.00    -0.237 OA
ATOM     72  O   UNL A   1      42.403  21.433  27.687  1.00  0.00    -0.744 OA
ENDBRANCH  66  69
ENDBRANCH  48  62
BRANCH  49  73
ATOM     73  C   UNL A   1      40.381  31.852  35.149  1.00  0.00     0.023 A 
ATOM     74  C   UNL A   1      41.016  33.098  35.310  1.00  0.00     0.012 A 
ATOM     75  C   UNL A   1      39.397  31.460  36.081  1.00  0.00     0.148 A 
ATOM     76  C   UNL A   1      40.686  33.931  36.381  1.00  0.00     0.002 A 
ATOM     77  C   UNL A   1      39.026  32.322  37.104  1.00  0.00     0.091 A 
ATOM     78  F   UNL A   1      38.828  30.255  35.934  1.00  0.00    -0.205 F 
ATOM     79  C   UNL A   1      39.680  33.551  37.268  1.00  0.00     0.022 A 
BRANCH  77  80
ATOM     80  S   UNL A   1      37.639  31.979  38.194  1.00  0.00     0.127 S 
ATOM     81  O   UNL A   1      38.230  32.206  39.510  1.00  0.00    -0.237 OA
ATOM     82  O   UNL A   1      36.667  32.987  37.772  1.00  0.00    -0.237 OA
ATOM     83  O   UNL A   1      37.243  30.607  37.906  1.00  0.00    -0.744 OA
ENDBRANCH  77  80
ENDBRANCH  49  73
BRANCH  61  84
ATOM     84  C   UNL A   1      45.271  26.992  34.034  1.00  0.00     0.023 A 
ATOM     85  C   UNL A   1      46.550  27.581  34.042  1.00  0.00     0.012 A 
ATOM     86  C   UNL A   1      44.999  25.914  34.900  1.00  0.00     0.148 A 
ATOM     87  C   UNL A   1      47.550  27.092  34.884  1.00  0.00     0.002 A 
ATOM     88  C   UNL A   1      45.983  25.464  35.769  1.00  0.00     0.091 A 
ATOM     89  F   UNL A   1      43.778  25.358  34.862  1.00  0.00    -0.205 F 
ATOM     90  C   UNL A   1      47.263  26.044  35.754  1.00  0.00     0.022 A 
BRANCH  88  91
ATOM     91  S   UNL A   1      45.682  24.183  36.991  1.00  0.00     0.127 S 
ATOM     92  O   UNL A   1      45.417  23.020  36.144  1.00  0.00    -0.237 OA
ATOM     93  O   UNL A   1      46.955  24.137  37.710  1.00  0.00    -0.237 OA
ATOM     94  O   UNL A   1      44.551  24.639  37.786  1.00  0.00    -0.744 OA
ENDBRANCH  88  91
ENDBRANCH  61  84
ENDBRANCH  35  36
ENDBRANCH  28  30
ENDBRANCH  27  28
ENDBRANCH   1  27
TORSDOF 17
ENDMDL
MODEL 3
REMARK VINA RESULT:     -12.1      4.714      9.411
REMARK SMILES Cc1c[nH]c(C[N@H+]2C[C@@H]3CN(S(C)(=O)=O)C[C@]3(C(=O)OCCOC(=O)c3ccc(-c4c5nc(c(-c6cccc(S(=O)(=O)[O-])c6F)c6ccc([nH]6)c(-c6cccc(S(=O)(=O)[O-])c6F)c6nc(c(-c7cccc(S(=O)(=O)[O-])c7F)c7ccc4[nH]7)C=C6)C=C5)cc3)C2)n1
REMARK SMILES IDX 22 1 21 2 20 3 18 4 19 5 17 6 7 7 8 8 89 9 9 11 10 12 16 13
REMARK SMILES IDX 11 14 6 15 5 16 1 17 2 18 3 19 90 20 4 21 12 23 13 24 14 25
REMARK SMILES IDX 15 26 23 27 24 28 25 29 26 30 27 31 88 32 28 33 87 34 29 35
REMARK SMILES IDX 30 36 31 37 81 38 32 39 86 40 80 41 82 42 33 43 85 44 79 45
REMARK SMILES IDX 78 46 34 48 66 49 46 50 65 51 47 52 50 53 64 54 83 55 48 56
REMARK SMILES IDX 49 57 63 59 84 60 51 61 35 62 36 63 44 64 37 65 39 66 45 67
REMARK SMILES IDX 38 68 40 69 41 70 42 71 43 72 67 73 68 74 76 75 69 76 71 77
REMARK SMILES IDX 77 78 70 79 72 80 73 81 74 82 75 83 52 84 53 85 61 86 54 87
REMARK SMILES IDX 56 88 62 89 55 90 57 91 58 92 59 93 60 94
REMARK H PARENT 7 10 4 22 82 47 50 58
REMARK Flexibility Score: inf
ROOT
ATOM      1  C   UNL A   1      35.820  21.349  26.101  1.00  0.00     0.275 C 
ENDROOT
BRANCH   1   2
ATOM      2  C   UNL A   1      34.943  22.513  26.626  1.00  0.00     0.274 C 
BRANCH   2   3
ATOM      3  O   UNL A   1      33.693  22.097  27.244  1.00  0.00    -0.461 OA
BRANCH   3   4
ATOM      4  C   UNL A   1      32.562  22.642  26.693  1.00  0.00     0.319 C 
ATOM      5  O   UNL A   1      31.635  22.945  27.432  1.00  0.00    -0.251 OA
BRANCH   4   6
ATOM      6  C   UNL A   1      32.587  22.694  25.069  1.00  0.00     0.140 C 
ATOM      7  N   UNL A   1      32.713  20.447  23.802  1.00  0.00    -0.327 N 
ATOM      8  C   UNL A   1      32.294  21.420  22.835  1.00  0.00     0.268 C 
ATOM      9  C   UNL A   1      32.490  21.083  25.106  1.00  0.00     0.283 C 
ATOM     10  H   UNL A   1      33.690  20.202  23.640  1.00  0.00     0.348 HD
ATOM     11  C   UNL A   1      31.705  22.517  23.704  1.00  0.00     0.084 C 
ATOM     12  C   UNL A   1      31.694  23.798  22.879  1.00  0.00     0.113 C 
ATOM     13  C   UNL A   1      31.794  24.085  25.177  1.00  0.00     0.127 C 
ATOM     14  N   UNL A   1      32.009  24.793  23.882  1.00  0.00    -0.200 NA
BRANCH   7  15
ATOM     15  C   UNL A   1      32.029  19.135  23.706  1.00  0.00     0.338 C 
BRANCH  15  16
ATOM     16  C   UNL A   1      32.716  17.941  24.327  1.00  0.00     0.161 A 
ATOM     17  C   UNL A   1      35.433  15.836  25.296  1.00  0.00     0.068 C 
ATOM     18  C   UNL A   1      34.119  16.475  25.067  1.00  0.00     0.056 A 
ATOM     19  C   UNL A   1      32.869  15.985  25.364  1.00  0.00     0.107 A 
ATOM     20  N   UNL A   1      34.009  17.700  24.444  1.00  0.00    -0.233 NA
ATOM     21  N   UNL A   1      31.991  16.908  24.876  1.00  0.00    -0.344 N 
ATOM     22  H   UNL A   1      31.010  16.845  24.910  1.00  0.00     0.167 HD
ENDBRANCH  15  16
ENDBRANCH   7  15
BRANCH  14  23
ATOM     23  S   UNL A   1      33.416  25.711  23.658  1.00  0.00     0.211 S 
ATOM     24  C   UNL A   1      32.808  27.358  23.316  1.00  0.00     0.176 C 
ATOM     25  O   UNL A   1      34.114  25.764  24.920  1.00  0.00    -0.213 OA
ATOM     26  O   UNL A   1      34.083  25.239  22.458  1.00  0.00    -0.213 OA
ENDBRANCH  14  23
ENDBRANCH   4   6
ENDBRANCH   3   4
ENDBRANCH   2   3
ENDBRANCH   1   2
BRANCH   1  27
ATOM     27  O   UNL A   1      36.939  21.804  25.304  1.00  0.00    -0.458 OA
BRANCH  27  28
ATOM     28  C   UNL A   1      38.175  21.383  25.678  1.00  0.00     0.338 C 
ATOM     29  O   UNL A   1      38.668  20.291  25.450  1.00  0.00    -0.246 OA
BRANCH  28  30
ATOM     30  C   UNL A   1      38.941  22.479  26.312  1.00  0.00     0.060 A 
ATOM     31  C   UNL A   1      38.588  23.784  25.992  1.00  0.00     0.016 A 
ATOM     32  C   UNL A   1      40.087  22.263  27.075  1.00  0.00     0.016 A 
ATOM     33  C   UNL A   1      39.329  24.872  26.434  1.00  0.00     0.010 A 
ATOM     34  C   UNL A   1      40.821  23.366  27.558  1.00  0.00     0.010 A 
ATOM     35  C   UNL A   1      40.449  24.687  27.243  1.00  0.00    -0.014 A 
BRANCH  35  36
ATOM     36  C   UNL A   1      41.218  25.884  27.696  1.00  0.00     0.031 A 
ATOM     37  C   UNL A   1      40.560  26.937  28.547  1.00  0.00     0.074 A 
ATOM     38  C   UNL A   1      42.531  26.003  27.401  1.00  0.00     0.049 A 
ATOM     39  N   UNL A   1      41.025  28.096  28.935  1.00  0.00    -0.248 NA
ATOM     40  C   UNL A   1      39.205  26.643  29.043  1.00  0.00     0.031 C 
ATOM     41  C   UNL A   1      43.325  25.018  26.660  1.00  0.00     0.029 A 
ATOM     42  N   UNL A   1      43.432  27.004  27.680  1.00  0.00    -0.354 N 
ATOM     43  C   UNL A   1      40.006  28.693  29.666  1.00  0.00     0.074 A 
ATOM     44  C   UNL A   1      38.903  27.757  29.692  1.00  0.00     0.031 C 
ATOM     45  C   UNL A   1      44.587  25.457  26.552  1.00  0.00     0.029 A 
ATOM     46  C   UNL A   1      44.672  26.798  27.117  1.00  0.00     0.049 A 
ATOM     47  H   UNL A   1      43.213  27.792  28.228  1.00  0.00     0.167 HD
ATOM     48  C   UNL A   1      39.989  29.912  30.258  1.00  0.00     0.034 A 
ATOM     49  C   UNL A   1      45.738  27.615  26.995  1.00  0.00     0.034 A 
ATOM     50  C   UNL A   1      41.095  30.832  30.247  1.00  0.00     0.049 A 
ATOM     51  C   UNL A   1      45.651  29.007  27.557  1.00  0.00     0.074 A 
ATOM     52  C   UNL A   1      41.171  32.091  30.816  1.00  0.00     0.029 A 
ATOM     53  N   UNL A   1      42.311  30.602  29.621  1.00  0.00    -0.354 N 
ATOM     54  N   UNL A   1      44.692  29.550  28.264  1.00  0.00    -0.248 NA
ATOM     55  C   UNL A   1      46.790  29.900  27.298  1.00  0.00     0.031 C 
ATOM     56  C   UNL A   1      42.419  32.639  30.499  1.00  0.00     0.029 A 
ATOM     57  C   UNL A   1      43.134  31.706  29.764  1.00  0.00     0.049 A 
ATOM     58  H   UNL A   1      42.553  29.774  29.147  1.00  0.00     0.167 HD
ATOM     59  C   UNL A   1      45.112  30.845  28.544  1.00  0.00     0.074 A 
ATOM     60  C   UNL A   1      46.429  30.992  27.959  1.00  0.00     0.031 C 
ATOM     61  C   UNL A   1      44.457  31.829  29.208  1.00  0.00     0.034 A 
BRANCH  48  62
ATOM     62  C   UNL A   1      38.718  30.337  30.946  1.00  0.00     0.023 A 
ATOM     63  C   UNL A   1      38.526  30.067  32.315  1.00  0.00     0.012 A 
ATOM     64  C   UNL A   1      37.727  31.045  30.235  1.00  0.00     0.148 A 
ATOM     65  C   UNL A   1      37.355  30.468  32.959  1.00  0.00     0.002 A 
ATOM     66  C   UNL A   1      36.582  31.476  30.894  1.00  0.00     0.091 A 
ATOM     67  F   UNL A   1      37.920  31.273  28.928  1.00  0.00    -0.205 F 
ATOM     68  C   UNL A   1      36.389  31.179  32.252  1.00  0.00     0.022 A 
BRANCH  66  69
ATOM     69  S   UNL A   1      35.314  32.458  30.084  1.00  0.00     0.127 S 
ATOM     70  O   UNL A   1      34.382  32.699  31.185  1.00  0.00    -0.237 OA
ATOM     71  O   UNL A   1      36.067  33.637  29.653  1.00  0.00    -0.237 OA
ATOM     72  O   UNL A   1      34.799  31.635  28.999  1.00  0.00    -0.744 OA
ENDBRANCH  66  69
ENDBRANCH  48  62
BRANCH  49  73
ATOM     73  C   UNL A   1      46.955  27.154  26.263  1.00  0.00     0.023 A 
ATOM     74  C   UNL A   1      47.088  27.419  24.888  1.00  0.00     0.012 A 
ATOM     75  C   UNL A   1      47.996  26.481  26.936  1.00  0.00     0.148 A 
ATOM     76  C   UNL A   1      48.230  27.012  24.194  1.00  0.00     0.002 A 
ATOM     77  C   UNL A   1      49.158  26.141  26.254  1.00  0.00     0.091 A 
ATOM     78  F   UNL A   1      47.838  26.205  28.238  1.00  0.00    -0.205 F 
ATOM     79  C   UNL A   1      49.270  26.389  24.879  1.00  0.00     0.022 A 
BRANCH  77  80
ATOM     80  S   UNL A   1      50.603  25.477  27.091  1.00  0.00     0.127 S 
ATOM     81  O   UNL A   1      50.954  26.570  27.993  1.00  0.00    -0.237 OA
ATOM     82  O   UNL A   1      50.053  24.289  27.744  1.00  0.00    -0.237 OA
ATOM     83  O   UNL A   1      51.568  25.189  26.039  1.00  0.00    -0.744 OA
ENDBRANCH  77  80
ENDBRANCH  49  73
BRANCH  61  84
ATOM     84  C   UNL A   1      45.156  33.153  29.355  1.00  0.00     0.023 A 
ATOM     85  C   UNL A   1      45.996  33.380  30.462  1.00  0.00     0.012 A 
ATOM     86  C   UNL A   1      45.041  34.142  28.357  1.00  0.00     0.148 A 
ATOM     87  C   UNL A   1      46.696  34.580  30.586  1.00  0.00     0.002 A 
ATOM     88  C   UNL A   1      45.779  35.313  28.462  1.00  0.00     0.091 A 
ATOM     89  F   UNL A   1      44.222  33.910  27.321  1.00  0.00    -0.205 F 
ATOM     90  C   UNL A   1      46.597  35.539  29.582  1.00  0.00     0.022 A 
BRANCH  88  91
ATOM     91  S   UNL A   1      45.789  36.568  27.177  1.00  0.00     0.127 S 
ATOM     92  O   UNL A   1      46.257  35.805  26.020  1.00  0.00    -0.237 OA
ATOM     93  O   UNL A   1      44.382  36.962  27.121  1.00  0.00    -0.237 OA
ATOM     94  O   UNL A   1      46.695  37.611  27.638  1.00  0.00    -0.744 OA
ENDBRANCH  88  91
ENDBRANCH  61  84
ENDBRANCH  35  36
ENDBRANCH  28  30
ENDBRANCH  27  28
ENDBRANCH   1  27
TORSDOF 17
ENDMDL
