MODEL 1
REMARK VINA RESULT:      -9.3      0.000      0.000
REMARK SMILES CC(=O)Oc1ccccc1SCCCCCC(=O)OCCOC(=O)c1ccc(-c2c3nc(c(-c4cccc(S(=O)(=O)[O-])c4F)c4ccc([nH]4)c(-c4cccc(S(=O)(=O)[O-])c4F)c4nc(c(-c5cccc(S(=O)(=O)[O-])c5F)c5ccc2[nH]5)C=C4)C=C3)cc1
REMARK SMILES IDX 17 1 18 2 16 3 15 4 14 5 13 6 12 7 11 8 10 9 5 10 6 11 7 12
REMARK SMILES IDX 9 13 8 14 4 15 2 16 1 17 3 18 19 19 20 20 21 21 22 22 23 23
REMARK SMILES IDX 24 24 25 25 26 26 87 27 27 28 86 29 28 30 29 31 30 32 80 33
REMARK SMILES IDX 31 34 85 35 79 36 81 37 32 38 84 39 78 40 77 41 33 43 65 44
REMARK SMILES IDX 45 45 64 46 46 47 49 48 63 49 82 50 47 51 48 52 62 54 83 55
REMARK SMILES IDX 50 56 34 57 35 58 43 59 36 60 38 61 44 62 37 63 39 64 40 65
REMARK SMILES IDX 41 66 42 67 66 68 67 69 75 70 68 71 70 72 76 73 69 74 71 75
REMARK SMILES IDX 72 76 73 77 74 78 51 79 52 80 60 81 53 82 55 83 61 84 54 85
REMARK SMILES IDX 56 86 57 87 58 88 59 89
REMARK H PARENT 81 42 49 53
REMARK Flexibility Score: inf
ROOT
ATOM      1  C   UNL A   1      35.511  33.455  28.841  1.00  0.00     0.305 C 
ATOM      2  O   UNL A   1      36.700  33.364  29.112  1.00  0.00    -0.252 OA
ENDROOT
BRANCH   1   3
ATOM      3  C   UNL A   1      34.588  32.279  28.723  1.00  0.00     0.123 C 
BRANCH   3   4
ATOM      4  C   UNL A   1      35.016  31.238  27.665  1.00  0.00     0.012 C 
BRANCH   4   5
ATOM      5  C   UNL A   1      34.338  29.848  27.682  1.00  0.00     0.001 C 
BRANCH   5   6
ATOM      6  C   UNL A   1      33.437  29.318  26.550  1.00  0.00     0.011 C 
BRANCH   6   7
ATOM      7  C   UNL A   1      33.884  28.688  25.206  1.00  0.00     0.075 C 
BRANCH   7   8
ATOM      8  S   UNL A   1      33.036  28.715  23.571  1.00  0.00    -0.122 SA
BRANCH   8   9
ATOM      9  C   UNL A   1      31.585  27.694  23.694  1.00  0.00     0.050 A 
ATOM     10  C   UNL A   1      31.492  26.350  24.088  1.00  0.00     0.144 A 
ATOM     11  C   UNL A   1      30.236  25.749  24.269  1.00  0.00     0.048 A 
ATOM     12  C   UNL A   1      29.069  26.447  23.944  1.00  0.00     0.004 A 
ATOM     13  C   UNL A   1      30.407  28.322  23.247  1.00  0.00     0.019 A 
ATOM     14  C   UNL A   1      29.160  27.708  23.366  1.00  0.00     0.001 A 
BRANCH  10  15
ATOM     15  O   UNL A   1      32.616  25.489  24.135  1.00  0.00    -0.426 OA
BRANCH  15  16
ATOM     16  C   UNL A   1      32.908  24.936  22.925  1.00  0.00     0.308 C 
ATOM     17  C   UNL A   1      33.785  23.744  22.948  1.00  0.00     0.139 C 
ATOM     18  O   UNL A   1      32.484  25.343  21.853  1.00  0.00    -0.252 OA
ENDBRANCH  15  16
ENDBRANCH  10  15
ENDBRANCH   8   9
ENDBRANCH   7   8
ENDBRANCH   6   7
ENDBRANCH   5   6
ENDBRANCH   4   5
ENDBRANCH   3   4
ENDBRANCH   1   3
BRANCH   1  19
ATOM     19  O   UNL A   1      34.834  34.613  28.639  1.00  0.00    -0.462 OA
BRANCH  19  20
ATOM     20  C   UNL A   1      33.415  34.502  28.802  1.00  0.00     0.274 C 
BRANCH  20  21
ATOM     21  C   UNL A   1      32.901  35.727  29.567  1.00  0.00     0.275 C 
BRANCH  21  22
ATOM     22  O   UNL A   1      32.247  35.307  30.783  1.00  0.00    -0.458 OA
BRANCH  22  23
ATOM     23  C   UNL A   1      32.664  35.905  31.922  1.00  0.00     0.338 C 
ATOM     24  O   UNL A   1      32.229  36.931  32.418  1.00  0.00    -0.246 OA
BRANCH  23  25
ATOM     25  C   UNL A   1      33.791  35.154  32.504  1.00  0.00     0.060 A 
ATOM     26  C   UNL A   1      35.098  35.635  32.407  1.00  0.00     0.016 A 
ATOM     27  C   UNL A   1      33.543  33.898  33.057  1.00  0.00     0.016 A 
ATOM     28  C   UNL A   1      36.166  34.832  32.817  1.00  0.00     0.010 A 
ATOM     29  C   UNL A   1      34.607  33.134  33.543  1.00  0.00     0.010 A 
ATOM     30  C   UNL A   1      35.935  33.578  33.405  1.00  0.00    -0.014 A 
BRANCH  30  31
ATOM     31  C   UNL A   1      37.058  32.726  33.892  1.00  0.00     0.031 A 
ATOM     32  C   UNL A   1      37.789  33.087  35.161  1.00  0.00     0.074 A 
ATOM     33  C   UNL A   1      37.472  31.674  33.156  1.00  0.00     0.049 A 
ATOM     34  N   UNL A   1      38.906  32.604  35.641  1.00  0.00    -0.248 NA
ATOM     35  C   UNL A   1      37.195  34.148  35.992  1.00  0.00     0.031 C 
ATOM     36  C   UNL A   1      36.854  31.217  31.909  1.00  0.00     0.029 A 
ATOM     37  N   UNL A   1      38.535  30.819  33.328  1.00  0.00    -0.354 N 
ATOM     38  C   UNL A   1      39.189  33.350  36.781  1.00  0.00     0.074 A 
ATOM     39  C   UNL A   1      38.117  34.310  36.931  1.00  0.00     0.031 C 
ATOM     40  C   UNL A   1      37.546  30.175  31.426  1.00  0.00     0.029 A 
ATOM     41  C   UNL A   1      38.704  29.941  32.280  1.00  0.00     0.049 A 
ATOM     42  H   UNL A   1      39.118  30.832  34.121  1.00  0.00     0.167 HD
ATOM     43  C   UNL A   1      40.247  33.244  37.622  1.00  0.00     0.034 A 
ATOM     44  C   UNL A   1      39.705  29.085  32.000  1.00  0.00     0.034 A 
ATOM     45  C   UNL A   1      41.282  32.255  37.488  1.00  0.00     0.049 A 
ATOM     46  C   UNL A   1      40.869  28.993  32.948  1.00  0.00     0.074 A 
ATOM     47  C   UNL A   1      42.358  32.017  38.326  1.00  0.00     0.029 A 
ATOM     48  N   UNL A   1      41.381  31.346  36.445  1.00  0.00    -0.354 N 
ATOM     49  N   UNL A   1      41.073  29.644  34.067  1.00  0.00    -0.248 NA
ATOM     50  C   UNL A   1      41.930  28.035  32.607  1.00  0.00     0.031 C 
ATOM     51  C   UNL A   1      43.131  30.996  37.765  1.00  0.00     0.029 A 
ATOM     52  C   UNL A   1      42.509  30.561  36.607  1.00  0.00     0.049 A 
ATOM     53  H   UNL A   1      40.742  31.272  35.700  1.00  0.00     0.167 HD
ATOM     54  C   UNL A   1      42.265  29.149  34.583  1.00  0.00     0.074 A 
ATOM     55  C   UNL A   1      42.725  28.130  33.664  1.00  0.00     0.031 C 
ATOM     56  C   UNL A   1      42.925  29.514  35.710  1.00  0.00     0.034 A 
BRANCH  43  57
ATOM     57  C   UNL A   1      40.352  34.227  38.762  1.00  0.00     0.023 A 
ATOM     58  C   UNL A   1      41.159  35.376  38.641  1.00  0.00     0.012 A 
ATOM     59  C   UNL A   1      39.587  34.043  39.932  1.00  0.00     0.148 A 
ATOM     60  C   UNL A   1      41.231  36.307  39.679  1.00  0.00     0.002 A 
ATOM     61  C   UNL A   1      39.626  34.999  40.942  1.00  0.00     0.091 A 
ATOM     62  F   UNL A   1      38.836  32.937  40.038  1.00  0.00    -0.205 F 
ATOM     63  C   UNL A   1      40.457  36.124  40.822  1.00  0.00     0.022 A 
BRANCH  61  64
ATOM     64  S   UNL A   1      38.604  34.897  42.416  1.00  0.00     0.127 S 
ATOM     65  O   UNL A   1      39.127  33.689  43.054  1.00  0.00    -0.237 OA
ATOM     66  O   UNL A   1      38.939  36.144  43.106  1.00  0.00    -0.237 OA
ATOM     67  O   UNL A   1      37.228  34.808  41.950  1.00  0.00    -0.744 OA
ENDBRANCH  61  64
ENDBRANCH  43  57
BRANCH  44  68
ATOM     68  C   UNL A   1      39.658  28.250  30.764  1.00  0.00     0.023 A 
ATOM     69  C   UNL A   1      38.947  27.035  30.772  1.00  0.00     0.012 A 
ATOM     70  C   UNL A   1      40.305  28.657  29.580  1.00  0.00     0.148 A 
ATOM     71  C   UNL A   1      38.912  26.223  29.638  1.00  0.00     0.002 A 
ATOM     72  C   UNL A   1      40.214  27.875  28.436  1.00  0.00     0.091 A 
ATOM     73  F   UNL A   1      40.990  29.809  29.593  1.00  0.00    -0.205 F 
ATOM     74  C   UNL A   1      39.536  26.647  28.468  1.00  0.00     0.022 A 
BRANCH  72  75
ATOM     75  S   UNL A   1      40.873  28.404  26.850  1.00  0.00     0.127 S 
ATOM     76  O   UNL A   1      39.857  29.355  26.407  1.00  0.00    -0.237 OA
ATOM     77  O   UNL A   1      42.151  29.003  27.239  1.00  0.00    -0.237 OA
ATOM     78  O   UNL A   1      40.998  27.192  26.052  1.00  0.00    -0.744 OA
ENDBRANCH  72  75
ENDBRANCH  44  68
BRANCH  56  79
ATOM     79  C   UNL A   1      44.186  28.765  36.050  1.00  0.00     0.023 A 
ATOM     80  C   UNL A   1      45.437  29.247  35.620  1.00  0.00     0.012 A 
ATOM     81  C   UNL A   1      44.127  27.616  36.863  1.00  0.00     0.148 A 
ATOM     82  C   UNL A   1      46.609  28.576  35.965  1.00  0.00     0.002 A 
ATOM     83  C   UNL A   1      45.302  26.986  37.250  1.00  0.00     0.091 A 
ATOM     84  F   UNL A   1      42.924  27.164  37.246  1.00  0.00    -0.205 F 
ATOM     85  C   UNL A   1      46.543  27.454  36.790  1.00  0.00     0.022 A 
BRANCH  83  86
ATOM     86  S   UNL A   1      45.321  25.600  38.393  1.00  0.00     0.127 S 
ATOM     87  O   UNL A   1      46.751  25.308  38.483  1.00  0.00    -0.237 OA
ATOM     88  O   UNL A   1      44.740  26.188  39.599  1.00  0.00    -0.237 OA
ATOM     89  O   UNL A   1      44.511  24.557  37.776  1.00  0.00    -0.744 OA
ENDBRANCH  83  86
ENDBRANCH  56  79
ENDBRANCH  30  31
ENDBRANCH  23  25
ENDBRANCH  22  23
ENDBRANCH  21  22
ENDBRANCH  20  21
ENDBRANCH  19  20
ENDBRANCH   1  19
TORSDOF 22
ENDMDL
MODEL 2
REMARK VINA RESULT:      -9.2      1.616      2.097
REMARK SMILES CC(=O)Oc1ccccc1SCCCCCC(=O)OCCOC(=O)c1ccc(-c2c3nc(c(-c4cccc(S(=O)(=O)[O-])c4F)c4ccc([nH]4)c(-c4cccc(S(=O)(=O)[O-])c4F)c4nc(c(-c5cccc(S(=O)(=O)[O-])c5F)c5ccc2[nH]5)C=C4)C=C3)cc1
REMARK SMILES IDX 17 1 18 2 16 3 15 4 14 5 13 6 12 7 11 8 10 9 5 10 6 11 7 12
REMARK SMILES IDX 9 13 8 14 4 15 2 16 1 17 3 18 19 19 20 20 21 21 22 22 23 23
REMARK SMILES IDX 24 24 25 25 26 26 87 27 27 28 86 29 28 30 29 31 30 32 80 33
REMARK SMILES IDX 31 34 85 35 79 36 81 37 32 38 84 39 78 40 77 41 33 43 65 44
REMARK SMILES IDX 45 45 64 46 46 47 49 48 63 49 82 50 47 51 48 52 62 54 83 55
REMARK SMILES IDX 50 56 34 57 35 58 43 59 36 60 38 61 44 62 37 63 39 64 40 65
REMARK SMILES IDX 41 66 42 67 66 68 67 69 75 70 68 71 70 72 76 73 69 74 71 75
REMARK SMILES IDX 72 76 73 77 74 78 51 79 52 80 60 81 53 82 55 83 61 84 54 85
REMARK SMILES IDX 56 86 57 87 58 88 59 89
REMARK H PARENT 81 42 49 53
REMARK Flexibility Score: inf
ROOT
ATOM      1  C   UNL A   1      34.623  33.381  29.184  1.00  0.00     0.305 C 
ATOM      2  O   UNL A   1      35.599  33.683  29.856  1.00  0.00    -0.252 OA
ENDROOT
BRANCH   1   3
ATOM      3  C   UNL A   1      34.450  32.052  28.510  1.00  0.00     0.123 C 
BRANCH   3   4
ATOM      4  C   UNL A   1      35.715  31.166  28.516  1.00  0.00     0.012 C 
BRANCH   4   5
ATOM      5  C   UNL A   1      35.571  29.672  28.142  1.00  0.00     0.001 C 
BRANCH   5   6
ATOM      6  C   UNL A   1      34.702  29.159  26.977  1.00  0.00     0.011 C 
BRANCH   6   7
ATOM      7  C   UNL A   1      33.155  29.183  26.873  1.00  0.00     0.075 C 
BRANCH   7   8
ATOM      8  S   UNL A   1      32.089  29.059  25.376  1.00  0.00    -0.122 SA
BRANCH   8   9
ATOM      9  C   UNL A   1      31.411  27.416  25.327  1.00  0.00     0.050 A 
ATOM     10  C   UNL A   1      30.413  26.906  24.481  1.00  0.00     0.144 A 
ATOM     11  C   UNL A   1      30.110  25.534  24.487  1.00  0.00     0.048 A 
ATOM     12  C   UNL A   1      30.714  24.685  25.419  1.00  0.00     0.004 A 
ATOM     13  C   UNL A   1      31.899  26.568  26.339  1.00  0.00     0.019 A 
ATOM     14  C   UNL A   1      31.555  25.216  26.390  1.00  0.00     0.001 A 
BRANCH  10  15
ATOM     15  O   UNL A   1      29.544  27.741  23.737  1.00  0.00    -0.426 OA
BRANCH  15  16
ATOM     16  C   UNL A   1      30.087  28.151  22.558  1.00  0.00     0.308 C 
ATOM     17  C   UNL A   1      29.822  29.555  22.172  1.00  0.00     0.139 C 
ATOM     18  O   UNL A   1      30.779  27.455  21.830  1.00  0.00    -0.252 OA
ENDBRANCH  15  16
ENDBRANCH  10  15
ENDBRANCH   8   9
ENDBRANCH   7   8
ENDBRANCH   6   7
ENDBRANCH   5   6
ENDBRANCH   4   5
ENDBRANCH   3   4
ENDBRANCH   1   3
BRANCH   1  19
ATOM     19  O   UNL A   1      33.539  34.167  28.970  1.00  0.00    -0.462 OA
BRANCH  19  20
ATOM     20  C   UNL A   1      33.829  35.569  28.915  1.00  0.00     0.274 C 
BRANCH  20  21
ATOM     21  C   UNL A   1      32.846  36.321  29.820  1.00  0.00     0.275 C 
BRANCH  21  22
ATOM     22  O   UNL A   1      32.443  35.473  30.916  1.00  0.00    -0.458 OA
BRANCH  22  23
ATOM     23  C   UNL A   1      32.736  35.923  32.158  1.00  0.00     0.338 C 
ATOM     24  O   UNL A   1      32.199  36.843  32.754  1.00  0.00    -0.246 OA
BRANCH  23  25
ATOM     25  C   UNL A   1      33.864  35.160  32.719  1.00  0.00     0.060 A 
ATOM     26  C   UNL A   1      35.158  35.685  32.713  1.00  0.00     0.016 A 
ATOM     27  C   UNL A   1      33.637  33.856  33.159  1.00  0.00     0.016 A 
ATOM     28  C   UNL A   1      36.235  34.883  33.098  1.00  0.00     0.010 A 
ATOM     29  C   UNL A   1      34.706  33.086  33.622  1.00  0.00     0.010 A 
ATOM     30  C   UNL A   1      36.023  33.578  33.573  1.00  0.00    -0.014 A 
BRANCH  30  31
ATOM     31  C   UNL A   1      37.156  32.722  34.032  1.00  0.00     0.031 A 
ATOM     32  C   UNL A   1      37.913  33.076  35.287  1.00  0.00     0.074 A 
ATOM     33  C   UNL A   1      37.552  31.674  33.282  1.00  0.00     0.049 A 
ATOM     34  N   UNL A   1      39.039  32.588  35.741  1.00  0.00    -0.248 NA
ATOM     35  C   UNL A   1      37.338  34.134  36.135  1.00  0.00     0.031 C 
ATOM     36  C   UNL A   1      36.908  31.224  32.046  1.00  0.00     0.029 A 
ATOM     37  N   UNL A   1      38.617  30.816  33.428  1.00  0.00    -0.354 N 
ATOM     38  C   UNL A   1      39.347  33.328  36.879  1.00  0.00     0.074 A 
ATOM     39  C   UNL A   1      38.280  34.289  37.056  1.00  0.00     0.031 C 
ATOM     40  C   UNL A   1      37.588  30.183  31.544  1.00  0.00     0.029 A 
ATOM     41  C   UNL A   1      38.763  29.943  32.372  1.00  0.00     0.049 A 
ATOM     42  H   UNL A   1      39.216  30.824  34.209  1.00  0.00     0.167 HD
ATOM     43  C   UNL A   1      40.421  33.217  37.697  1.00  0.00     0.034 A 
ATOM     44  C   UNL A   1      39.757  29.086  32.067  1.00  0.00     0.034 A 
ATOM     45  C   UNL A   1      41.452  32.226  37.537  1.00  0.00     0.049 A 
ATOM     46  C   UNL A   1      40.939  28.988  32.991  1.00  0.00     0.074 A 
ATOM     47  C   UNL A   1      42.544  31.982  38.352  1.00  0.00     0.029 A 
ATOM     48  N   UNL A   1      41.528  31.323  36.488  1.00  0.00    -0.354 N 
ATOM     49  N   UNL A   1      41.168  29.633  34.108  1.00  0.00    -0.248 NA
ATOM     50  C   UNL A   1      41.991  28.030  32.623  1.00  0.00     0.031 C 
ATOM     51  C   UNL A   1      43.304  30.963  37.770  1.00  0.00     0.029 A 
ATOM     52  C   UNL A   1      42.657  30.535  36.622  1.00  0.00     0.049 A 
ATOM     53  H   UNL A   1      40.873  31.253  35.756  1.00  0.00     0.167 HD
ATOM     54  C   UNL A   1      42.369  29.134  34.597  1.00  0.00     0.074 A 
ATOM     55  C   UNL A   1      42.809  28.118  33.663  1.00  0.00     0.031 C 
ATOM     56  C   UNL A   1      43.053  29.492  35.711  1.00  0.00     0.034 A 
BRANCH  43  57
ATOM     57  C   UNL A   1      40.552  34.194  38.840  1.00  0.00     0.023 A 
ATOM     58  C   UNL A   1      41.390  35.321  38.722  1.00  0.00     0.012 A 
ATOM     59  C   UNL A   1      39.781  34.028  40.009  1.00  0.00     0.148 A 
ATOM     60  C   UNL A   1      41.486  36.247  39.762  1.00  0.00     0.002 A 
ATOM     61  C   UNL A   1      39.845  34.979  41.021  1.00  0.00     0.091 A 
ATOM     62  F   UNL A   1      39.001  32.942  40.111  1.00  0.00    -0.205 F 
ATOM     63  C   UNL A   1      40.706  36.082  40.905  1.00  0.00     0.022 A 
BRANCH  61  64
ATOM     64  S   UNL A   1      38.819  34.902  42.494  1.00  0.00     0.127 S 
ATOM     65  O   UNL A   1      37.500  35.226  41.952  1.00  0.00    -0.237 OA
ATOM     66  O   UNL A   1      38.982  33.507  42.906  1.00  0.00    -0.237 OA
ATOM     67  O   UNL A   1      39.367  35.880  43.421  1.00  0.00    -0.744 OA
ENDBRANCH  61  64
ENDBRANCH  43  57
BRANCH  44  68
ATOM     68  C   UNL A   1      39.683  28.258  30.828  1.00  0.00     0.023 A 
ATOM     69  C   UNL A   1      38.931  27.067  30.832  1.00  0.00     0.012 A 
ATOM     70  C   UNL A   1      40.343  28.648  29.646  1.00  0.00     0.148 A 
ATOM     71  C   UNL A   1      38.870  26.260  29.695  1.00  0.00     0.002 A 
ATOM     72  C   UNL A   1      40.227  27.872  28.499  1.00  0.00     0.091 A 
ATOM     73  F   UNL A   1      41.066  29.776  29.663  1.00  0.00    -0.205 F 
ATOM     74  C   UNL A   1      39.509  26.668  28.526  1.00  0.00     0.022 A 
BRANCH  72  75
ATOM     75  S   UNL A   1      40.904  28.385  26.915  1.00  0.00     0.127 S 
ATOM     76  O   UNL A   1      39.899  29.340  26.456  1.00  0.00    -0.237 OA
ATOM     77  O   UNL A   1      42.182  28.978  27.312  1.00  0.00    -0.237 OA
ATOM     78  O   UNL A   1      41.027  27.167  26.127  1.00  0.00    -0.744 OA
ENDBRANCH  72  75
ENDBRANCH  44  68
BRANCH  56  79
ATOM     79  C   UNL A   1      44.319  28.739  36.022  1.00  0.00     0.023 A 
ATOM     80  C   UNL A   1      44.277  27.569  36.805  1.00  0.00     0.012 A 
ATOM     81  C   UNL A   1      45.545  29.161  35.471  1.00  0.00     0.148 A 
ATOM     82  C   UNL A   1      45.443  26.850  37.063  1.00  0.00     0.002 A 
ATOM     83  C   UNL A   1      46.692  28.408  35.685  1.00  0.00     0.091 A 
ATOM     84  F   UNL A   1      45.566  30.288  34.744  1.00  0.00    -0.205 F 
ATOM     85  C   UNL A   1      46.647  27.261  36.493  1.00  0.00     0.022 A 
BRANCH  83  86
ATOM     86  S   UNL A   1      48.262  28.802  34.907  1.00  0.00     0.127 S 
ATOM     87  O   UNL A   1      48.585  30.088  35.524  1.00  0.00    -0.237 OA
ATOM     88  O   UNL A   1      49.107  27.688  35.336  1.00  0.00    -0.237 OA
ATOM     89  O   UNL A   1      48.002  28.849  33.473  1.00  0.00    -0.744 OA
ENDBRANCH  83  86
ENDBRANCH  56  79
ENDBRANCH  30  31
ENDBRANCH  23  25
ENDBRANCH  22  23
ENDBRANCH  21  22
ENDBRANCH  20  21
ENDBRANCH  19  20
ENDBRANCH   1  19
TORSDOF 22
ENDMDL
MODEL 3
REMARK VINA RESULT:      -8.8      2.105      2.842
REMARK SMILES CC(=O)Oc1ccccc1SCCCCCC(=O)OCCOC(=O)c1ccc(-c2c3nc(c(-c4cccc(S(=O)(=O)[O-])c4F)c4ccc([nH]4)c(-c4cccc(S(=O)(=O)[O-])c4F)c4nc(c(-c5cccc(S(=O)(=O)[O-])c5F)c5ccc2[nH]5)C=C4)C=C3)cc1
REMARK SMILES IDX 17 1 18 2 16 3 15 4 14 5 13 6 12 7 11 8 10 9 5 10 6 11 7 12
REMARK SMILES IDX 9 13 8 14 4 15 2 16 1 17 3 18 19 19 20 20 21 21 22 22 23 23
REMARK SMILES IDX 24 24 25 25 26 26 87 27 27 28 86 29 28 30 29 31 30 32 80 33
REMARK SMILES IDX 31 34 85 35 79 36 81 37 32 38 84 39 78 40 77 41 33 43 65 44
REMARK SMILES IDX 45 45 64 46 46 47 49 48 63 49 82 50 47 51 48 52 62 54 83 55
REMARK SMILES IDX 50 56 34 57 35 58 43 59 36 60 38 61 44 62 37 63 39 64 40 65
REMARK SMILES IDX 41 66 42 67 66 68 67 69 75 70 68 71 70 72 76 73 69 74 71 75
REMARK SMILES IDX 72 76 73 77 74 78 51 79 52 80 60 81 53 82 55 83 61 84 54 85
REMARK SMILES IDX 56 86 57 87 58 88 59 89
REMARK H PARENT 81 42 49 53
REMARK Flexibility Score: inf
ROOT
ATOM      1  C   UNL A   1      35.434  32.803  28.399  1.00  0.00     0.305 C 
ATOM      2  O   UNL A   1      36.532  33.329  28.512  1.00  0.00    -0.252 OA
ENDROOT
BRANCH   1   3
ATOM      3  C   UNL A   1      35.187  31.334  28.571  1.00  0.00     0.123 C 
BRANCH   3   4
ATOM      4  C   UNL A   1      34.200  30.731  27.548  1.00  0.00     0.012 C 
BRANCH   4   5
ATOM      5  C   UNL A   1      34.489  29.317  26.989  1.00  0.00     0.001 C 
BRANCH   5   6
ATOM      6  C   UNL A   1      33.392  28.324  26.560  1.00  0.00     0.011 C 
BRANCH   6   7
ATOM      7  C   UNL A   1      33.442  27.315  25.384  1.00  0.00     0.075 C 
BRANCH   7   8
ATOM      8  S   UNL A   1      32.424  25.805  25.104  1.00  0.00    -0.122 SA
BRANCH   8   9
ATOM      9  C   UNL A   1      33.534  24.459  24.757  1.00  0.00     0.050 A 
ATOM     10  C   UNL A   1      33.245  23.214  24.177  1.00  0.00     0.144 A 
ATOM     11  C   UNL A   1      34.283  22.329  23.842  1.00  0.00     0.048 A 
ATOM     12  C   UNL A   1      35.603  22.629  24.192  1.00  0.00     0.004 A 
ATOM     13  C   UNL A   1      34.848  24.671  25.218  1.00  0.00     0.019 A 
ATOM     14  C   UNL A   1      35.875  23.767  24.942  1.00  0.00     0.001 A 
BRANCH  10  15
ATOM     15  O   UNL A   1      31.926  22.706  24.077  1.00  0.00    -0.426 OA
BRANCH  15  16
ATOM     16  C   UNL A   1      31.576  21.935  25.143  1.00  0.00     0.308 C 
ATOM     17  C   UNL A   1      30.851  22.623  26.235  1.00  0.00     0.139 C 
ATOM     18  O   UNL A   1      31.799  20.738  25.239  1.00  0.00    -0.252 OA
ENDBRANCH  15  16
ENDBRANCH  10  15
ENDBRANCH   8   9
ENDBRANCH   7   8
ENDBRANCH   6   7
ENDBRANCH   5   6
ENDBRANCH   4   5
ENDBRANCH   3   4
ENDBRANCH   1   3
BRANCH   1  19
ATOM     19  O   UNL A   1      34.272  33.453  28.139  1.00  0.00    -0.462 OA
BRANCH  19  20
ATOM     20  C   UNL A   1      34.397  34.878  28.060  1.00  0.00     0.274 C 
BRANCH  20  21
ATOM     21  C   UNL A   1      33.236  35.526  28.824  1.00  0.00     0.275 C 
BRANCH  21  22
ATOM     22  O   UNL A   1      32.939  34.758  30.009  1.00  0.00    -0.458 OA
BRANCH  22  23
ATOM     23  C   UNL A   1      33.344  35.292  31.184  1.00  0.00     0.338 C 
ATOM     24  O   UNL A   1      32.890  36.278  31.741  1.00  0.00    -0.246 OA
BRANCH  23  25
ATOM     25  C   UNL A   1      34.483  34.528  31.721  1.00  0.00     0.060 A 
ATOM     26  C   UNL A   1      35.787  35.013  31.611  1.00  0.00     0.016 A 
ATOM     27  C   UNL A   1      34.249  33.257  32.245  1.00  0.00     0.016 A 
ATOM     28  C   UNL A   1      36.865  34.201  31.976  1.00  0.00     0.010 A 
ATOM     29  C   UNL A   1      35.323  32.482  32.687  1.00  0.00     0.010 A 
ATOM     30  C   UNL A   1      36.647  32.932  32.535  1.00  0.00    -0.014 A 
BRANCH  30  31
ATOM     31  C   UNL A   1      37.782  32.069  32.974  1.00  0.00     0.031 A 
ATOM     32  C   UNL A   1      38.492  32.354  34.274  1.00  0.00     0.074 A 
ATOM     33  C   UNL A   1      38.224  31.079  32.172  1.00  0.00     0.049 A 
ATOM     34  N   UNL A   1      39.613  31.859  34.732  1.00  0.00    -0.248 NA
ATOM     35  C   UNL A   1      37.869  33.344  35.169  1.00  0.00     0.031 C 
ATOM     36  C   UNL A   1      37.628  30.698  30.889  1.00  0.00     0.029 A 
ATOM     37  N   UNL A   1      39.301  30.233  32.297  1.00  0.00    -0.354 N 
ATOM     38  C   UNL A   1      39.870  32.529  35.925  1.00  0.00     0.074 A 
ATOM     39  C   UNL A   1      38.778  33.456  36.128  1.00  0.00     0.031 C 
ATOM     40  C   UNL A   1      38.345  29.705  30.343  1.00  0.00     0.029 A 
ATOM     41  C   UNL A   1      39.498  29.434  31.193  1.00  0.00     0.049 A 
ATOM     42  H   UNL A   1      39.875  30.202  33.096  1.00  0.00     0.167 HD
ATOM     43  C   UNL A   1      40.920  32.385  36.769  1.00  0.00     0.034 A 
ATOM     44  C   UNL A   1      40.518  28.617  30.866  1.00  0.00     0.034 A 
ATOM     45  C   UNL A   1      41.975  31.426  36.579  1.00  0.00     0.049 A 
ATOM     46  C   UNL A   1      41.673  28.481  31.819  1.00  0.00     0.074 A 
ATOM     47  C   UNL A   1      43.046  31.150  37.412  1.00  0.00     0.029 A 
ATOM     48  N   UNL A   1      42.103  30.594  35.477  1.00  0.00    -0.354 N 
ATOM     49  N   UNL A   1      41.853  29.056  32.983  1.00  0.00    -0.248 NA
ATOM     50  C   UNL A   1      42.756  27.569  31.425  1.00  0.00     0.031 C 
ATOM     51  C   UNL A   1      43.845  30.185  36.791  1.00  0.00     0.029 A 
ATOM     52  C   UNL A   1      43.244  29.820  35.597  1.00  0.00     0.049 A 
ATOM     53  H   UNL A   1      41.473  30.560  34.721  1.00  0.00     0.167 HD
ATOM     54  C   UNL A   1      43.048  28.549  33.478  1.00  0.00     0.074 A 
ATOM     55  C   UNL A   1      43.538  27.604  32.496  1.00  0.00     0.031 C 
ATOM     56  C   UNL A   1      43.689  28.847  34.635  1.00  0.00     0.034 A 
BRANCH  43  57
ATOM     57  C   UNL A   1      40.994  33.287  37.976  1.00  0.00     0.023 A 
ATOM     58  C   UNL A   1      40.340  32.934  39.173  1.00  0.00     0.012 A 
ATOM     59  C   UNL A   1      41.779  34.459  37.940  1.00  0.00     0.148 A 
ATOM     60  C   UNL A   1      40.437  33.747  40.303  1.00  0.00     0.002 A 
ATOM     61  C   UNL A   1      41.910  35.239  39.084  1.00  0.00     0.091 A 
ATOM     62  F   UNL A   1      42.382  34.789  36.789  1.00  0.00    -0.205 F 
ATOM     63  C   UNL A   1      41.229  34.891  40.261  1.00  0.00     0.022 A 
BRANCH  61  64
ATOM     64  S   UNL A   1      42.973  36.685  39.157  1.00  0.00     0.127 S 
ATOM     65  O   UNL A   1      42.433  37.389  40.321  1.00  0.00    -0.237 OA
ATOM     66  O   UNL A   1      44.291  36.085  39.366  1.00  0.00    -0.237 OA
ATOM     67  O   UNL A   1      42.810  37.373  37.885  1.00  0.00    -0.744 OA
ENDBRANCH  61  64
ENDBRANCH  43  57
BRANCH  44  68
ATOM     68  C   UNL A   1      40.500  27.870  29.574  1.00  0.00     0.023 A 
ATOM     69  C   UNL A   1      39.591  26.810  29.397  1.00  0.00     0.012 A 
ATOM     70  C   UNL A   1      41.371  28.209  28.520  1.00  0.00     0.148 A 
ATOM     71  C   UNL A   1      39.574  26.077  28.209  1.00  0.00     0.002 A 
ATOM     72  C   UNL A   1      41.307  27.516  27.317  1.00  0.00     0.091 A 
ATOM     73  F   UNL A   1      42.241  29.211  28.710  1.00  0.00    -0.205 F 
ATOM     74  C   UNL A   1      40.424  26.436  27.167  1.00  0.00     0.022 A 
BRANCH  72  75
ATOM     75  S   UNL A   1      42.269  27.993  25.876  1.00  0.00     0.127 S 
ATOM     76  O   UNL A   1      43.636  27.867  26.375  1.00  0.00    -0.237 OA
ATOM     77  O   UNL A   1      41.872  26.978  24.899  1.00  0.00    -0.237 OA
ATOM     78  O   UNL A   1      41.838  29.344  25.545  1.00  0.00    -0.744 OA
ENDBRANCH  72  75
ENDBRANCH  44  68
BRANCH  56  79
ATOM     79  C   UNL A   1      44.960  28.099  34.937  1.00  0.00     0.023 A 
ATOM     80  C   UNL A   1      46.209  28.647  34.583  1.00  0.00     0.012 A 
ATOM     81  C   UNL A   1      44.913  26.880  35.642  1.00  0.00     0.148 A 
ATOM     82  C   UNL A   1      47.389  27.974  34.896  1.00  0.00     0.002 A 
ATOM     83  C   UNL A   1      46.094  26.244  35.999  1.00  0.00     0.091 A 
ATOM     84  F   UNL A   1      43.713  26.367  35.953  1.00  0.00    -0.205 F 
ATOM     85  C   UNL A   1      47.333  26.781  35.614  1.00  0.00     0.022 A 
BRANCH  83  86
ATOM     86  S   UNL A   1      46.122  24.762  37.013  1.00  0.00     0.127 S 
ATOM     87  O   UNL A   1      45.422  25.211  38.216  1.00  0.00    -0.237 OA
ATOM     88  O   UNL A   1      45.374  23.812  36.190  1.00  0.00    -0.237 OA
ATOM     89  O   UNL A   1      47.528  24.427  37.200  1.00  0.00    -0.744 OA
ENDBRANCH  83  86
ENDBRANCH  56  79
ENDBRANCH  30  31
ENDBRANCH  23  25
ENDBRANCH  22  23
ENDBRANCH  21  22
ENDBRANCH  20  21
ENDBRANCH  19  20
ENDBRANCH   1  19
TORSDOF 22
ENDMDL
