MODEL 1
REMARK VINA RESULT:     -13.1      0.000      0.000
REMARK SMILES COc1cc2c(CC(=O)OCCOC(=O)c3ccc(-c4c5nc(c(-c6cccc(S(=O)(=O)[O-])c6F)c6ccc([nH]6)c(-c6cccc(S(=O)(=O)[O-])c6F)c6nc(c(-c7cccc(S(=O)(=O)[O-])c7F)c7ccc4[nH]7)C=C6)C=C5)cc3)c(C)n(C(=O)c3ccc(Cl)cc3)c2cc1Cl
REMARK SMILES IDX 11 1 10 2 8 3 9 4 7 5 6 6 3 7 4 8 93 9 5 10 92 11 94 12
REMARK SMILES IDX 91 13 79 14 81 15 80 16 2 17 1 18 82 19 83 20 84 21 85 22
REMARK SMILES IDX 90 23 86 24 89 25 87 26 88 27 12 28 13 29 14 30 15 31 16 32
REMARK SMILES IDX 17 33 78 34 18 35 77 36 19 37 20 38 21 39 71 40 22 41 76 42
REMARK SMILES IDX 70 43 72 44 23 45 75 46 69 47 68 48 24 50 56 51 36 52 55 53
REMARK SMILES IDX 37 54 40 55 54 56 73 57 38 58 39 59 53 61 74 62 41 63 25 64
REMARK SMILES IDX 26 65 34 66 27 67 29 68 35 69 28 70 30 71 31 72 32 73 33 74
REMARK SMILES IDX 57 75 58 76 66 77 59 78 61 79 67 80 60 81 62 82 63 83 64 84
REMARK SMILES IDX 65 85 42 86 43 87 51 88 44 89 46 90 52 91 45 92 47 93 48 94
REMARK SMILES IDX 49 95 50 96
REMARK H PARENT 72 49 40 60
REMARK Flexibility Score: inf
ROOT
ATOM      1  C   UNL A   1      34.423  21.676  24.259  1.00  0.00     0.274 C 
ENDROOT
BRANCH   1   2
ATOM      2  O   UNL A   1      33.869  22.647  25.174  1.00  0.00    -0.462 OA
BRANCH   2   3
ATOM      3  C   UNL A   1      34.328  23.906  24.982  1.00  0.00     0.310 C 
ATOM      4  O   UNL A   1      35.157  24.437  25.718  1.00  0.00    -0.252 OA
BRANCH   3   5
ATOM      5  C   UNL A   1      33.659  24.681  23.889  1.00  0.00     0.160 C 
BRANCH   5   6
ATOM      6  C   UNL A   1      32.667  25.775  24.161  1.00  0.00    -0.008 A 
ATOM      7  C   UNL A   1      33.603  29.026  26.085  1.00  0.00     0.138 A 
ATOM      8  C   UNL A   1      33.834  27.847  25.341  1.00  0.00     0.058 A 
ATOM      9  C   UNL A   1      32.300  29.472  26.240  1.00  0.00     0.085 A 
ATOM     10  C   UNL A   1      32.781  27.050  24.818  1.00  0.00     0.008 A 
ATOM     11  C   UNL A   1      31.240  28.714  25.735  1.00  0.00     0.051 A 
ATOM     12  Cl  UNL A   1      31.884  31.019  26.892  1.00  0.00    -0.080 Cl
ATOM     13  C   UNL A   1      31.480  27.540  24.985  1.00  0.00     0.058 A 
ATOM     14  C   UNL A   1      31.306  25.553  23.965  1.00  0.00     0.028 A 
ATOM     15  N   UNL A   1      30.621  26.725  24.231  1.00  0.00    -0.280 N 
ATOM     16  C   UNL A   1      30.652  24.279  23.510  1.00  0.00     0.065 C 
BRANCH   7  17
ATOM     17  O   UNL A   1      34.722  29.687  26.524  1.00  0.00    -0.495 OA
ATOM     18  C   UNL A   1      35.097  29.424  27.879  1.00  0.00     0.278 C 
ENDBRANCH   7  17
BRANCH  15  19
ATOM     19  C   UNL A   1      29.321  27.061  23.772  1.00  0.00     0.262 C 
ATOM     20  O   UNL A   1      28.382  26.294  23.963  1.00  0.00    -0.268 OA
BRANCH  19  21
ATOM     21  C   UNL A   1      29.032  28.255  22.977  1.00  0.00     0.040 A 
ATOM     22  C   UNL A   1      30.059  28.848  22.234  1.00  0.00     0.015 A 
ATOM     23  C   UNL A   1      27.773  28.847  23.091  1.00  0.00     0.015 A 
ATOM     24  C   UNL A   1      29.840  30.096  21.654  1.00  0.00     0.021 A 
ATOM     25  C   UNL A   1      27.560  30.093  22.502  1.00  0.00     0.021 A 
ATOM     26  C   UNL A   1      28.597  30.717  21.801  1.00  0.00     0.041 A 
ATOM     27  Cl  UNL A   1      28.353  32.287  21.145  1.00  0.00    -0.084 Cl
ENDBRANCH  19  21
ENDBRANCH  15  19
ENDBRANCH   5   6
ENDBRANCH   3   5
ENDBRANCH   2   3
ENDBRANCH   1   2
BRANCH   1  28
ATOM     28  C   UNL A   1      35.243  20.625  25.014  1.00  0.00     0.275 C 
BRANCH  28  29
ATOM     29  O   UNL A   1      36.417  21.239  25.570  1.00  0.00    -0.458 OA
BRANCH  29  30
ATOM     30  C   UNL A   1      37.608  20.619  25.368  1.00  0.00     0.338 C 
ATOM     31  O   UNL A   1      37.797  19.552  24.811  1.00  0.00    -0.246 OA
BRANCH  30  32
ATOM     32  C   UNL A   1      38.642  21.645  25.624  1.00  0.00     0.060 A 
ATOM     33  C   UNL A   1      39.935  21.265  25.985  1.00  0.00     0.016 A 
ATOM     34  C   UNL A   1      38.206  22.958  25.820  1.00  0.00     0.016 A 
ATOM     35  C   UNL A   1      40.697  22.136  26.751  1.00  0.00     0.010 A 
ATOM     36  C   UNL A   1      38.947  23.806  26.620  1.00  0.00     0.010 A 
ATOM     37  C   UNL A   1      40.141  23.353  27.168  1.00  0.00    -0.014 A 
BRANCH  37  38
ATOM     38  C   UNL A   1      40.900  24.246  28.022  1.00  0.00     0.031 A 
ATOM     39  C   UNL A   1      40.167  25.490  28.315  1.00  0.00     0.074 A 
ATOM     40  C   UNL A   1      42.094  24.026  28.608  1.00  0.00     0.049 A 
ATOM     41  N   UNL A   1      40.275  26.595  27.659  1.00  0.00    -0.248 NA
ATOM     42  C   UNL A   1      39.087  25.463  29.305  1.00  0.00     0.031 C 
ATOM     43  C   UNL A   1      42.898  22.814  28.720  1.00  0.00     0.029 A 
ATOM     44  N   UNL A   1      42.826  24.932  29.311  1.00  0.00    -0.354 N 
ATOM     45  C   UNL A   1      39.408  27.478  28.281  1.00  0.00     0.074 A 
ATOM     46  C   UNL A   1      38.575  26.685  29.153  1.00  0.00     0.031 C 
ATOM     47  C   UNL A   1      43.900  23.009  29.613  1.00  0.00     0.029 A 
ATOM     48  C   UNL A   1      43.917  24.410  29.986  1.00  0.00     0.049 A 
ATOM     49  H   UNL A   1      42.596  25.890  29.337  1.00  0.00     0.167 HD
ATOM     50  C   UNL A   1      39.578  28.821  28.184  1.00  0.00     0.034 A 
ATOM     51  C   UNL A   1      44.766  25.111  30.777  1.00  0.00     0.034 A 
ATOM     52  C   UNL A   1      40.577  29.174  27.210  1.00  0.00     0.049 A 
ATOM     53  C   UNL A   1      44.697  26.519  30.311  1.00  0.00     0.074 A 
ATOM     54  C   UNL A   1      40.718  28.973  25.850  1.00  0.00     0.029 A 
ATOM     55  N   UNL A   1      41.843  29.439  27.682  1.00  0.00    -0.354 N 
ATOM     56  N   UNL A   1      45.116  26.908  29.138  1.00  0.00    -0.248 NA
ATOM     57  C   UNL A   1      43.780  27.425  30.981  1.00  0.00     0.031 C 
ATOM     58  C   UNL A   1      42.094  28.647  25.666  1.00  0.00     0.029 A 
ATOM     59  C   UNL A   1      42.720  28.715  26.913  1.00  0.00     0.049 A 
ATOM     60  H   UNL A   1      42.075  30.035  28.430  1.00  0.00     0.167 HD
ATOM     61  C   UNL A   1      44.196  27.871  28.739  1.00  0.00     0.074 A 
ATOM     62  C   UNL A   1      43.462  28.218  29.953  1.00  0.00     0.031 C 
ATOM     63  C   UNL A   1      43.930  28.098  27.419  1.00  0.00     0.034 A 
BRANCH  50  64
ATOM     64  C   UNL A   1      39.053  29.806  29.181  1.00  0.00     0.023 A 
ATOM     65  C   UNL A   1      38.293  30.891  28.701  1.00  0.00     0.012 A 
ATOM     66  C   UNL A   1      39.449  29.830  30.535  1.00  0.00     0.148 A 
ATOM     67  C   UNL A   1      37.941  31.953  29.538  1.00  0.00     0.002 A 
ATOM     68  C   UNL A   1      39.027  30.846  31.382  1.00  0.00     0.091 A 
ATOM     69  F   UNL A   1      40.340  28.938  30.983  1.00  0.00    -0.205 F 
ATOM     70  C   UNL A   1      38.291  31.922  30.884  1.00  0.00     0.022 A 
BRANCH  68  71
ATOM     71  S   UNL A   1      39.411  30.812  33.135  1.00  0.00     0.127 S 
ATOM     72  O   UNL A   1      40.840  31.110  33.128  1.00  0.00    -0.237 OA
ATOM     73  O   UNL A   1      38.556  31.879  33.654  1.00  0.00    -0.237 OA
ATOM     74  O   UNL A   1      39.032  29.477  33.581  1.00  0.00    -0.744 OA
ENDBRANCH  68  71
ENDBRANCH  50  64
BRANCH  51  75
ATOM     75  C   UNL A   1      45.496  24.724  32.007  1.00  0.00     0.023 A 
ATOM     76  C   UNL A   1      46.690  25.398  32.343  1.00  0.00     0.012 A 
ATOM     77  C   UNL A   1      44.879  23.933  33.001  1.00  0.00     0.148 A 
ATOM     78  C   UNL A   1      47.217  25.338  33.639  1.00  0.00     0.002 A 
ATOM     79  C   UNL A   1      45.410  23.874  34.290  1.00  0.00     0.091 A 
ATOM     80  F   UNL A   1      43.724  23.319  32.713  1.00  0.00    -0.205 F 
ATOM     81  C   UNL A   1      46.569  24.589  34.616  1.00  0.00     0.022 A 
BRANCH  79  82
ATOM     82  S   UNL A   1      44.613  22.949  35.610  1.00  0.00     0.127 S 
ATOM     83  O   UNL A   1      43.273  23.535  35.630  1.00  0.00    -0.237 OA
ATOM     84  O   UNL A   1      44.676  21.582  35.103  1.00  0.00    -0.237 OA
ATOM     85  O   UNL A   1      45.400  23.217  36.808  1.00  0.00    -0.744 OA
ENDBRANCH  79  82
ENDBRANCH  51  75
BRANCH  63  86
ATOM     86  C   UNL A   1      44.800  27.416  26.389  1.00  0.00     0.023 A 
ATOM     87  C   UNL A   1      46.019  27.982  25.956  1.00  0.00     0.012 A 
ATOM     88  C   UNL A   1      44.498  26.093  26.021  1.00  0.00     0.148 A 
ATOM     89  C   UNL A   1      46.914  27.249  25.172  1.00  0.00     0.002 A 
ATOM     90  C   UNL A   1      45.409  25.353  25.274  1.00  0.00     0.091 A 
ATOM     91  F   UNL A   1      43.343  25.567  26.451  1.00  0.00    -0.205 F 
ATOM     92  C   UNL A   1      46.616  25.929  24.844  1.00  0.00     0.022 A 
BRANCH  90  93
ATOM     93  S   UNL A   1      45.152  23.613  24.913  1.00  0.00     0.127 S 
ATOM     94  O   UNL A   1      43.764  23.597  24.454  1.00  0.00    -0.237 OA
ATOM     95  O   UNL A   1      46.145  23.363  23.867  1.00  0.00    -0.237 OA
ATOM     96  O   UNL A   1      45.403  22.899  26.160  1.00  0.00    -0.744 OA
ENDBRANCH  90  93
ENDBRANCH  63  86
ENDBRANCH  37  38
ENDBRANCH  30  32
ENDBRANCH  29  30
ENDBRANCH  28  29
ENDBRANCH   1  28
TORSDOF 18
ENDMDL
MODEL 2
REMARK VINA RESULT:     -12.6      4.287      9.930
REMARK SMILES COc1cc2c(CC(=O)OCCOC(=O)c3ccc(-c4c5nc(c(-c6cccc(S(=O)(=O)[O-])c6F)c6ccc([nH]6)c(-c6cccc(S(=O)(=O)[O-])c6F)c6nc(c(-c7cccc(S(=O)(=O)[O-])c7F)c7ccc4[nH]7)C=C6)C=C5)cc3)c(C)n(C(=O)c3ccc(Cl)cc3)c2cc1Cl
REMARK SMILES IDX 11 1 10 2 8 3 9 4 7 5 6 6 3 7 4 8 93 9 5 10 92 11 94 12
REMARK SMILES IDX 91 13 79 14 81 15 80 16 2 17 1 18 82 19 83 20 84 21 85 22
REMARK SMILES IDX 90 23 86 24 89 25 87 26 88 27 12 28 13 29 14 30 15 31 16 32
REMARK SMILES IDX 17 33 78 34 18 35 77 36 19 37 20 38 21 39 71 40 22 41 76 42
REMARK SMILES IDX 70 43 72 44 23 45 75 46 69 47 68 48 24 50 56 51 36 52 55 53
REMARK SMILES IDX 37 54 40 55 54 56 73 57 38 58 39 59 53 61 74 62 41 63 25 64
REMARK SMILES IDX 26 65 34 66 27 67 29 68 35 69 28 70 30 71 31 72 32 73 33 74
REMARK SMILES IDX 57 75 58 76 66 77 59 78 61 79 67 80 60 81 62 82 63 83 64 84
REMARK SMILES IDX 65 85 42 86 43 87 51 88 44 89 46 90 52 91 45 92 47 93 48 94
REMARK SMILES IDX 49 95 50 96
REMARK H PARENT 72 49 40 60
REMARK Flexibility Score: inf
ROOT
ATOM      1  C   UNL A   1      31.630  27.895  24.572  1.00  0.00     0.274 C 
ENDROOT
BRANCH   1   2
ATOM      2  O   UNL A   1      30.976  26.972  25.468  1.00  0.00    -0.462 OA
BRANCH   2   3
ATOM      3  C   UNL A   1      31.807  26.051  26.010  1.00  0.00     0.310 C 
ATOM      4  O   UNL A   1      31.623  25.552  27.118  1.00  0.00    -0.252 OA
BRANCH   3   5
ATOM      5  C   UNL A   1      33.057  25.770  25.235  1.00  0.00     0.160 C 
BRANCH   5   6
ATOM      6  C   UNL A   1      33.446  24.387  24.795  1.00  0.00    -0.008 A 
ATOM      7  C   UNL A   1      36.927  22.835  25.581  1.00  0.00     0.138 A 
ATOM      8  C   UNL A   1      35.843  23.730  25.728  1.00  0.00     0.058 A 
ATOM      9  C   UNL A   1      36.783  21.745  24.739  1.00  0.00     0.085 A 
ATOM     10  C   UNL A   1      34.640  23.607  24.982  1.00  0.00     0.008 A 
ATOM     11  C   UNL A   1      35.611  21.591  23.992  1.00  0.00     0.051 A 
ATOM     12  Cl  UNL A   1      37.911  20.435  24.657  1.00  0.00    -0.080 Cl
ATOM     13  C   UNL A   1      34.528  22.486  24.150  1.00  0.00     0.058 A 
ATOM     14  C   UNL A   1      32.671  23.706  23.860  1.00  0.00     0.028 A 
ATOM     15  N   UNL A   1      33.209  22.446  23.670  1.00  0.00    -0.280 N 
ATOM     16  C   UNL A   1      31.432  24.206  23.172  1.00  0.00     0.065 C 
BRANCH   7  17
ATOM     17  O   UNL A   1      38.020  23.084  26.372  1.00  0.00    -0.495 OA
ATOM     18  C   UNL A   1      38.175  24.443  26.792  1.00  0.00     0.278 C 
ENDBRANCH   7  17
BRANCH  15  19
ATOM     19  C   UNL A   1      32.532  21.313  23.150  1.00  0.00     0.262 C 
ATOM     20  O   UNL A   1      31.876  21.407  22.116  1.00  0.00    -0.268 OA
BRANCH  19  21
ATOM     21  C   UNL A   1      32.483  20.019  23.834  1.00  0.00     0.040 A 
ATOM     22  C   UNL A   1      32.619  19.976  25.225  1.00  0.00     0.015 A 
ATOM     23  C   UNL A   1      32.438  18.856  23.063  1.00  0.00     0.015 A 
ATOM     24  C   UNL A   1      32.787  18.741  25.849  1.00  0.00     0.021 A 
ATOM     25  C   UNL A   1      32.600  17.624  23.696  1.00  0.00     0.021 A 
ATOM     26  C   UNL A   1      32.789  17.574  25.081  1.00  0.00     0.041 A 
ATOM     27  Cl  UNL A   1      33.067  16.058  25.845  1.00  0.00    -0.084 Cl
ENDBRANCH  19  21
ENDBRANCH  15  19
ENDBRANCH   5   6
ENDBRANCH   3   5
ENDBRANCH   2   3
ENDBRANCH   1   2
BRANCH   1  28
ATOM     28  C   UNL A   1      31.310  29.344  24.955  1.00  0.00     0.275 C 
BRANCH  28  29
ATOM     29  O   UNL A   1      32.453  29.937  25.592  1.00  0.00    -0.458 OA
BRANCH  29  30
ATOM     30  C   UNL A   1      32.240  31.005  26.403  1.00  0.00     0.338 C 
ATOM     31  O   UNL A   1      31.223  31.670  26.490  1.00  0.00    -0.246 OA
BRANCH  30  32
ATOM     32  C   UNL A   1      33.330  30.975  27.402  1.00  0.00     0.060 A 
ATOM     33  C   UNL A   1      33.726  32.147  28.046  1.00  0.00     0.016 A 
ATOM     34  C   UNL A   1      34.145  29.841  27.423  1.00  0.00     0.016 A 
ATOM     35  C   UNL A   1      35.033  32.249  28.502  1.00  0.00     0.010 A 
ATOM     36  C   UNL A   1      35.459  29.958  27.837  1.00  0.00     0.010 A 
ATOM     37  C   UNL A   1      35.924  31.191  28.278  1.00  0.00    -0.014 A 
BRANCH  37  38
ATOM     38  C   UNL A   1      37.310  31.307  28.691  1.00  0.00     0.031 A 
ATOM     39  C   UNL A   1      38.080  30.087  28.396  1.00  0.00     0.074 A 
ATOM     40  C   UNL A   1      37.941  32.382  29.204  1.00  0.00     0.049 A 
ATOM     41  N   UNL A   1      38.284  29.112  29.215  1.00  0.00    -0.248 NA
ATOM     42  C   UNL A   1      38.514  29.835  27.018  1.00  0.00     0.031 C 
ATOM     43  C   UNL A   1      37.512  33.770  29.341  1.00  0.00     0.029 A 
ATOM     44  N   UNL A   1      39.213  32.417  29.684  1.00  0.00    -0.354 N 
ATOM     45  C   UNL A   1      39.048  28.195  28.513  1.00  0.00     0.074 A 
ATOM     46  C   UNL A   1      38.997  28.596  27.129  1.00  0.00     0.031 C 
ATOM     47  C   UNL A   1      38.572  34.546  29.680  1.00  0.00     0.029 A 
ATOM     48  C   UNL A   1      39.701  33.682  29.966  1.00  0.00     0.049 A 
ATOM     49  H   UNL A   1      39.748  31.601  29.821  1.00  0.00     0.167 HD
ATOM     50  C   UNL A   1      39.831  27.290  29.154  1.00  0.00     0.034 A 
ATOM     51  C   UNL A   1      40.948  33.966  30.417  1.00  0.00     0.034 A 
ATOM     52  C   UNL A   1      39.584  27.265  30.573  1.00  0.00     0.049 A 
ATOM     53  C   UNL A   1      41.428  32.739  31.101  1.00  0.00     0.074 A 
ATOM     54  C   UNL A   1      38.481  26.993  31.360  1.00  0.00     0.029 A 
ATOM     55  N   UNL A   1      40.441  27.991  31.368  1.00  0.00    -0.354 N 
ATOM     56  N   UNL A   1      40.897  32.274  32.199  1.00  0.00    -0.248 NA
ATOM     57  C   UNL A   1      42.228  31.792  30.343  1.00  0.00     0.031 C 
ATOM     58  C   UNL A   1      38.520  27.970  32.398  1.00  0.00     0.029 A 
ATOM     59  C   UNL A   1      39.667  28.747  32.213  1.00  0.00     0.049 A 
ATOM     60  H   UNL A   1      41.425  27.972  31.337  1.00  0.00     0.167 HD
ATOM     61  C   UNL A   1      40.928  30.893  32.046  1.00  0.00     0.074 A 
ATOM     62  C   UNL A   1      41.849  30.657  30.936  1.00  0.00     0.031 C 
ATOM     63  C   UNL A   1      40.002  30.088  32.646  1.00  0.00     0.034 A 
BRANCH  50  64
ATOM     64  C   UNL A   1      41.030  26.637  28.543  1.00  0.00     0.023 A 
ATOM     65  C   UNL A   1      41.112  25.232  28.588  1.00  0.00     0.012 A 
ATOM     66  C   UNL A   1      42.172  27.348  28.116  1.00  0.00     0.148 A 
ATOM     67  C   UNL A   1      42.284  24.565  28.221  1.00  0.00     0.002 A 
ATOM     68  C   UNL A   1      43.304  26.678  27.675  1.00  0.00     0.091 A 
ATOM     69  F   UNL A   1      42.216  28.679  28.255  1.00  0.00    -0.205 F 
ATOM     70  C   UNL A   1      43.375  25.285  27.746  1.00  0.00     0.022 A 
BRANCH  68  71
ATOM     71  S   UNL A   1      44.709  27.571  27.004  1.00  0.00     0.127 S 
ATOM     72  O   UNL A   1      45.554  26.478  26.534  1.00  0.00    -0.237 OA
ATOM     73  O   UNL A   1      44.085  28.370  25.949  1.00  0.00    -0.237 OA
ATOM     74  O   UNL A   1      45.227  28.357  28.117  1.00  0.00    -0.744 OA
ENDBRANCH  68  71
ENDBRANCH  50  64
BRANCH  51  75
ATOM     75  C   UNL A   1      41.836  35.125  30.165  1.00  0.00     0.023 A 
ATOM     76  C   UNL A   1      42.853  35.431  31.093  1.00  0.00     0.012 A 
ATOM     77  C   UNL A   1      41.895  35.732  28.891  1.00  0.00     0.148 A 
ATOM     78  C   UNL A   1      43.927  36.260  30.746  1.00  0.00     0.002 A 
ATOM     79  C   UNL A   1      42.966  36.559  28.551  1.00  0.00     0.091 A 
ATOM     80  F   UNL A   1      40.961  35.421  27.983  1.00  0.00    -0.205 F 
ATOM     81  C   UNL A   1      43.991  36.812  29.470  1.00  0.00     0.022 A 
BRANCH  79  82
ATOM     82  S   UNL A   1      43.130  37.286  26.914  1.00  0.00     0.127 S 
ATOM     83  O   UNL A   1      43.129  36.103  26.052  1.00  0.00    -0.237 OA
ATOM     84  O   UNL A   1      41.927  38.108  26.825  1.00  0.00    -0.237 OA
ATOM     85  O   UNL A   1      44.394  38.011  26.931  1.00  0.00    -0.744 OA
ENDBRANCH  79  82
ENDBRANCH  51  75
BRANCH  63  86
ATOM     86  C   UNL A   1      39.055  30.714  33.643  1.00  0.00     0.023 A 
ATOM     87  C   UNL A   1      39.382  30.816  35.013  1.00  0.00     0.012 A 
ATOM     88  C   UNL A   1      37.927  31.400  33.162  1.00  0.00     0.148 A 
ATOM     89  C   UNL A   1      38.601  31.582  35.883  1.00  0.00     0.002 A 
ATOM     90  C   UNL A   1      37.174  32.193  34.022  1.00  0.00     0.091 A 
ATOM     91  F   UNL A   1      37.638  31.301  31.856  1.00  0.00    -0.205 F 
ATOM     92  C   UNL A   1      37.506  32.283  35.385  1.00  0.00     0.022 A 
BRANCH  90  93
ATOM     93  S   UNL A   1      35.824  33.218  33.434  1.00  0.00     0.127 S 
ATOM     94  O   UNL A   1      35.058  32.279  32.617  1.00  0.00    -0.237 OA
ATOM     95  O   UNL A   1      35.170  33.617  34.681  1.00  0.00    -0.237 OA
ATOM     96  O   UNL A   1      36.439  34.320  32.702  1.00  0.00    -0.744 OA
ENDBRANCH  90  93
ENDBRANCH  63  86
ENDBRANCH  37  38
ENDBRANCH  30  32
ENDBRANCH  29  30
ENDBRANCH  28  29
ENDBRANCH   1  28
TORSDOF 18
ENDMDL
MODEL 3
REMARK VINA RESULT:     -12.4      3.211      8.640
REMARK SMILES COc1cc2c(CC(=O)OCCOC(=O)c3ccc(-c4c5nc(c(-c6cccc(S(=O)(=O)[O-])c6F)c6ccc([nH]6)c(-c6cccc(S(=O)(=O)[O-])c6F)c6nc(c(-c7cccc(S(=O)(=O)[O-])c7F)c7ccc4[nH]7)C=C6)C=C5)cc3)c(C)n(C(=O)c3ccc(Cl)cc3)c2cc1Cl
REMARK SMILES IDX 11 1 10 2 8 3 9 4 7 5 6 6 3 7 4 8 93 9 5 10 92 11 94 12
REMARK SMILES IDX 91 13 79 14 81 15 80 16 2 17 1 18 82 19 83 20 84 21 85 22
REMARK SMILES IDX 90 23 86 24 89 25 87 26 88 27 12 28 13 29 14 30 15 31 16 32
REMARK SMILES IDX 17 33 78 34 18 35 77 36 19 37 20 38 21 39 71 40 22 41 76 42
REMARK SMILES IDX 70 43 72 44 23 45 75 46 69 47 68 48 24 50 56 51 36 52 55 53
REMARK SMILES IDX 37 54 40 55 54 56 73 57 38 58 39 59 53 61 74 62 41 63 25 64
REMARK SMILES IDX 26 65 34 66 27 67 29 68 35 69 28 70 30 71 31 72 32 73 33 74
REMARK SMILES IDX 57 75 58 76 66 77 59 78 61 79 67 80 60 81 62 82 63 83 64 84
REMARK SMILES IDX 65 85 42 86 43 87 51 88 44 89 46 90 52 91 45 92 47 93 48 94
REMARK SMILES IDX 49 95 50 96
REMARK H PARENT 72 49 40 60
REMARK Flexibility Score: inf
ROOT
ATOM      1  C   UNL A   1      35.192  30.616  27.573  1.00  0.00     0.274 C 
ENDROOT
BRANCH   1   2
ATOM      2  O   UNL A   1      33.807  31.023  27.593  1.00  0.00    -0.462 OA
BRANCH   2   3
ATOM      3  C   UNL A   1      32.962  30.121  27.041  1.00  0.00     0.310 C 
ATOM      4  O   UNL A   1      31.910  29.774  27.574  1.00  0.00    -0.252 OA
BRANCH   3   5
ATOM      5  C   UNL A   1      33.452  29.452  25.793  1.00  0.00     0.160 C 
BRANCH   5   6
ATOM      6  C   UNL A   1      32.527  28.801  24.806  1.00  0.00    -0.008 A 
ATOM      7  C   UNL A   1      29.189  30.440  23.659  1.00  0.00     0.138 A 
ATOM      8  C   UNL A   1      30.485  30.393  24.220  1.00  0.00     0.058 A 
ATOM      9  C   UNL A   1      28.700  29.316  23.014  1.00  0.00     0.085 A 
ATOM     10  C   UNL A   1      31.276  29.213  24.225  1.00  0.00     0.008 A 
ATOM     11  C   UNL A   1      29.453  28.139  22.998  1.00  0.00     0.051 A 
ATOM     12  Cl  UNL A   1      27.255  29.304  22.062  1.00  0.00    -0.080 Cl
ATOM     13  C   UNL A   1      30.753  28.102  23.554  1.00  0.00     0.058 A 
ATOM     14  C   UNL A   1      32.699  27.462  24.462  1.00  0.00     0.028 A 
ATOM     15  N   UNL A   1      31.760  27.125  23.503  1.00  0.00    -0.280 N 
ATOM     16  C   UNL A   1      33.737  26.515  24.994  1.00  0.00     0.065 C 
BRANCH   7  17
ATOM     17  O   UNL A   1      28.549  31.652  23.729  1.00  0.00    -0.495 OA
ATOM     18  C   UNL A   1      28.768  32.524  22.617  1.00  0.00     0.278 C 
ENDBRANCH   7  17
BRANCH  15  19
ATOM     19  C   UNL A   1      31.838  26.035  22.598  1.00  0.00     0.262 C 
ATOM     20  O   UNL A   1      31.841  26.238  21.387  1.00  0.00    -0.268 OA
BRANCH  19  21
ATOM     21  C   UNL A   1      31.821  24.634  23.021  1.00  0.00     0.040 A 
ATOM     22  C   UNL A   1      30.889  24.220  23.979  1.00  0.00     0.015 A 
ATOM     23  C   UNL A   1      32.826  23.783  22.557  1.00  0.00     0.015 A 
ATOM     24  C   UNL A   1      31.012  22.949  24.535  1.00  0.00     0.021 A 
ATOM     25  C   UNL A   1      32.937  22.509  23.114  1.00  0.00     0.021 A 
ATOM     26  C   UNL A   1      32.041  22.105  24.109  1.00  0.00     0.041 A 
ATOM     27  Cl  UNL A   1      32.232  20.564  24.849  1.00  0.00    -0.084 Cl
ENDBRANCH  19  21
ENDBRANCH  15  19
ENDBRANCH   5   6
ENDBRANCH   3   5
ENDBRANCH   2   3
ENDBRANCH   1   2
BRANCH   1  28
ATOM     28  C   UNL A   1      35.846  30.849  28.939  1.00  0.00     0.275 C 
BRANCH  28  29
ATOM     29  O   UNL A   1      36.974  29.971  29.088  1.00  0.00    -0.458 OA
BRANCH  29  30
ATOM     30  C   UNL A   1      38.198  30.455  28.755  1.00  0.00     0.338 C 
ATOM     31  O   UNL A   1      38.671  31.534  29.064  1.00  0.00    -0.246 OA
BRANCH  30  32
ATOM     32  C   UNL A   1      38.969  29.292  28.265  1.00  0.00     0.060 A 
ATOM     33  C   UNL A   1      39.441  28.333  29.161  1.00  0.00     0.016 A 
ATOM     34  C   UNL A   1      39.482  29.367  26.967  1.00  0.00     0.016 A 
ATOM     35  C   UNL A   1      40.582  27.615  28.830  1.00  0.00     0.010 A 
ATOM     36  C   UNL A   1      40.642  28.683  26.656  1.00  0.00     0.010 A 
ATOM     37  C   UNL A   1      41.244  27.891  27.627  1.00  0.00    -0.014 A 
BRANCH  37  38
ATOM     38  C   UNL A   1      42.472  27.195  27.296  1.00  0.00     0.031 A 
ATOM     39  C   UNL A   1      42.256  25.750  27.103  1.00  0.00     0.074 A 
ATOM     40  C   UNL A   1      43.695  27.717  27.076  1.00  0.00     0.049 A 
ATOM     41  N   UNL A   1      42.399  24.843  28.009  1.00  0.00    -0.248 NA
ATOM     42  C   UNL A   1      41.655  25.281  25.851  1.00  0.00     0.031 C 
ATOM     43  C   UNL A   1      44.133  29.101  26.926  1.00  0.00     0.029 A 
ATOM     44  N   UNL A   1      44.846  27.020  26.878  1.00  0.00    -0.354 N 
ATOM     45  C   UNL A   1      42.091  23.647  27.383  1.00  0.00     0.074 A 
ATOM     46  C   UNL A   1      41.465  23.991  26.130  1.00  0.00     0.031 C 
ATOM     47  C   UNL A   1      45.408  29.131  26.465  1.00  0.00     0.029 A 
ATOM     48  C   UNL A   1      45.931  27.779  26.470  1.00  0.00     0.049 A 
ATOM     49  H   UNL A   1      44.904  26.046  27.017  1.00  0.00     0.167 HD
ATOM     50  C   UNL A   1      42.560  22.462  27.853  1.00  0.00     0.034 A 
ATOM     51  C   UNL A   1      47.165  27.300  26.178  1.00  0.00     0.034 A 
ATOM     52  C   UNL A   1      43.181  22.598  29.145  1.00  0.00     0.049 A 
ATOM     53  C   UNL A   1      47.302  26.026  26.929  1.00  0.00     0.074 A 
ATOM     54  C   UNL A   1      42.748  23.016  30.389  1.00  0.00     0.029 A 
ATOM     55  N   UNL A   1      44.553  22.707  29.170  1.00  0.00    -0.354 N 
ATOM     56  N   UNL A   1      47.341  25.961  28.232  1.00  0.00    -0.248 NA
ATOM     57  C   UNL A   1      46.972  24.784  26.249  1.00  0.00     0.031 C 
ATOM     58  C   UNL A   1      43.820  23.803  30.906  1.00  0.00     0.029 A 
ATOM     59  C   UNL A   1      44.858  23.779  29.971  1.00  0.00     0.049 A 
ATOM     60  H   UNL A   1      45.195  22.127  28.700  1.00  0.00     0.167 HD
ATOM     61  C   UNL A   1      46.628  24.810  28.547  1.00  0.00     0.074 A 
ATOM     62  C   UNL A   1      46.516  24.078  27.288  1.00  0.00     0.031 C 
ATOM     63  C   UNL A   1      45.960  24.688  29.733  1.00  0.00     0.034 A 
BRANCH  50  64
ATOM     64  C   UNL A   1      42.723  21.233  27.015  1.00  0.00     0.023 A 
ATOM     65  C   UNL A   1      42.014  20.077  27.393  1.00  0.00     0.012 A 
ATOM     66  C   UNL A   1      43.698  21.104  26.003  1.00  0.00     0.148 A 
ATOM     67  C   UNL A   1      42.265  18.844  26.786  1.00  0.00     0.002 A 
ATOM     68  C   UNL A   1      43.886  19.896  25.347  1.00  0.00     0.091 A 
ATOM     69  F   UNL A   1      44.538  22.116  25.756  1.00  0.00    -0.205 F 
ATOM     70  C   UNL A   1      43.187  18.756  25.749  1.00  0.00     0.022 A 
BRANCH  68  71
ATOM     71  S   UNL A   1      45.025  19.756  23.967  1.00  0.00     0.127 S 
ATOM     72  O   UNL A   1      44.672  20.930  23.175  1.00  0.00    -0.237 OA
ATOM     73  O   UNL A   1      46.324  19.827  24.637  1.00  0.00    -0.237 OA
ATOM     74  O   UNL A   1      44.738  18.460  23.365  1.00  0.00    -0.744 OA
ENDBRANCH  68  71
ENDBRANCH  50  64
BRANCH  51  75
ATOM     75  C   UNL A   1      48.170  27.737  25.181  1.00  0.00     0.023 A 
ATOM     76  C   UNL A   1      49.490  28.005  25.602  1.00  0.00     0.012 A 
ATOM     77  C   UNL A   1      47.932  27.591  23.797  1.00  0.00     0.148 A 
ATOM     78  C   UNL A   1      50.546  28.063  24.684  1.00  0.00     0.002 A 
ATOM     79  C   UNL A   1      48.987  27.653  22.886  1.00  0.00     0.091 A 
ATOM     80  F   UNL A   1      46.693  27.295  23.382  1.00  0.00    -0.205 F 
ATOM     81  C   UNL A   1      50.298  27.872  23.328  1.00  0.00     0.022 A 
BRANCH  79  82
ATOM     82  S   UNL A   1      48.746  27.389  21.124  1.00  0.00     0.127 S 
ATOM     83  O   UNL A   1      47.430  27.988  20.901  1.00  0.00    -0.237 OA
ATOM     84  O   UNL A   1      49.862  28.135  20.550  1.00  0.00    -0.237 OA
ATOM     85  O   UNL A   1      48.785  25.944  20.933  1.00  0.00    -0.744 OA
ENDBRANCH  79  82
ENDBRANCH  51  75
BRANCH  63  86
ATOM     86  C   UNL A   1      46.173  25.754  30.782  1.00  0.00     0.023 A 
ATOM     87  C   UNL A   1      47.306  25.749  31.625  1.00  0.00     0.012 A 
ATOM     88  C   UNL A   1      45.342  26.888  30.771  1.00  0.00     0.148 A 
ATOM     89  C   UNL A   1      47.602  26.847  32.439  1.00  0.00     0.002 A 
ATOM     90  C   UNL A   1      45.660  27.994  31.552  1.00  0.00     0.091 A 
ATOM     91  F   UNL A   1      44.277  26.880  29.956  1.00  0.00    -0.205 F 
ATOM     92  C   UNL A   1      46.788  27.975  32.391  1.00  0.00     0.022 A 
BRANCH  90  93
ATOM     93  S   UNL A   1      44.730  29.526  31.456  1.00  0.00     0.127 S 
ATOM     94  O   UNL A   1      43.378  29.085  31.794  1.00  0.00    -0.237 OA
ATOM     95  O   UNL A   1      45.379  30.348  32.479  1.00  0.00    -0.237 OA
ATOM     96  O   UNL A   1      44.901  30.020  30.095  1.00  0.00    -0.744 OA
ENDBRANCH  90  93
ENDBRANCH  63  86
ENDBRANCH  37  38
ENDBRANCH  30  32
ENDBRANCH  29  30
ENDBRANCH  28  29
ENDBRANCH   1  28
TORSDOF 18
ENDMDL
