MODEL 1
REMARK VINA RESULT:     -12.6      0.000      0.000
REMARK SMILES CS(=O)(=O)c1ccc(C2=NN(c3ccc(C(=O)OCCOC(=O)c4ccc(-c5c6nc(c(-c7cccc(S(=O)(=O)[O-])c7F)c7ccc([nH]7)c(-c7cccc(S(=O)(=O)[O-])c7F)c7nc(c(-c8cccc(S(=O)(=O)[O-])c8F)c8ccc5[nH]8)C=C7)C=C6)cc4)cc3)[C@H](c3cccs3)C2)cc1
REMARK SMILES IDX 19 1 18 2 16 3 17 4 15 5 12 6 13 7 88 8 14 9 87 10 11 11
REMARK SMILES IDX 9 12 10 13 95 14 89 15 8 16 5 17 6 18 97 19 7 20 96 21 2 22
REMARK SMILES IDX 1 23 3 24 4 25 90 26 91 27 94 28 92 29 93 30 20 31 21 32
REMARK SMILES IDX 22 33 23 34 24 35 25 36 86 37 26 38 85 39 27 40 28 41 29 42
REMARK SMILES IDX 79 43 30 44 84 45 78 46 80 47 31 48 83 49 77 50 76 51 32 53
REMARK SMILES IDX 64 54 44 55 63 56 45 57 48 58 62 59 81 60 46 61 47 62 61 64
REMARK SMILES IDX 82 65 49 66 33 67 34 68 42 69 35 70 37 71 43 72 36 73 38 74
REMARK SMILES IDX 39 75 40 76 41 77 65 78 66 79 74 80 67 81 69 82 75 83 68 84
REMARK SMILES IDX 70 85 71 86 72 87 73 88 50 89 51 90 59 91 52 92 54 93 60 94
REMARK SMILES IDX 53 95 55 96 56 97 57 98 58 99
REMARK H PARENT 80 52 48 63
REMARK Flexibility Score: inf
ROOT
ATOM      1  C   UNL A   1      41.081  20.791  26.251  1.00  0.00     0.275 C 
ENDROOT
BRANCH   1   2
ATOM      2  O   UNL A   1      39.888  21.349  25.667  1.00  0.00    -0.458 OA
BRANCH   2   3
ATOM      3  C   UNL A   1      39.217  22.245  26.437  1.00  0.00     0.338 C 
ATOM      4  O   UNL A   1      39.631  22.789  27.440  1.00  0.00    -0.246 OA
BRANCH   3   5
ATOM      5  C   UNL A   1      37.885  22.543  25.853  1.00  0.00     0.060 A 
ATOM      6  C   UNL A   1      35.318  23.153  24.886  1.00  0.00     0.060 A 
ATOM      7  C   UNL A   1      36.019  24.086  25.651  1.00  0.00     0.029 A 
ATOM      8  C   UNL A   1      35.931  21.931  24.577  1.00  0.00     0.029 A 
ATOM      9  C   UNL A   1      37.276  23.767  26.164  1.00  0.00     0.018 A 
ATOM     10  C   UNL A   1      37.211  21.625  25.045  1.00  0.00     0.018 A 
BRANCH   6  11
ATOM     11  N   UNL A   1      33.987  23.372  24.531  1.00  0.00    -0.257 N 
ATOM     12  C   UNL A   1      32.347  24.717  24.367  1.00  0.00     0.071 C 
ATOM     13  N   UNL A   1      33.603  24.587  24.074  1.00  0.00    -0.176 NA
ATOM     14  C   UNL A   1      31.745  23.616  25.195  1.00  0.00     0.091 C 
ATOM     15  C   UNL A   1      32.946  22.668  25.292  1.00  0.00     0.154 C 
BRANCH  12  16
ATOM     16  C   UNL A   1      31.546  25.852  23.877  1.00  0.00    -0.002 A 
ATOM     17  C   UNL A   1      29.920  27.953  23.040  1.00  0.00     0.067 A 
ATOM     18  C   UNL A   1      29.378  26.941  23.832  1.00  0.00     0.021 A 
ATOM     19  C   UNL A   1      31.271  27.917  22.662  1.00  0.00     0.021 A 
ATOM     20  C   UNL A   1      30.194  25.886  24.241  1.00  0.00     0.011 A 
ATOM     21  C   UNL A   1      32.090  26.865  23.085  1.00  0.00     0.011 A 
BRANCH  17  22
ATOM     22  S   UNL A   1      28.944  29.341  22.512  1.00  0.00     0.175 S 
ATOM     23  C   UNL A   1      29.297  30.678  23.620  1.00  0.00     0.163 C 
ATOM     24  O   UNL A   1      27.556  28.968  22.692  1.00  0.00    -0.224 OA
ATOM     25  O   UNL A   1      29.458  29.730  21.210  1.00  0.00    -0.224 OA
ENDBRANCH  17  22
ENDBRANCH  12  16
BRANCH  15  26
ATOM     26  C   UNL A   1      32.745  21.241  24.821  1.00  0.00     0.030 A 
ATOM     27  C   UNL A   1      32.948  20.101  25.584  1.00  0.00     0.017 A 
ATOM     28  S   UNL A   1      32.405  20.831  23.192  1.00  0.00    -0.147 S 
ATOM     29  C   UNL A   1      32.874  18.903  24.820  1.00  0.00     0.012 A 
ATOM     30  C   UNL A   1      32.566  19.158  23.504  1.00  0.00     0.065 A 
ENDBRANCH  15  26
ENDBRANCH   6  11
ENDBRANCH   3   5
ENDBRANCH   2   3
ENDBRANCH   1   2
BRANCH   1  31
ATOM     31  C   UNL A   1      42.332  21.465  25.692  1.00  0.00     0.275 C 
BRANCH  31  32
ATOM     32  O   UNL A   1      42.017  22.767  25.171  1.00  0.00    -0.458 OA
BRANCH  32  33
ATOM     33  C   UNL A   1      43.050  23.639  25.128  1.00  0.00     0.338 C 
ATOM     34  O   UNL A   1      43.973  23.659  24.330  1.00  0.00    -0.246 OA
BRANCH  33  35
ATOM     35  C   UNL A   1      42.881  24.647  26.182  1.00  0.00     0.060 A 
ATOM     36  C   UNL A   1      42.548  24.217  27.463  1.00  0.00     0.016 A 
ATOM     37  C   UNL A   1      42.927  26.005  25.886  1.00  0.00     0.016 A 
ATOM     38  C   UNL A   1      42.172  25.135  28.439  1.00  0.00     0.010 A 
ATOM     39  C   UNL A   1      42.644  26.932  26.895  1.00  0.00     0.010 A 
ATOM     40  C   UNL A   1      42.233  26.508  28.174  1.00  0.00    -0.014 A 
BRANCH  40  41
ATOM     41  C   UNL A   1      41.862  27.504  29.216  1.00  0.00     0.031 A 
ATOM     42  C   UNL A   1      42.644  27.573  30.502  1.00  0.00     0.074 A 
ATOM     43  C   UNL A   1      40.800  28.316  29.035  1.00  0.00     0.049 A 
ATOM     44  N   UNL A   1      42.354  28.193  31.616  1.00  0.00    -0.248 NA
ATOM     45  C   UNL A   1      43.914  26.829  30.544  1.00  0.00     0.031 C 
ATOM     46  C   UNL A   1      39.976  28.378  27.826  1.00  0.00     0.029 A 
ATOM     47  N   UNL A   1      40.214  29.229  29.878  1.00  0.00    -0.354 N 
ATOM     48  C   UNL A   1      43.355  27.848  32.516  1.00  0.00     0.074 A 
ATOM     49  C   UNL A   1      44.269  26.974  31.813  1.00  0.00     0.031 C 
ATOM     50  C   UNL A   1      39.001  29.281  27.999  1.00  0.00     0.029 A 
ATOM     51  C   UNL A   1      39.072  29.797  29.361  1.00  0.00     0.049 A 
ATOM     52  H   UNL A   1      40.576  29.455  30.766  1.00  0.00     0.167 HD
ATOM     53  C   UNL A   1      43.500  28.227  33.809  1.00  0.00     0.034 A 
ATOM     54  C   UNL A   1      38.152  30.600  29.931  1.00  0.00     0.034 A 
ATOM     55  C   UNL A   1      42.621  29.152  34.476  1.00  0.00     0.049 A 
ATOM     56  C   UNL A   1      38.324  30.991  31.372  1.00  0.00     0.074 A 
ATOM     57  C   UNL A   1      42.706  29.641  35.767  1.00  0.00     0.029 A 
ATOM     58  N   UNL A   1      41.500  29.731  33.902  1.00  0.00    -0.354 N 
ATOM     59  N   UNL A   1      39.296  30.690  32.198  1.00  0.00    -0.248 NA
ATOM     60  C   UNL A   1      37.277  31.839  31.959  1.00  0.00     0.031 C 
ATOM     61  C   UNL A   1      41.623  30.500  35.981  1.00  0.00     0.029 A 
ATOM     62  C   UNL A   1      40.878  30.568  34.813  1.00  0.00     0.049 A 
ATOM     63  H   UNL A   1      41.191  29.572  32.981  1.00  0.00     0.167 HD
ATOM     64  C   UNL A   1      38.999  31.339  33.390  1.00  0.00     0.074 A 
ATOM     65  C   UNL A   1      37.761  32.062  33.173  1.00  0.00     0.031 C 
ATOM     66  C   UNL A   1      39.680  31.328  34.561  1.00  0.00     0.034 A 
BRANCH  53  67
ATOM     67  C   UNL A   1      44.655  27.650  34.587  1.00  0.00     0.023 A 
ATOM     68  C   UNL A   1      45.964  28.126  34.368  1.00  0.00     0.012 A 
ATOM     69  C   UNL A   1      44.438  26.664  35.571  1.00  0.00     0.148 A 
ATOM     70  C   UNL A   1      47.040  27.601  35.083  1.00  0.00     0.002 A 
ATOM     71  C   UNL A   1      45.510  26.178  36.312  1.00  0.00     0.091 A 
ATOM     72  F   UNL A   1      43.191  26.207  35.755  1.00  0.00    -0.205 F 
ATOM     73  C   UNL A   1      46.813  26.636  36.060  1.00  0.00     0.022 A 
BRANCH  71  74
ATOM     74  S   UNL A   1      45.303  24.993  37.647  1.00  0.00     0.127 S 
ATOM     75  O   UNL A   1      46.680  24.827  38.111  1.00  0.00    -0.237 OA
ATOM     76  O   UNL A   1      44.432  25.718  38.574  1.00  0.00    -0.237 OA
ATOM     77  O   UNL A   1      44.696  23.814  37.045  1.00  0.00    -0.744 OA
ENDBRANCH  71  74
ENDBRANCH  53  67
BRANCH  54  78
ATOM     78  C   UNL A   1      36.996  31.095  29.130  1.00  0.00     0.023 A 
ATOM     79  C   UNL A   1      36.943  32.455  28.770  1.00  0.00     0.012 A 
ATOM     80  C   UNL A   1      35.978  30.227  28.685  1.00  0.00     0.148 A 
ATOM     81  C   UNL A   1      35.888  32.946  28.000  1.00  0.00     0.002 A 
ATOM     82  C   UNL A   1      34.962  30.712  27.869  1.00  0.00     0.091 A 
ATOM     83  F   UNL A   1      36.035  28.940  29.053  1.00  0.00    -0.205 F 
ATOM     84  C   UNL A   1      34.907  32.074  27.538  1.00  0.00     0.022 A 
BRANCH  82  85
ATOM     85  S   UNL A   1      33.734  29.636  27.118  1.00  0.00     0.127 S 
ATOM     86  O   UNL A   1      32.626  30.560  26.892  1.00  0.00    -0.237 OA
ATOM     87  O   UNL A   1      34.423  29.194  25.905  1.00  0.00    -0.237 OA
ATOM     88  O   UNL A   1      33.490  28.579  28.089  1.00  0.00    -0.744 OA
ENDBRANCH  82  85
ENDBRANCH  54  78
BRANCH  66  89
ATOM     89  C   UNL A   1      39.139  32.162  35.691  1.00  0.00     0.023 A 
ATOM     90  C   UNL A   1      39.168  33.567  35.603  1.00  0.00     0.012 A 
ATOM     91  C   UNL A   1      38.526  31.547  36.799  1.00  0.00     0.148 A 
ATOM     92  C   UNL A   1      38.614  34.350  36.616  1.00  0.00     0.002 A 
ATOM     93  C   UNL A   1      37.933  32.332  37.780  1.00  0.00     0.091 A 
ATOM     94  F   UNL A   1      38.527  30.208  36.871  1.00  0.00    -0.205 F 
ATOM     95  C   UNL A   1      37.986  33.733  37.696  1.00  0.00     0.022 A 
BRANCH  93  96
ATOM     96  S   UNL A   1      37.018  31.629  39.157  1.00  0.00     0.127 S 
ATOM     97  O   UNL A   1      36.415  30.448  38.542  1.00  0.00    -0.237 OA
ATOM     98  O   UNL A   1      38.083  31.339  40.119  1.00  0.00    -0.237 OA
ATOM     99  O   UNL A   1      36.079  32.656  39.586  1.00  0.00    -0.744 OA
ENDBRANCH  93  96
ENDBRANCH  66  89
ENDBRANCH  40  41
ENDBRANCH  33  35
ENDBRANCH  32  33
ENDBRANCH  31  32
ENDBRANCH   1  31
TORSDOF 18
ENDMDL
MODEL 2
REMARK VINA RESULT:     -12.4      5.777      9.024
REMARK SMILES CS(=O)(=O)c1ccc(C2=NN(c3ccc(C(=O)OCCOC(=O)c4ccc(-c5c6nc(c(-c7cccc(S(=O)(=O)[O-])c7F)c7ccc([nH]7)c(-c7cccc(S(=O)(=O)[O-])c7F)c7nc(c(-c8cccc(S(=O)(=O)[O-])c8F)c8ccc5[nH]8)C=C7)C=C6)cc4)cc3)[C@H](c3cccs3)C2)cc1
REMARK SMILES IDX 19 1 18 2 16 3 17 4 15 5 12 6 13 7 88 8 14 9 87 10 11 11
REMARK SMILES IDX 9 12 10 13 95 14 89 15 8 16 5 17 6 18 97 19 7 20 96 21 2 22
REMARK SMILES IDX 1 23 3 24 4 25 90 26 91 27 94 28 92 29 93 30 20 31 21 32
REMARK SMILES IDX 22 33 23 34 24 35 25 36 86 37 26 38 85 39 27 40 28 41 29 42
REMARK SMILES IDX 79 43 30 44 84 45 78 46 80 47 31 48 83 49 77 50 76 51 32 53
REMARK SMILES IDX 64 54 44 55 63 56 45 57 48 58 62 59 81 60 46 61 47 62 61 64
REMARK SMILES IDX 82 65 49 66 33 67 34 68 42 69 35 70 37 71 43 72 36 73 38 74
REMARK SMILES IDX 39 75 40 76 41 77 65 78 66 79 74 80 67 81 69 82 75 83 68 84
REMARK SMILES IDX 70 85 71 86 72 87 73 88 50 89 51 90 59 91 52 92 54 93 60 94
REMARK SMILES IDX 53 95 55 96 56 97 57 98 58 99
REMARK H PARENT 80 52 48 63
REMARK Flexibility Score: inf
ROOT
ATOM      1  C   UNL A   1      40.663  19.798  26.949  1.00  0.00     0.275 C 
ENDROOT
BRANCH   1   2
ATOM      2  O   UNL A   1      39.801  20.416  25.974  1.00  0.00    -0.458 OA
BRANCH   2   3
ATOM      3  C   UNL A   1      39.556  21.740  26.156  1.00  0.00     0.338 C 
ATOM      4  O   UNL A   1      40.326  22.562  26.612  1.00  0.00    -0.246 OA
BRANCH   3   5
ATOM      5  C   UNL A   1      38.204  22.096  25.657  1.00  0.00     0.060 A 
ATOM      6  C   UNL A   1      35.611  22.820  24.853  1.00  0.00     0.060 A 
ATOM      7  C   UNL A   1      36.404  23.725  25.561  1.00  0.00     0.029 A 
ATOM      8  C   UNL A   1      36.144  21.568  24.517  1.00  0.00     0.029 A 
ATOM      9  C   UNL A   1      37.675  23.350  25.994  1.00  0.00     0.018 A 
ATOM     10  C   UNL A   1      37.437  21.206  24.904  1.00  0.00     0.018 A 
BRANCH   6  11
ATOM     11  N   UNL A   1      34.272  23.099  24.583  1.00  0.00    -0.257 N 
ATOM     12  C   UNL A   1      32.692  24.522  24.499  1.00  0.00     0.071 C 
ATOM     13  N   UNL A   1      33.917  24.324  24.127  1.00  0.00    -0.176 NA
ATOM     14  C   UNL A   1      32.094  23.467  25.389  1.00  0.00     0.091 C 
ATOM     15  C   UNL A   1      33.251  22.462  25.426  1.00  0.00     0.154 C 
BRANCH  12  16
ATOM     16  C   UNL A   1      31.916  25.686  24.041  1.00  0.00    -0.002 A 
ATOM     17  C   UNL A   1      30.429  27.927  23.315  1.00  0.00     0.067 A 
ATOM     18  C   UNL A   1      30.498  27.556  24.658  1.00  0.00     0.021 A 
ATOM     19  C   UNL A   1      31.096  27.179  22.333  1.00  0.00     0.021 A 
ATOM     20  C   UNL A   1      31.237  26.428  25.015  1.00  0.00     0.011 A 
ATOM     21  C   UNL A   1      31.847  26.056  22.696  1.00  0.00     0.011 A 
BRANCH  17  22
ATOM     22  S   UNL A   1      29.532  29.371  22.796  1.00  0.00     0.175 S 
ATOM     23  C   UNL A   1      27.809  28.957  22.841  1.00  0.00     0.163 C 
ATOM     24  O   UNL A   1      29.895  29.615  21.416  1.00  0.00    -0.224 OA
ATOM     25  O   UNL A   1      29.747  30.376  23.823  1.00  0.00    -0.224 OA
ENDBRANCH  17  22
ENDBRANCH  12  16
BRANCH  15  26
ATOM     26  C   UNL A   1      32.950  21.039  24.999  1.00  0.00     0.030 A 
ATOM     27  C   UNL A   1      33.186  19.900  25.755  1.00  0.00     0.017 A 
ATOM     28  S   UNL A   1      32.430  20.624  23.419  1.00  0.00    -0.147 S 
ATOM     29  C   UNL A   1      32.989  18.697  25.021  1.00  0.00     0.012 A 
ATOM     30  C   UNL A   1      32.559  18.950  23.738  1.00  0.00     0.065 A 
ENDBRANCH  15  26
ENDBRANCH   6  11
ENDBRANCH   3   5
ENDBRANCH   2   3
ENDBRANCH   1   2
BRANCH   1  31
ATOM     31  C   UNL A   1      41.833  19.085  26.273  1.00  0.00     0.275 C 
BRANCH  31  32
ATOM     32  O   UNL A   1      42.182  19.739  25.042  1.00  0.00    -0.458 OA
BRANCH  32  33
ATOM     33  C   UNL A   1      43.477  20.114  24.933  1.00  0.00     0.338 C 
ATOM     34  O   UNL A   1      44.386  19.503  24.397  1.00  0.00    -0.246 OA
BRANCH  33  35
ATOM     35  C   UNL A   1      43.649  21.448  25.523  1.00  0.00     0.060 A 
ATOM     36  C   UNL A   1      43.673  22.550  24.675  1.00  0.00     0.016 A 
ATOM     37  C   UNL A   1      43.909  21.600  26.882  1.00  0.00     0.016 A 
ATOM     38  C   UNL A   1      44.043  23.802  25.156  1.00  0.00     0.010 A 
ATOM     39  C   UNL A   1      44.184  22.876  27.383  1.00  0.00     0.010 A 
ATOM     40  C   UNL A   1      44.286  23.987  26.522  1.00  0.00    -0.014 A 
BRANCH  40  41
ATOM     41  C   UNL A   1      44.654  25.327  27.058  1.00  0.00     0.031 A 
ATOM     42  C   UNL A   1      43.596  26.208  27.668  1.00  0.00     0.074 A 
ATOM     43  C   UNL A   1      45.923  25.774  26.959  1.00  0.00     0.049 A 
ATOM     44  N   UNL A   1      43.652  27.477  27.978  1.00  0.00    -0.248 NA
ATOM     45  C   UNL A   1      42.294  25.580  27.950  1.00  0.00     0.031 C 
ATOM     46  C   UNL A   1      47.052  25.013  26.423  1.00  0.00     0.029 A 
ATOM     47  N   UNL A   1      46.472  26.990  27.285  1.00  0.00    -0.354 N 
ATOM     48  C   UNL A   1      42.376  27.821  28.410  1.00  0.00     0.074 A 
ATOM     49  C   UNL A   1      41.570  26.622  28.335  1.00  0.00     0.031 C 
ATOM     50  C   UNL A   1      48.157  25.770  26.461  1.00  0.00     0.029 A 
ATOM     51  C   UNL A   1      47.800  27.100  26.940  1.00  0.00     0.049 A 
ATOM     52  H   UNL A   1      45.966  27.713  27.723  1.00  0.00     0.167 HD
ATOM     53  C   UNL A   1      41.920  29.026  28.832  1.00  0.00     0.034 A 
ATOM     54  C   UNL A   1      48.628  28.164  26.953  1.00  0.00     0.034 A 
ATOM     55  C   UNL A   1      42.751  30.194  28.967  1.00  0.00     0.049 A 
ATOM     56  C   UNL A   1      48.095  29.492  27.407  1.00  0.00     0.074 A 
ATOM     57  C   UNL A   1      42.401  31.448  29.433  1.00  0.00     0.029 A 
ATOM     58  N   UNL A   1      44.098  30.249  28.643  1.00  0.00    -0.354 N 
ATOM     59  N   UNL A   1      46.898  29.793  27.851  1.00  0.00    -0.248 NA
ATOM     60  C   UNL A   1      49.026  30.629  27.371  1.00  0.00     0.031 C 
ATOM     61  C   UNL A   1      43.533  32.269  29.368  1.00  0.00     0.029 A 
ATOM     62  C   UNL A   1      44.594  31.517  28.890  1.00  0.00     0.049 A 
ATOM     63  H   UNL A   1      44.624  29.496  28.289  1.00  0.00     0.167 HD
ATOM     64  C   UNL A   1      46.942  31.143  28.180  1.00  0.00     0.074 A 
ATOM     65  C   UNL A   1      48.289  31.598  27.898  1.00  0.00     0.031 C 
ATOM     66  C   UNL A   1      45.954  31.936  28.660  1.00  0.00     0.034 A 
BRANCH  53  67
ATOM     67  C   UNL A   1      40.460  29.141  29.188  1.00  0.00     0.023 A 
ATOM     68  C   UNL A   1      39.498  29.332  28.176  1.00  0.00     0.012 A 
ATOM     69  C   UNL A   1      40.035  29.014  30.527  1.00  0.00     0.148 A 
ATOM     70  C   UNL A   1      38.144  29.439  28.494  1.00  0.00     0.002 A 
ATOM     71  C   UNL A   1      38.679  29.076  30.830  1.00  0.00     0.091 A 
ATOM     72  F   UNL A   1      40.963  28.853  31.481  1.00  0.00    -0.205 F 
ATOM     73  C   UNL A   1      37.734  29.302  29.817  1.00  0.00     0.022 A 
BRANCH  71  74
ATOM     74  S   UNL A   1      38.050  28.829  32.495  1.00  0.00     0.127 S 
ATOM     75  O   UNL A   1      38.886  29.749  33.267  1.00  0.00    -0.237 OA
ATOM     76  O   UNL A   1      36.652  29.243  32.365  1.00  0.00    -0.237 OA
ATOM     77  O   UNL A   1      38.237  27.415  32.788  1.00  0.00    -0.744 OA
ENDBRANCH  71  74
ENDBRANCH  53  67
BRANCH  54  78
ATOM     78  C   UNL A   1      50.050  28.005  26.535  1.00  0.00     0.023 A 
ATOM     79  C   UNL A   1      51.039  27.822  27.521  1.00  0.00     0.012 A 
ATOM     80  C   UNL A   1      50.425  27.989  25.176  1.00  0.00     0.148 A 
ATOM     81  C   UNL A   1      52.376  27.645  27.162  1.00  0.00     0.002 A 
ATOM     82  C   UNL A   1      51.750  27.755  24.825  1.00  0.00     0.091 A 
ATOM     83  F   UNL A   1      49.473  28.184  24.253  1.00  0.00    -0.205 F 
ATOM     84  C   UNL A   1      52.730  27.598  25.817  1.00  0.00     0.022 A 
BRANCH  82  85
ATOM     85  S   UNL A   1      52.271  27.541  23.118  1.00  0.00     0.127 S 
ATOM     86  O   UNL A   1      51.157  26.782  22.559  1.00  0.00    -0.237 OA
ATOM     87  O   UNL A   1      52.366  28.926  22.657  1.00  0.00    -0.237 OA
ATOM     88  O   UNL A   1      53.547  26.841  23.181  1.00  0.00    -0.744 OA
ENDBRANCH  82  85
ENDBRANCH  54  78
BRANCH  66  89
ATOM     89  C   UNL A   1      46.297  33.370  28.966  1.00  0.00     0.023 A 
ATOM     90  C   UNL A   1      46.920  33.698  30.185  1.00  0.00     0.012 A 
ATOM     91  C   UNL A   1      46.076  34.375  28.004  1.00  0.00     0.148 A 
ATOM     92  C   UNL A   1      47.298  35.014  30.453  1.00  0.00     0.002 A 
ATOM     93  C   UNL A   1      46.500  35.673  28.258  1.00  0.00     0.091 A 
ATOM     94  F   UNL A   1      45.464  34.042  26.859  1.00  0.00    -0.205 F 
ATOM     95  C   UNL A   1      47.100  35.997  29.485  1.00  0.00     0.022 A 
BRANCH  93  96
ATOM     96  S   UNL A   1      46.375  36.985  27.036  1.00  0.00     0.127 S 
ATOM     97  O   UNL A   1      44.928  37.175  26.949  1.00  0.00    -0.237 OA
ATOM     98  O   UNL A   1      47.097  38.080  27.685  1.00  0.00    -0.237 OA
ATOM     99  O   UNL A   1      47.009  36.474  25.829  1.00  0.00    -0.744 OA
ENDBRANCH  93  96
ENDBRANCH  66  89
ENDBRANCH  40  41
ENDBRANCH  33  35
ENDBRANCH  32  33
ENDBRANCH  31  32
ENDBRANCH   1  31
TORSDOF 18
ENDMDL
MODEL 3
REMARK VINA RESULT:     -12.4      5.666      7.228
REMARK SMILES CS(=O)(=O)c1ccc(C2=NN(c3ccc(C(=O)OCCOC(=O)c4ccc(-c5c6nc(c(-c7cccc(S(=O)(=O)[O-])c7F)c7ccc([nH]7)c(-c7cccc(S(=O)(=O)[O-])c7F)c7nc(c(-c8cccc(S(=O)(=O)[O-])c8F)c8ccc5[nH]8)C=C7)C=C6)cc4)cc3)[C@H](c3cccs3)C2)cc1
REMARK SMILES IDX 19 1 18 2 16 3 17 4 15 5 12 6 13 7 88 8 14 9 87 10 11 11
REMARK SMILES IDX 9 12 10 13 95 14 89 15 8 16 5 17 6 18 97 19 7 20 96 21 2 22
REMARK SMILES IDX 1 23 3 24 4 25 90 26 91 27 94 28 92 29 93 30 20 31 21 32
REMARK SMILES IDX 22 33 23 34 24 35 25 36 86 37 26 38 85 39 27 40 28 41 29 42
REMARK SMILES IDX 79 43 30 44 84 45 78 46 80 47 31 48 83 49 77 50 76 51 32 53
REMARK SMILES IDX 64 54 44 55 63 56 45 57 48 58 62 59 81 60 46 61 47 62 61 64
REMARK SMILES IDX 82 65 49 66 33 67 34 68 42 69 35 70 37 71 43 72 36 73 38 74
REMARK SMILES IDX 39 75 40 76 41 77 65 78 66 79 74 80 67 81 69 82 75 83 68 84
REMARK SMILES IDX 70 85 71 86 72 87 73 88 50 89 51 90 59 91 52 92 54 93 60 94
REMARK SMILES IDX 53 95 55 96 56 97 57 98 58 99
REMARK H PARENT 80 52 48 63
REMARK Flexibility Score: inf
ROOT
ATOM      1  C   UNL A   1      40.735  19.974  26.899  1.00  0.00     0.275 C 
ENDROOT
BRANCH   1   2
ATOM      2  O   UNL A   1      39.891  20.586  25.904  1.00  0.00    -0.458 OA
BRANCH   2   3
ATOM      3  C   UNL A   1      39.631  21.907  26.082  1.00  0.00     0.338 C 
ATOM      4  O   UNL A   1      40.442  22.777  26.329  1.00  0.00    -0.246 OA
BRANCH   3   5
ATOM      5  C   UNL A   1      38.189  22.191  25.870  1.00  0.00     0.060 A 
ATOM      6  C   UNL A   1      35.475  22.675  25.326  1.00  0.00     0.060 A 
ATOM      7  C   UNL A   1      36.041  21.437  25.022  1.00  0.00     0.029 A 
ATOM      8  C   UNL A   1      36.270  23.652  25.943  1.00  0.00     0.029 A 
ATOM      9  C   UNL A   1      37.397  21.211  25.255  1.00  0.00     0.018 A 
ATOM     10  C   UNL A   1      37.618  23.414  26.226  1.00  0.00     0.018 A 
BRANCH   6  11
ATOM     11  N   UNL A   1      34.178  22.990  24.923  1.00  0.00    -0.257 N 
ATOM     12  C   UNL A   1      32.629  24.438  24.749  1.00  0.00     0.071 C 
ATOM     13  N   UNL A   1      33.888  24.245  24.508  1.00  0.00    -0.176 NA
ATOM     14  C   UNL A   1      31.925  23.338  25.496  1.00  0.00     0.091 C 
ATOM     15  C   UNL A   1      33.063  22.316  25.601  1.00  0.00     0.154 C 
BRANCH  12  16
ATOM     16  C   UNL A   1      31.919  25.639  24.280  1.00  0.00    -0.002 A 
ATOM     17  C   UNL A   1      30.450  27.837  23.402  1.00  0.00     0.067 A 
ATOM     18  C   UNL A   1      29.818  26.601  23.539  1.00  0.00     0.021 A 
ATOM     19  C   UNL A   1      31.814  27.978  23.698  1.00  0.00     0.021 A 
ATOM     20  C   UNL A   1      30.560  25.502  23.970  1.00  0.00     0.011 A 
ATOM     21  C   UNL A   1      32.552  26.876  24.143  1.00  0.00     0.011 A 
BRANCH  17  22
ATOM     22  S   UNL A   1      29.555  29.285  22.888  1.00  0.00     0.175 S 
ATOM     23  C   UNL A   1      27.829  28.895  22.997  1.00  0.00     0.163 C 
ATOM     24  O   UNL A   1      29.876  29.500  21.493  1.00  0.00    -0.224 OA
ATOM     25  O   UNL A   1      29.818  30.304  23.890  1.00  0.00    -0.224 OA
ENDBRANCH  17  22
ENDBRANCH  12  16
BRANCH  15  26
ATOM     26  C   UNL A   1      32.802  20.927  25.054  1.00  0.00     0.030 A 
ATOM     27  C   UNL A   1      32.952  19.739  25.755  1.00  0.00     0.017 A 
ATOM     28  S   UNL A   1      32.451  20.620  23.405  1.00  0.00    -0.147 S 
ATOM     29  C   UNL A   1      32.829  18.589  24.927  1.00  0.00     0.012 A 
ATOM     30  C   UNL A   1      32.538  18.927  23.626  1.00  0.00     0.065 A 
ENDBRANCH  15  26
ENDBRANCH   6  11
ENDBRANCH   3   5
ENDBRANCH   2   3
ENDBRANCH   1   2
BRANCH   1  31
ATOM     31  C   UNL A   1      41.722  19.001  26.257  1.00  0.00     0.275 C 
BRANCH  31  32
ATOM     32  O   UNL A   1      42.359  19.603  25.118  1.00  0.00    -0.458 OA
BRANCH  32  33
ATOM     33  C   UNL A   1      43.640  19.990  25.308  1.00  0.00     0.338 C 
ATOM     34  O   UNL A   1      44.649  19.319  25.161  1.00  0.00    -0.246 OA
BRANCH  33  35
ATOM     35  C   UNL A   1      43.671  21.410  25.678  1.00  0.00     0.060 A 
ATOM     36  C   UNL A   1      43.482  22.360  24.679  1.00  0.00     0.016 A 
ATOM     37  C   UNL A   1      44.006  21.805  26.969  1.00  0.00     0.016 A 
ATOM     38  C   UNL A   1      43.711  23.708  24.936  1.00  0.00     0.010 A 
ATOM     39  C   UNL A   1      44.140  23.169  27.251  1.00  0.00     0.010 A 
ATOM     40  C   UNL A   1      44.025  24.134  26.231  1.00  0.00    -0.014 A 
BRANCH  40  41
ATOM     41  C   UNL A   1      44.245  25.576  26.529  1.00  0.00     0.031 A 
ATOM     42  C   UNL A   1      45.603  26.190  26.310  1.00  0.00     0.074 A 
ATOM     43  C   UNL A   1      43.246  26.326  27.038  1.00  0.00     0.049 A 
ATOM     44  N   UNL A   1      46.066  27.344  26.715  1.00  0.00    -0.248 NA
ATOM     45  C   UNL A   1      46.576  25.388  25.549  1.00  0.00     0.031 C 
ATOM     46  C   UNL A   1      41.874  25.870  27.268  1.00  0.00     0.029 A 
ATOM     47  N   UNL A   1      43.236  27.628  27.477  1.00  0.00    -0.354 N 
ATOM     48  C   UNL A   1      47.403  27.372  26.335  1.00  0.00     0.074 A 
ATOM     49  C   UNL A   1      47.673  26.125  25.654  1.00  0.00     0.031 C 
ATOM     50  C   UNL A   1      41.155  26.870  27.796  1.00  0.00     0.029 A 
ATOM     51  C   UNL A   1      42.034  28.010  28.028  1.00  0.00     0.049 A 
ATOM     52  H   UNL A   1      44.013  28.229  27.406  1.00  0.00     0.167 HD
ATOM     53  C   UNL A   1      48.320  28.351  26.534  1.00  0.00     0.034 A 
ATOM     54  C   UNL A   1      41.687  29.129  28.694  1.00  0.00     0.034 A 
ATOM     55  C   UNL A   1      48.020  29.616  27.152  1.00  0.00     0.049 A 
ATOM     56  C   UNL A   1      42.725  30.191  28.918  1.00  0.00     0.074 A 
ATOM     57  C   UNL A   1      48.861  30.694  27.356  1.00  0.00     0.029 A 
ATOM     58  N   UNL A   1      46.780  29.974  27.659  1.00  0.00    -0.354 N 
ATOM     59  N   UNL A   1      43.973  30.222  28.518  1.00  0.00    -0.248 NA
ATOM     60  C   UNL A   1      42.308  31.378  29.679  1.00  0.00     0.031 C 
ATOM     61  C   UNL A   1      48.136  31.697  28.009  1.00  0.00     0.029 A 
ATOM     62  C   UNL A   1      46.834  31.254  28.184  1.00  0.00     0.049 A 
ATOM     63  H   UNL A   1      45.979  29.403  27.647  1.00  0.00     0.167 HD
ATOM     64  C   UNL A   1      44.480  31.444  28.946  1.00  0.00     0.074 A 
ATOM     65  C   UNL A   1      43.400  32.129  29.625  1.00  0.00     0.031 C 
ATOM     66  C   UNL A   1      45.731  31.946  28.802  1.00  0.00     0.034 A 
BRANCH  53  67
ATOM     67  C   UNL A   1      49.732  28.098  26.071  1.00  0.00     0.023 A 
ATOM     68  C   UNL A   1      50.057  28.202  24.703  1.00  0.00     0.012 A 
ATOM     69  C   UNL A   1      50.750  27.798  26.999  1.00  0.00     0.148 A 
ATOM     70  C   UNL A   1      51.361  27.971  24.263  1.00  0.00     0.002 A 
ATOM     71  C   UNL A   1      52.056  27.614  26.559  1.00  0.00     0.091 A 
ATOM     72  F   UNL A   1      50.421  27.682  28.294  1.00  0.00    -0.205 F 
ATOM     73  C   UNL A   1      52.361  27.687  25.190  1.00  0.00     0.022 A 
BRANCH  71  74
ATOM     74  S   UNL A   1      53.424  27.325  27.687  1.00  0.00     0.127 S 
ATOM     75  O   UNL A   1      54.545  27.171  26.760  1.00  0.00    -0.237 OA
ATOM     76  O   UNL A   1      53.448  28.561  28.470  1.00  0.00    -0.237 OA
ATOM     77  O   UNL A   1      53.070  26.135  28.448  1.00  0.00    -0.744 OA
ENDBRANCH  71  74
ENDBRANCH  53  67
BRANCH  54  78
ATOM     78  C   UNL A   1      40.288  29.303  29.181  1.00  0.00     0.023 A 
ATOM     79  C   UNL A   1      39.279  29.647  28.262  1.00  0.00     0.012 A 
ATOM     80  C   UNL A   1      39.943  29.086  30.530  1.00  0.00     0.148 A 
ATOM     81  C   UNL A   1      37.955  29.793  28.680  1.00  0.00     0.002 A 
ATOM     82  C   UNL A   1      38.613  29.175  30.928  1.00  0.00     0.091 A 
ATOM     83  F   UNL A   1      40.920  28.777  31.394  1.00  0.00    -0.205 F 
ATOM     84  C   UNL A   1      37.620  29.544  30.008  1.00  0.00     0.022 A 
BRANCH  82  85
ATOM     85  S   UNL A   1      38.072  28.739  32.585  1.00  0.00     0.127 S 
ATOM     86  O   UNL A   1      36.695  29.223  32.587  1.00  0.00    -0.237 OA
ATOM     87  O   UNL A   1      38.212  27.282  32.574  1.00  0.00    -0.237 OA
ATOM     88  O   UNL A   1      38.985  29.422  33.491  1.00  0.00    -0.744 OA
ENDBRANCH  82  85
ENDBRANCH  54  78
BRANCH  66  89
ATOM     89  C   UNL A   1      45.995  33.327  29.340  1.00  0.00     0.023 A 
ATOM     90  C   UNL A   1      46.512  33.488  30.640  1.00  0.00     0.012 A 
ATOM     91  C   UNL A   1      45.808  34.457  28.521  1.00  0.00     0.148 A 
ATOM     92  C   UNL A   1      46.818  34.759  31.126  1.00  0.00     0.002 A 
ATOM     93  C   UNL A   1      46.161  35.715  28.994  1.00  0.00     0.091 A 
ATOM     94  F   UNL A   1      45.296  34.281  27.294  1.00  0.00    -0.205 F 
ATOM     95  C   UNL A   1      46.654  35.869  30.299  1.00  0.00     0.022 A 
BRANCH  93  96
ATOM     96  S   UNL A   1      46.076  37.188  27.970  1.00  0.00     0.127 S 
ATOM     97  O   UNL A   1      46.425  38.237  28.927  1.00  0.00    -0.237 OA
ATOM     98  O   UNL A   1      47.100  36.920  26.958  1.00  0.00    -0.237 OA
ATOM     99  O   UNL A   1      44.716  37.245  27.453  1.00  0.00    -0.744 OA
ENDBRANCH  93  96
ENDBRANCH  66  89
ENDBRANCH  40  41
ENDBRANCH  33  35
ENDBRANCH  32  33
ENDBRANCH  31  32
ENDBRANCH   1  31
TORSDOF 18
ENDMDL
