MODEL 1
REMARK VINA RESULT:     -11.9      0.000      0.000
REMARK SMILES Cc1c(C(=O)OCCOC(=O)c2ccc(-c3c4nc(c(-c5cccc(S(=O)(=O)[O-])c5F)c5ccc([nH]5)c(-c5cccc(S(=O)(=O)[O-])c5F)c5nc(c(-c6cccc(S(=O)(=O)[O-])c6F)c6ccc3[nH]6)C=C5)C=C4)cc2)cccc1N1[C@@H](C)C=C(/C=C(\C#N)C(=O)NCCc2c[nH]c3ccccc23)[C@@H]1C
REMARK SMILES IDX 6 1 4 2 5 3 3 4 1 5 2 6 78 7 75 8 77 9 76 10 79 11 80 12
REMARK SMILES IDX 102 13 82 14 81 15 83 16 103 17 84 18 85 19 86 20 87 21
REMARK SMILES IDX 88 22 89 23 90 24 91 26 92 27 93 28 94 29 101 30 95 31 96 32
REMARK SMILES IDX 100 33 97 35 99 36 98 37 7 38 8 39 9 40 10 41 11 42 12 43
REMARK SMILES IDX 13 44 74 45 14 46 73 47 15 48 16 49 17 50 67 51 18 52 72 53
REMARK SMILES IDX 66 54 68 55 19 56 71 57 65 58 64 59 20 61 52 62 32 63 51 64
REMARK SMILES IDX 33 65 36 66 50 67 69 68 34 69 35 70 49 72 70 73 37 74 21 75
REMARK SMILES IDX 22 76 30 77 23 78 25 79 31 80 24 81 26 82 27 83 28 84 29 85
REMARK SMILES IDX 53 86 54 87 62 88 55 89 57 90 63 91 56 92 58 93 59 94 60 95
REMARK SMILES IDX 61 96 38 97 39 98 47 99 40 100 42 101 48 102 41 103 43 104
REMARK SMILES IDX 44 105 45 106 46 107
REMARK H PARENT 90 25 95 34 68 60 36 71
REMARK Flexibility Score: inf
ROOT
ATOM      1  O   UNL A   1      32.765  28.395  24.112  1.00  0.00    -0.458 OA
ENDROOT
BRANCH   1   2
ATOM      2  C   UNL A   1      31.895  27.597  23.461  1.00  0.00     0.338 C 
ATOM      3  O   UNL A   1      31.505  27.734  22.316  1.00  0.00    -0.246 OA
BRANCH   2   4
ATOM      4  C   UNL A   1      31.449  26.544  24.400  1.00  0.00     0.065 A 
ATOM      5  C   UNL A   1      33.829  25.719  24.686  1.00  0.00     0.047 C 
ATOM      6  C   UNL A   1      32.353  25.611  24.959  1.00  0.00    -0.013 A 
ATOM      7  C   UNL A   1      31.818  24.564  25.745  1.00  0.00     0.041 A 
ATOM      8  C   UNL A   1      30.073  26.472  24.655  1.00  0.00     0.016 A 
ATOM      9  C   UNL A   1      30.452  24.599  26.096  1.00  0.00     0.026 A 
ATOM     10  C   UNL A   1      29.585  25.543  25.562  1.00  0.00     0.003 A 
BRANCH   7  11
ATOM     11  N   UNL A   1      32.458  23.349  25.905  1.00  0.00    -0.358 N 
ATOM     12  C   UNL A   1      32.225  22.344  24.855  1.00  0.00     0.103 C 
ATOM     13  C   UNL A   1      33.656  23.065  26.706  1.00  0.00     0.110 C 
ATOM     14  C   UNL A   1      33.513  21.596  24.881  1.00  0.00     0.003 C 
ATOM     15  C   UNL A   1      32.058  22.912  23.438  1.00  0.00     0.035 C 
ATOM     16  C   UNL A   1      34.372  22.091  25.783  1.00  0.00    -0.026 C 
ATOM     17  C   UNL A   1      33.240  22.377  28.010  1.00  0.00     0.036 C 
BRANCH  16  18
ATOM     18  C   UNL A   1      35.766  21.731  25.920  1.00  0.00     0.031 C 
ATOM     19  C   UNL A   1      36.750  21.927  25.010  1.00  0.00     0.117 C 
BRANCH  19  20
ATOM     20  C   UNL A   1      36.548  22.572  23.764  1.00  0.00     0.105 C 
ATOM     21  N   UNL A   1      36.407  23.139  22.751  1.00  0.00    -0.192 NA
ENDBRANCH  19  20
BRANCH  19  22
ATOM     22  C   UNL A   1      38.011  21.170  25.241  1.00  0.00     0.261 C 
ATOM     23  O   UNL A   1      38.165  20.026  24.815  1.00  0.00    -0.268 OA
ATOM     24  N   UNL A   1      39.122  21.809  25.697  1.00  0.00    -0.351 N 
ATOM     25  H   UNL A   1      39.926  21.635  25.154  1.00  0.00     0.163 HD
BRANCH  24  26
ATOM     26  C   UNL A   1      39.365  22.705  26.833  1.00  0.00     0.121 C 
BRANCH  26  27
ATOM     27  C   UNL A   1      39.286  24.226  26.507  1.00  0.00     0.059 C 
BRANCH  27  28
ATOM     28  C   UNL A   1      40.545  25.017  26.878  1.00  0.00    -0.021 A 
ATOM     29  C   UNL A   1      41.009  26.110  26.146  1.00  0.00     0.087 A 
ATOM     30  C   UNL A   1      41.792  24.419  27.260  1.00  0.00     0.003 A 
ATOM     31  N   UNL A   1      41.929  25.461  25.318  1.00  0.00    -0.361 N 
ATOM     32  C   UNL A   1      42.529  24.480  26.077  1.00  0.00     0.046 A 
ATOM     33  C   UNL A   1      42.342  23.726  28.352  1.00  0.00     0.010 A 
ATOM     34  H   UNL A   1      42.114  25.666  24.372  1.00  0.00     0.166 HD
ATOM     35  C   UNL A   1      43.651  23.697  25.827  1.00  0.00     0.026 A 
ATOM     36  C   UNL A   1      43.589  23.100  28.182  1.00  0.00     0.001 A 
ATOM     37  C   UNL A   1      44.186  23.020  26.922  1.00  0.00     0.002 A 
ENDBRANCH  27  28
ENDBRANCH  26  27
ENDBRANCH  24  26
ENDBRANCH  19  22
ENDBRANCH  16  18
ENDBRANCH   7  11
ENDBRANCH   2   4
ENDBRANCH   1   2
BRANCH   1  38
ATOM     38  C   UNL A   1      32.254  29.532  24.803  1.00  0.00     0.275 C 
BRANCH  38  39
ATOM     39  C   UNL A   1      31.923  29.416  26.307  1.00  0.00     0.275 C 
BRANCH  39  40
ATOM     40  O   UNL A   1      32.738  29.966  27.392  1.00  0.00    -0.458 OA
BRANCH  40  41
ATOM     41  C   UNL A   1      33.344  31.162  27.585  1.00  0.00     0.338 C 
ATOM     42  O   UNL A   1      32.856  32.213  27.197  1.00  0.00    -0.246 OA
BRANCH  41  43
ATOM     43  C   UNL A   1      34.646  31.130  28.242  1.00  0.00     0.060 A 
ATOM     44  C   UNL A   1      34.754  31.282  29.634  1.00  0.00     0.016 A 
ATOM     45  C   UNL A   1      35.746  30.843  27.450  1.00  0.00     0.016 A 
ATOM     46  C   UNL A   1      35.976  31.089  30.254  1.00  0.00     0.010 A 
ATOM     47  C   UNL A   1      36.888  30.438  28.068  1.00  0.00     0.010 A 
ATOM     48  C   UNL A   1      37.028  30.698  29.439  1.00  0.00    -0.014 A 
BRANCH  48  49
ATOM     49  C   UNL A   1      38.415  30.905  29.782  1.00  0.00     0.031 A 
ATOM     50  C   UNL A   1      39.323  29.761  29.821  1.00  0.00     0.074 A 
ATOM     51  C   UNL A   1      38.697  32.233  29.800  1.00  0.00     0.049 A 
ATOM     52  N   UNL A   1      40.378  29.710  30.549  1.00  0.00    -0.248 NA
ATOM     53  C   UNL A   1      39.088  28.523  29.070  1.00  0.00     0.031 C 
ATOM     54  C   UNL A   1      39.917  32.980  29.574  1.00  0.00     0.029 A 
ATOM     55  N   UNL A   1      37.784  33.274  29.964  1.00  0.00    -0.354 N 
ATOM     56  C   UNL A   1      41.144  28.697  30.010  1.00  0.00     0.074 A 
ATOM     57  C   UNL A   1      40.229  27.853  29.284  1.00  0.00     0.031 C 
ATOM     58  C   UNL A   1      39.707  34.267  29.944  1.00  0.00     0.029 A 
ATOM     59  C   UNL A   1      38.399  34.335  30.588  1.00  0.00     0.049 A 
ATOM     60  H   UNL A   1      36.842  33.253  29.677  1.00  0.00     0.167 HD
ATOM     61  C   UNL A   1      42.491  28.884  29.925  1.00  0.00     0.034 A 
ATOM     62  C   UNL A   1      38.142  34.556  31.918  1.00  0.00     0.034 A 
ATOM     63  C   UNL A   1      42.819  30.252  30.371  1.00  0.00     0.049 A 
ATOM     64  C   UNL A   1      39.366  34.228  32.767  1.00  0.00     0.074 A 
ATOM     65  C   UNL A   1      43.061  31.434  29.685  1.00  0.00     0.029 A 
ATOM     66  N   UNL A   1      42.530  30.629  31.673  1.00  0.00    -0.354 N 
ATOM     67  N   UNL A   1      40.418  33.595  32.328  1.00  0.00    -0.248 NA
ATOM     68  C   UNL A   1      39.454  34.521  34.192  1.00  0.00     0.031 C 
ATOM     69  C   UNL A   1      42.952  32.517  30.608  1.00  0.00     0.029 A 
ATOM     70  C   UNL A   1      42.628  32.000  31.848  1.00  0.00     0.049 A 
ATOM     71  H   UNL A   1      42.285  29.998  32.387  1.00  0.00     0.167 HD
ATOM     72  C   UNL A   1      41.257  33.291  33.361  1.00  0.00     0.074 A 
ATOM     73  C   UNL A   1      40.596  33.890  34.514  1.00  0.00     0.031 C 
ATOM     74  C   UNL A   1      42.396  32.544  33.184  1.00  0.00     0.034 A 
BRANCH  61  75
ATOM     75  C   UNL A   1      43.447  28.035  29.105  1.00  0.00     0.023 A 
ATOM     76  C   UNL A   1      44.118  26.994  29.787  1.00  0.00     0.012 A 
ATOM     77  C   UNL A   1      43.725  28.154  27.721  1.00  0.00     0.148 A 
ATOM     78  C   UNL A   1      45.061  26.167  29.175  1.00  0.00     0.002 A 
ATOM     79  C   UNL A   1      44.695  27.342  27.110  1.00  0.00     0.091 A 
ATOM     80  F   UNL A   1      43.018  29.014  26.977  1.00  0.00    -0.205 F 
ATOM     81  C   UNL A   1      45.365  26.352  27.839  1.00  0.00     0.022 A 
BRANCH  79  82
ATOM     82  S   UNL A   1      45.202  27.521  25.388  1.00  0.00     0.127 S 
ATOM     83  O   UNL A   1      43.915  27.541  24.686  1.00  0.00    -0.237 OA
ATOM     84  O   UNL A   1      45.901  28.803  25.395  1.00  0.00    -0.237 OA
ATOM     85  O   UNL A   1      46.023  26.354  25.091  1.00  0.00    -0.744 OA
ENDBRANCH  79  82
ENDBRANCH  61  75
BRANCH  62  86
ATOM     86  C   UNL A   1      36.723  34.204  32.333  1.00  0.00     0.023 A 
ATOM     87  C   UNL A   1      36.520  33.666  33.632  1.00  0.00     0.012 A 
ATOM     88  C   UNL A   1      35.596  34.702  31.649  1.00  0.00     0.148 A 
ATOM     89  C   UNL A   1      35.285  33.778  34.281  1.00  0.00     0.002 A 
ATOM     90  C   UNL A   1      34.361  34.792  32.296  1.00  0.00     0.091 A 
ATOM     91  F   UNL A   1      35.732  35.122  30.385  1.00  0.00    -0.205 F 
ATOM     92  C   UNL A   1      34.212  34.367  33.622  1.00  0.00     0.022 A 
BRANCH  90  93
ATOM     93  S   UNL A   1      32.967  35.600  31.489  1.00  0.00     0.127 S 
ATOM     94  O   UNL A   1      31.891  35.359  32.446  1.00  0.00    -0.237 OA
ATOM     95  O   UNL A   1      33.396  36.997  31.395  1.00  0.00    -0.237 OA
ATOM     96  O   UNL A   1      32.856  34.930  30.202  1.00  0.00    -0.744 OA
ENDBRANCH  90  93
ENDBRANCH  62  86
BRANCH  74  97
ATOM     97  C   UNL A   1      43.392  32.211  34.281  1.00  0.00     0.023 A 
ATOM     98  C   UNL A   1      44.500  33.032  34.540  1.00  0.00     0.012 A 
ATOM     99  C   UNL A   1      43.317  31.010  35.040  1.00  0.00     0.148 A 
ATOM    100  C   UNL A   1      45.378  32.781  35.598  1.00  0.00     0.002 A 
ATOM    101  C   UNL A   1      44.205  30.741  36.071  1.00  0.00     0.091 A 
ATOM    102  F   UNL A   1      42.420  30.069  34.740  1.00  0.00    -0.205 F 
ATOM    103  C   UNL A   1      45.216  31.647  36.379  1.00  0.00     0.022 A 
BRANCH 101 104
ATOM    104  S   UNL A   1      44.142  29.211  37.012  1.00  0.00     0.127 S 
ATOM    105  O   UNL A   1      44.786  29.615  38.262  1.00  0.00    -0.237 OA
ATOM    106  O   UNL A   1      42.702  28.981  37.112  1.00  0.00    -0.237 OA
ATOM    107  O   UNL A   1      44.868  28.214  36.239  1.00  0.00    -0.744 OA
ENDBRANCH 101 104
ENDBRANCH  74  97
ENDBRANCH  48  49
ENDBRANCH  41  43
ENDBRANCH  40  41
ENDBRANCH  39  40
ENDBRANCH  38  39
ENDBRANCH   1  38
TORSDOF 21
ENDMDL
MODEL 2
REMARK VINA RESULT:     -11.7      1.584      2.212
REMARK SMILES Cc1c(C(=O)OCCOC(=O)c2ccc(-c3c4nc(c(-c5cccc(S(=O)(=O)[O-])c5F)c5ccc([nH]5)c(-c5cccc(S(=O)(=O)[O-])c5F)c5nc(c(-c6cccc(S(=O)(=O)[O-])c6F)c6ccc3[nH]6)C=C5)C=C4)cc2)cccc1N1[C@@H](C)C=C(/C=C(\C#N)C(=O)NCCc2c[nH]c3ccccc23)[C@@H]1C
REMARK SMILES IDX 6 1 4 2 5 3 3 4 1 5 2 6 78 7 75 8 77 9 76 10 79 11 80 12
REMARK SMILES IDX 102 13 82 14 81 15 83 16 103 17 84 18 85 19 86 20 87 21
REMARK SMILES IDX 88 22 89 23 90 24 91 26 92 27 93 28 94 29 101 30 95 31 96 32
REMARK SMILES IDX 100 33 97 35 99 36 98 37 7 38 8 39 9 40 10 41 11 42 12 43
REMARK SMILES IDX 13 44 74 45 14 46 73 47 15 48 16 49 17 50 67 51 18 52 72 53
REMARK SMILES IDX 66 54 68 55 19 56 71 57 65 58 64 59 20 61 52 62 32 63 51 64
REMARK SMILES IDX 33 65 36 66 50 67 69 68 34 69 35 70 49 72 70 73 37 74 21 75
REMARK SMILES IDX 22 76 30 77 23 78 25 79 31 80 24 81 26 82 27 83 28 84 29 85
REMARK SMILES IDX 53 86 54 87 62 88 55 89 57 90 63 91 56 92 58 93 59 94 60 95
REMARK SMILES IDX 61 96 38 97 39 98 47 99 40 100 42 101 48 102 41 103 43 104
REMARK SMILES IDX 44 105 45 106 46 107
REMARK H PARENT 90 25 95 34 68 60 36 71
REMARK Flexibility Score: inf
ROOT
ATOM      1  O   UNL A   1      32.142  29.359  26.197  1.00  0.00    -0.458 OA
ENDROOT
BRANCH   1   2
ATOM      2  C   UNL A   1      32.509  28.859  25.000  1.00  0.00     0.338 C 
ATOM      3  O   UNL A   1      33.359  29.313  24.256  1.00  0.00    -0.246 OA
BRANCH   2   4
ATOM      4  C   UNL A   1      31.660  27.681  24.717  1.00  0.00     0.065 A 
ATOM      5  C   UNL A   1      33.371  26.130  25.761  1.00  0.00     0.047 C 
ATOM      6  C   UNL A   1      32.075  26.367  25.033  1.00  0.00    -0.013 A 
ATOM      7  C   UNL A   1      31.254  25.296  24.611  1.00  0.00     0.041 A 
ATOM      8  C   UNL A   1      30.449  27.925  24.055  1.00  0.00     0.016 A 
ATOM      9  C   UNL A   1      29.981  25.578  24.073  1.00  0.00     0.026 A 
ATOM     10  C   UNL A   1      29.576  26.878  23.798  1.00  0.00     0.003 A 
BRANCH   7  11
ATOM     11  N   UNL A   1      31.746  24.025  24.379  1.00  0.00    -0.358 N 
ATOM     12  C   UNL A   1      32.088  23.700  22.983  1.00  0.00     0.103 C 
ATOM     13  C   UNL A   1      32.385  23.120  25.344  1.00  0.00     0.110 C 
ATOM     14  C   UNL A   1      33.200  22.729  23.177  1.00  0.00     0.003 C 
ATOM     15  C   UNL A   1      32.645  24.872  22.163  1.00  0.00     0.035 C 
ATOM     16  C   UNL A   1      33.483  22.529  24.472  1.00  0.00    -0.026 C 
ATOM     17  C   UNL A   1      31.382  22.041  25.766  1.00  0.00     0.036 C 
BRANCH  16  18
ATOM     18  C   UNL A   1      34.625  21.812  24.996  1.00  0.00     0.031 C 
ATOM     19  C   UNL A   1      35.909  21.908  24.572  1.00  0.00     0.117 C 
BRANCH  19  20
ATOM     20  C   UNL A   1      36.331  22.786  23.544  1.00  0.00     0.105 C 
ATOM     21  N   UNL A   1      36.723  23.495  22.701  1.00  0.00    -0.192 NA
ENDBRANCH  19  20
BRANCH  19  22
ATOM     22  C   UNL A   1      36.827  20.830  25.032  1.00  0.00     0.261 C 
ATOM     23  O   UNL A   1      36.555  19.640  24.877  1.00  0.00    -0.268 OA
ATOM     24  N   UNL A   1      38.105  21.125  25.394  1.00  0.00    -0.351 N 
ATOM     25  H   UNL A   1      38.780  20.563  24.948  1.00  0.00     0.163 HD
BRANCH  24  26
ATOM     26  C   UNL A   1      38.681  22.109  26.316  1.00  0.00     0.121 C 
BRANCH  26  27
ATOM     27  C   UNL A   1      40.238  22.159  26.348  1.00  0.00     0.059 C 
BRANCH  27  28
ATOM     28  C   UNL A   1      40.816  23.419  27.000  1.00  0.00    -0.021 A 
ATOM     29  C   UNL A   1      40.904  24.649  26.348  1.00  0.00     0.087 A 
ATOM     30  C   UNL A   1      42.027  23.449  27.767  1.00  0.00     0.003 A 
ATOM     31  N   UNL A   1      42.215  24.564  25.871  1.00  0.00    -0.361 N 
ATOM     32  C   UNL A   1      42.956  23.928  26.843  1.00  0.00     0.046 A 
ATOM     33  C   UNL A   1      42.496  23.021  29.021  1.00  0.00     0.010 A 
ATOM     34  H   UNL A   1      42.546  24.896  25.004  1.00  0.00     0.166 HD
ATOM     35  C   UNL A   1      44.332  23.780  26.986  1.00  0.00     0.026 A 
ATOM     36  C   UNL A   1      43.881  23.063  29.263  1.00  0.00     0.001 A 
ATOM     37  C   UNL A   1      44.780  23.358  28.236  1.00  0.00     0.002 A 
ENDBRANCH  27  28
ENDBRANCH  26  27
ENDBRANCH  24  26
ENDBRANCH  19  22
ENDBRANCH  16  18
ENDBRANCH   7  11
ENDBRANCH   2   4
ENDBRANCH   1   2
BRANCH   1  38
ATOM     38  C   UNL A   1      32.337  30.750  26.437  1.00  0.00     0.275 C 
BRANCH  38  39
ATOM     39  C   UNL A   1      33.259  31.193  27.594  1.00  0.00     0.275 C 
BRANCH  39  40
ATOM     40  O   UNL A   1      34.671  30.833  27.729  1.00  0.00    -0.458 OA
BRANCH  40  41
ATOM     41  C   UNL A   1      35.336  29.654  27.707  1.00  0.00     0.338 C 
ATOM     42  O   UNL A   1      34.852  28.638  27.232  1.00  0.00    -0.246 OA
BRANCH  41  43
ATOM     43  C   UNL A   1      36.656  29.642  28.328  1.00  0.00     0.060 A 
ATOM     44  C   UNL A   1      36.801  29.434  29.710  1.00  0.00     0.016 A 
ATOM     45  C   UNL A   1      37.751  29.740  27.484  1.00  0.00     0.016 A 
ATOM     46  C   UNL A   1      38.063  29.267  30.251  1.00  0.00     0.010 A 
ATOM     47  C   UNL A   1      38.965  29.358  27.968  1.00  0.00     0.010 A 
ATOM     48  C   UNL A   1      39.124  29.264  29.358  1.00  0.00    -0.014 A 
BRANCH  48  49
ATOM     49  C   UNL A   1      40.482  29.575  29.740  1.00  0.00     0.031 A 
ATOM     50  C   UNL A   1      41.469  28.501  29.816  1.00  0.00     0.074 A 
ATOM     51  C   UNL A   1      40.665  30.920  29.754  1.00  0.00     0.049 A 
ATOM     52  N   UNL A   1      42.503  28.533  30.575  1.00  0.00    -0.248 NA
ATOM     53  C   UNL A   1      41.348  27.244  29.069  1.00  0.00     0.031 C 
ATOM     54  C   UNL A   1      41.833  31.753  29.557  1.00  0.00     0.029 A 
ATOM     55  N   UNL A   1      39.674  31.892  29.882  1.00  0.00    -0.354 N 
ATOM     56  C   UNL A   1      43.357  27.575  30.067  1.00  0.00     0.074 A 
ATOM     57  C   UNL A   1      42.528  26.661  29.323  1.00  0.00     0.031 C 
ATOM     58  C   UNL A   1      41.518  33.023  29.909  1.00  0.00     0.029 A 
ATOM     59  C   UNL A   1      40.190  33.000  30.514  1.00  0.00     0.049 A 
ATOM     60  H   UNL A   1      38.745  31.800  29.568  1.00  0.00     0.167 HD
ATOM     61  C   UNL A   1      44.688  27.860  30.020  1.00  0.00     0.034 A 
ATOM     62  C   UNL A   1      39.878  33.211  31.834  1.00  0.00     0.034 A 
ATOM     63  C   UNL A   1      44.902  29.252  30.464  1.00  0.00     0.049 A 
ATOM     64  C   UNL A   1      41.096  32.979  32.721  1.00  0.00     0.074 A 
ATOM     65  C   UNL A   1      45.077  30.443  29.775  1.00  0.00     0.029 A 
ATOM     66  N   UNL A   1      44.548  29.615  31.753  1.00  0.00    -0.354 N 
ATOM     67  N   UNL A   1      42.205  32.422  32.319  1.00  0.00    -0.248 NA
ATOM     68  C   UNL A   1      41.120  33.287  34.145  1.00  0.00     0.031 C 
ATOM     69  C   UNL A   1      44.862  31.522  30.684  1.00  0.00     0.029 A 
ATOM     70  C   UNL A   1      44.539  30.990  31.919  1.00  0.00     0.049 A 
ATOM     71  H   UNL A   1      44.328  28.973  32.465  1.00  0.00     0.167 HD
ATOM     72  C   UNL A   1      43.033  32.187  33.379  1.00  0.00     0.074 A 
ATOM     73  C   UNL A   1      42.296  32.744  34.507  1.00  0.00     0.031 C 
ATOM     74  C   UNL A   1      44.228  31.525  33.242  1.00  0.00     0.034 A 
BRANCH  61  75
ATOM     75  C   UNL A   1      45.729  27.078  29.236  1.00  0.00     0.023 A 
ATOM     76  C   UNL A   1      46.594  26.245  29.983  1.00  0.00     0.012 A 
ATOM     77  C   UNL A   1      45.913  27.070  27.832  1.00  0.00     0.148 A 
ATOM     78  C   UNL A   1      47.628  25.508  29.403  1.00  0.00     0.002 A 
ATOM     79  C   UNL A   1      46.971  26.352  27.250  1.00  0.00     0.091 A 
ATOM     80  F   UNL A   1      45.039  27.713  27.047  1.00  0.00    -0.205 F 
ATOM     81  C   UNL A   1      47.830  25.575  28.037  1.00  0.00     0.022 A 
BRANCH  79  82
ATOM     82  S   UNL A   1      47.355  26.397  25.488  1.00  0.00     0.127 S 
ATOM     83  O   UNL A   1      47.593  27.826  25.259  1.00  0.00    -0.237 OA
ATOM     84  O   UNL A   1      48.555  25.568  25.404  1.00  0.00    -0.237 OA
ATOM     85  O   UNL A   1      46.176  25.874  24.809  1.00  0.00    -0.744 OA
ENDBRANCH  79  82
ENDBRANCH  61  75
BRANCH  62  86
ATOM     86  C   UNL A   1      38.477  32.758  32.210  1.00  0.00     0.023 A 
ATOM     87  C   UNL A   1      38.344  31.748  33.200  1.00  0.00     0.012 A 
ATOM     88  C   UNL A   1      37.333  33.518  31.894  1.00  0.00     0.148 A 
ATOM     89  C   UNL A   1      37.173  31.621  33.957  1.00  0.00     0.002 A 
ATOM     90  C   UNL A   1      36.161  33.371  32.641  1.00  0.00     0.091 A 
ATOM     91  F   UNL A   1      37.395  34.407  30.896  1.00  0.00    -0.205 F 
ATOM     92  C   UNL A   1      36.091  32.453  33.695  1.00  0.00     0.022 A 
BRANCH  90  93
ATOM     93  S   UNL A   1      34.761  34.472  32.362  1.00  0.00     0.127 S 
ATOM     94  O   UNL A   1      35.254  35.726  32.925  1.00  0.00    -0.237 OA
ATOM     95  O   UNL A   1      34.619  34.472  30.905  1.00  0.00    -0.237 OA
ATOM     96  O   UNL A   1      33.655  33.834  33.062  1.00  0.00    -0.744 OA
ENDBRANCH  90  93
ENDBRANCH  62  86
BRANCH  74  97
ATOM     97  C   UNL A   1      45.213  31.274  34.371  1.00  0.00     0.023 A 
ATOM     98  C   UNL A   1      46.492  31.850  34.370  1.00  0.00     0.012 A 
ATOM     99  C   UNL A   1      44.936  30.372  35.437  1.00  0.00     0.148 A 
ATOM    100  C   UNL A   1      47.377  31.691  35.441  1.00  0.00     0.002 A 
ATOM    101  C   UNL A   1      45.824  30.189  36.486  1.00  0.00     0.091 A 
ATOM    102  F   UNL A   1      43.832  29.624  35.428  1.00  0.00    -0.205 F 
ATOM    103  C   UNL A   1      47.033  30.879  36.511  1.00  0.00     0.022 A 
BRANCH 101 104
ATOM    104  S   UNL A   1      45.503  29.025  37.818  1.00  0.00     0.127 S 
ATOM    105  O   UNL A   1      46.734  29.139  38.603  1.00  0.00    -0.237 OA
ATOM    106  O   UNL A   1      44.320  29.612  38.448  1.00  0.00    -0.237 OA
ATOM    107  O   UNL A   1      45.285  27.727  37.198  1.00  0.00    -0.744 OA
ENDBRANCH 101 104
ENDBRANCH  74  97
ENDBRANCH  48  49
ENDBRANCH  41  43
ENDBRANCH  40  41
ENDBRANCH  39  40
ENDBRANCH  38  39
ENDBRANCH   1  38
TORSDOF 21
ENDMDL
MODEL 3
REMARK VINA RESULT:     -11.5      4.712      8.955
REMARK SMILES Cc1c(C(=O)OCCOC(=O)c2ccc(-c3c4nc(c(-c5cccc(S(=O)(=O)[O-])c5F)c5ccc([nH]5)c(-c5cccc(S(=O)(=O)[O-])c5F)c5nc(c(-c6cccc(S(=O)(=O)[O-])c6F)c6ccc3[nH]6)C=C5)C=C4)cc2)cccc1N1[C@@H](C)C=C(/C=C(\C#N)C(=O)NCCc2c[nH]c3ccccc23)[C@@H]1C
REMARK SMILES IDX 6 1 4 2 5 3 3 4 1 5 2 6 78 7 75 8 77 9 76 10 79 11 80 12
REMARK SMILES IDX 102 13 82 14 81 15 83 16 103 17 84 18 85 19 86 20 87 21
REMARK SMILES IDX 88 22 89 23 90 24 91 26 92 27 93 28 94 29 101 30 95 31 96 32
REMARK SMILES IDX 100 33 97 35 99 36 98 37 7 38 8 39 9 40 10 41 11 42 12 43
REMARK SMILES IDX 13 44 74 45 14 46 73 47 15 48 16 49 17 50 67 51 18 52 72 53
REMARK SMILES IDX 66 54 68 55 19 56 71 57 65 58 64 59 20 61 52 62 32 63 51 64
REMARK SMILES IDX 33 65 36 66 50 67 69 68 34 69 35 70 49 72 70 73 37 74 21 75
REMARK SMILES IDX 22 76 30 77 23 78 25 79 31 80 24 81 26 82 27 83 28 84 29 85
REMARK SMILES IDX 53 86 54 87 62 88 55 89 57 90 63 91 56 92 58 93 59 94 60 95
REMARK SMILES IDX 61 96 38 97 39 98 47 99 40 100 42 101 48 102 41 103 43 104
REMARK SMILES IDX 44 105 45 106 46 107
REMARK H PARENT 90 25 95 34 68 60 36 71
REMARK Flexibility Score: inf
ROOT
ATOM      1  O   UNL A   1      33.369  30.353  26.560  1.00  0.00    -0.458 OA
ENDROOT
BRANCH   1   2
ATOM      2  C   UNL A   1      32.063  30.646  26.402  1.00  0.00     0.338 C 
ATOM      3  O   UNL A   1      31.446  31.531  26.967  1.00  0.00    -0.246 OA
BRANCH   2   4
ATOM      4  C   UNL A   1      31.486  29.667  25.454  1.00  0.00     0.065 A 
ATOM      5  C   UNL A   1      32.661  27.755  26.633  1.00  0.00     0.047 C 
ATOM      6  C   UNL A   1      31.796  28.289  25.523  1.00  0.00    -0.013 A 
ATOM      7  C   UNL A   1      31.299  27.450  24.499  1.00  0.00     0.041 A 
ATOM      8  C   UNL A   1      30.669  30.183  24.439  1.00  0.00     0.016 A 
ATOM      9  C   UNL A   1      30.370  27.972  23.575  1.00  0.00     0.026 A 
ATOM     10  C   UNL A   1      30.053  29.323  23.542  1.00  0.00     0.003 A 
BRANCH   7  11
ATOM     11  N   UNL A   1      31.913  26.263  24.144  1.00  0.00    -0.358 N 
ATOM     12  C   UNL A   1      32.938  26.347  23.090  1.00  0.00     0.103 C 
ATOM     13  C   UNL A   1      32.018  25.033  24.940  1.00  0.00     0.110 C 
ATOM     14  C   UNL A   1      33.848  25.235  23.484  1.00  0.00     0.003 C 
ATOM     15  C   UNL A   1      33.769  27.638  23.095  1.00  0.00     0.035 C 
ATOM     16  C   UNL A   1      33.439  24.612  24.598  1.00  0.00    -0.026 C 
ATOM     17  C   UNL A   1      31.004  24.008  24.423  1.00  0.00     0.036 C 
BRANCH  16  18
ATOM     18  C   UNL A   1      34.191  23.635  25.355  1.00  0.00     0.031 C 
ATOM     19  C   UNL A   1      35.200  22.854  24.899  1.00  0.00     0.117 C 
BRANCH  19  20
ATOM     20  C   UNL A   1      35.702  22.916  23.576  1.00  0.00     0.105 C 
ATOM     21  N   UNL A   1      36.152  22.942  22.497  1.00  0.00    -0.192 NA
ENDBRANCH  19  20
BRANCH  19  22
ATOM     22  C   UNL A   1      35.574  21.703  25.766  1.00  0.00     0.261 C 
ATOM     23  O   UNL A   1      36.745  21.478  26.071  1.00  0.00    -0.268 OA
ATOM     24  N   UNL A   1      34.619  21.027  26.460  1.00  0.00    -0.351 N 
ATOM     25  H   UNL A   1      34.824  20.930  27.419  1.00  0.00     0.163 HD
BRANCH  24  26
ATOM     26  C   UNL A   1      33.346  20.413  26.070  1.00  0.00     0.121 C 
BRANCH  26  27
ATOM     27  C   UNL A   1      32.945  20.607  24.577  1.00  0.00     0.059 C 
BRANCH  27  28
ATOM     28  C   UNL A   1      33.252  19.403  23.680  1.00  0.00    -0.021 A 
ATOM     29  C   UNL A   1      32.336  18.868  22.773  1.00  0.00     0.087 A 
ATOM     30  C   UNL A   1      33.896  18.203  24.129  1.00  0.00     0.003 A 
ATOM     31  N   UNL A   1      31.789  17.856  23.567  1.00  0.00    -0.361 N 
ATOM     32  C   UNL A   1      32.819  17.338  24.322  1.00  0.00     0.046 A 
ATOM     33  C   UNL A   1      35.174  17.774  24.528  1.00  0.00     0.010 A 
ATOM     34  H   UNL A   1      30.847  17.568  23.583  1.00  0.00     0.166 HD
ATOM     35  C   UNL A   1      32.883  16.189  25.104  1.00  0.00     0.026 A 
ATOM     36  C   UNL A   1      35.291  16.511  25.135  1.00  0.00     0.001 A 
ATOM     37  C   UNL A   1      34.158  15.776  25.487  1.00  0.00     0.002 A 
ENDBRANCH  27  28
ENDBRANCH  26  27
ENDBRANCH  24  26
ENDBRANCH  19  22
ENDBRANCH  16  18
ENDBRANCH   7  11
ENDBRANCH   2   4
ENDBRANCH   1   2
BRANCH   1  38
ATOM     38  C   UNL A   1      34.026  30.807  27.740  1.00  0.00     0.275 C 
BRANCH  38  39
ATOM     39  C   UNL A   1      35.106  31.905  27.628  1.00  0.00     0.275 C 
BRANCH  39  40
ATOM     40  O   UNL A   1      36.234  32.073  28.546  1.00  0.00    -0.458 OA
BRANCH  40  41
ATOM     41  C   UNL A   1      37.350  31.347  28.790  1.00  0.00     0.338 C 
ATOM     42  O   UNL A   1      37.556  30.265  28.261  1.00  0.00    -0.246 OA
BRANCH  41  43
ATOM     43  C   UNL A   1      38.284  31.901  29.764  1.00  0.00     0.060 A 
ATOM     44  C   UNL A   1      38.966  31.065  30.665  1.00  0.00     0.016 A 
ATOM     45  C   UNL A   1      38.542  33.260  29.689  1.00  0.00     0.016 A 
ATOM     46  C   UNL A   1      39.963  31.590  31.468  1.00  0.00     0.010 A 
ATOM     47  C   UNL A   1      39.658  33.733  30.307  1.00  0.00     0.010 A 
ATOM     48  C   UNL A   1      40.263  32.931  31.286  1.00  0.00    -0.014 A 
BRANCH  48  49
ATOM     49  C   UNL A   1      40.893  33.746  32.298  1.00  0.00     0.031 A 
ATOM     50  C   UNL A   1      40.077  34.319  33.367  1.00  0.00     0.074 A 
ATOM     51  C   UNL A   1      42.243  33.656  32.196  1.00  0.00     0.049 A 
ATOM     52  N   UNL A   1      40.377  35.396  33.995  1.00  0.00    -0.248 NA
ATOM     53  C   UNL A   1      38.795  33.747  33.794  1.00  0.00     0.031 C 
ATOM     54  C   UNL A   1      43.312  33.802  33.162  1.00  0.00     0.029 A 
ATOM     55  N   UNL A   1      42.967  33.282  31.065  1.00  0.00    -0.354 N 
ATOM     56  C   UNL A   1      39.619  35.369  35.148  1.00  0.00     0.074 A 
ATOM     57  C   UNL A   1      38.509  34.492  34.870  1.00  0.00     0.031 C 
ATOM     58  C   UNL A   1      44.491  33.848  32.494  1.00  0.00     0.029 A 
ATOM     59  C   UNL A   1      44.189  33.914  31.067  1.00  0.00     0.049 A 
ATOM     60  H   UNL A   1      42.652  32.660  30.369  1.00  0.00     0.167 HD
ATOM     61  C   UNL A   1      40.198  35.782  36.310  1.00  0.00     0.034 A 
ATOM     62  C   UNL A   1      44.379  34.986  30.231  1.00  0.00     0.034 A 
ATOM     63  C   UNL A   1      41.619  36.092  36.058  1.00  0.00     0.049 A 
ATOM     64  C   UNL A   1      44.470  36.284  31.027  1.00  0.00     0.074 A 
ATOM     65  C   UNL A   1      42.789  35.372  36.252  1.00  0.00     0.029 A 
ATOM     66  N   UNL A   1      41.946  37.101  35.166  1.00  0.00    -0.354 N 
ATOM     67  N   UNL A   1      44.164  36.395  32.290  1.00  0.00    -0.248 NA
ATOM     68  C   UNL A   1      44.836  37.563  30.433  1.00  0.00     0.031 C 
ATOM     69  C   UNL A   1      43.827  35.992  35.494  1.00  0.00     0.029 A 
ATOM     70  C   UNL A   1      43.289  37.075  34.826  1.00  0.00     0.049 A 
ATOM     71  H   UNL A   1      41.302  37.756  34.815  1.00  0.00     0.167 HD
ATOM     72  C   UNL A   1      44.171  37.707  32.668  1.00  0.00     0.074 A 
ATOM     73  C   UNL A   1      44.592  38.401  31.456  1.00  0.00     0.031 C 
ATOM     74  C   UNL A   1      43.794  38.109  33.926  1.00  0.00     0.034 A 
BRANCH  61  75
ATOM     75  C   UNL A   1      39.642  35.547  37.704  1.00  0.00     0.023 A 
ATOM     76  C   UNL A   1      39.444  36.690  38.511  1.00  0.00     0.012 A 
ATOM     77  C   UNL A   1      39.275  34.306  38.279  1.00  0.00     0.148 A 
ATOM     78  C   UNL A   1      38.987  36.622  39.828  1.00  0.00     0.002 A 
ATOM     79  C   UNL A   1      38.843  34.232  39.614  1.00  0.00     0.091 A 
ATOM     80  F   UNL A   1      39.290  33.198  37.526  1.00  0.00    -0.205 F 
ATOM     81  C   UNL A   1      38.704  35.390  40.388  1.00  0.00     0.022 A 
BRANCH  79  82
ATOM     82  S   UNL A   1      38.485  32.680  40.460  1.00  0.00     0.127 S 
ATOM     83  O   UNL A   1      39.823  32.221  40.845  1.00  0.00    -0.237 OA
ATOM     84  O   UNL A   1      37.655  33.114  41.581  1.00  0.00    -0.237 OA
ATOM     85  O   UNL A   1      37.825  31.831  39.476  1.00  0.00    -0.744 OA
ENDBRANCH  79  82
ENDBRANCH  61  75
BRANCH  62  86
ATOM     86  C   UNL A   1      43.635  34.870  28.912  1.00  0.00     0.023 A 
ATOM     87  C   UNL A   1      42.531  35.736  28.689  1.00  0.00     0.012 A 
ATOM     88  C   UNL A   1      44.187  34.215  27.793  1.00  0.00     0.148 A 
ATOM     89  C   UNL A   1      42.113  36.064  27.393  1.00  0.00     0.002 A 
ATOM     90  C   UNL A   1      43.752  34.532  26.504  1.00  0.00     0.091 A 
ATOM     91  F   UNL A   1      45.160  33.315  27.978  1.00  0.00    -0.205 F 
ATOM     92  C   UNL A   1      42.743  35.481  26.299  1.00  0.00     0.022 A 
BRANCH  90  93
ATOM     93  S   UNL A   1      44.585  33.836  25.065  1.00  0.00     0.127 S 
ATOM     94  O   UNL A   1      44.530  32.406  25.354  1.00  0.00    -0.237 OA
ATOM     95  O   UNL A   1      43.740  34.265  23.948  1.00  0.00    -0.237 OA
ATOM     96  O   UNL A   1      45.903  34.453  25.077  1.00  0.00    -0.744 OA
ENDBRANCH  90  93
ENDBRANCH  62  86
BRANCH  74  97
ATOM     97  C   UNL A   1      43.823  39.545  34.421  1.00  0.00     0.023 A 
ATOM     98  C   UNL A   1      43.141  40.568  33.745  1.00  0.00     0.012 A 
ATOM     99  C   UNL A   1      44.611  39.952  35.533  1.00  0.00     0.148 A 
ATOM    100  C   UNL A   1      43.092  41.876  34.234  1.00  0.00     0.002 A 
ATOM    101  C   UNL A   1      44.591  41.256  36.004  1.00  0.00     0.091 A 
ATOM    102  F   UNL A   1      45.450  39.099  36.124  1.00  0.00    -0.205 F 
ATOM    103  C   UNL A   1      43.798  42.215  35.378  1.00  0.00     0.022 A 
BRANCH 101 104
ATOM    104  S   UNL A   1      45.611  41.791  37.384  1.00  0.00     0.127 S 
ATOM    105  O   UNL A   1      46.934  41.334  36.958  1.00  0.00    -0.237 OA
ATOM    106  O   UNL A   1      45.424  43.242  37.348  1.00  0.00    -0.237 OA
ATOM    107  O   UNL A   1      45.085  41.136  38.572  1.00  0.00    -0.744 OA
ENDBRANCH 101 104
ENDBRANCH  74  97
ENDBRANCH  48  49
ENDBRANCH  41  43
ENDBRANCH  40  41
ENDBRANCH  39  40
ENDBRANCH  38  39
ENDBRANCH   1  38
TORSDOF 21
ENDMDL
