MODEL 1
REMARK VINA RESULT:     -13.8      0.000      0.000
REMARK SMILES COc1cc(C)cc2c1[C@@H](C)[C@@H](CC(=O)N[C@@H](Cc1c[nH]c3ccccc13)C(=O)OCCOC(=O)c1ccc(-c3c4nc(c(-c5cccc(S(=O)(=O)[O-])c5F)c5ccc([nH]5)c(-c5cccc(S(=O)(=O)[O-])c5F)c5nc(c(-c6cccc(S(=O)(=O)[O-])c6F)c6ccc3[nH]6)C=C5)C=C4)cc1)C(=O)O2
REMARK SMILES IDX 31 1 30 2 28 3 29 4 17 5 16 6 14 7 15 8 13 10 12 11 3 12
REMARK SMILES IDX 4 13 9 14 5 15 8 16 10 17 6 18 7 19 101 20 11 21 99 22
REMARK SMILES IDX 100 23 2 24 1 25 18 26 19 27 20 28 27 29 21 30 22 31 26 32
REMARK SMILES IDX 23 34 25 35 24 36 32 37 33 38 34 39 35 40 36 41 37 42 98 43
REMARK SMILES IDX 38 44 97 45 39 46 40 47 41 48 91 49 42 50 96 51 90 52 92 53
REMARK SMILES IDX 43 54 95 55 89 56 88 57 44 59 76 60 56 61 75 62 57 63 60 64
REMARK SMILES IDX 74 65 93 66 58 67 59 68 73 70 94 71 61 72 45 73 46 74 54 75
REMARK SMILES IDX 47 76 49 77 55 78 48 79 50 80 51 81 52 82 53 83 77 84 78 85
REMARK SMILES IDX 86 86 79 87 81 88 87 89 80 90 82 91 83 92 84 93 85 94 62 95
REMARK SMILES IDX 63 96 71 97 64 98 66 99 72 100 65 101 67 102 68 103 69 104
REMARK SMILES IDX 70 105
REMARK H PARENT 16 9 21 33 92 58 60 69
REMARK Flexibility Score: inf
ROOT
ATOM      1  C   UNL A   1      36.477  22.829  23.800  1.00  0.00     0.274 C 
ENDROOT
BRANCH   1   2
ATOM      2  O   UNL A   1      35.075  22.777  23.464  1.00  0.00    -0.461 OA
BRANCH   2   3
ATOM      3  C   UNL A   1      34.234  23.062  24.486  1.00  0.00     0.329 C 
ATOM      4  O   UNL A   1      34.588  23.533  25.566  1.00  0.00    -0.250 OA
BRANCH   3   5
ATOM      5  C   UNL A   1      32.787  22.640  24.241  1.00  0.00     0.196 C 
BRANCH   5   6
ATOM      6  N   UNL A   1      31.882  23.446  23.439  1.00  0.00    -0.342 N 
ATOM      7  C   UNL A   1      31.234  24.598  23.820  1.00  0.00     0.221 C 
ATOM      8  O   UNL A   1      30.120  24.849  23.366  1.00  0.00    -0.275 OA
ATOM      9  H   UNL A   1      31.714  23.133  22.520  1.00  0.00     0.164 HD
BRANCH   7  10
ATOM     10  C   UNL A   1      32.001  25.634  24.630  1.00  0.00     0.116 C 
BRANCH  10  11
ATOM     11  C   UNL A   1      33.291  26.258  24.048  1.00  0.00     0.116 C 
ATOM     12  C   UNL A   1      31.561  29.449  24.718  1.00  0.00     0.126 A 
ATOM     13  C   UNL A   1      30.261  29.782  24.308  1.00  0.00     0.050 A 
ATOM     14  C   UNL A   1      32.288  28.505  23.985  1.00  0.00     0.041 A 
ATOM     15  C   UNL A   1      29.685  29.191  23.165  1.00  0.00    -0.044 A 
ATOM     16  C   UNL A   1      31.763  28.089  22.751  1.00  0.00     0.138 A 
ATOM     17  C   UNL A   1      33.512  27.744  24.470  1.00  0.00     0.038 C 
ATOM     18  C   UNL A   1      28.231  29.328  22.831  1.00  0.00     0.044 C 
ATOM     19  C   UNL A   1      30.487  28.428  22.328  1.00  0.00     0.051 A 
ATOM     20  O   UNL A   1      32.461  27.177  21.941  1.00  0.00    -0.426 OA
ATOM     21  C   UNL A   1      33.860  27.808  25.959  1.00  0.00     0.014 C 
ATOM     22  C   UNL A   1      33.341  26.289  22.544  1.00  0.00     0.315 C 
ATOM     23  O   UNL A   1      34.087  25.578  21.880  1.00  0.00    -0.251 OA
BRANCH  12  24
ATOM     24  O   UNL A   1      32.201  30.050  25.761  1.00  0.00    -0.496 OA
ATOM     25  C   UNL A   1      31.628  31.244  26.288  1.00  0.00     0.278 C 
ENDBRANCH  12  24
ENDBRANCH  10  11
ENDBRANCH   7  10
ENDBRANCH   5   6
BRANCH   5  26
ATOM     26  C   UNL A   1      32.801  21.164  23.851  1.00  0.00     0.074 C 
BRANCH  26  27
ATOM     27  C   UNL A   1      33.239  20.000  24.708  1.00  0.00    -0.020 A 
ATOM     28  C   UNL A   1      33.178  20.144  26.088  1.00  0.00     0.087 A 
ATOM     29  C   UNL A   1      33.440  18.587  24.474  1.00  0.00     0.003 A 
ATOM     30  N   UNL A   1      32.907  18.918  26.618  1.00  0.00    -0.361 N 
ATOM     31  C   UNL A   1      33.094  17.945  25.672  1.00  0.00     0.046 A 
ATOM     32  C   UNL A   1      33.768  17.738  23.393  1.00  0.00     0.010 A 
ATOM     33  H   UNL A   1      32.618  18.756  27.545  1.00  0.00     0.166 HD
ATOM     34  C   UNL A   1      32.938  16.557  25.798  1.00  0.00     0.026 A 
ATOM     35  C   UNL A   1      33.687  16.341  23.519  1.00  0.00     0.001 A 
ATOM     36  C   UNL A   1      33.244  15.761  24.698  1.00  0.00     0.002 A 
ENDBRANCH  26  27
ENDBRANCH   5  26
ENDBRANCH   3   5
ENDBRANCH   2   3
ENDBRANCH   1   2
BRANCH   1  37
ATOM     37  C   UNL A   1      36.957  21.476  24.326  1.00  0.00     0.275 C 
BRANCH  37  38
ATOM     38  O   UNL A   1      37.322  21.548  25.718  1.00  0.00    -0.458 OA
BRANCH  38  39
ATOM     39  C   UNL A   1      38.631  21.286  25.976  1.00  0.00     0.338 C 
ATOM     40  O   UNL A   1      39.216  20.249  25.739  1.00  0.00    -0.246 OA
BRANCH  39  41
ATOM     41  C   UNL A   1      39.308  22.498  26.496  1.00  0.00     0.060 A 
ATOM     42  C   UNL A   1      40.439  22.454  27.322  1.00  0.00     0.016 A 
ATOM     43  C   UNL A   1      38.799  23.729  26.090  1.00  0.00     0.016 A 
ATOM     44  C   UNL A   1      41.055  23.648  27.743  1.00  0.00     0.010 A 
ATOM     45  C   UNL A   1      39.401  24.907  26.530  1.00  0.00     0.010 A 
ATOM     46  C   UNL A   1      40.534  24.892  27.363  1.00  0.00    -0.014 A 
BRANCH  46  47
ATOM     47  C   UNL A   1      41.194  26.180  27.725  1.00  0.00     0.031 A 
ATOM     48  C   UNL A   1      42.595  26.531  27.283  1.00  0.00     0.074 A 
ATOM     49  C   UNL A   1      40.559  27.006  28.579  1.00  0.00     0.049 A 
ATOM     50  N   UNL A   1      43.335  27.560  27.612  1.00  0.00    -0.248 NA
ATOM     51  C   UNL A   1      43.279  25.574  26.411  1.00  0.00     0.031 C 
ATOM     52  C   UNL A   1      39.232  26.768  29.147  1.00  0.00     0.029 A 
ATOM     53  N   UNL A   1      40.951  28.198  29.132  1.00  0.00    -0.354 N 
ATOM     54  C   UNL A   1      44.592  27.328  27.057  1.00  0.00     0.074 A 
ATOM     55  C   UNL A   1      44.519  26.043  26.396  1.00  0.00     0.031 C 
ATOM     56  C   UNL A   1      38.922  27.778  29.973  1.00  0.00     0.029 A 
ATOM     57  C   UNL A   1      40.008  28.754  29.960  1.00  0.00     0.049 A 
ATOM     58  H   UNL A   1      41.826  28.616  28.953  1.00  0.00     0.167 HD
ATOM     59  C   UNL A   1      45.692  28.123  27.059  1.00  0.00     0.034 A 
ATOM     60  C   UNL A   1      39.983  29.942  30.593  1.00  0.00     0.034 A 
ATOM     61  C   UNL A   1      45.714  29.457  27.596  1.00  0.00     0.049 A 
ATOM     62  C   UNL A   1      41.113  30.909  30.396  1.00  0.00     0.074 A 
ATOM     63  C   UNL A   1      46.733  30.393  27.544  1.00  0.00     0.029 A 
ATOM     64  N   UNL A   1      44.655  30.057  28.256  1.00  0.00    -0.354 N 
ATOM     65  N   UNL A   1      42.233  30.734  29.741  1.00  0.00    -0.248 NA
ATOM     66  C   UNL A   1      40.953  32.253  30.968  1.00  0.00     0.031 C 
ATOM     67  C   UNL A   1      46.285  31.561  28.171  1.00  0.00     0.029 A 
ATOM     68  C   UNL A   1      44.987  31.352  28.606  1.00  0.00     0.049 A 
ATOM     69  H   UNL A   1      43.792  29.623  28.449  1.00  0.00     0.167 HD
ATOM     70  C   UNL A   1      42.900  31.950  29.795  1.00  0.00     0.074 A 
ATOM     71  C   UNL A   1      42.054  32.860  30.538  1.00  0.00     0.031 C 
ATOM     72  C   UNL A   1      44.112  32.272  29.285  1.00  0.00     0.034 A 
BRANCH  59  73
ATOM     73  C   UNL A   1      46.947  27.616  26.387  1.00  0.00     0.023 A 
ATOM     74  C   UNL A   1      47.870  26.848  27.127  1.00  0.00     0.012 A 
ATOM     75  C   UNL A   1      47.180  27.832  25.012  1.00  0.00     0.148 A 
ATOM     76  C   UNL A   1      49.025  26.348  26.528  1.00  0.00     0.002 A 
ATOM     77  C   UNL A   1      48.317  27.299  24.412  1.00  0.00     0.091 A 
ATOM     78  F   UNL A   1      46.283  28.545  24.317  1.00  0.00    -0.205 F 
ATOM     79  C   UNL A   1      49.247  26.570  25.172  1.00  0.00     0.022 A 
BRANCH  77  80
ATOM     80  S   UNL A   1      48.678  27.471  22.659  1.00  0.00     0.127 S 
ATOM     81  O   UNL A   1      47.532  28.253  22.197  1.00  0.00    -0.237 OA
ATOM     82  O   UNL A   1      49.945  28.202  22.680  1.00  0.00    -0.237 OA
ATOM     83  O   UNL A   1      48.756  26.119  22.126  1.00  0.00    -0.744 OA
ENDBRANCH  77  80
ENDBRANCH  59  73
BRANCH  60  84
ATOM     84  C   UNL A   1      38.733  30.333  31.295  1.00  0.00     0.023 A 
ATOM     85  C   UNL A   1      38.662  30.132  32.688  1.00  0.00     0.012 A 
ATOM     86  C   UNL A   1      37.700  31.023  30.637  1.00  0.00     0.148 A 
ATOM     87  C   UNL A   1      37.577  30.612  33.417  1.00  0.00     0.002 A 
ATOM     88  C   UNL A   1      36.636  31.525  31.376  1.00  0.00     0.091 A 
ATOM     89  F   UNL A   1      37.803  31.207  29.313  1.00  0.00    -0.205 F 
ATOM     90  C   UNL A   1      36.570  31.317  32.764  1.00  0.00     0.022 A 
BRANCH  88  91
ATOM     91  S   UNL A   1      35.347  32.544  30.648  1.00  0.00     0.127 S 
ATOM     92  O   UNL A   1      34.387  32.636  31.747  1.00  0.00    -0.237 OA
ATOM     93  O   UNL A   1      36.070  33.782  30.356  1.00  0.00    -0.237 OA
ATOM     94  O   UNL A   1      34.892  31.818  29.472  1.00  0.00    -0.744 OA
ENDBRANCH  88  91
ENDBRANCH  60  84
BRANCH  72  95
ATOM     95  C   UNL A   1      44.628  33.670  29.477  1.00  0.00     0.023 A 
ATOM     96  C   UNL A   1      45.380  33.972  30.628  1.00  0.00     0.012 A 
ATOM     97  C   UNL A   1      44.524  34.618  28.441  1.00  0.00     0.148 A 
ATOM     98  C   UNL A   1      46.032  35.199  30.742  1.00  0.00     0.002 A 
ATOM     99  C   UNL A   1      45.203  35.825  28.546  1.00  0.00     0.091 A 
ATOM    100  F   UNL A   1      43.785  34.309  27.366  1.00  0.00    -0.205 F 
ATOM    101  C   UNL A   1      45.956  36.118  29.696  1.00  0.00     0.022 A 
BRANCH  99 102
ATOM    102  S   UNL A   1      45.241  37.031  27.214  1.00  0.00     0.127 S 
ATOM    103  O   UNL A   1      46.011  38.118  27.818  1.00  0.00    -0.237 OA
ATOM    104  O   UNL A   1      45.939  36.302  26.155  1.00  0.00    -0.237 OA
ATOM    105  O   UNL A   1      43.849  37.346  26.918  1.00  0.00    -0.744 OA
ENDBRANCH  99 102
ENDBRANCH  72  95
ENDBRANCH  46  47
ENDBRANCH  39  41
ENDBRANCH  38  39
ENDBRANCH  37  38
ENDBRANCH   1  37
TORSDOF 20
ENDMDL
MODEL 2
REMARK VINA RESULT:     -13.4      0.759      7.070
REMARK SMILES COc1cc(C)cc2c1[C@@H](C)[C@@H](CC(=O)N[C@@H](Cc1c[nH]c3ccccc13)C(=O)OCCOC(=O)c1ccc(-c3c4nc(c(-c5cccc(S(=O)(=O)[O-])c5F)c5ccc([nH]5)c(-c5cccc(S(=O)(=O)[O-])c5F)c5nc(c(-c6cccc(S(=O)(=O)[O-])c6F)c6ccc3[nH]6)C=C5)C=C4)cc1)C(=O)O2
REMARK SMILES IDX 31 1 30 2 28 3 29 4 17 5 16 6 14 7 15 8 13 10 12 11 3 12
REMARK SMILES IDX 4 13 9 14 5 15 8 16 10 17 6 18 7 19 101 20 11 21 99 22
REMARK SMILES IDX 100 23 2 24 1 25 18 26 19 27 20 28 27 29 21 30 22 31 26 32
REMARK SMILES IDX 23 34 25 35 24 36 32 37 33 38 34 39 35 40 36 41 37 42 98 43
REMARK SMILES IDX 38 44 97 45 39 46 40 47 41 48 91 49 42 50 96 51 90 52 92 53
REMARK SMILES IDX 43 54 95 55 89 56 88 57 44 59 76 60 56 61 75 62 57 63 60 64
REMARK SMILES IDX 74 65 93 66 58 67 59 68 73 70 94 71 61 72 45 73 46 74 54 75
REMARK SMILES IDX 47 76 49 77 55 78 48 79 50 80 51 81 52 82 53 83 77 84 78 85
REMARK SMILES IDX 86 86 79 87 81 88 87 89 80 90 82 91 83 92 84 93 85 94 62 95
REMARK SMILES IDX 63 96 71 97 64 98 66 99 72 100 65 101 67 102 68 103 69 104
REMARK SMILES IDX 70 105
REMARK H PARENT 16 9 21 33 92 58 60 69
REMARK Flexibility Score: inf
ROOT
ATOM      1  C   UNL A   1      36.330  22.779  23.680  1.00  0.00     0.274 C 
ENDROOT
BRANCH   1   2
ATOM      2  O   UNL A   1      34.914  22.646  23.439  1.00  0.00    -0.461 OA
BRANCH   2   3
ATOM      3  C   UNL A   1      34.123  23.027  24.470  1.00  0.00     0.329 C 
ATOM      4  O   UNL A   1      34.535  23.539  25.509  1.00  0.00    -0.250 OA
BRANCH   3   5
ATOM      5  C   UNL A   1      32.650  22.663  24.295  1.00  0.00     0.196 C 
BRANCH   5   6
ATOM      6  N   UNL A   1      31.744  23.495  23.519  1.00  0.00    -0.342 N 
ATOM      7  C   UNL A   1      31.131  24.657  23.924  1.00  0.00     0.221 C 
ATOM      8  O   UNL A   1      30.012  24.936  23.498  1.00  0.00    -0.275 OA
ATOM      9  H   UNL A   1      31.549  23.192  22.602  1.00  0.00     0.164 HD
BRANCH   7  10
ATOM     10  C   UNL A   1      31.938  25.671  24.724  1.00  0.00     0.116 C 
BRANCH  10  11
ATOM     11  C   UNL A   1      33.240  26.254  24.126  1.00  0.00     0.116 C 
ATOM     12  C   UNL A   1      31.563  29.493  24.690  1.00  0.00     0.126 A 
ATOM     13  C   UNL A   1      30.269  29.834  24.266  1.00  0.00     0.050 A 
ATOM     14  C   UNL A   1      32.275  28.514  23.989  1.00  0.00     0.041 A 
ATOM     15  C   UNL A   1      29.686  29.218  23.141  1.00  0.00    -0.044 A 
ATOM     16  C   UNL A   1      31.746  28.068  22.768  1.00  0.00     0.138 A 
ATOM     17  C   UNL A   1      33.485  27.749  24.502  1.00  0.00     0.038 C 
ATOM     18  C   UNL A   1      28.235  29.368  22.797  1.00  0.00     0.044 C 
ATOM     19  C   UNL A   1      30.477  28.415  22.331  1.00  0.00     0.051 A 
ATOM     20  O   UNL A   1      32.431  27.119  21.989  1.00  0.00    -0.426 OA
ATOM     21  C   UNL A   1      33.830  27.854  25.989  1.00  0.00     0.014 C 
ATOM     22  C   UNL A   1      33.294  26.237  22.622  1.00  0.00     0.315 C 
ATOM     23  O   UNL A   1      34.029  25.492  21.983  1.00  0.00    -0.251 OA
BRANCH  12  24
ATOM     24  O   UNL A   1      32.210  30.116  25.716  1.00  0.00    -0.496 OA
ATOM     25  C   UNL A   1      31.573  31.244  26.310  1.00  0.00     0.278 C 
ENDBRANCH  12  24
ENDBRANCH  10  11
ENDBRANCH   7  10
ENDBRANCH   5   6
BRANCH   5  26
ATOM     26  C   UNL A   1      32.585  21.182  23.929  1.00  0.00     0.074 C 
BRANCH  26  27
ATOM     27  C   UNL A   1      33.107  20.020  24.741  1.00  0.00    -0.020 A 
ATOM     28  C   UNL A   1      33.096  20.132  26.126  1.00  0.00     0.087 A 
ATOM     29  C   UNL A   1      33.357  18.623  24.467  1.00  0.00     0.003 A 
ATOM     30  N   UNL A   1      32.898  18.885  26.638  1.00  0.00    -0.361 N 
ATOM     31  C   UNL A   1      33.088  17.941  25.663  1.00  0.00     0.046 A 
ATOM     32  C   UNL A   1      33.677  17.811  23.355  1.00  0.00     0.010 A 
ATOM     33  H   UNL A   1      32.654  18.691  27.571  1.00  0.00     0.166 HD
ATOM     34  C   UNL A   1      32.996  16.546  25.764  1.00  0.00     0.026 A 
ATOM     35  C   UNL A   1      33.660  16.410  23.452  1.00  0.00     0.001 A 
ATOM     36  C   UNL A   1      33.290  15.787  24.635  1.00  0.00     0.002 A 
ENDBRANCH  26  27
ENDBRANCH   5  26
ENDBRANCH   3   5
ENDBRANCH   2   3
ENDBRANCH   1   2
BRANCH   1  37
ATOM     37  C   UNL A   1      36.900  21.493  24.277  1.00  0.00     0.275 C 
BRANCH  37  38
ATOM     38  O   UNL A   1      37.256  21.662  25.662  1.00  0.00    -0.458 OA
BRANCH  38  39
ATOM     39  C   UNL A   1      38.541  21.338  25.963  1.00  0.00     0.338 C 
ATOM     40  O   UNL A   1      39.082  20.273  25.749  1.00  0.00    -0.246 OA
BRANCH  39  41
ATOM     41  C   UNL A   1      39.261  22.519  26.499  1.00  0.00     0.060 A 
ATOM     42  C   UNL A   1      40.363  22.424  27.359  1.00  0.00     0.016 A 
ATOM     43  C   UNL A   1      38.824  23.770  26.072  1.00  0.00     0.016 A 
ATOM     44  C   UNL A   1      41.023  23.589  27.793  1.00  0.00     0.010 A 
ATOM     45  C   UNL A   1      39.470  24.921  26.525  1.00  0.00     0.010 A 
ATOM     46  C   UNL A   1      40.575  24.855  27.392  1.00  0.00    -0.014 A 
BRANCH  46  47
ATOM     47  C   UNL A   1      41.286  26.111  27.770  1.00  0.00     0.031 A 
ATOM     48  C   UNL A   1      40.638  27.200  28.591  1.00  0.00     0.074 A 
ATOM     49  C   UNL A   1      42.511  26.332  27.255  1.00  0.00     0.049 A 
ATOM     50  N   UNL A   1      41.092  28.388  28.900  1.00  0.00    -0.248 NA
ATOM     51  C   UNL A   1      39.277  26.950  29.074  1.00  0.00     0.031 C 
ATOM     52  C   UNL A   1      43.238  25.405  26.387  1.00  0.00     0.029 A 
ATOM     53  N   UNL A   1      43.351  27.411  27.369  1.00  0.00    -0.354 N 
ATOM     54  C   UNL A   1      40.045  29.052  29.537  1.00  0.00     0.074 A 
ATOM     55  C   UNL A   1      38.922  28.140  29.540  1.00  0.00     0.031 C 
ATOM     56  C   UNL A   1      44.411  25.955  26.042  1.00  0.00     0.029 A 
ATOM     57  C   UNL A   1      44.538  27.254  26.698  1.00  0.00     0.049 A 
ATOM     58  H   UNL A   1      43.124  28.220  27.884  1.00  0.00     0.167 HD
ATOM     59  C   UNL A   1      40.028  30.285  30.103  1.00  0.00     0.034 A 
ATOM     60  C   UNL A   1      45.635  28.033  26.656  1.00  0.00     0.034 A 
ATOM     61  C   UNL A   1      41.187  31.129  30.220  1.00  0.00     0.049 A 
ATOM     62  C   UNL A   1      45.683  29.287  27.478  1.00  0.00     0.074 A 
ATOM     63  C   UNL A   1      41.312  32.340  30.878  1.00  0.00     0.029 A 
ATOM     64  N   UNL A   1      42.432  30.831  29.690  1.00  0.00    -0.354 N 
ATOM     65  N   UNL A   1      44.733  29.827  28.200  1.00  0.00    -0.248 NA
ATOM     66  C   UNL A   1      46.964  30.005  27.532  1.00  0.00     0.031 C 
ATOM     67  C   UNL A   1      42.637  32.773  30.749  1.00  0.00     0.029 A 
ATOM     68  C   UNL A   1      43.334  31.826  30.016  1.00  0.00     0.049 A 
ATOM     69  H   UNL A   1      42.642  30.030  29.159  1.00  0.00     0.167 HD
ATOM     70  C   UNL A   1      45.306  30.931  28.818  1.00  0.00     0.074 A 
ATOM     71  C   UNL A   1      46.690  30.978  28.394  1.00  0.00     0.031 C 
ATOM     72  C   UNL A   1      44.726  31.830  29.648  1.00  0.00     0.034 A 
BRANCH  59  73
ATOM     73  C   UNL A   1      38.739  30.774  30.722  1.00  0.00     0.023 A 
ATOM     74  C   UNL A   1      38.539  30.638  32.111  1.00  0.00     0.012 A 
ATOM     75  C   UNL A   1      37.759  31.432  29.949  1.00  0.00     0.148 A 
ATOM     76  C   UNL A   1      37.369  31.100  32.713  1.00  0.00     0.002 A 
ATOM     77  C   UNL A   1      36.610  31.923  30.562  1.00  0.00     0.091 A 
ATOM     78  F   UNL A   1      37.973  31.574  28.633  1.00  0.00    -0.205 F 
ATOM     79  C   UNL A   1      36.408  31.745  31.941  1.00  0.00     0.022 A 
BRANCH  77  80
ATOM     80  S   UNL A   1      35.329  32.823  29.678  1.00  0.00     0.127 S 
ATOM     81  O   UNL A   1      34.954  31.859  28.642  1.00  0.00    -0.237 OA
ATOM     82  O   UNL A   1      34.322  33.019  30.719  1.00  0.00    -0.237 OA
ATOM     83  O   UNL A   1      35.954  34.042  29.187  1.00  0.00    -0.744 OA
ENDBRANCH  77  80
ENDBRANCH  59  73
BRANCH  60  84
ATOM     84  C   UNL A   1      46.839  27.507  25.962  1.00  0.00     0.023 A 
ATOM     85  C   UNL A   1      47.603  26.518  26.614  1.00  0.00     0.012 A 
ATOM     86  C   UNL A   1      47.140  27.858  24.634  1.00  0.00     0.148 A 
ATOM     87  C   UNL A   1      48.654  25.887  25.953  1.00  0.00     0.002 A 
ATOM     88  C   UNL A   1      48.170  27.201  23.972  1.00  0.00     0.091 A 
ATOM     89  F   UNL A   1      46.387  28.793  24.040  1.00  0.00    -0.205 F 
ATOM     90  C   UNL A   1      48.930  26.220  24.630  1.00  0.00     0.022 A 
BRANCH  88  91
ATOM     91  S   UNL A   1      48.533  27.476  22.233  1.00  0.00     0.127 S 
ATOM     92  O   UNL A   1      49.793  28.212  22.307  1.00  0.00    -0.237 OA
ATOM     93  O   UNL A   1      48.646  26.108  21.728  1.00  0.00    -0.237 OA
ATOM     94  O   UNL A   1      47.397  28.220  21.709  1.00  0.00    -0.744 OA
ENDBRANCH  88  91
ENDBRANCH  60  84
BRANCH  72  95
ATOM     95  C   UNL A   1      45.562  32.953  30.194  1.00  0.00     0.023 A 
ATOM     96  C   UNL A   1      46.263  32.762  31.400  1.00  0.00     0.012 A 
ATOM     97  C   UNL A   1      45.791  34.110  29.426  1.00  0.00     0.148 A 
ATOM     98  C   UNL A   1      47.193  33.708  31.830  1.00  0.00     0.002 A 
ATOM     99  C   UNL A   1      46.743  35.032  29.844  1.00  0.00     0.091 A 
ATOM    100  F   UNL A   1      45.094  34.273  28.293  1.00  0.00    -0.205 F 
ATOM    101  C   UNL A   1      47.444  34.833  31.046  1.00  0.00     0.022 A 
BRANCH  99 102
ATOM    102  S   UNL A   1      47.200  36.463  28.857  1.00  0.00     0.127 S 
ATOM    103  O   UNL A   1      47.748  37.362  29.872  1.00  0.00    -0.237 OA
ATOM    104  O   UNL A   1      48.191  35.902  27.938  1.00  0.00    -0.237 OA
ATOM    105  O   UNL A   1      45.972  36.920  28.220  1.00  0.00    -0.744 OA
ENDBRANCH  99 102
ENDBRANCH  72  95
ENDBRANCH  46  47
ENDBRANCH  39  41
ENDBRANCH  38  39
ENDBRANCH  37  38
ENDBRANCH   1  37
TORSDOF 20
ENDMDL
MODEL 3
REMARK VINA RESULT:     -12.8      1.957      2.322
REMARK SMILES COc1cc(C)cc2c1[C@@H](C)[C@@H](CC(=O)N[C@@H](Cc1c[nH]c3ccccc13)C(=O)OCCOC(=O)c1ccc(-c3c4nc(c(-c5cccc(S(=O)(=O)[O-])c5F)c5ccc([nH]5)c(-c5cccc(S(=O)(=O)[O-])c5F)c5nc(c(-c6cccc(S(=O)(=O)[O-])c6F)c6ccc3[nH]6)C=C5)C=C4)cc1)C(=O)O2
REMARK SMILES IDX 31 1 30 2 28 3 29 4 17 5 16 6 14 7 15 8 13 10 12 11 3 12
REMARK SMILES IDX 4 13 9 14 5 15 8 16 10 17 6 18 7 19 101 20 11 21 99 22
REMARK SMILES IDX 100 23 2 24 1 25 18 26 19 27 20 28 27 29 21 30 22 31 26 32
REMARK SMILES IDX 23 34 25 35 24 36 32 37 33 38 34 39 35 40 36 41 37 42 98 43
REMARK SMILES IDX 38 44 97 45 39 46 40 47 41 48 91 49 42 50 96 51 90 52 92 53
REMARK SMILES IDX 43 54 95 55 89 56 88 57 44 59 76 60 56 61 75 62 57 63 60 64
REMARK SMILES IDX 74 65 93 66 58 67 59 68 73 70 94 71 61 72 45 73 46 74 54 75
REMARK SMILES IDX 47 76 49 77 55 78 48 79 50 80 51 81 52 82 53 83 77 84 78 85
REMARK SMILES IDX 86 86 79 87 81 88 87 89 80 90 82 91 83 92 84 93 85 94 62 95
REMARK SMILES IDX 63 96 71 97 64 98 66 99 72 100 65 101 67 102 68 103 69 104
REMARK SMILES IDX 70 105
REMARK H PARENT 16 9 21 33 92 58 60 69
REMARK Flexibility Score: inf
ROOT
ATOM      1  C   UNL A   1      35.594  20.263  24.993  1.00  0.00     0.274 C 
ENDROOT
BRANCH   1   2
ATOM      2  O   UNL A   1      34.777  21.420  24.718  1.00  0.00    -0.461 OA
BRANCH   2   3
ATOM      3  C   UNL A   1      34.079  21.888  25.779  1.00  0.00     0.329 C 
ATOM      4  O   UNL A   1      34.584  22.440  26.755  1.00  0.00    -0.250 OA
BRANCH   3   5
ATOM      5  C   UNL A   1      32.585  21.574  25.732  1.00  0.00     0.196 C 
BRANCH   5   6
ATOM      6  N   UNL A   1      31.593  22.490  26.272  1.00  0.00    -0.342 N 
ATOM      7  C   UNL A   1      31.439  23.822  25.969  1.00  0.00     0.221 C 
ATOM      8  O   UNL A   1      31.039  24.601  26.831  1.00  0.00    -0.275 OA
ATOM      9  H   UNL A   1      30.961  22.113  26.928  1.00  0.00     0.164 HD
BRANCH   7  10
ATOM     10  C   UNL A   1      31.566  24.261  24.517  1.00  0.00     0.116 C 
BRANCH  10  11
ATOM     11  C   UNL A   1      32.966  24.547  23.925  1.00  0.00     0.116 C 
ATOM     12  C   UNL A   1      32.117  28.058  24.683  1.00  0.00     0.126 A 
ATOM     13  C   UNL A   1      30.940  28.722  24.301  1.00  0.00     0.050 A 
ATOM     14  C   UNL A   1      32.570  26.977  23.920  1.00  0.00     0.041 A 
ATOM     15  C   UNL A   1      30.219  28.323  23.158  1.00  0.00    -0.044 A 
ATOM     16  C   UNL A   1      31.942  26.737  22.688  1.00  0.00     0.138 A 
ATOM     17  C   UNL A   1      33.565  25.918  24.371  1.00  0.00     0.038 C 
ATOM     18  C   UNL A   1      28.845  28.834  22.850  1.00  0.00     0.044 C 
ATOM     19  C   UNL A   1      30.790  27.399  22.293  1.00  0.00     0.051 A 
ATOM     20  O   UNL A   1      32.375  25.694  21.849  1.00  0.00    -0.426 OA
ATOM     21  C   UNL A   1      33.934  25.858  25.854  1.00  0.00     0.014 C 
ATOM     22  C   UNL A   1      33.005  24.599  22.421  1.00  0.00     0.315 C 
ATOM     23  O   UNL A   1      33.536  23.735  21.732  1.00  0.00    -0.251 OA
BRANCH  12  24
ATOM     24  O   UNL A   1      32.902  28.453  25.727  1.00  0.00    -0.496 OA
ATOM     25  C   UNL A   1      33.052  29.853  25.946  1.00  0.00     0.278 C 
ENDBRANCH  12  24
ENDBRANCH  10  11
ENDBRANCH   7  10
ENDBRANCH   5   6
BRANCH   5  26
ATOM     26  C   UNL A   1      32.264  21.089  24.320  1.00  0.00     0.074 C 
BRANCH  26  27
ATOM     27  C   UNL A   1      32.224  19.659  23.836  1.00  0.00    -0.020 A 
ATOM     28  C   UNL A   1      32.130  19.433  22.468  1.00  0.00     0.087 A 
ATOM     29  C   UNL A   1      32.572  18.382  24.417  1.00  0.00     0.003 A 
ATOM     30  N   UNL A   1      32.794  18.275  22.196  1.00  0.00    -0.361 N 
ATOM     31  C   UNL A   1      33.043  17.592  23.357  1.00  0.00     0.046 A 
ATOM     32  C   UNL A   1      32.656  17.800  25.702  1.00  0.00     0.010 A 
ATOM     33  H   UNL A   1      33.056  17.973  21.297  1.00  0.00     0.166 HD
ATOM     34  C   UNL A   1      33.688  16.359  23.528  1.00  0.00     0.026 A 
ATOM     35  C   UNL A   1      33.234  16.534  25.888  1.00  0.00     0.001 A 
ATOM     36  C   UNL A   1      33.774  15.838  24.816  1.00  0.00     0.002 A 
ENDBRANCH  26  27
ENDBRANCH   5  26
ENDBRANCH   3   5
ENDBRANCH   2   3
ENDBRANCH   1   2
BRANCH   1  37
ATOM     37  C   UNL A   1      37.069  20.571  24.737  1.00  0.00     0.275 C 
BRANCH  37  38
ATOM     38  O   UNL A   1      37.610  21.450  25.743  1.00  0.00    -0.458 OA
BRANCH  38  39
ATOM     39  C   UNL A   1      38.892  21.181  26.103  1.00  0.00     0.338 C 
ATOM     40  O   UNL A   1      39.465  20.118  25.981  1.00  0.00    -0.246 OA
BRANCH  39  41
ATOM     41  C   UNL A   1      39.567  22.415  26.573  1.00  0.00     0.060 A 
ATOM     42  C   UNL A   1      40.672  22.408  27.435  1.00  0.00     0.016 A 
ATOM     43  C   UNL A   1      39.084  23.625  26.082  1.00  0.00     0.016 A 
ATOM     44  C   UNL A   1      41.288  23.618  27.806  1.00  0.00     0.010 A 
ATOM     45  C   UNL A   1      39.686  24.821  26.472  1.00  0.00     0.010 A 
ATOM     46  C   UNL A   1      40.793  24.842  27.339  1.00  0.00    -0.014 A 
BRANCH  46  47
ATOM     47  C   UNL A   1      41.456  26.144  27.648  1.00  0.00     0.031 A 
ATOM     48  C   UNL A   1      42.860  26.470  27.198  1.00  0.00     0.074 A 
ATOM     49  C   UNL A   1      40.819  27.008  28.462  1.00  0.00     0.049 A 
ATOM     50  N   UNL A   1      43.602  27.510  27.485  1.00  0.00    -0.248 NA
ATOM     51  C   UNL A   1      43.544  25.473  26.372  1.00  0.00     0.031 C 
ATOM     52  C   UNL A   1      39.489  26.800  29.034  1.00  0.00     0.029 A 
ATOM     53  N   UNL A   1      41.213  28.222  28.964  1.00  0.00    -0.354 N 
ATOM     54  C   UNL A   1      44.861  27.249  26.947  1.00  0.00     0.074 A 
ATOM     55  C   UNL A   1      44.786  25.937  26.343  1.00  0.00     0.031 C 
ATOM     56  C   UNL A   1      39.178  27.846  29.813  1.00  0.00     0.029 A 
ATOM     57  C   UNL A   1      40.267  28.817  29.762  1.00  0.00     0.049 A 
ATOM     58  H   UNL A   1      42.090  28.628  28.771  1.00  0.00     0.167 HD
ATOM     59  C   UNL A   1      45.963  28.041  26.919  1.00  0.00     0.034 A 
ATOM     60  C   UNL A   1      40.244  30.031  30.342  1.00  0.00     0.034 A 
ATOM     61  C   UNL A   1      45.988  29.397  27.398  1.00  0.00     0.049 A 
ATOM     62  C   UNL A   1      41.378  30.985  30.109  1.00  0.00     0.074 A 
ATOM     63  C   UNL A   1      47.010  30.326  27.309  1.00  0.00     0.029 A 
ATOM     64  N   UNL A   1      44.927  30.028  28.026  1.00  0.00    -0.354 N 
ATOM     65  N   UNL A   1      42.501  30.778  29.467  1.00  0.00    -0.248 NA
ATOM     66  C   UNL A   1      41.220  32.354  30.620  1.00  0.00     0.031 C 
ATOM     67  C   UNL A   1      46.563  31.522  27.883  1.00  0.00     0.029 A 
ATOM     68  C   UNL A   1      45.262  31.336  28.320  1.00  0.00     0.049 A 
ATOM     69  H   UNL A   1      44.062  29.606  28.233  1.00  0.00     0.167 HD
ATOM     70  C   UNL A   1      43.172  31.993  29.471  1.00  0.00     0.074 A 
ATOM     71  C   UNL A   1      42.325  32.938  30.170  1.00  0.00     0.031 C 
ATOM     72  C   UNL A   1      44.388  32.289  28.954  1.00  0.00     0.034 A 
BRANCH  59  73
ATOM     73  C   UNL A   1      47.220  27.500  26.276  1.00  0.00     0.023 A 
ATOM     74  C   UNL A   1      47.491  27.796  24.925  1.00  0.00     0.012 A 
ATOM     75  C   UNL A   1      48.165  26.766  27.022  1.00  0.00     0.148 A 
ATOM     76  C   UNL A   1      48.653  27.330  24.311  1.00  0.00     0.002 A 
ATOM     77  C   UNL A   1      49.341  26.334  26.412  1.00  0.00     0.091 A 
ATOM     78  F   UNL A   1      47.904  26.511  28.311  1.00  0.00    -0.205 F 
ATOM     79  C   UNL A   1      49.578  26.603  25.054  1.00  0.00     0.022 A 
BRANCH  77  80
ATOM     80  S   UNL A   1      50.632  25.440  27.287  1.00  0.00     0.127 S 
ATOM     81  O   UNL A   1      51.601  25.200  26.217  1.00  0.00    -0.237 OA
ATOM     82  O   UNL A   1      51.059  26.421  28.284  1.00  0.00    -0.237 OA
ATOM     83  O   UNL A   1      50.004  24.244  27.828  1.00  0.00    -0.744 OA
ENDBRANCH  77  80
ENDBRANCH  59  73
BRANCH  60  84
ATOM     84  C   UNL A   1      38.992  30.457  31.020  1.00  0.00     0.023 A 
ATOM     85  C   UNL A   1      38.878  30.233  32.407  1.00  0.00     0.012 A 
ATOM     86  C   UNL A   1      38.003  31.199  30.350  1.00  0.00     0.148 A 
ATOM     87  C   UNL A   1      37.793  30.740  33.119  1.00  0.00     0.002 A 
ATOM     88  C   UNL A   1      36.940  31.728  31.073  1.00  0.00     0.091 A 
ATOM     89  F   UNL A   1      38.147  31.403  29.034  1.00  0.00    -0.205 F 
ATOM     90  C   UNL A   1      36.831  31.496  32.454  1.00  0.00     0.022 A 
BRANCH  88  91
ATOM     91  S   UNL A   1      35.710  32.808  30.333  1.00  0.00     0.127 S 
ATOM     92  O   UNL A   1      36.550  33.799  29.665  1.00  0.00    -0.237 OA
ATOM     93  O   UNL A   1      35.004  31.893  29.435  1.00  0.00    -0.237 OA
ATOM     94  O   UNL A   1      34.907  33.304  31.441  1.00  0.00    -0.744 OA
ENDBRANCH  88  91
ENDBRANCH  60  84
BRANCH  72  95
ATOM     95  C   UNL A   1      44.908  33.692  29.086  1.00  0.00     0.023 A 
ATOM     96  C   UNL A   1      44.589  34.638  28.094  1.00  0.00     0.012 A 
ATOM     97  C   UNL A   1      45.546  34.107  30.270  1.00  0.00     0.148 A 
ATOM     98  C   UNL A   1      44.891  35.986  28.284  1.00  0.00     0.002 A 
ATOM     99  C   UNL A   1      45.815  35.456  30.467  1.00  0.00     0.091 A 
ATOM    100  F   UNL A   1      45.854  33.180  31.188  1.00  0.00    -0.205 F 
ATOM    101  C   UNL A   1      45.489  36.396  29.475  1.00  0.00     0.022 A 
BRANCH  99 102
ATOM    102  S   UNL A   1      46.497  36.091  32.004  1.00  0.00     0.127 S 
ATOM    103  O   UNL A   1      45.499  35.651  32.978  1.00  0.00    -0.237 OA
ATOM    104  O   UNL A   1      47.780  35.391  32.085  1.00  0.00    -0.237 OA
ATOM    105  O   UNL A   1      46.604  37.533  31.831  1.00  0.00    -0.744 OA
ENDBRANCH  99 102
ENDBRANCH  72  95
ENDBRANCH  46  47
ENDBRANCH  39  41
ENDBRANCH  38  39
ENDBRANCH  37  38
ENDBRANCH   1  37
TORSDOF 20
ENDMDL
