MODEL 1
REMARK VINA RESULT:     -11.8      0.000      0.000
REMARK SMILES CSCC[C@H](NC(=O)N[C@@H]1CCCCC1(C)C)C(=O)OCCOC(=O)c1ccc(-c2c3nc(c(-c4cccc(S(=O)(=O)[O-])c4F)c4ccc([nH]4)c(-c4cccc(S(=O)(=O)[O-])c4F)c4nc(c(-c5cccc(S(=O)(=O)[O-])c5F)c5ccc2[nH]5)C=C4)C=C3)cc1
REMARK SMILES IDX 21 1 20 2 18 3 19 4 5 5 4 6 3 7 2 8 1 9 6 10 7 11 8 13 9 14
REMARK SMILES IDX 10 16 11 17 15 18 12 19 14 20 16 21 17 22 13 23 22 24 23 25
REMARK SMILES IDX 24 26 25 27 26 28 27 29 88 30 28 31 87 32 29 33 30 34 31 35
REMARK SMILES IDX 81 36 32 37 86 38 80 39 82 40 33 41 85 42 79 43 78 44 34 46
REMARK SMILES IDX 66 47 46 48 65 49 47 50 50 51 64 52 83 53 48 54 49 55 63 57
REMARK SMILES IDX 84 58 51 59 35 60 36 61 44 62 37 63 39 64 45 65 38 66 40 67
REMARK SMILES IDX 41 68 42 69 43 70 67 71 68 72 76 73 69 74 71 75 77 76 70 77
REMARK SMILES IDX 72 78 73 79 74 80 75 81 52 82 53 83 61 84 54 85 56 86 62 87
REMARK SMILES IDX 55 88 57 89 58 90 59 91 60 92
REMARK H PARENT 6 12 9 15 82 45 50 56
REMARK Flexibility Score: inf
ROOT
ATOM      1  C   UNL A   1      32.144  28.938  25.232  1.00  0.00     0.274 C 
ENDROOT
BRANCH   1   2
ATOM      2  O   UNL A   1      31.034  28.017  25.234  1.00  0.00    -0.461 OA
BRANCH   2   3
ATOM      3  C   UNL A   1      31.105  27.054  26.199  1.00  0.00     0.328 C 
ATOM      4  O   UNL A   1      31.332  27.293  27.380  1.00  0.00    -0.250 OA
BRANCH   3   5
ATOM      5  C   UNL A   1      31.134  25.633  25.618  1.00  0.00     0.194 C 
BRANCH   5   6
ATOM      6  C   UNL A   1      30.455  25.715  24.234  1.00  0.00     0.048 C 
BRANCH   6   7
ATOM      7  C   UNL A   1      31.253  25.126  23.063  1.00  0.00     0.072 C 
BRANCH   7   8
ATOM      8  S   UNL A   1      32.445  26.269  22.291  1.00  0.00    -0.165 SA
ATOM      9  C   UNL A   1      32.447  25.652  20.581  1.00  0.00     0.085 C 
ENDBRANCH   7   8
ENDBRANCH   6   7
ENDBRANCH   5   6
BRANCH   5  10
ATOM     10  N   UNL A   1      30.421  24.678  26.478  1.00  0.00    -0.325 N 
ATOM     11  C   UNL A   1      30.513  23.373  26.763  1.00  0.00     0.315 C 
ATOM     12  H   UNL A   1      29.689  25.110  26.975  1.00  0.00     0.166 HD
ATOM     13  O   UNL A   1      29.695  22.916  27.567  1.00  0.00    -0.249 OA
ATOM     14  N   UNL A   1      31.403  22.516  26.246  1.00  0.00    -0.335 N 
ATOM     15  H   UNL A   1      31.275  21.601  26.587  1.00  0.00     0.165 HD
BRANCH  14  16
ATOM     16  C   UNL A   1      32.520  22.600  25.299  1.00  0.00     0.089 C 
ATOM     17  C   UNL A   1      32.233  21.715  24.073  1.00  0.00     0.025 C 
ATOM     18  C   UNL A   1      33.924  22.246  25.929  1.00  0.00    -0.015 C 
ATOM     19  C   UNL A   1      32.416  20.226  24.328  1.00  0.00     0.002 C 
ATOM     20  C   UNL A   1      34.129  20.714  26.071  1.00  0.00     0.008 C 
ATOM     21  C   UNL A   1      35.031  22.833  25.017  1.00  0.00     0.013 C 
ATOM     22  C   UNL A   1      34.134  22.854  27.333  1.00  0.00     0.013 C 
ATOM     23  C   UNL A   1      33.824  19.929  24.803  1.00  0.00     0.001 C 
ENDBRANCH  14  16
ENDBRANCH   5  10
ENDBRANCH   3   5
ENDBRANCH   2   3
ENDBRANCH   1   2
BRANCH   1  24
ATOM     24  C   UNL A   1      31.784  30.334  25.754  1.00  0.00     0.275 C 
BRANCH  24  25
ATOM     25  O   UNL A   1      32.215  30.549  27.109  1.00  0.00    -0.458 OA
BRANCH  25  26
ATOM     26  C   UNL A   1      32.945  31.674  27.280  1.00  0.00     0.338 C 
ATOM     27  O   UNL A   1      32.510  32.824  27.282  1.00  0.00    -0.246 OA
BRANCH  26  28
ATOM     28  C   UNL A   1      34.339  31.365  27.637  1.00  0.00     0.060 A 
ATOM     29  C   UNL A   1      34.666  30.019  27.829  1.00  0.00     0.016 A 
ATOM     30  C   UNL A   1      35.276  32.365  27.908  1.00  0.00     0.016 A 
ATOM     31  C   UNL A   1      35.906  29.672  28.351  1.00  0.00     0.010 A 
ATOM     32  C   UNL A   1      36.515  32.012  28.459  1.00  0.00     0.010 A 
ATOM     33  C   UNL A   1      36.812  30.666  28.734  1.00  0.00    -0.014 A 
BRANCH  33  34
ATOM     34  C   UNL A   1      37.948  30.286  29.610  1.00  0.00     0.031 A 
ATOM     35  C   UNL A   1      38.999  29.353  29.065  1.00  0.00     0.074 A 
ATOM     36  C   UNL A   1      38.094  30.814  30.839  1.00  0.00     0.049 A 
ATOM     37  N   UNL A   1      40.069  28.878  29.647  1.00  0.00    -0.248 NA
ATOM     38  C   UNL A   1      38.820  28.898  27.675  1.00  0.00     0.031 C 
ATOM     39  C   UNL A   1      37.177  31.764  31.465  1.00  0.00     0.029 A 
ATOM     40  N   UNL A   1      39.071  30.614  31.782  1.00  0.00    -0.354 N 
ATOM     41  C   UNL A   1      40.669  28.041  28.713  1.00  0.00     0.074 A 
ATOM     42  C   UNL A   1      39.843  28.069  27.526  1.00  0.00     0.031 C 
ATOM     43  C   UNL A   1      37.624  32.048  32.701  1.00  0.00     0.029 A 
ATOM     44  C   UNL A   1      38.845  31.285  32.959  1.00  0.00     0.049 A 
ATOM     45  H   UNL A   1      39.859  30.044  31.629  1.00  0.00     0.167 HD
ATOM     46  C   UNL A   1      41.813  27.325  28.822  1.00  0.00     0.034 A 
ATOM     47  C   UNL A   1      39.538  31.273  34.116  1.00  0.00     0.034 A 
ATOM     48  C   UNL A   1      42.662  27.326  29.981  1.00  0.00     0.049 A 
ATOM     49  C   UNL A   1      40.804  30.460  34.214  1.00  0.00     0.074 A 
ATOM     50  C   UNL A   1      43.847  26.639  30.180  1.00  0.00     0.029 A 
ATOM     51  N   UNL A   1      42.424  28.056  31.133  1.00  0.00    -0.354 N 
ATOM     52  N   UNL A   1      41.396  29.736  33.296  1.00  0.00    -0.248 NA
ATOM     53  C   UNL A   1      41.515  30.490  35.502  1.00  0.00     0.031 C 
ATOM     54  C   UNL A   1      44.324  26.952  31.457  1.00  0.00     0.029 A 
ATOM     55  C   UNL A   1      43.441  27.843  32.047  1.00  0.00     0.049 A 
ATOM     56  H   UNL A   1      41.646  28.641  31.281  1.00  0.00     0.167 HD
ATOM     57  C   UNL A   1      42.566  29.261  33.879  1.00  0.00     0.074 A 
ATOM     58  C   UNL A   1      42.610  29.793  35.224  1.00  0.00     0.031 C 
ATOM     59  C   UNL A   1      43.512  28.442  33.355  1.00  0.00     0.034 A 
BRANCH  46  60
ATOM     60  C   UNL A   1      42.227  26.498  27.636  1.00  0.00     0.023 A 
ATOM     61  C   UNL A   1      42.987  27.090  26.608  1.00  0.00     0.012 A 
ATOM     62  C   UNL A   1      41.901  25.131  27.559  1.00  0.00     0.148 A 
ATOM     63  C   UNL A   1      43.393  26.339  25.505  1.00  0.00     0.002 A 
ATOM     64  C   UNL A   1      42.341  24.380  26.475  1.00  0.00     0.091 A 
ATOM     65  F   UNL A   1      41.152  24.595  28.534  1.00  0.00    -0.205 F 
ATOM     66  C   UNL A   1      43.080  24.984  25.444  1.00  0.00     0.022 A 
BRANCH  64  67
ATOM     67  S   UNL A   1      42.042  22.612  26.347  1.00  0.00     0.127 S 
ATOM     68  O   UNL A   1      42.720  22.111  27.543  1.00  0.00    -0.237 OA
ATOM     69  O   UNL A   1      40.582  22.539  26.398  1.00  0.00    -0.237 OA
ATOM     70  O   UNL A   1      42.623  22.202  25.077  1.00  0.00    -0.744 OA
ENDBRANCH  64  67
ENDBRANCH  46  60
BRANCH  47  71
ATOM     71  C   UNL A   1      39.074  32.092  35.271  1.00  0.00     0.023 A 
ATOM     72  C   UNL A   1      39.248  33.490  35.242  1.00  0.00     0.012 A 
ATOM     73  C   UNL A   1      38.461  31.500  36.391  1.00  0.00     0.148 A 
ATOM     74  C   UNL A   1      38.849  34.278  36.322  1.00  0.00     0.002 A 
ATOM     75  C   UNL A   1      38.017  32.296  37.439  1.00  0.00     0.091 A 
ATOM     76  F   UNL A   1      38.326  30.166  36.412  1.00  0.00    -0.205 F 
ATOM     77  C   UNL A   1      38.224  33.684  37.415  1.00  0.00     0.022 A 
BRANCH  75  78
ATOM     78  S   UNL A   1      37.092  31.624  38.825  1.00  0.00     0.127 S 
ATOM     79  O   UNL A   1      35.918  32.493  38.852  1.00  0.00    -0.237 OA
ATOM     80  O   UNL A   1      36.834  30.252  38.385  1.00  0.00    -0.237 OA
ATOM     81  O   UNL A   1      37.986  31.723  39.972  1.00  0.00    -0.744 OA
ENDBRANCH  75  78
ENDBRANCH  47  71
BRANCH  59  82
ATOM     82  C   UNL A   1      44.703  28.102  34.211  1.00  0.00     0.023 A 
ATOM     83  C   UNL A   1      45.807  28.975  34.253  1.00  0.00     0.012 A 
ATOM     84  C   UNL A   1      44.696  26.958  35.035  1.00  0.00     0.148 A 
ATOM     85  C   UNL A   1      46.897  28.702  35.079  1.00  0.00     0.002 A 
ATOM     86  C   UNL A   1      45.768  26.714  35.887  1.00  0.00     0.091 A 
ATOM     87  F   UNL A   1      43.648  26.124  34.967  1.00  0.00    -0.205 F 
ATOM     88  C   UNL A   1      46.873  27.579  35.903  1.00  0.00     0.022 A 
BRANCH  86  89
ATOM     89  S   UNL A   1      45.764  25.339  37.043  1.00  0.00     0.127 S 
ATOM     90  O   UNL A   1      46.108  24.215  36.175  1.00  0.00    -0.237 OA
ATOM     91  O   UNL A   1      46.811  25.717  37.993  1.00  0.00    -0.237 OA
ATOM     92  O   UNL A   1      44.423  25.313  37.614  1.00  0.00    -0.744 OA
ENDBRANCH  86  89
ENDBRANCH  59  82
ENDBRANCH  33  34
ENDBRANCH  26  28
ENDBRANCH  25  26
ENDBRANCH  24  25
ENDBRANCH   1  24
TORSDOF 19
ENDMDL
MODEL 2
REMARK VINA RESULT:     -11.7      1.497      7.695
REMARK SMILES CSCC[C@H](NC(=O)N[C@@H]1CCCCC1(C)C)C(=O)OCCOC(=O)c1ccc(-c2c3nc(c(-c4cccc(S(=O)(=O)[O-])c4F)c4ccc([nH]4)c(-c4cccc(S(=O)(=O)[O-])c4F)c4nc(c(-c5cccc(S(=O)(=O)[O-])c5F)c5ccc2[nH]5)C=C4)C=C3)cc1
REMARK SMILES IDX 21 1 20 2 18 3 19 4 5 5 4 6 3 7 2 8 1 9 6 10 7 11 8 13 9 14
REMARK SMILES IDX 10 16 11 17 15 18 12 19 14 20 16 21 17 22 13 23 22 24 23 25
REMARK SMILES IDX 24 26 25 27 26 28 27 29 88 30 28 31 87 32 29 33 30 34 31 35
REMARK SMILES IDX 81 36 32 37 86 38 80 39 82 40 33 41 85 42 79 43 78 44 34 46
REMARK SMILES IDX 66 47 46 48 65 49 47 50 50 51 64 52 83 53 48 54 49 55 63 57
REMARK SMILES IDX 84 58 51 59 35 60 36 61 44 62 37 63 39 64 45 65 38 66 40 67
REMARK SMILES IDX 41 68 42 69 43 70 67 71 68 72 76 73 69 74 71 75 77 76 70 77
REMARK SMILES IDX 72 78 73 79 74 80 75 81 52 82 53 83 61 84 54 85 56 86 62 87
REMARK SMILES IDX 55 88 57 89 58 90 59 91 60 92
REMARK H PARENT 6 12 9 15 82 45 50 56
REMARK Flexibility Score: inf
ROOT
ATOM      1  C   UNL A   1      32.306  29.642  25.396  1.00  0.00     0.274 C 
ENDROOT
BRANCH   1   2
ATOM      2  O   UNL A   1      31.629  28.408  25.703  1.00  0.00    -0.461 OA
BRANCH   2   3
ATOM      3  C   UNL A   1      32.462  27.363  25.983  1.00  0.00     0.328 C 
ATOM      4  O   UNL A   1      33.554  27.494  26.525  1.00  0.00    -0.250 OA
BRANCH   3   5
ATOM      5  C   UNL A   1      32.016  26.053  25.319  1.00  0.00     0.194 C 
BRANCH   5   6
ATOM      6  C   UNL A   1      31.224  26.453  24.056  1.00  0.00     0.048 C 
BRANCH   6   7
ATOM      7  C   UNL A   1      31.274  25.454  22.892  1.00  0.00     0.072 C 
BRANCH   7   8
ATOM      8  S   UNL A   1      32.445  25.879  21.561  1.00  0.00    -0.165 SA
ATOM      9  C   UNL A   1      33.304  27.298  22.306  1.00  0.00     0.085 C 
ENDBRANCH   7   8
ENDBRANCH   6   7
ENDBRANCH   5   6
BRANCH   5  10
ATOM     10  N   UNL A   1      31.173  25.248  26.214  1.00  0.00    -0.325 N 
ATOM     11  C   UNL A   1      30.989  23.946  26.462  1.00  0.00     0.315 C 
ATOM     12  H   UNL A   1      30.596  25.812  26.778  1.00  0.00     0.166 HD
ATOM     13  O   UNL A   1      30.152  23.651  27.321  1.00  0.00    -0.249 OA
ATOM     14  N   UNL A   1      31.621  22.932  25.855  1.00  0.00    -0.335 N 
ATOM     15  H   UNL A   1      31.317  22.056  26.186  1.00  0.00     0.165 HD
BRANCH  14  16
ATOM     16  C   UNL A   1      32.654  22.802  24.822  1.00  0.00     0.089 C 
ATOM     17  C   UNL A   1      32.239  21.728  23.801  1.00  0.00     0.025 C 
ATOM     18  C   UNL A   1      34.098  22.506  25.391  1.00  0.00    -0.015 C 
ATOM     19  C   UNL A   1      32.404  20.300  24.303  1.00  0.00     0.002 C 
ATOM     20  C   UNL A   1      34.273  21.016  25.787  1.00  0.00     0.008 C 
ATOM     21  C   UNL A   1      35.137  22.877  24.302  1.00  0.00     0.013 C 
ATOM     22  C   UNL A   1      34.444  23.342  26.642  1.00  0.00     0.013 C 
ATOM     23  C   UNL A   1      33.840  20.034  24.708  1.00  0.00     0.001 C 
ENDBRANCH  14  16
ENDBRANCH   5  10
ENDBRANCH   3   5
ENDBRANCH   2   3
ENDBRANCH   1   2
BRANCH   1  24
ATOM     24  C   UNL A   1      31.840  30.828  26.250  1.00  0.00     0.275 C 
BRANCH  24  25
ATOM     25  O   UNL A   1      32.540  30.919  27.503  1.00  0.00    -0.458 OA
BRANCH  25  26
ATOM     26  C   UNL A   1      33.379  31.975  27.585  1.00  0.00     0.338 C 
ATOM     27  O   UNL A   1      33.050  33.160  27.608  1.00  0.00    -0.246 OA
BRANCH  26  28
ATOM     28  C   UNL A   1      34.768  31.546  27.816  1.00  0.00     0.060 A 
ATOM     29  C   UNL A   1      35.004  30.171  27.910  1.00  0.00     0.016 A 
ATOM     30  C   UNL A   1      35.796  32.457  28.065  1.00  0.00     0.016 A 
ATOM     31  C   UNL A   1      36.248  29.704  28.314  1.00  0.00     0.010 A 
ATOM     32  C   UNL A   1      37.042  31.984  28.498  1.00  0.00     0.010 A 
ATOM     33  C   UNL A   1      37.254  30.606  28.677  1.00  0.00    -0.014 A 
BRANCH  33  34
ATOM     34  C   UNL A   1      38.419  30.093  29.440  1.00  0.00     0.031 A 
ATOM     35  C   UNL A   1      38.602  30.543  30.867  1.00  0.00     0.074 A 
ATOM     36  C   UNL A   1      39.259  29.185  28.912  1.00  0.00     0.049 A 
ATOM     37  N   UNL A   1      39.544  30.236  31.720  1.00  0.00    -0.248 NA
ATOM     38  C   UNL A   1      37.582  31.460  31.405  1.00  0.00     0.031 C 
ATOM     39  C   UNL A   1      39.166  28.630  27.563  1.00  0.00     0.029 A 
ATOM     40  N   UNL A   1      40.365  28.577  29.452  1.00  0.00    -0.354 N 
ATOM     41  C   UNL A   1      39.255  30.948  32.878  1.00  0.00     0.074 A 
ATOM     42  C   UNL A   1      38.051  31.708  32.619  1.00  0.00     0.031 C 
ATOM     43  C   UNL A   1      40.189  27.778  27.373  1.00  0.00     0.029 A 
ATOM     44  C   UNL A   1      41.018  27.743  28.577  1.00  0.00     0.049 A 
ATOM     45  H   UNL A   1      40.661  28.723  30.380  1.00  0.00     0.167 HD
ATOM     46  C   UNL A   1      39.918  30.961  34.058  1.00  0.00     0.034 A 
ATOM     47  C   UNL A   1      42.161  27.044  28.727  1.00  0.00     0.034 A 
ATOM     48  C   UNL A   1      41.089  30.176  34.337  1.00  0.00     0.049 A 
ATOM     49  C   UNL A   1      42.885  27.082  30.049  1.00  0.00     0.074 A 
ATOM     50  C   UNL A   1      41.825  30.116  35.509  1.00  0.00     0.029 A 
ATOM     51  N   UNL A   1      41.690  29.309  33.441  1.00  0.00    -0.354 N 
ATOM     52  N   UNL A   1      42.555  27.700  31.157  1.00  0.00    -0.248 NA
ATOM     53  C   UNL A   1      44.125  26.295  30.151  1.00  0.00     0.031 C 
ATOM     54  C   UNL A   1      42.875  29.212  35.318  1.00  0.00     0.029 A 
ATOM     55  C   UNL A   1      42.785  28.702  34.032  1.00  0.00     0.049 A 
ATOM     56  H   UNL A   1      41.384  29.147  32.520  1.00  0.00     0.167 HD
ATOM     57  C   UNL A   1      43.519  27.345  32.095  1.00  0.00     0.074 A 
ATOM     58  C   UNL A   1      44.436  26.443  31.433  1.00  0.00     0.031 C 
ATOM     59  C   UNL A   1      43.644  27.745  33.385  1.00  0.00     0.034 A 
BRANCH  46  60
ATOM     60  C   UNL A   1      39.370  31.836  35.151  1.00  0.00     0.023 A 
ATOM     61  C   UNL A   1      38.383  31.327  36.019  1.00  0.00     0.012 A 
ATOM     62  C   UNL A   1      39.857  33.143  35.344  1.00  0.00     0.148 A 
ATOM     63  C   UNL A   1      37.869  32.117  37.048  1.00  0.00     0.002 A 
ATOM     64  C   UNL A   1      39.366  33.910  36.394  1.00  0.00     0.091 A 
ATOM     65  F   UNL A   1      40.774  33.617  34.488  1.00  0.00    -0.205 F 
ATOM     66  C   UNL A   1      38.368  33.402  37.242  1.00  0.00     0.022 A 
BRANCH  64  67
ATOM     67  S   UNL A   1      40.000  35.552  36.760  1.00  0.00     0.127 S 
ATOM     68  O   UNL A   1      39.574  36.302  35.579  1.00  0.00    -0.237 OA
ATOM     69  O   UNL A   1      39.285  35.895  37.990  1.00  0.00    -0.237 OA
ATOM     70  O   UNL A   1      41.438  35.395  36.922  1.00  0.00    -0.744 OA
ENDBRANCH  64  67
ENDBRANCH  46  60
BRANCH  47  71
ATOM     71  C   UNL A   1      42.676  26.208  27.606  1.00  0.00     0.023 A 
ATOM     72  C   UNL A   1      43.617  26.754  26.712  1.00  0.00     0.012 A 
ATOM     73  C   UNL A   1      42.243  24.881  27.422  1.00  0.00     0.148 A 
ATOM     74  C   UNL A   1      44.094  26.003  25.637  1.00  0.00     0.002 A 
ATOM     75  C   UNL A   1      42.763  24.121  26.381  1.00  0.00     0.091 A 
ATOM     76  F   UNL A   1      41.328  24.387  28.268  1.00  0.00    -0.205 F 
ATOM     77  C   UNL A   1      43.676  24.685  25.478  1.00  0.00     0.022 A 
BRANCH  75  78
ATOM     78  S   UNL A   1      42.370  22.380  26.182  1.00  0.00     0.127 S 
ATOM     79  O   UNL A   1      42.858  21.817  27.439  1.00  0.00    -0.237 OA
ATOM     80  O   UNL A   1      40.914  22.407  26.042  1.00  0.00    -0.237 OA
ATOM     81  O   UNL A   1      43.076  21.959  24.978  1.00  0.00    -0.744 OA
ENDBRANCH  75  78
ENDBRANCH  47  71
BRANCH  59  82
ATOM     82  C   UNL A   1      44.785  27.180  34.190  1.00  0.00     0.023 A 
ATOM     83  C   UNL A   1      46.044  27.810  34.157  1.00  0.00     0.012 A 
ATOM     84  C   UNL A   1      44.589  26.072  35.040  1.00  0.00     0.148 A 
ATOM     85  C   UNL A   1      47.097  27.331  34.935  1.00  0.00     0.002 A 
ATOM     86  C   UNL A   1      45.632  25.626  35.844  1.00  0.00     0.091 A 
ATOM     87  F   UNL A   1      43.391  25.468  35.043  1.00  0.00    -0.205 F 
ATOM     88  C   UNL A   1      46.889  26.247  35.786  1.00  0.00     0.022 A 
BRANCH  86  89
ATOM     89  S   UNL A   1      45.410  24.295  37.030  1.00  0.00     0.127 S 
ATOM     90  O   UNL A   1      45.086  23.167  36.161  1.00  0.00    -0.237 OA
ATOM     91  O   UNL A   1      46.725  24.213  37.668  1.00  0.00    -0.237 OA
ATOM     92  O   UNL A   1      44.343  24.739  37.919  1.00  0.00    -0.744 OA
ENDBRANCH  86  89
ENDBRANCH  59  82
ENDBRANCH  33  34
ENDBRANCH  26  28
ENDBRANCH  25  26
ENDBRANCH  24  25
ENDBRANCH   1  24
TORSDOF 19
ENDMDL
MODEL 3
REMARK VINA RESULT:     -11.6      5.372     10.141
REMARK SMILES CSCC[C@H](NC(=O)N[C@@H]1CCCCC1(C)C)C(=O)OCCOC(=O)c1ccc(-c2c3nc(c(-c4cccc(S(=O)(=O)[O-])c4F)c4ccc([nH]4)c(-c4cccc(S(=O)(=O)[O-])c4F)c4nc(c(-c5cccc(S(=O)(=O)[O-])c5F)c5ccc2[nH]5)C=C4)C=C3)cc1
REMARK SMILES IDX 21 1 20 2 18 3 19 4 5 5 4 6 3 7 2 8 1 9 6 10 7 11 8 13 9 14
REMARK SMILES IDX 10 16 11 17 15 18 12 19 14 20 16 21 17 22 13 23 22 24 23 25
REMARK SMILES IDX 24 26 25 27 26 28 27 29 88 30 28 31 87 32 29 33 30 34 31 35
REMARK SMILES IDX 81 36 32 37 86 38 80 39 82 40 33 41 85 42 79 43 78 44 34 46
REMARK SMILES IDX 66 47 46 48 65 49 47 50 50 51 64 52 83 53 48 54 49 55 63 57
REMARK SMILES IDX 84 58 51 59 35 60 36 61 44 62 37 63 39 64 45 65 38 66 40 67
REMARK SMILES IDX 41 68 42 69 43 70 67 71 68 72 76 73 69 74 71 75 77 76 70 77
REMARK SMILES IDX 72 78 73 79 74 80 75 81 52 82 53 83 61 84 54 85 56 86 62 87
REMARK SMILES IDX 55 88 57 89 58 90 59 91 60 92
REMARK H PARENT 6 12 9 15 82 45 50 56
REMARK Flexibility Score: inf
ROOT
ATOM      1  C   UNL A   1      36.149  19.906  25.004  1.00  0.00     0.274 C 
ENDROOT
BRANCH   1   2
ATOM      2  O   UNL A   1      35.631  21.225  24.743  1.00  0.00    -0.461 OA
BRANCH   2   3
ATOM      3  C   UNL A   1      34.647  21.624  25.602  1.00  0.00     0.328 C 
ATOM      4  O   UNL A   1      34.759  21.590  26.822  1.00  0.00    -0.250 OA
BRANCH   3   5
ATOM      5  C   UNL A   1      33.306  21.868  24.896  1.00  0.00     0.194 C 
BRANCH   5   6
ATOM      6  C   UNL A   1      32.531  20.535  24.962  1.00  0.00     0.048 C 
BRANCH   6   7
ATOM      7  C   UNL A   1      32.435  19.752  23.646  1.00  0.00     0.072 C 
BRANCH   7   8
ATOM      8  S   UNL A   1      33.068  18.044  23.717  1.00  0.00    -0.165 SA
ATOM      9  C   UNL A   1      32.506  17.544  25.373  1.00  0.00     0.085 C 
ENDBRANCH   7   8
ENDBRANCH   6   7
ENDBRANCH   5   6
BRANCH   5  10
ATOM     10  N   UNL A   1      33.493  22.279  23.497  1.00  0.00    -0.325 N 
ATOM     11  C   UNL A   1      33.286  23.387  22.776  1.00  0.00     0.315 C 
ATOM     12  H   UNL A   1      33.870  21.552  22.950  1.00  0.00     0.166 HD
ATOM     13  O   UNL A   1      33.577  23.338  21.577  1.00  0.00    -0.249 OA
ATOM     14  N   UNL A   1      32.781  24.540  23.233  1.00  0.00    -0.335 N 
ATOM     15  H   UNL A   1      32.702  25.216  22.522  1.00  0.00     0.165 HD
BRANCH  14  16
ATOM     16  C   UNL A   1      32.316  25.047  24.528  1.00  0.00     0.089 C 
ATOM     17  C   UNL A   1      30.851  24.634  24.755  1.00  0.00     0.025 C 
ATOM     18  C   UNL A   1      32.493  26.606  24.709  1.00  0.00    -0.015 C 
ATOM     19  C   UNL A   1      29.847  25.449  23.951  1.00  0.00     0.002 C 
ATOM     20  C   UNL A   1      31.387  27.407  23.973  1.00  0.00     0.008 C 
ATOM     21  C   UNL A   1      32.444  26.930  26.224  1.00  0.00     0.013 C 
ATOM     22  C   UNL A   1      33.847  27.131  24.184  1.00  0.00     0.013 C 
ATOM     23  C   UNL A   1      29.974  26.925  24.267  1.00  0.00     0.001 C 
ENDBRANCH  14  16
ENDBRANCH   5  10
ENDBRANCH   3   5
ENDBRANCH   2   3
ENDBRANCH   1   2
BRANCH   1  24
ATOM     24  C   UNL A   1      37.674  19.808  24.878  1.00  0.00     0.275 C 
BRANCH  24  25
ATOM     25  O   UNL A   1      38.343  21.015  25.280  1.00  0.00    -0.458 OA
BRANCH  25  26
ATOM     26  C   UNL A   1      39.400  20.810  26.097  1.00  0.00     0.338 C 
ATOM     27  O   UNL A   1      40.059  19.775  26.180  1.00  0.00    -0.246 OA
BRANCH  26  28
ATOM     28  C   UNL A   1      39.797  22.046  26.788  1.00  0.00     0.060 A 
ATOM     29  C   UNL A   1      39.195  23.235  26.367  1.00  0.00     0.016 A 
ATOM     30  C   UNL A   1      40.825  22.072  27.734  1.00  0.00     0.016 A 
ATOM     31  C   UNL A   1      39.659  24.457  26.840  1.00  0.00     0.010 A 
ATOM     32  C   UNL A   1      41.308  23.307  28.188  1.00  0.00     0.010 A 
ATOM     33  C   UNL A   1      40.761  24.506  27.699  1.00  0.00    -0.014 A 
BRANCH  33  34
ATOM     34  C   UNL A   1      41.450  25.807  27.889  1.00  0.00     0.031 A 
ATOM     35  C   UNL A   1      40.728  26.906  28.626  1.00  0.00     0.074 A 
ATOM     36  C   UNL A   1      42.721  25.993  27.487  1.00  0.00     0.049 A 
ATOM     37  N   UNL A   1      41.125  28.121  28.900  1.00  0.00    -0.248 NA
ATOM     38  C   UNL A   1      39.378  26.589  29.122  1.00  0.00     0.031 C 
ATOM     39  C   UNL A   1      43.548  24.997  26.808  1.00  0.00     0.029 A 
ATOM     40  N   UNL A   1      43.532  27.095  27.588  1.00  0.00    -0.354 N 
ATOM     41  C   UNL A   1      40.065  28.725  29.565  1.00  0.00     0.074 A 
ATOM     42  C   UNL A   1      39.004  27.745  29.651  1.00  0.00     0.031 C 
ATOM     43  C   UNL A   1      44.745  25.543  26.532  1.00  0.00     0.029 A 
ATOM     44  C   UNL A   1      44.761  26.930  26.997  1.00  0.00     0.049 A 
ATOM     45  H   UNL A   1      43.260  27.925  28.042  1.00  0.00     0.167 HD
ATOM     46  C   UNL A   1      39.982  29.977  30.075  1.00  0.00     0.034 A 
ATOM     47  C   UNL A   1      45.777  27.803  26.837  1.00  0.00     0.034 A 
ATOM     48  C   UNL A   1      41.046  30.940  30.034  1.00  0.00     0.049 A 
ATOM     49  C   UNL A   1      45.655  29.194  27.407  1.00  0.00     0.074 A 
ATOM     50  C   UNL A   1      41.058  32.232  30.534  1.00  0.00     0.029 A 
ATOM     51  N   UNL A   1      42.291  30.717  29.469  1.00  0.00    -0.354 N 
ATOM     52  N   UNL A   1      44.676  29.722  28.100  1.00  0.00    -0.248 NA
ATOM     53  C   UNL A   1      46.798  30.098  27.202  1.00  0.00     0.031 C 
ATOM     54  C   UNL A   1      42.312  32.791  30.267  1.00  0.00     0.029 A 
ATOM     55  C   UNL A   1      43.083  31.844  29.612  1.00  0.00     0.049 A 
ATOM     56  H   UNL A   1      42.572  29.882  29.032  1.00  0.00     0.167 HD
ATOM     57  C   UNL A   1      45.099  31.001  28.447  1.00  0.00     0.074 A 
ATOM     58  C   UNL A   1      46.431  31.162  27.905  1.00  0.00     0.031 C 
ATOM     59  C   UNL A   1      44.437  31.963  29.137  1.00  0.00     0.034 A 
BRANCH  46  60
ATOM     60  C   UNL A   1      38.696  30.364  30.752  1.00  0.00     0.023 A 
ATOM     61  C   UNL A   1      38.505  30.050  32.112  1.00  0.00     0.012 A 
ATOM     62  C   UNL A   1      37.698  31.071  30.056  1.00  0.00     0.148 A 
ATOM     63  C   UNL A   1      37.325  30.411  32.764  1.00  0.00     0.002 A 
ATOM     64  C   UNL A   1      36.541  31.461  30.723  1.00  0.00     0.091 A 
ATOM     65  F   UNL A   1      37.887  31.334  28.755  1.00  0.00    -0.205 F 
ATOM     66  C   UNL A   1      36.350  31.125  32.073  1.00  0.00     0.022 A 
BRANCH  64  67
ATOM     67  S   UNL A   1      35.261  32.442  29.930  1.00  0.00     0.127 S 
ATOM     68  O   UNL A   1      34.302  32.613  31.021  1.00  0.00    -0.237 OA
ATOM     69  O   UNL A   1      35.985  33.657  29.558  1.00  0.00    -0.237 OA
ATOM     70  O   UNL A   1      34.795  31.649  28.802  1.00  0.00    -0.744 OA
ENDBRANCH  64  67
ENDBRANCH  46  60
BRANCH  47  71
ATOM     71  C   UNL A   1      47.022  27.377  26.139  1.00  0.00     0.023 A 
ATOM     72  C   UNL A   1      47.180  27.662  24.768  1.00  0.00     0.012 A 
ATOM     73  C   UNL A   1      48.049  26.698  26.821  1.00  0.00     0.148 A 
ATOM     74  C   UNL A   1      48.323  27.249  24.084  1.00  0.00     0.002 A 
ATOM     75  C   UNL A   1      49.209  26.338  26.146  1.00  0.00     0.091 A 
ATOM     76  F   UNL A   1      47.871  26.413  28.119  1.00  0.00    -0.205 F 
ATOM     77  C   UNL A   1      49.342  26.598  24.774  1.00  0.00     0.022 A 
BRANCH  75  78
ATOM     78  S   UNL A   1      50.617  25.607  26.989  1.00  0.00     0.127 S 
ATOM     79  O   UNL A   1      50.027  24.403  27.569  1.00  0.00    -0.237 OA
ATOM     80  O   UNL A   1      51.545  25.367  25.883  1.00  0.00    -0.237 OA
ATOM     81  O   UNL A   1      51.068  26.618  27.936  1.00  0.00    -0.744 OA
ENDBRANCH  75  78
ENDBRANCH  47  71
BRANCH  59  82
ATOM     82  C   UNL A   1      45.151  33.264  29.393  1.00  0.00     0.023 A 
ATOM     83  C   UNL A   1      45.901  33.430  30.573  1.00  0.00     0.012 A 
ATOM     84  C   UNL A   1      45.145  34.292  28.429  1.00  0.00     0.148 A 
ATOM     85  C   UNL A   1      46.610  34.609  30.803  1.00  0.00     0.002 A 
ATOM     86  C   UNL A   1      45.887  35.447  28.646  1.00  0.00     0.091 A 
ATOM     87  F   UNL A   1      44.407  34.129  27.320  1.00  0.00    -0.205 F 
ATOM     88  C   UNL A   1      46.613  35.612  29.837  1.00  0.00     0.022 A 
BRANCH  86  89
ATOM     89  S   UNL A   1      46.012  36.741  27.405  1.00  0.00     0.127 S 
ATOM     90  O   UNL A   1      47.040  37.608  27.975  1.00  0.00    -0.237 OA
ATOM     91  O   UNL A   1      46.431  36.001  26.214  1.00  0.00    -0.237 OA
ATOM     92  O   UNL A   1      44.676  37.318  27.308  1.00  0.00    -0.744 OA
ENDBRANCH  86  89
ENDBRANCH  59  82
ENDBRANCH  33  34
ENDBRANCH  26  28
ENDBRANCH  25  26
ENDBRANCH  24  25
ENDBRANCH   1  24
TORSDOF 19
ENDMDL
