MODEL 1
REMARK VINA RESULT:     -12.2      0.000      0.000
REMARK SMILES NS(=O)(=O)c1ccc(N2N=C(C(=O)OCCOC(=O)c3ccc(-c4c5nc(c(-c6cccc(S(=O)(=O)[O-])c6F)c6ccc([nH]6)c(-c6cccc(S(=O)(=O)[O-])c6F)c6nc(c(-c7cccc(S(=O)(=O)[O-])c7F)c7ccc4[nH]7)C=C6)C=C5)cc3)C[C@H]2c2ccco2)cc1
REMARK SMILES IDX 15 1 14 2 12 3 13 4 11 5 9 6 10 7 84 8 83 9 8 10 5 11 6 12
REMARK SMILES IDX 91 13 7 14 90 15 2 16 3 17 4 18 1 19 85 22 86 23 89 24 87 25
REMARK SMILES IDX 88 26 16 27 17 28 18 29 19 30 20 31 21 32 82 33 22 34 81 35
REMARK SMILES IDX 23 36 24 37 25 38 75 39 26 40 80 41 74 42 76 43 27 44 79 45
REMARK SMILES IDX 73 46 72 47 28 49 60 50 40 51 59 52 41 53 44 54 58 55 77 56
REMARK SMILES IDX 42 57 43 58 57 60 78 61 45 62 29 63 30 64 38 65 31 66 33 67
REMARK SMILES IDX 39 68 32 69 34 70 35 71 36 72 37 73 61 74 62 75 70 76 63 77
REMARK SMILES IDX 65 78 71 79 64 80 66 81 67 82 68 83 69 84 46 85 47 86 55 87
REMARK SMILES IDX 48 88 50 89 56 90 49 91 51 92 52 93 53 94 54 95
REMARK H PARENT 1 20 1 21 76 48 44 59
REMARK Flexibility Score: inf
ROOT
ATOM      1  C   UNL A   1      31.927  28.380  23.974  1.00  0.00     0.275 C 
ENDROOT
BRANCH   1   2
ATOM      2  O   UNL A   1      33.312  28.050  23.752  1.00  0.00    -0.458 OA
BRANCH   2   3
ATOM      3  C   UNL A   1      33.546  26.945  23.016  1.00  0.00     0.354 C 
ATOM      4  O   UNL A   1      33.835  26.882  21.836  1.00  0.00    -0.245 OA
BRANCH   3   5
ATOM      5  C   UNL A   1      33.464  25.727  23.899  1.00  0.00     0.148 C 
ATOM      6  N   UNL A   1      33.381  23.707  24.505  1.00  0.00    -0.254 N 
ATOM      7  N   UNL A   1      33.364  24.523  23.423  1.00  0.00    -0.169 NA
ATOM      8  C   UNL A   1      33.136  24.421  25.761  1.00  0.00     0.180 C 
ATOM      9  C   UNL A   1      33.596  25.839  25.385  1.00  0.00     0.101 C 
BRANCH   6  10
ATOM     10  C   UNL A   1      33.366  22.333  24.345  1.00  0.00     0.060 A 
ATOM     11  C   UNL A   1      33.334  19.535  24.086  1.00  0.00     0.082 A 
ATOM     12  C   UNL A   1      34.363  20.151  24.800  1.00  0.00     0.024 A 
ATOM     13  C   UNL A   1      32.341  20.300  23.473  1.00  0.00     0.024 A 
ATOM     14  C   UNL A   1      34.374  21.546  24.922  1.00  0.00     0.029 A 
ATOM     15  C   UNL A   1      32.369  21.693  23.601  1.00  0.00     0.029 A 
BRANCH  11  16
ATOM     16  S   UNL A   1      33.277  17.768  23.971  1.00  0.00     0.238 S 
ATOM     17  O   UNL A   1      32.347  17.265  24.952  1.00  0.00    -0.207 OA
ATOM     18  O   UNL A   1      34.642  17.292  23.889  1.00  0.00    -0.207 OA
BRANCH  16  19
ATOM     19  N   UNL A   1      32.576  17.506  22.477  1.00  0.00    -0.225 NA
ATOM     20  H   UNL A   1      31.801  18.158  22.346  1.00  0.00     0.137 HD
ATOM     21  H   UNL A   1      32.226  16.549  22.429  1.00  0.00     0.137 HD
ENDBRANCH  16  19
ENDBRANCH  11  16
ENDBRANCH   6  10
BRANCH   8  22
ATOM     22  C   UNL A   1      31.710  24.384  26.236  1.00  0.00     0.128 A 
ATOM     23  C   UNL A   1      30.930  23.375  26.769  1.00  0.00     0.048 A 
ATOM     24  O   UNL A   1      30.956  25.514  26.089  1.00  0.00    -0.467 OA
ATOM     25  C   UNL A   1      29.628  23.908  26.919  1.00  0.00     0.042 A 
ATOM     26  C   UNL A   1      29.697  25.213  26.497  1.00  0.00     0.195 A 
ENDBRANCH   8  22
ENDBRANCH   3   5
ENDBRANCH   2   3
ENDBRANCH   1   2
BRANCH   1  27
ATOM     27  C   UNL A   1      31.796  29.387  25.120  1.00  0.00     0.275 C 
BRANCH  27  28
ATOM     28  O   UNL A   1      33.071  29.974  25.441  1.00  0.00    -0.458 OA
BRANCH  28  29
ATOM     29  C   UNL A   1      33.098  30.680  26.598  1.00  0.00     0.338 C 
ATOM     30  O   UNL A   1      32.165  31.264  27.124  1.00  0.00    -0.246 OA
BRANCH  29  31
ATOM     31  C   UNL A   1      34.414  30.534  27.236  1.00  0.00     0.060 A 
ATOM     32  C   UNL A   1      34.843  29.241  27.523  1.00  0.00     0.016 A 
ATOM     33  C   UNL A   1      35.171  31.631  27.645  1.00  0.00     0.016 A 
ATOM     34  C   UNL A   1      36.008  29.020  28.244  1.00  0.00     0.010 A 
ATOM     35  C   UNL A   1      36.360  31.411  28.354  1.00  0.00     0.010 A 
ATOM     36  C   UNL A   1      36.776  30.105  28.676  1.00  0.00    -0.014 A 
BRANCH  36  37
ATOM     37  C   UNL A   1      37.983  29.856  29.503  1.00  0.00     0.031 A 
ATOM     38  C   UNL A   1      39.084  28.976  28.980  1.00  0.00     0.074 A 
ATOM     39  C   UNL A   1      38.100  30.441  30.710  1.00  0.00     0.049 A 
ATOM     40  N   UNL A   1      40.187  28.596  29.572  1.00  0.00    -0.248 NA
ATOM     41  C   UNL A   1      38.924  28.451  27.615  1.00  0.00     0.031 C 
ATOM     42  C   UNL A   1      37.109  31.332  31.315  1.00  0.00     0.029 A 
ATOM     43  N   UNL A   1      39.098  30.366  31.649  1.00  0.00    -0.354 N 
ATOM     44  C   UNL A   1      40.824  27.746  28.677  1.00  0.00     0.074 A 
ATOM     45  C   UNL A   1      39.989  27.671  27.497  1.00  0.00     0.031 C 
ATOM     46  C   UNL A   1      37.546  31.719  32.523  1.00  0.00     0.029 A 
ATOM     47  C   UNL A   1      38.825  31.072  32.798  1.00  0.00     0.049 A 
ATOM     48  H   UNL A   1      39.930  29.857  31.514  1.00  0.00     0.167 HD
ATOM     49  C   UNL A   1      42.005  27.100  28.820  1.00  0.00     0.034 A 
ATOM     50  C   UNL A   1      39.515  31.169  33.950  1.00  0.00     0.034 A 
ATOM     51  C   UNL A   1      42.859  27.222  29.971  1.00  0.00     0.049 A 
ATOM     52  C   UNL A   1      40.827  30.446  34.078  1.00  0.00     0.074 A 
ATOM     53  C   UNL A   1      44.097  26.644  30.188  1.00  0.00     0.029 A 
ATOM     54  N   UNL A   1      42.566  27.974  31.099  1.00  0.00    -0.354 N 
ATOM     55  N   UNL A   1      41.457  29.718  33.188  1.00  0.00    -0.248 NA
ATOM     56  C   UNL A   1      41.536  30.574  35.360  1.00  0.00     0.031 C 
ATOM     57  C   UNL A   1      44.550  27.042  31.450  1.00  0.00     0.029 A 
ATOM     58  C   UNL A   1      43.598  27.875  32.015  1.00  0.00     0.049 A 
ATOM     59  H   UNL A   1      41.744  28.500  31.228  1.00  0.00     0.167 HD
ATOM     60  C   UNL A   1      42.643  29.317  33.793  1.00  0.00     0.074 A 
ATOM     61  C   UNL A   1      42.657  29.907  35.115  1.00  0.00     0.031 C 
ATOM     62  C   UNL A   1      43.620  28.514  33.306  1.00  0.00     0.034 A 
BRANCH  49  63
ATOM     63  C   UNL A   1      42.463  26.222  27.686  1.00  0.00     0.023 A 
ATOM     64  C   UNL A   1      43.383  26.725  26.746  1.00  0.00     0.012 A 
ATOM     65  C   UNL A   1      42.026  24.888  27.582  1.00  0.00     0.148 A 
ATOM     66  C   UNL A   1      43.844  25.922  25.703  1.00  0.00     0.002 A 
ATOM     67  C   UNL A   1      42.516  24.081  26.560  1.00  0.00     0.091 A 
ATOM     68  F   UNL A   1      41.129  24.436  28.470  1.00  0.00    -0.205 F 
ATOM     69  C   UNL A   1      43.419  24.598  25.618  1.00  0.00     0.022 A 
BRANCH  67  70
ATOM     70  S   UNL A   1      42.076  22.346  26.409  1.00  0.00     0.127 S 
ATOM     71  O   UNL A   1      40.623  22.421  26.269  1.00  0.00    -0.237 OA
ATOM     72  O   UNL A   1      42.786  21.948  25.193  1.00  0.00    -0.237 OA
ATOM     73  O   UNL A   1      42.559  21.706  27.625  1.00  0.00    -0.744 OA
ENDBRANCH  67  70
ENDBRANCH  49  63
BRANCH  50  74
ATOM     74  C   UNL A   1      38.990  32.014  35.059  1.00  0.00     0.023 A 
ATOM     75  C   UNL A   1      38.971  33.414  34.914  1.00  0.00     0.012 A 
ATOM     76  C   UNL A   1      38.469  31.438  36.235  1.00  0.00     0.148 A 
ATOM     77  C   UNL A   1      38.460  34.226  35.928  1.00  0.00     0.002 A 
ATOM     78  C   UNL A   1      37.912  32.250  37.217  1.00  0.00     0.091 A 
ATOM     79  F   UNL A   1      38.520  30.105  36.368  1.00  0.00    -0.205 F 
ATOM     80  C   UNL A   1      37.918  33.645  37.071  1.00  0.00     0.022 A 
BRANCH  78  81
ATOM     81  S   UNL A   1      37.077  31.568  38.654  1.00  0.00     0.127 S 
ATOM     82  O   UNL A   1      38.066  31.784  39.705  1.00  0.00    -0.237 OA
ATOM     83  O   UNL A   1      35.885  32.412  38.748  1.00  0.00    -0.237 OA
ATOM     84  O   UNL A   1      36.798  30.179  38.315  1.00  0.00    -0.744 OA
ENDBRANCH  78  81
ENDBRANCH  50  74
BRANCH  62  85
ATOM     85  C   UNL A   1      44.802  28.238  34.198  1.00  0.00     0.023 A 
ATOM     86  C   UNL A   1      45.913  29.104  34.164  1.00  0.00     0.012 A 
ATOM     87  C   UNL A   1      44.780  27.173  35.118  1.00  0.00     0.148 A 
ATOM     88  C   UNL A   1      46.996  28.898  35.017  1.00  0.00     0.002 A 
ATOM     89  C   UNL A   1      45.845  27.000  35.995  1.00  0.00     0.091 A 
ATOM     90  F   UNL A   1      43.723  26.347  35.119  1.00  0.00    -0.205 F 
ATOM     91  C   UNL A   1      46.957  27.855  35.939  1.00  0.00     0.022 A 
BRANCH  89  92
ATOM     92  S   UNL A   1      45.833  25.736  37.272  1.00  0.00     0.127 S 
ATOM     93  O   UNL A   1      45.836  24.509  36.479  1.00  0.00    -0.237 OA
ATOM     94  O   UNL A   1      47.082  26.002  37.989  1.00  0.00    -0.237 OA
ATOM     95  O   UNL A   1      44.629  25.979  38.056  1.00  0.00    -0.744 OA
ENDBRANCH  89  92
ENDBRANCH  62  85
ENDBRANCH  36  37
ENDBRANCH  29  31
ENDBRANCH  28  29
ENDBRANCH  27  28
ENDBRANCH   1  27
TORSDOF 18
ENDMDL
MODEL 2
REMARK VINA RESULT:     -12.2      1.671      2.481
REMARK SMILES NS(=O)(=O)c1ccc(N2N=C(C(=O)OCCOC(=O)c3ccc(-c4c5nc(c(-c6cccc(S(=O)(=O)[O-])c6F)c6ccc([nH]6)c(-c6cccc(S(=O)(=O)[O-])c6F)c6nc(c(-c7cccc(S(=O)(=O)[O-])c7F)c7ccc4[nH]7)C=C6)C=C5)cc3)C[C@H]2c2ccco2)cc1
REMARK SMILES IDX 15 1 14 2 12 3 13 4 11 5 9 6 10 7 84 8 83 9 8 10 5 11 6 12
REMARK SMILES IDX 91 13 7 14 90 15 2 16 3 17 4 18 1 19 85 22 86 23 89 24 87 25
REMARK SMILES IDX 88 26 16 27 17 28 18 29 19 30 20 31 21 32 82 33 22 34 81 35
REMARK SMILES IDX 23 36 24 37 25 38 75 39 26 40 80 41 74 42 76 43 27 44 79 45
REMARK SMILES IDX 73 46 72 47 28 49 60 50 40 51 59 52 41 53 44 54 58 55 77 56
REMARK SMILES IDX 42 57 43 58 57 60 78 61 45 62 29 63 30 64 38 65 31 66 33 67
REMARK SMILES IDX 39 68 32 69 34 70 35 71 36 72 37 73 61 74 62 75 70 76 63 77
REMARK SMILES IDX 65 78 71 79 64 80 66 81 67 82 68 83 69 84 46 85 47 86 55 87
REMARK SMILES IDX 48 88 50 89 56 90 49 91 51 92 52 93 53 94 54 95
REMARK H PARENT 1 20 1 21 76 48 44 59
REMARK Flexibility Score: inf
ROOT
ATOM      1  C   UNL A   1      31.700  28.230  24.967  1.00  0.00     0.275 C 
ENDROOT
BRANCH   1   2
ATOM      2  O   UNL A   1      32.439  27.225  25.688  1.00  0.00    -0.458 OA
BRANCH   2   3
ATOM      3  C   UNL A   1      31.783  26.073  25.935  1.00  0.00     0.354 C 
ATOM      4  O   UNL A   1      30.735  25.925  26.536  1.00  0.00    -0.245 OA
BRANCH   3   5
ATOM      5  C   UNL A   1      32.516  24.929  25.283  1.00  0.00     0.148 C 
ATOM      6  N   UNL A   1      33.070  22.964  24.751  1.00  0.00    -0.254 N 
ATOM      7  N   UNL A   1      32.273  23.687  25.575  1.00  0.00    -0.169 NA
ATOM      8  C   UNL A   1      34.130  23.766  24.135  1.00  0.00     0.180 C 
ATOM      9  C   UNL A   1      33.500  25.168  24.183  1.00  0.00     0.101 C 
BRANCH   6  10
ATOM     10  C   UNL A   1      33.003  21.582  24.749  1.00  0.00     0.060 A 
ATOM     11  C   UNL A   1      32.906  18.773  24.690  1.00  0.00     0.082 A 
ATOM     12  C   UNL A   1      32.432  19.505  23.599  1.00  0.00     0.024 A 
ATOM     13  C   UNL A   1      33.395  19.428  25.822  1.00  0.00     0.024 A 
ATOM     14  C   UNL A   1      32.481  20.903  23.637  1.00  0.00     0.029 A 
ATOM     15  C   UNL A   1      33.434  20.825  25.846  1.00  0.00     0.029 A 
BRANCH  11  16
ATOM     16  S   UNL A   1      32.901  17.003  24.634  1.00  0.00     0.238 S 
ATOM     17  O   UNL A   1      33.159  16.578  23.280  1.00  0.00    -0.207 OA
ATOM     18  O   UNL A   1      31.745  16.546  25.377  1.00  0.00    -0.207 OA
BRANCH  16  19
ATOM     19  N   UNL A   1      34.253  16.589  25.525  1.00  0.00    -0.225 NA
ATOM     20  H   UNL A   1      34.721  17.438  25.846  1.00  0.00     0.137 HD
ATOM     21  H   UNL A   1      34.892  16.050  24.941  1.00  0.00     0.137 HD
ENDBRANCH  16  19
ENDBRANCH  11  16
ENDBRANCH   6  10
BRANCH   8  22
ATOM     22  C   UNL A   1      35.456  23.704  24.842  1.00  0.00     0.128 A 
ATOM     23  C   UNL A   1      35.810  23.819  26.173  1.00  0.00     0.048 A 
ATOM     24  O   UNL A   1      36.583  23.570  24.080  1.00  0.00    -0.467 OA
ATOM     25  C   UNL A   1      37.224  23.790  26.219  1.00  0.00     0.042 A 
ATOM     26  C   UNL A   1      37.645  23.632  24.921  1.00  0.00     0.195 A 
ENDBRANCH   8  22
ENDBRANCH   3   5
ENDBRANCH   2   3
ENDBRANCH   1   2
BRANCH   1  27
ATOM     27  C   UNL A   1      31.647  29.532  25.771  1.00  0.00     0.275 C 
BRANCH  27  28
ATOM     28  O   UNL A   1      32.929  30.189  25.778  1.00  0.00    -0.458 OA
BRANCH  28  29
ATOM     29  C   UNL A   1      33.121  31.053  26.804  1.00  0.00     0.338 C 
ATOM     30  O   UNL A   1      32.307  31.834  27.270  1.00  0.00    -0.246 OA
BRANCH  29  31
ATOM     31  C   UNL A   1      34.444  30.826  27.402  1.00  0.00     0.060 A 
ATOM     32  C   UNL A   1      34.768  29.518  27.754  1.00  0.00     0.016 A 
ATOM     33  C   UNL A   1      35.313  31.871  27.710  1.00  0.00     0.016 A 
ATOM     34  C   UNL A   1      35.938  29.236  28.445  1.00  0.00     0.010 A 
ATOM     35  C   UNL A   1      36.507  31.587  28.387  1.00  0.00     0.010 A 
ATOM     36  C   UNL A   1      36.818  30.270  28.777  1.00  0.00    -0.014 A 
BRANCH  36  37
ATOM     37  C   UNL A   1      38.032  29.962  29.572  1.00  0.00     0.031 A 
ATOM     38  C   UNL A   1      39.095  29.063  29.005  1.00  0.00     0.074 A 
ATOM     39  C   UNL A   1      38.190  30.510  30.793  1.00  0.00     0.049 A 
ATOM     40  N   UNL A   1      40.197  28.634  29.564  1.00  0.00    -0.248 NA
ATOM     41  C   UNL A   1      38.893  28.581  27.629  1.00  0.00     0.031 C 
ATOM     42  C   UNL A   1      37.239  31.414  31.440  1.00  0.00     0.029 A 
ATOM     43  N   UNL A   1      39.203  30.379  31.709  1.00  0.00    -0.354 N 
ATOM     44  C   UNL A   1      40.791  27.790  28.634  1.00  0.00     0.074 A 
ATOM     45  C   UNL A   1      39.931  27.772  27.469  1.00  0.00     0.031 C 
ATOM     46  C   UNL A   1      37.711  31.754  32.649  1.00  0.00     0.029 A 
ATOM     47  C   UNL A   1      38.974  31.061  32.881  1.00  0.00     0.049 A 
ATOM     48  H   UNL A   1      40.016  29.849  31.543  1.00  0.00     0.167 HD
ATOM     49  C   UNL A   1      41.953  27.104  28.736  1.00  0.00     0.034 A 
ATOM     50  C   UNL A   1      39.689  31.106  34.022  1.00  0.00     0.034 A 
ATOM     51  C   UNL A   1      42.832  27.169  29.873  1.00  0.00     0.049 A 
ATOM     52  C   UNL A   1      40.981  30.340  34.104  1.00  0.00     0.074 A 
ATOM     53  C   UNL A   1      44.056  26.548  30.050  1.00  0.00     0.029 A 
ATOM     54  N   UNL A   1      42.584  27.898  31.026  1.00  0.00    -0.354 N 
ATOM     55  N   UNL A   1      41.571  29.617  33.182  1.00  0.00    -0.248 NA
ATOM     56  C   UNL A   1      41.717  30.411  35.375  1.00  0.00     0.031 C 
ATOM     57  C   UNL A   1      44.546  26.897  31.313  1.00  0.00     0.029 A 
ATOM     58  C   UNL A   1      43.630  27.743  31.918  1.00  0.00     0.049 A 
ATOM     59  H   UNL A   1      41.782  28.446  31.185  1.00  0.00     0.167 HD
ATOM     60  C   UNL A   1      42.754  29.165  33.753  1.00  0.00     0.074 A 
ATOM     61  C   UNL A   1      42.812  29.718  35.090  1.00  0.00     0.031 C 
ATOM     62  C   UNL A   1      43.697  28.346  33.226  1.00  0.00     0.034 A 
BRANCH  49  63
ATOM     63  C   UNL A   1      42.362  26.244  27.570  1.00  0.00     0.023 A 
ATOM     64  C   UNL A   1      43.153  26.796  26.544  1.00  0.00     0.012 A 
ATOM     65  C   UNL A   1      42.010  24.882  27.517  1.00  0.00     0.148 A 
ATOM     66  C   UNL A   1      43.569  26.011  25.468  1.00  0.00     0.002 A 
ATOM     67  C   UNL A   1      42.456  24.096  26.460  1.00  0.00     0.091 A 
ATOM     68  F   UNL A   1      41.233  24.383  28.490  1.00  0.00    -0.205 F 
ATOM     69  C   UNL A   1      43.230  24.660  25.433  1.00  0.00     0.022 A 
BRANCH  67  70
ATOM     70  S   UNL A   1      42.124  22.334  26.363  1.00  0.00     0.127 S 
ATOM     71  O   UNL A   1      42.655  21.863  27.641  1.00  0.00    -0.237 OA
ATOM     72  O   UNL A   1      40.665  22.296  26.259  1.00  0.00    -0.237 OA
ATOM     73  O   UNL A   1      42.826  21.862  25.178  1.00  0.00    -0.744 OA
ENDBRANCH  67  70
ENDBRANCH  49  63
BRANCH  50  74
ATOM     74  C   UNL A   1      39.211  31.935  35.163  1.00  0.00     0.023 A 
ATOM     75  C   UNL A   1      38.311  31.381  36.094  1.00  0.00     0.012 A 
ATOM     76  C   UNL A   1      39.675  33.252  35.356  1.00  0.00     0.148 A 
ATOM     77  C   UNL A   1      37.869  32.128  37.186  1.00  0.00     0.002 A 
ATOM     78  C   UNL A   1      39.271  33.971  36.476  1.00  0.00     0.091 A 
ATOM     79  F   UNL A   1      40.508  33.774  34.445  1.00  0.00    -0.205 F 
ATOM     80  C   UNL A   1      38.358  33.417  37.385  1.00  0.00     0.022 A 
BRANCH  78  81
ATOM     81  S   UNL A   1      39.960  35.583  36.869  1.00  0.00     0.127 S 
ATOM     82  O   UNL A   1      39.325  35.877  38.150  1.00  0.00    -0.237 OA
ATOM     83  O   UNL A   1      41.394  35.297  36.943  1.00  0.00    -0.237 OA
ATOM     84  O   UNL A   1      39.583  36.445  35.756  1.00  0.00    -0.744 OA
ENDBRANCH  78  81
ENDBRANCH  50  74
BRANCH  62  85
ATOM     85  C   UNL A   1      44.886  28.009  34.086  1.00  0.00     0.023 A 
ATOM     86  C   UNL A   1      46.038  28.819  34.024  1.00  0.00     0.012 A 
ATOM     87  C   UNL A   1      44.836  26.944  35.005  1.00  0.00     0.148 A 
ATOM     88  C   UNL A   1      47.131  28.559  34.848  1.00  0.00     0.002 A 
ATOM     89  C   UNL A   1      45.913  26.717  35.854  1.00  0.00     0.091 A 
ATOM     90  F   UNL A   1      43.740  26.172  35.033  1.00  0.00    -0.205 F 
ATOM     91  C   UNL A   1      47.065  27.517  35.770  1.00  0.00     0.022 A 
BRANCH  89  92
ATOM     92  S   UNL A   1      45.873  25.453  37.129  1.00  0.00     0.127 S 
ATOM     93  O   UNL A   1      47.082  25.756  37.891  1.00  0.00    -0.237 OA
ATOM     94  O   UNL A   1      44.620  25.750  37.828  1.00  0.00    -0.237 OA
ATOM     95  O   UNL A   1      45.875  24.178  36.422  1.00  0.00    -0.744 OA
ENDBRANCH  89  92
ENDBRANCH  62  85
ENDBRANCH  36  37
ENDBRANCH  29  31
ENDBRANCH  28  29
ENDBRANCH  27  28
ENDBRANCH   1  27
TORSDOF 18
ENDMDL
MODEL 3
REMARK VINA RESULT:     -12.1      1.742      7.796
REMARK SMILES NS(=O)(=O)c1ccc(N2N=C(C(=O)OCCOC(=O)c3ccc(-c4c5nc(c(-c6cccc(S(=O)(=O)[O-])c6F)c6ccc([nH]6)c(-c6cccc(S(=O)(=O)[O-])c6F)c6nc(c(-c7cccc(S(=O)(=O)[O-])c7F)c7ccc4[nH]7)C=C6)C=C5)cc3)C[C@H]2c2ccco2)cc1
REMARK SMILES IDX 15 1 14 2 12 3 13 4 11 5 9 6 10 7 84 8 83 9 8 10 5 11 6 12
REMARK SMILES IDX 91 13 7 14 90 15 2 16 3 17 4 18 1 19 85 22 86 23 89 24 87 25
REMARK SMILES IDX 88 26 16 27 17 28 18 29 19 30 20 31 21 32 82 33 22 34 81 35
REMARK SMILES IDX 23 36 24 37 25 38 75 39 26 40 80 41 74 42 76 43 27 44 79 45
REMARK SMILES IDX 73 46 72 47 28 49 60 50 40 51 59 52 41 53 44 54 58 55 77 56
REMARK SMILES IDX 42 57 43 58 57 60 78 61 45 62 29 63 30 64 38 65 31 66 33 67
REMARK SMILES IDX 39 68 32 69 34 70 35 71 36 72 37 73 61 74 62 75 70 76 63 77
REMARK SMILES IDX 65 78 71 79 64 80 66 81 67 82 68 83 69 84 46 85 47 86 55 87
REMARK SMILES IDX 48 88 50 89 56 90 49 91 51 92 52 93 53 94 54 95
REMARK H PARENT 1 20 1 21 76 48 44 59
REMARK Flexibility Score: inf
ROOT
ATOM      1  C   UNL A   1      32.204  31.228  26.496  1.00  0.00     0.275 C 
ENDROOT
BRANCH   1   2
ATOM      2  O   UNL A   1      32.837  30.428  27.513  1.00  0.00    -0.458 OA
BRANCH   2   3
ATOM      3  C   UNL A   1      33.696  29.485  27.073  1.00  0.00     0.354 C 
ATOM      4  O   UNL A   1      34.892  29.596  26.881  1.00  0.00    -0.245 OA
BRANCH   3   5
ATOM      5  C   UNL A   1      32.961  28.180  26.897  1.00  0.00     0.148 C 
ATOM      6  N   UNL A   1      32.588  26.142  26.498  1.00  0.00    -0.254 N 
ATOM      7  N   UNL A   1      33.541  27.106  26.456  1.00  0.00    -0.169 NA
ATOM      8  C   UNL A   1      31.235  26.684  26.648  1.00  0.00     0.180 C 
ATOM      9  C   UNL A   1      31.535  28.033  27.323  1.00  0.00     0.101 C 
BRANCH   6  10
ATOM     10  C   UNL A   1      32.899  24.837  26.161  1.00  0.00     0.060 A 
ATOM     11  C   UNL A   1      33.468  22.177  25.454  1.00  0.00     0.082 A 
ATOM     12  C   UNL A   1      32.443  22.447  26.362  1.00  0.00     0.024 A 
ATOM     13  C   UNL A   1      34.232  23.216  24.921  1.00  0.00     0.024 A 
ATOM     14  C   UNL A   1      32.167  23.774  26.713  1.00  0.00     0.029 A 
ATOM     15  C   UNL A   1      33.947  24.536  25.284  1.00  0.00     0.029 A 
BRANCH  11  16
ATOM     16  S   UNL A   1      33.790  20.507  24.959  1.00  0.00     0.238 S 
ATOM     17  O   UNL A   1      35.217  20.294  24.933  1.00  0.00    -0.207 OA
ATOM     18  O   UNL A   1      32.948  20.220  23.817  1.00  0.00    -0.207 OA
BRANCH  16  19
ATOM     19  N   UNL A   1      33.202  19.609  26.241  1.00  0.00    -0.225 NA
ATOM     20  H   UNL A   1      32.385  20.076  26.635  1.00  0.00     0.137 HD
ATOM     21  H   UNL A   1      33.924  19.526  26.957  1.00  0.00     0.137 HD
ENDBRANCH  16  19
ENDBRANCH  11  16
ENDBRANCH   6  10
BRANCH   8  22
ATOM     22  C   UNL A   1      30.475  26.839  25.360  1.00  0.00     0.128 A 
ATOM     23  C   UNL A   1      29.596  26.009  24.690  1.00  0.00     0.048 A 
ATOM     24  O   UNL A   1      30.690  27.969  24.621  1.00  0.00    -0.467 OA
ATOM     25  C   UNL A   1      29.289  26.650  23.466  1.00  0.00     0.042 A 
ATOM     26  C   UNL A   1      29.975  27.840  23.475  1.00  0.00     0.195 A 
ENDBRANCH   8  22
ENDBRANCH   3   5
ENDBRANCH   2   3
ENDBRANCH   1   2
BRANCH   1  27
ATOM     27  C   UNL A   1      31.866  32.617  27.046  1.00  0.00     0.275 C 
BRANCH  27  28
ATOM     28  O   UNL A   1      32.998  33.502  26.948  1.00  0.00    -0.458 OA
BRANCH  28  29
ATOM     29  C   UNL A   1      33.449  33.984  28.131  1.00  0.00     0.338 C 
ATOM     30  O   UNL A   1      32.935  34.856  28.813  1.00  0.00    -0.246 OA
BRANCH  29  31
ATOM     31  C   UNL A   1      34.608  33.197  28.577  1.00  0.00     0.060 A 
ATOM     32  C   UNL A   1      34.400  32.284  29.607  1.00  0.00     0.016 A 
ATOM     33  C   UNL A   1      35.892  33.413  28.079  1.00  0.00     0.016 A 
ATOM     34  C   UNL A   1      35.464  31.600  30.178  1.00  0.00     0.010 A 
ATOM     35  C   UNL A   1      36.966  32.707  28.638  1.00  0.00     0.010 A 
ATOM     36  C   UNL A   1      36.762  31.811  29.705  1.00  0.00    -0.014 A 
BRANCH  36  37
ATOM     37  C   UNL A   1      37.896  31.122  30.369  1.00  0.00     0.031 A 
ATOM     38  C   UNL A   1      38.244  31.447  31.794  1.00  0.00     0.074 A 
ATOM     39  C   UNL A   1      38.597  30.187  29.698  1.00  0.00     0.049 A 
ATOM     40  N   UNL A   1      39.227  30.994  32.528  1.00  0.00    -0.248 NA
ATOM     41  C   UNL A   1      37.373  32.410  32.488  1.00  0.00     0.031 C 
ATOM     42  C   UNL A   1      38.340  29.770  28.319  1.00  0.00     0.029 A 
ATOM     43  N   UNL A   1      39.672  29.426  30.083  1.00  0.00    -0.354 N 
ATOM     44  C   UNL A   1      39.128  31.654  33.746  1.00  0.00     0.074 A 
ATOM     45  C   UNL A   1      37.984  32.535  33.658  1.00  0.00     0.031 C 
ATOM     46  C   UNL A   1      39.235  28.832  27.971  1.00  0.00     0.029 A 
ATOM     47  C   UNL A   1      40.152  28.611  29.084  1.00  0.00     0.049 A 
ATOM     48  H   UNL A   1      40.061  29.459  30.986  1.00  0.00     0.167 HD
ATOM     49  C   UNL A   1      39.912  31.526  34.842  1.00  0.00     0.034 A 
ATOM     50  C   UNL A   1      41.223  27.794  29.060  1.00  0.00     0.034 A 
ATOM     51  C   UNL A   1      41.015  30.609  34.945  1.00  0.00     0.049 A 
ATOM     52  C   UNL A   1      42.071  27.667  30.295  1.00  0.00     0.074 A 
ATOM     53  C   UNL A   1      41.838  30.372  36.031  1.00  0.00     0.029 A 
ATOM     54  N   UNL A   1      41.449  29.774  33.926  1.00  0.00    -0.354 N 
ATOM     55  N   UNL A   1      41.911  28.233  31.467  1.00  0.00    -0.248 NA
ATOM     56  C   UNL A   1      43.236  26.773  30.214  1.00  0.00     0.031 C 
ATOM     57  C   UNL A   1      42.775  29.399  35.667  1.00  0.00     0.029 A 
ATOM     58  C   UNL A   1      42.528  29.023  34.357  1.00  0.00     0.049 A 
ATOM     59  H   UNL A   1      41.048  29.724  33.028  1.00  0.00     0.167 HD
ATOM     60  C   UNL A   1      42.939  27.750  32.268  1.00  0.00     0.074 A 
ATOM     61  C   UNL A   1      43.701  26.823  31.456  1.00  0.00     0.031 C 
ATOM     62  C   UNL A   1      43.241  28.063  33.552  1.00  0.00     0.034 A 
BRANCH  49  63
ATOM     63  C   UNL A   1      39.585  32.380  36.038  1.00  0.00     0.023 A 
ATOM     64  C   UNL A   1      40.199  33.640  36.181  1.00  0.00     0.012 A 
ATOM     65  C   UNL A   1      38.633  31.961  36.988  1.00  0.00     0.148 A 
ATOM     66  C   UNL A   1      39.890  34.461  37.265  1.00  0.00     0.002 A 
ATOM     67  C   UNL A   1      38.304  32.800  38.047  1.00  0.00     0.091 A 
ATOM     68  F   UNL A   1      38.081  30.747  36.849  1.00  0.00    -0.205 F 
ATOM     69  C   UNL A   1      38.935  34.045  38.191  1.00  0.00     0.022 A 
BRANCH  67  70
ATOM     70  S   UNL A   1      37.040  32.377  39.251  1.00  0.00     0.127 S 
ATOM     71  O   UNL A   1      37.322  33.331  40.322  1.00  0.00    -0.237 OA
ATOM     72  O   UNL A   1      35.804  32.639  38.512  1.00  0.00    -0.237 OA
ATOM     73  O   UNL A   1      37.258  30.976  39.582  1.00  0.00    -0.744 OA
ENDBRANCH  67  70
ENDBRANCH  49  63
BRANCH  50  74
ATOM     74  C   UNL A   1      41.528  27.009  27.831  1.00  0.00     0.023 A 
ATOM     75  C   UNL A   1      42.115  27.654  26.726  1.00  0.00     0.012 A 
ATOM     76  C   UNL A   1      41.282  25.624  27.768  1.00  0.00     0.148 A 
ATOM     77  C   UNL A   1      42.435  26.936  25.573  1.00  0.00     0.002 A 
ATOM     78  C   UNL A   1      41.652  24.905  26.636  1.00  0.00     0.091 A 
ATOM     79  F   UNL A   1      40.696  25.032  28.818  1.00  0.00    -0.205 F 
ATOM     80  C   UNL A   1      42.217  25.561  25.532  1.00  0.00     0.022 A 
BRANCH  78  81
ATOM     81  S   UNL A   1      41.524  23.115  26.563  1.00  0.00     0.127 S 
ATOM     82  O   UNL A   1      40.083  22.922  26.435  1.00  0.00    -0.237 OA
ATOM     83  O   UNL A   1      42.297  22.798  25.360  1.00  0.00    -0.237 OA
ATOM     84  O   UNL A   1      42.126  22.634  27.800  1.00  0.00    -0.744 OA
ENDBRANCH  78  81
ENDBRANCH  50  74
BRANCH  62  85
ATOM     85  C   UNL A   1      44.434  27.386  34.171  1.00  0.00     0.023 A 
ATOM     86  C   UNL A   1      45.692  28.021  34.126  1.00  0.00     0.012 A 
ATOM     87  C   UNL A   1      44.298  26.167  34.860  1.00  0.00     0.148 A 
ATOM     88  C   UNL A   1      46.801  27.438  34.737  1.00  0.00     0.002 A 
ATOM     89  C   UNL A   1      45.398  25.613  35.504  1.00  0.00     0.091 A 
ATOM     90  F   UNL A   1      43.098  25.568  34.872  1.00  0.00    -0.205 F 
ATOM     91  C   UNL A   1      46.652  26.242  35.435  1.00  0.00     0.022 A 
BRANCH  89  92
ATOM     92  S   UNL A   1      45.272  24.122  36.498  1.00  0.00     0.127 S 
ATOM     93  O   UNL A   1      44.644  24.628  37.717  1.00  0.00    -0.237 OA
ATOM     94  O   UNL A   1      44.410  23.268  35.677  1.00  0.00    -0.237 OA
ATOM     95  O   UNL A   1      46.635  23.630  36.647  1.00  0.00    -0.744 OA
ENDBRANCH  89  92
ENDBRANCH  62  85
ENDBRANCH  36  37
ENDBRANCH  29  31
ENDBRANCH  28  29
ENDBRANCH  27  28
ENDBRANCH   1  27
TORSDOF 18
ENDMDL
