MODEL 1
REMARK VINA RESULT:     -11.7      0.000      0.000
REMARK SMILES CCn1ccc2ccc(C[NH+]3CCC4(CC3)C[C@H](C(=O)OCCOC(=O)c3ccc(-c5c6nc(c(-c7cccc(S(=O)(=O)[O-])c7F)c7ccc([nH]7)c(-c7cccc(S(=O)(=O)[O-])c7F)c7nc(c(-c8cccc(S(=O)(=O)[O-])c8F)c8ccc5[nH]8)C=C7)C=C6)cc3)N(C(C)=O)C4)cc21
REMARK SMILES IDX 22 1 21 2 19 3 20 4 18 5 11 6 12 7 16 8 13 10 15 11 14 12
REMARK SMILES IDX 17 13 94 14 90 15 10 16 9 17 3 18 4 19 96 20 5 21 6 22 95 23
REMARK SMILES IDX 7 24 8 25 2 26 1 27 91 28 92 29 93 30 23 31 24 32 25 33
REMARK SMILES IDX 26 34 27 35 28 36 89 37 29 38 88 39 30 40 31 41 32 42 82 43
REMARK SMILES IDX 33 44 87 45 81 46 83 47 34 48 86 49 80 50 79 51 35 53 67 54
REMARK SMILES IDX 47 55 66 56 48 57 51 58 65 59 84 60 49 61 50 62 64 64 85 65
REMARK SMILES IDX 52 66 36 67 37 68 45 69 38 70 40 71 46 72 39 73 41 74 42 75
REMARK SMILES IDX 43 76 44 77 68 78 69 79 77 80 70 81 72 82 78 83 71 84 73 85
REMARK SMILES IDX 74 86 75 87 76 88 53 89 54 90 62 91 55 92 57 93 63 94 56 95
REMARK SMILES IDX 58 96 59 97 60 98 61 99
REMARK H PARENT 11 9 83 52 51 63
REMARK Flexibility Score: inf
ROOT
ATOM      1  C   UNL A   1      33.903  28.544  25.835  1.00  0.00     0.274 C 
ENDROOT
BRANCH   1   2
ATOM      2  O   UNL A   1      32.811  28.200  24.968  1.00  0.00    -0.461 OA
BRANCH   2   3
ATOM      3  C   UNL A   1      33.092  28.334  23.643  1.00  0.00     0.328 C 
ATOM      4  O   UNL A   1      33.560  29.354  23.130  1.00  0.00    -0.250 OA
BRANCH   3   5
ATOM      5  C   UNL A   1      32.870  26.998  22.979  1.00  0.00     0.195 C 
ATOM      6  N   UNL A   1      33.163  21.860  24.905  1.00  0.00    -0.331 N 
ATOM      7  C   UNL A   1      32.187  22.839  25.258  1.00  0.00     0.263 C 
ATOM      8  C   UNL A   1      33.482  21.927  23.497  1.00  0.00     0.263 C 
ATOM      9  H   UNL A   1      32.760  20.924  24.961  1.00  0.00     0.348 HD
ATOM     10  C   UNL A   1      32.532  24.302  25.065  1.00  0.00     0.070 C 
ATOM     11  C   UNL A   1      33.742  23.363  22.989  1.00  0.00     0.070 C 
ATOM     12  C   UNL A   1      33.023  24.580  23.646  1.00  0.00     0.001 C 
ATOM     13  C   UNL A   1      33.821  25.911  23.517  1.00  0.00     0.046 C 
ATOM     14  C   UNL A   1      31.816  24.976  22.857  1.00  0.00     0.128 C 
ATOM     15  N   UNL A   1      31.576  26.386  23.104  1.00  0.00    -0.329 N 
BRANCH   6  16
ATOM     16  C   UNL A   1      34.133  21.486  25.920  1.00  0.00     0.299 C 
BRANCH  16  17
ATOM     17  C   UNL A   1      35.526  21.373  25.345  1.00  0.00     0.008 A 
ATOM     18  N   UNL A   1      38.736  22.908  26.379  1.00  0.00    -0.348 N 
ATOM     19  C   UNL A   1      39.889  22.143  26.385  1.00  0.00     0.087 A 
ATOM     20  C   UNL A   1      37.734  22.187  25.749  1.00  0.00     0.048 A 
ATOM     21  C   UNL A   1      39.624  20.930  25.795  1.00  0.00     0.028 A 
ATOM     22  C   UNL A   1      38.253  20.923  25.427  1.00  0.00    -0.000 A 
ATOM     23  C   UNL A   1      36.380  22.466  25.557  1.00  0.00     0.036 A 
ATOM     24  C   UNL A   1      37.398  19.910  24.936  1.00  0.00     0.011 A 
ATOM     25  C   UNL A   1      36.020  20.134  24.934  1.00  0.00     0.010 A 
BRANCH  18  26
ATOM     26  C   UNL A   1      38.710  24.245  26.962  1.00  0.00     0.119 C 
ATOM     27  C   UNL A   1      39.698  25.353  26.591  1.00  0.00     0.027 C 
ENDBRANCH  18  26
ENDBRANCH  16  17
ENDBRANCH   6  16
BRANCH  15  28
ATOM     28  C   UNL A   1      30.336  26.963  23.259  1.00  0.00     0.220 C 
ATOM     29  C   UNL A   1      29.335  26.455  24.241  1.00  0.00     0.114 C 
ATOM     30  O   UNL A   1      29.947  27.950  22.642  1.00  0.00    -0.275 OA
ENDBRANCH  15  28
ENDBRANCH   3   5
ENDBRANCH   2   3
ENDBRANCH   1   2
BRANCH   1  31
ATOM     31  C   UNL A   1      33.513  29.763  26.710  1.00  0.00     0.275 C 
BRANCH  31  32
ATOM     32  O   UNL A   1      34.631  30.672  26.955  1.00  0.00    -0.458 OA
BRANCH  32  33
ATOM     33  C   UNL A   1      34.650  31.414  28.104  1.00  0.00     0.338 C 
ATOM     34  O   UNL A   1      33.721  32.104  28.496  1.00  0.00    -0.246 OA
BRANCH  33  35
ATOM     35  C   UNL A   1      35.844  31.065  28.963  1.00  0.00     0.060 A 
ATOM     36  C   UNL A   1      36.865  31.958  29.307  1.00  0.00     0.016 A 
ATOM     37  C   UNL A   1      36.050  29.723  29.265  1.00  0.00     0.016 A 
ATOM     38  C   UNL A   1      38.176  31.481  29.613  1.00  0.00     0.010 A 
ATOM     39  C   UNL A   1      37.348  29.267  29.580  1.00  0.00     0.010 A 
ATOM     40  C   UNL A   1      38.482  30.116  29.538  1.00  0.00    -0.014 A 
BRANCH  40  41
ATOM     41  C   UNL A   1      39.865  29.440  29.615  1.00  0.00     0.031 A 
ATOM     42  C   UNL A   1      40.192  29.465  31.027  1.00  0.00     0.074 A 
ATOM     43  C   UNL A   1      40.903  28.963  28.818  1.00  0.00     0.049 A 
ATOM     44  N   UNL A   1      40.788  30.498  31.527  1.00  0.00    -0.248 NA
ATOM     45  C   UNL A   1      39.577  28.563  31.994  1.00  0.00     0.031 C 
ATOM     46  C   UNL A   1      41.264  29.206  27.414  1.00  0.00     0.029 A 
ATOM     47  N   UNL A   1      41.850  27.944  29.111  1.00  0.00    -0.354 N 
ATOM     48  C   UNL A   1      40.984  30.130  32.826  1.00  0.00     0.074 A 
ATOM     49  C   UNL A   1      39.944  29.173  33.128  1.00  0.00     0.031 C 
ATOM     50  C   UNL A   1      42.182  28.326  26.964  1.00  0.00     0.029 A 
ATOM     51  C   UNL A   1      42.416  27.289  27.973  1.00  0.00     0.049 A 
ATOM     52  H   UNL A   1      42.098  27.707  30.033  1.00  0.00     0.167 HD
ATOM     53  C   UNL A   1      42.234  30.247  33.333  1.00  0.00     0.034 A 
ATOM     54  C   UNL A   1      43.508  26.485  27.756  1.00  0.00     0.034 A 
ATOM     55  C   UNL A   1      43.116  31.039  32.495  1.00  0.00     0.049 A 
ATOM     56  C   UNL A   1      44.576  27.109  28.540  1.00  0.00     0.074 A 
ATOM     57  C   UNL A   1      43.074  32.293  31.915  1.00  0.00     0.029 A 
ATOM     58  N   UNL A   1      44.092  30.339  31.828  1.00  0.00    -0.354 N 
ATOM     59  N   UNL A   1      45.141  28.238  28.235  1.00  0.00    -0.248 NA
ATOM     60  C   UNL A   1      44.686  26.668  29.916  1.00  0.00     0.031 C 
ATOM     61  C   UNL A   1      43.845  32.212  30.720  1.00  0.00     0.029 A 
ATOM     62  C   UNL A   1      44.383  30.933  30.628  1.00  0.00     0.049 A 
ATOM     63  H   UNL A   1      44.525  29.523  32.166  1.00  0.00     0.167 HD
ATOM     64  C   UNL A   1      45.173  28.890  29.456  1.00  0.00     0.074 A 
ATOM     65  C   UNL A   1      45.018  27.837  30.461  1.00  0.00     0.031 C 
ATOM     66  C   UNL A   1      44.985  30.237  29.511  1.00  0.00     0.034 A 
BRANCH  53  67
ATOM     67  C   UNL A   1      42.747  29.273  34.343  1.00  0.00     0.023 A 
ATOM     68  C   UNL A   1      43.267  29.802  35.531  1.00  0.00     0.012 A 
ATOM     69  C   UNL A   1      42.916  27.889  34.104  1.00  0.00     0.148 A 
ATOM     70  C   UNL A   1      43.892  28.976  36.464  1.00  0.00     0.002 A 
ATOM     71  C   UNL A   1      43.433  27.057  35.079  1.00  0.00     0.091 A 
ATOM     72  F   UNL A   1      42.708  27.388  32.881  1.00  0.00    -0.205 F 
ATOM     73  C   UNL A   1      43.944  27.600  36.256  1.00  0.00     0.022 A 
BRANCH  71  74
ATOM     74  S   UNL A   1      43.452  25.275  34.870  1.00  0.00     0.127 S 
ATOM     75  O   UNL A   1      42.025  24.970  34.847  1.00  0.00    -0.237 OA
ATOM     76  O   UNL A   1      44.141  25.133  33.588  1.00  0.00    -0.237 OA
ATOM     77  O   UNL A   1      44.205  24.759  36.008  1.00  0.00    -0.744 OA
ENDBRANCH  71  74
ENDBRANCH  53  67
BRANCH  54  78
ATOM     78  C   UNL A   1      43.628  25.008  27.439  1.00  0.00     0.023 A 
ATOM     79  C   UNL A   1      42.984  24.094  28.318  1.00  0.00     0.012 A 
ATOM     80  C   UNL A   1      44.241  24.453  26.293  1.00  0.00     0.148 A 
ATOM     81  C   UNL A   1      42.929  22.714  28.061  1.00  0.00     0.002 A 
ATOM     82  C   UNL A   1      44.256  23.063  26.081  1.00  0.00     0.091 A 
ATOM     83  F   UNL A   1      44.709  25.285  25.358  1.00  0.00    -0.205 F 
ATOM     84  C   UNL A   1      43.578  22.197  26.951  1.00  0.00     0.022 A 
BRANCH  82  85
ATOM     85  S   UNL A   1      45.150  22.248  24.737  1.00  0.00     0.127 S 
ATOM     86  O   UNL A   1      46.318  21.706  25.438  1.00  0.00    -0.237 OA
ATOM     87  O   UNL A   1      44.194  21.238  24.291  1.00  0.00    -0.237 OA
ATOM     88  O   UNL A   1      45.469  23.281  23.762  1.00  0.00    -0.744 OA
ENDBRANCH  82  85
ENDBRANCH  54  78
BRANCH  66  89
ATOM     89  C   UNL A   1      45.191  31.028  28.239  1.00  0.00     0.023 A 
ATOM     90  C   UNL A   1      44.113  31.432  27.431  1.00  0.00     0.012 A 
ATOM     91  C   UNL A   1      46.461  31.537  27.949  1.00  0.00     0.148 A 
ATOM     92  C   UNL A   1      44.282  32.274  26.329  1.00  0.00     0.002 A 
ATOM     93  C   UNL A   1      46.622  32.443  26.902  1.00  0.00     0.091 A 
ATOM     94  F   UNL A   1      47.482  31.168  28.735  1.00  0.00    -0.205 F 
ATOM     95  C   UNL A   1      45.542  32.793  26.073  1.00  0.00     0.022 A 
BRANCH  93  96
ATOM     96  S   UNL A   1      48.151  33.348  26.662  1.00  0.00     0.127 S 
ATOM     97  O   UNL A   1      48.305  34.040  27.939  1.00  0.00    -0.237 OA
ATOM     98  O   UNL A   1      49.114  32.268  26.432  1.00  0.00    -0.237 OA
ATOM     99  O   UNL A   1      47.931  34.209  25.506  1.00  0.00    -0.744 OA
ENDBRANCH  93  96
ENDBRANCH  66  89
ENDBRANCH  40  41
ENDBRANCH  33  35
ENDBRANCH  32  33
ENDBRANCH  31  32
ENDBRANCH   1  31
TORSDOF 18
ENDMDL
MODEL 2
REMARK VINA RESULT:     -11.4      2.690      5.743
REMARK SMILES CCn1ccc2ccc(C[NH+]3CCC4(CC3)C[C@H](C(=O)OCCOC(=O)c3ccc(-c5c6nc(c(-c7cccc(S(=O)(=O)[O-])c7F)c7ccc([nH]7)c(-c7cccc(S(=O)(=O)[O-])c7F)c7nc(c(-c8cccc(S(=O)(=O)[O-])c8F)c8ccc5[nH]8)C=C7)C=C6)cc3)N(C(C)=O)C4)cc21
REMARK SMILES IDX 22 1 21 2 19 3 20 4 18 5 11 6 12 7 16 8 13 10 15 11 14 12
REMARK SMILES IDX 17 13 94 14 90 15 10 16 9 17 3 18 4 19 96 20 5 21 6 22 95 23
REMARK SMILES IDX 7 24 8 25 2 26 1 27 91 28 92 29 93 30 23 31 24 32 25 33
REMARK SMILES IDX 26 34 27 35 28 36 89 37 29 38 88 39 30 40 31 41 32 42 82 43
REMARK SMILES IDX 33 44 87 45 81 46 83 47 34 48 86 49 80 50 79 51 35 53 67 54
REMARK SMILES IDX 47 55 66 56 48 57 51 58 65 59 84 60 49 61 50 62 64 64 85 65
REMARK SMILES IDX 52 66 36 67 37 68 45 69 38 70 40 71 46 72 39 73 41 74 42 75
REMARK SMILES IDX 43 76 44 77 68 78 69 79 77 80 70 81 72 82 78 83 71 84 73 85
REMARK SMILES IDX 74 86 75 87 76 88 53 89 54 90 62 91 55 92 57 93 63 94 56 95
REMARK SMILES IDX 58 96 59 97 60 98 61 99
REMARK H PARENT 11 9 83 52 51 63
REMARK Flexibility Score: inf
ROOT
ATOM      1  C   UNL A   1      35.431  35.180  33.265  1.00  0.00     0.274 C 
ENDROOT
BRANCH   1   2
ATOM      2  O   UNL A   1      34.281  35.864  32.745  1.00  0.00    -0.461 OA
BRANCH   2   3
ATOM      3  C   UNL A   1      33.627  35.182  31.765  1.00  0.00     0.328 C 
ATOM      4  O   UNL A   1      32.406  34.998  31.740  1.00  0.00    -0.250 OA
BRANCH   3   5
ATOM      5  C   UNL A   1      34.622  34.840  30.685  1.00  0.00     0.195 C 
ATOM      6  N   UNL A   1      35.095  30.462  27.397  1.00  0.00    -0.331 N 
ATOM      7  C   UNL A   1      34.056  31.440  27.358  1.00  0.00     0.263 C 
ATOM      8  C   UNL A   1      36.376  31.075  27.667  1.00  0.00     0.263 C 
ATOM      9  H   UNL A   1      35.260  30.085  26.464  1.00  0.00     0.348 HD
ATOM     10  C   UNL A   1      33.780  32.250  28.609  1.00  0.00     0.070 C 
ATOM     11  C   UNL A   1      36.345  32.086  28.835  1.00  0.00     0.070 C 
ATOM     12  C   UNL A   1      35.052  32.899  29.147  1.00  0.00     0.001 C 
ATOM     13  C   UNL A   1      34.942  33.333  30.639  1.00  0.00     0.046 C 
ATOM     14  C   UNL A   1      35.117  34.261  28.532  1.00  0.00     0.128 C 
ATOM     15  N   UNL A   1      34.273  35.138  29.323  1.00  0.00    -0.329 N 
BRANCH   6  16
ATOM     16  C   UNL A   1      34.742  29.130  27.857  1.00  0.00     0.299 C 
BRANCH  16  17
ATOM     17  C   UNL A   1      33.609  28.542  27.046  1.00  0.00     0.008 A 
ATOM     18  N   UNL A   1      33.263  25.279  25.326  1.00  0.00    -0.348 N 
ATOM     19  C   UNL A   1      32.070  24.584  25.412  1.00  0.00     0.087 A 
ATOM     20  C   UNL A   1      33.071  26.547  25.849  1.00  0.00     0.048 A 
ATOM     21  C   UNL A   1      31.129  25.384  26.014  1.00  0.00     0.028 A 
ATOM     22  C   UNL A   1      31.757  26.615  26.338  1.00  0.00    -0.000 A 
ATOM     23  C   UNL A   1      33.964  27.597  26.071  1.00  0.00     0.036 A 
ATOM     24  C   UNL A   1      31.338  27.736  27.091  1.00  0.00     0.011 A 
ATOM     25  C   UNL A   1      32.288  28.684  27.475  1.00  0.00     0.010 A 
BRANCH  18  26
ATOM     26  C   UNL A   1      34.456  24.669  24.747  1.00  0.00     0.119 C 
ATOM     27  C   UNL A   1      34.465  23.920  23.413  1.00  0.00     0.027 C 
ENDBRANCH  18  26
ENDBRANCH  16  17
ENDBRANCH   6  16
BRANCH  15  28
ATOM     28  C   UNL A   1      33.459  36.124  28.815  1.00  0.00     0.220 C 
ATOM     29  C   UNL A   1      34.001  37.367  28.195  1.00  0.00     0.114 C 
ATOM     30  O   UNL A   1      32.233  36.071  28.794  1.00  0.00    -0.275 OA
ENDBRANCH  15  28
ENDBRANCH   3   5
ENDBRANCH   2   3
ENDBRANCH   1   2
BRANCH   1  31
ATOM     31  C   UNL A   1      34.984  34.102  34.284  1.00  0.00     0.275 C 
BRANCH  31  32
ATOM     32  O   UNL A   1      35.521  32.775  33.987  1.00  0.00    -0.458 OA
BRANCH  32  33
ATOM     33  C   UNL A   1      36.849  32.529  34.200  1.00  0.00     0.338 C 
ATOM     34  O   UNL A   1      37.427  32.723  35.260  1.00  0.00    -0.246 OA
BRANCH  33  35
ATOM     35  C   UNL A   1      37.451  31.741  33.060  1.00  0.00     0.060 A 
ATOM     36  C   UNL A   1      37.063  30.448  32.694  1.00  0.00     0.016 A 
ATOM     37  C   UNL A   1      38.602  32.247  32.463  1.00  0.00     0.016 A 
ATOM     38  C   UNL A   1      37.978  29.572  32.033  1.00  0.00     0.010 A 
ATOM     39  C   UNL A   1      39.490  31.373  31.800  1.00  0.00     0.010 A 
ATOM     40  C   UNL A   1      39.295  29.970  31.772  1.00  0.00    -0.014 A 
BRANCH  40  41
ATOM     41  C   UNL A   1      40.474  29.110  31.277  1.00  0.00     0.031 A 
ATOM     42  C   UNL A   1      41.207  28.786  32.485  1.00  0.00     0.074 A 
ATOM     43  C   UNL A   1      41.110  28.678  30.115  1.00  0.00     0.049 A 
ATOM     44  N   UNL A   1      42.118  29.596  32.917  1.00  0.00    -0.248 NA
ATOM     45  C   UNL A   1      40.743  27.790  33.444  1.00  0.00     0.031 C 
ATOM     46  C   UNL A   1      41.074  29.165  28.729  1.00  0.00     0.029 A 
ATOM     47  N   UNL A   1      41.877  27.500  29.910  1.00  0.00    -0.354 N 
ATOM     48  C   UNL A   1      42.617  28.934  34.001  1.00  0.00     0.074 A 
ATOM     49  C   UNL A   1      41.546  28.086  34.474  1.00  0.00     0.031 C 
ATOM     50  C   UNL A   1      41.622  28.285  27.866  1.00  0.00     0.029 A 
ATOM     51  C   UNL A   1      41.936  27.032  28.561  1.00  0.00     0.049 A 
ATOM     52  H   UNL A   1      42.338  27.038  30.648  1.00  0.00     0.167 HD
ATOM     53  C   UNL A   1      43.958  28.765  34.075  1.00  0.00     0.034 A 
ATOM     54  C   UNL A   1      42.729  26.152  27.867  1.00  0.00     0.034 A 
ATOM     55  C   UNL A   1      44.688  29.590  33.130  1.00  0.00     0.049 A 
ATOM     56  C   UNL A   1      44.085  26.440  28.342  1.00  0.00     0.074 A 
ATOM     57  C   UNL A   1      44.725  30.933  32.804  1.00  0.00     0.029 A 
ATOM     58  N   UNL A   1      45.261  28.923  32.074  1.00  0.00    -0.354 N 
ATOM     59  N   UNL A   1      44.745  27.519  28.050  1.00  0.00    -0.248 NA
ATOM     60  C   UNL A   1      44.511  25.703  29.514  1.00  0.00     0.031 C 
ATOM     61  C   UNL A   1      45.071  31.006  31.425  1.00  0.00     0.029 A 
ATOM     62  C   UNL A   1      45.291  29.715  30.956  1.00  0.00     0.049 A 
ATOM     63  H   UNL A   1      45.603  28.001  32.115  1.00  0.00     0.167 HD
ATOM     64  C   UNL A   1      45.270  27.883  29.279  1.00  0.00     0.074 A 
ATOM     65  C   UNL A   1      45.216  26.670  30.096  1.00  0.00     0.031 C 
ATOM     66  C   UNL A   1      45.380  29.200  29.607  1.00  0.00     0.034 A 
BRANCH  53  67
ATOM     67  C   UNL A   1      44.545  27.537  34.689  1.00  0.00     0.023 A 
ATOM     68  C   UNL A   1      45.448  27.720  35.743  1.00  0.00     0.012 A 
ATOM     69  C   UNL A   1      44.400  26.232  34.160  1.00  0.00     0.148 A 
ATOM     70  C   UNL A   1      46.147  26.638  36.278  1.00  0.00     0.002 A 
ATOM     71  C   UNL A   1      45.006  25.148  34.765  1.00  0.00     0.091 A 
ATOM     72  F   UNL A   1      43.788  26.048  32.984  1.00  0.00    -0.205 F 
ATOM     73  C   UNL A   1      45.900  25.348  35.814  1.00  0.00     0.022 A 
BRANCH  71  74
ATOM     74  S   UNL A   1      44.657  23.469  34.236  1.00  0.00     0.127 S 
ATOM     75  O   UNL A   1      45.916  22.799  34.545  1.00  0.00    -0.237 OA
ATOM     76  O   UNL A   1      43.532  23.113  35.102  1.00  0.00    -0.237 OA
ATOM     77  O   UNL A   1      44.308  23.572  32.824  1.00  0.00    -0.744 OA
ENDBRANCH  71  74
ENDBRANCH  53  67
BRANCH  54  78
ATOM     78  C   UNL A   1      42.453  24.775  27.298  1.00  0.00     0.023 A 
ATOM     79  C   UNL A   1      41.176  24.203  27.554  1.00  0.00     0.012 A 
ATOM     80  C   UNL A   1      43.312  24.042  26.449  1.00  0.00     0.148 A 
ATOM     81  C   UNL A   1      40.767  22.988  26.979  1.00  0.00     0.002 A 
ATOM     82  C   UNL A   1      42.932  22.786  25.943  1.00  0.00     0.091 A 
ATOM     83  F   UNL A   1      44.450  24.617  26.047  1.00  0.00    -0.205 F 
ATOM     84  C   UNL A   1      41.650  22.272  26.188  1.00  0.00     0.022 A 
BRANCH  82  85
ATOM     85  S   UNL A   1      44.019  21.702  24.987  1.00  0.00     0.127 S 
ATOM     86  O   UNL A   1      44.048  22.377  23.686  1.00  0.00    -0.237 OA
ATOM     87  O   UNL A   1      45.273  21.779  25.732  1.00  0.00    -0.237 OA
ATOM     88  O   UNL A   1      43.385  20.392  24.963  1.00  0.00    -0.744 OA
ENDBRANCH  82  85
ENDBRANCH  54  78
BRANCH  66  89
ATOM     89  C   UNL A   1      45.349  30.210  28.483  1.00  0.00     0.023 A 
ATOM     90  C   UNL A   1      44.141  30.695  27.952  1.00  0.00     0.012 A 
ATOM     91  C   UNL A   1      46.541  30.822  28.081  1.00  0.00     0.148 A 
ATOM     92  C   UNL A   1      44.102  31.724  27.007  1.00  0.00     0.002 A 
ATOM     93  C   UNL A   1      46.502  31.903  27.203  1.00  0.00     0.091 A 
ATOM     94  F   UNL A   1      47.689  30.372  28.607  1.00  0.00    -0.205 F 
ATOM     95  C   UNL A   1      45.289  32.341  26.642  1.00  0.00     0.022 A 
BRANCH  93  96
ATOM     96  S   UNL A   1      47.950  32.910  26.879  1.00  0.00     0.127 S 
ATOM     97  O   UNL A   1      48.921  31.918  26.423  1.00  0.00    -0.237 OA
ATOM     98  O   UNL A   1      47.466  33.817  25.836  1.00  0.00    -0.237 OA
ATOM     99  O   UNL A   1      48.273  33.567  28.140  1.00  0.00    -0.744 OA
ENDBRANCH  93  96
ENDBRANCH  66  89
ENDBRANCH  40  41
ENDBRANCH  33  35
ENDBRANCH  32  33
ENDBRANCH  31  32
ENDBRANCH   1  31
TORSDOF 18
ENDMDL
MODEL 3
REMARK VINA RESULT:     -11.3      3.309      9.044
REMARK SMILES CCn1ccc2ccc(C[NH+]3CCC4(CC3)C[C@H](C(=O)OCCOC(=O)c3ccc(-c5c6nc(c(-c7cccc(S(=O)(=O)[O-])c7F)c7ccc([nH]7)c(-c7cccc(S(=O)(=O)[O-])c7F)c7nc(c(-c8cccc(S(=O)(=O)[O-])c8F)c8ccc5[nH]8)C=C7)C=C6)cc3)N(C(C)=O)C4)cc21
REMARK SMILES IDX 22 1 21 2 19 3 20 4 18 5 11 6 12 7 16 8 13 10 15 11 14 12
REMARK SMILES IDX 17 13 94 14 90 15 10 16 9 17 3 18 4 19 96 20 5 21 6 22 95 23
REMARK SMILES IDX 7 24 8 25 2 26 1 27 91 28 92 29 93 30 23 31 24 32 25 33
REMARK SMILES IDX 26 34 27 35 28 36 89 37 29 38 88 39 30 40 31 41 32 42 82 43
REMARK SMILES IDX 33 44 87 45 81 46 83 47 34 48 86 49 80 50 79 51 35 53 67 54
REMARK SMILES IDX 47 55 66 56 48 57 51 58 65 59 84 60 49 61 50 62 64 64 85 65
REMARK SMILES IDX 52 66 36 67 37 68 45 69 38 70 40 71 46 72 39 73 41 74 42 75
REMARK SMILES IDX 43 76 44 77 68 78 69 79 77 80 70 81 72 82 78 83 71 84 73 85
REMARK SMILES IDX 74 86 75 87 76 88 53 89 54 90 62 91 55 92 57 93 63 94 56 95
REMARK SMILES IDX 58 96 59 97 60 98 61 99
REMARK H PARENT 11 9 83 52 51 63
REMARK Flexibility Score: inf
ROOT
ATOM      1  C   UNL A   1      37.502  20.620  24.765  1.00  0.00     0.274 C 
ENDROOT
BRANCH   1   2
ATOM      2  O   UNL A   1      36.303  21.099  25.393  1.00  0.00    -0.461 OA
BRANCH   2   3
ATOM      3  C   UNL A   1      35.210  20.320  25.167  1.00  0.00     0.328 C 
ATOM      4  O   UNL A   1      35.252  19.180  24.696  1.00  0.00    -0.250 OA
BRANCH   3   5
ATOM      5  C   UNL A   1      34.002  21.033  25.722  1.00  0.00     0.195 C 
ATOM      6  N   UNL A   1      32.155  26.165  25.052  1.00  0.00    -0.331 N 
ATOM      7  C   UNL A   1      32.193  25.145  24.055  1.00  0.00     0.263 C 
ATOM      8  C   UNL A   1      31.785  25.623  26.339  1.00  0.00     0.263 C 
ATOM      9  H   UNL A   1      31.372  26.796  24.881  1.00  0.00     0.348 HD
ATOM     10  C   UNL A   1      33.174  24.003  24.230  1.00  0.00     0.070 C 
ATOM     11  C   UNL A   1      32.551  24.334  26.711  1.00  0.00     0.070 C 
ATOM     12  C   UNL A   1      33.036  23.351  25.603  1.00  0.00     0.001 C 
ATOM     13  C   UNL A   1      34.285  22.519  26.021  1.00  0.00     0.046 C 
ATOM     14  C   UNL A   1      32.073  22.220  25.433  1.00  0.00     0.128 C 
ATOM     15  N   UNL A   1      32.816  21.087  24.913  1.00  0.00    -0.329 N 
BRANCH   6  16
ATOM     16  C   UNL A   1      33.070  27.284  24.897  1.00  0.00     0.299 C 
BRANCH  16  17
ATOM     17  C   UNL A   1      32.929  28.279  26.027  1.00  0.00     0.008 A 
ATOM     18  N   UNL A   1      35.382  30.573  27.591  1.00  0.00    -0.348 N 
ATOM     19  C   UNL A   1      35.006  31.869  27.900  1.00  0.00     0.087 A 
ATOM     20  C   UNL A   1      34.249  29.860  27.235  1.00  0.00     0.048 A 
ATOM     21  C   UNL A   1      33.651  31.997  27.713  1.00  0.00     0.028 A 
ATOM     22  C   UNL A   1      33.162  30.749  27.249  1.00  0.00    -0.000 A 
ATOM     23  C   UNL A   1      34.091  28.556  26.763  1.00  0.00     0.036 A 
ATOM     24  C   UNL A   1      31.904  30.337  26.751  1.00  0.00     0.011 A 
ATOM     25  C   UNL A   1      31.806  29.104  26.104  1.00  0.00     0.010 A 
BRANCH  18  26
ATOM     26  C   UNL A   1      36.775  30.147  27.677  1.00  0.00     0.119 C 
ATOM     27  C   UNL A   1      37.289  29.121  28.689  1.00  0.00     0.027 C 
ENDBRANCH  18  26
ENDBRANCH  16  17
ENDBRANCH   6  16
BRANCH  15  28
ATOM     28  C   UNL A   1      32.355  20.206  23.961  1.00  0.00     0.220 C 
ATOM     29  C   UNL A   1      32.103  20.614  22.549  1.00  0.00     0.114 C 
ATOM     30  O   UNL A   1      32.136  19.016  24.164  1.00  0.00    -0.275 OA
ENDBRANCH  15  28
ENDBRANCH   3   5
ENDBRANCH   2   3
ENDBRANCH   1   2
BRANCH   1  31
ATOM     31  C   UNL A   1      38.730  20.974  25.641  1.00  0.00     0.275 C 
BRANCH  31  32
ATOM     32  O   UNL A   1      38.857  22.407  25.898  1.00  0.00    -0.458 OA
BRANCH  32  33
ATOM     33  C   UNL A   1      39.945  22.869  26.587  1.00  0.00     0.338 C 
ATOM     34  O   UNL A   1      40.984  22.244  26.736  1.00  0.00    -0.246 OA
BRANCH  33  35
ATOM     35  C   UNL A   1      39.809  24.340  26.905  1.00  0.00     0.060 A 
ATOM     36  C   UNL A   1      40.567  25.356  26.314  1.00  0.00     0.016 A 
ATOM     37  C   UNL A   1      39.024  24.693  27.998  1.00  0.00     0.016 A 
ATOM     38  C   UNL A   1      40.803  26.585  27.004  1.00  0.00     0.010 A 
ATOM     39  C   UNL A   1      39.257  25.916  28.663  1.00  0.00     0.010 A 
ATOM     40  C   UNL A   1      40.315  26.786  28.302  1.00  0.00    -0.014 A 
BRANCH  40  41
ATOM     41  C   UNL A   1      40.642  27.933  29.279  1.00  0.00     0.031 A 
ATOM     42  C   UNL A   1      41.796  28.583  28.688  1.00  0.00     0.074 A 
ATOM     43  C   UNL A   1      40.306  28.441  30.532  1.00  0.00     0.049 A 
ATOM     44  N   UNL A   1      42.984  28.152  28.963  1.00  0.00    -0.248 NA
ATOM     45  C   UNL A   1      41.696  29.457  27.525  1.00  0.00     0.031 C 
ATOM     46  C   UNL A   1      39.623  27.846  31.689  1.00  0.00     0.029 A 
ATOM     47  N   UNL A   1      40.395  29.780  30.998  1.00  0.00    -0.354 N 
ATOM     48  C   UNL A   1      43.783  29.033  28.297  1.00  0.00     0.074 A 
ATOM     49  C   UNL A   1      42.991  29.529  27.193  1.00  0.00     0.031 C 
ATOM     50  C   UNL A   1      39.255  28.775  32.596  1.00  0.00     0.029 A 
ATOM     51  C   UNL A   1      39.505  30.119  32.065  1.00  0.00     0.049 A 
ATOM     52  H   UNL A   1      41.026  30.430  30.613  1.00  0.00     0.167 HD
ATOM     53  C   UNL A   1      44.780  29.631  28.991  1.00  0.00     0.034 A 
ATOM     54  C   UNL A   1      39.421  31.142  32.976  1.00  0.00     0.034 A 
ATOM     55  C   UNL A   1      45.033  29.004  30.276  1.00  0.00     0.049 A 
ATOM     56  C   UNL A   1      40.805  31.350  33.412  1.00  0.00     0.074 A 
ATOM     57  C   UNL A   1      45.290  27.722  30.722  1.00  0.00     0.029 A 
ATOM     58  N   UNL A   1      44.638  29.723  31.378  1.00  0.00    -0.354 N 
ATOM     59  N   UNL A   1      41.466  30.520  34.159  1.00  0.00    -0.248 NA
ATOM     60  C   UNL A   1      41.578  32.287  32.622  1.00  0.00     0.031 C 
ATOM     61  C   UNL A   1      44.767  27.641  32.045  1.00  0.00     0.029 A 
ATOM     62  C   UNL A   1      44.255  28.887  32.394  1.00  0.00     0.049 A 
ATOM     63  H   UNL A   1      44.631  30.706  31.432  1.00  0.00     0.167 HD
ATOM     64  C   UNL A   1      42.690  30.456  33.514  1.00  0.00     0.074 A 
ATOM     65  C   UNL A   1      42.748  31.655  32.676  1.00  0.00     0.031 C 
ATOM     66  C   UNL A   1      43.375  29.280  33.472  1.00  0.00     0.034 A 
BRANCH  53  67
ATOM     67  C   UNL A   1      45.195  31.033  28.687  1.00  0.00     0.023 A 
ATOM     68  C   UNL A   1      46.542  31.244  28.367  1.00  0.00     0.012 A 
ATOM     69  C   UNL A   1      44.374  32.169  28.883  1.00  0.00     0.148 A 
ATOM     70  C   UNL A   1      47.041  32.536  28.207  1.00  0.00     0.002 A 
ATOM     71  C   UNL A   1      44.844  33.441  28.612  1.00  0.00     0.091 A 
ATOM     72  F   UNL A   1      43.177  32.041  29.467  1.00  0.00    -0.205 F 
ATOM     73  C   UNL A   1      46.186  33.632  28.294  1.00  0.00     0.022 A 
BRANCH  71  74
ATOM     74  S   UNL A   1      43.753  34.865  28.649  1.00  0.00     0.127 S 
ATOM     75  O   UNL A   1      43.113  34.774  27.341  1.00  0.00    -0.237 OA
ATOM     76  O   UNL A   1      42.891  34.550  29.788  1.00  0.00    -0.237 OA
ATOM     77  O   UNL A   1      44.624  36.014  28.865  1.00  0.00    -0.744 OA
ENDBRANCH  71  74
ENDBRANCH  53  67
BRANCH  54  78
ATOM     78  C   UNL A   1      38.452  32.299  33.110  1.00  0.00     0.023 A 
ATOM     79  C   UNL A   1      38.743  33.288  34.089  1.00  0.00     0.012 A 
ATOM     80  C   UNL A   1      37.333  32.543  32.282  1.00  0.00     0.148 A 
ATOM     81  C   UNL A   1      37.983  34.462  34.222  1.00  0.00     0.002 A 
ATOM     82  C   UNL A   1      36.525  33.679  32.472  1.00  0.00     0.091 A 
ATOM     83  F   UNL A   1      37.123  31.730  31.243  1.00  0.00    -0.205 F 
ATOM     84  C   UNL A   1      36.865  34.649  33.425  1.00  0.00     0.022 A 
BRANCH  82  85
ATOM     85  S   UNL A   1      34.985  33.994  31.577  1.00  0.00     0.127 S 
ATOM     86  O   UNL A   1      35.470  34.201  30.209  1.00  0.00    -0.237 OA
ATOM     87  O   UNL A   1      34.249  32.748  31.772  1.00  0.00    -0.237 OA
ATOM     88  O   UNL A   1      34.386  35.175  32.181  1.00  0.00    -0.744 OA
ENDBRANCH  82  85
ENDBRANCH  54  78
BRANCH  66  89
ATOM     89  C   UNL A   1      43.011  28.218  34.484  1.00  0.00     0.023 A 
ATOM     90  C   UNL A   1      42.059  27.220  34.206  1.00  0.00     0.012 A 
ATOM     91  C   UNL A   1      43.766  28.102  35.656  1.00  0.00     0.148 A 
ATOM     92  C   UNL A   1      41.814  26.159  35.082  1.00  0.00     0.002 A 
ATOM     93  C   UNL A   1      43.584  27.002  36.491  1.00  0.00     0.091 A 
ATOM     94  F   UNL A   1      44.688  29.042  35.906  1.00  0.00    -0.205 F 
ATOM     95  C   UNL A   1      42.592  26.043  36.223  1.00  0.00     0.022 A 
BRANCH  93  96
ATOM     96  S   UNL A   1      44.709  26.645  37.840  1.00  0.00     0.127 S 
ATOM     97  O   UNL A   1      44.428  27.731  38.775  1.00  0.00    -0.237 OA
ATOM     98  O   UNL A   1      44.251  25.325  38.281  1.00  0.00    -0.237 OA
ATOM     99  O   UNL A   1      46.047  26.648  37.260  1.00  0.00    -0.744 OA
ENDBRANCH  93  96
ENDBRANCH  66  89
ENDBRANCH  40  41
ENDBRANCH  33  35
ENDBRANCH  32  33
ENDBRANCH  31  32
ENDBRANCH   1  31
TORSDOF 18
ENDMDL
