MODEL 1
REMARK VINA RESULT:     -13.7      0.000      0.000
REMARK SMILES Cc1oc(C)c(S(=O)(=O)Nn2c(C)ccc2C)c1C(=O)OCCOC(=O)c1ccc(-c2c3nc(c(-c4cccc(S(=O)(=O)[O-])c4F)c4ccc([nH]4)c(-c4cccc(S(=O)(=O)[O-])c4F)c4nc(c(-c5cccc(S(=O)(=O)[O-])c5F)c5ccc2[nH]5)C=C4)C=C3)cc1
REMARK SMILES IDX 22 1 21 2 19 3 20 4 18 5 1 6 2 7 3 8 4 9 6 10 5 11 7 12 8 13
REMARK SMILES IDX 9 14 10 15 11 17 12 18 16 19 13 20 14 21 15 22 17 23 23 24
REMARK SMILES IDX 24 25 25 26 26 27 27 28 28 29 89 30 29 31 88 32 30 33 31 34
REMARK SMILES IDX 32 35 82 36 33 37 87 38 81 39 83 40 34 41 86 42 80 43 79 44
REMARK SMILES IDX 35 46 67 47 47 48 66 49 48 50 51 51 65 52 84 53 49 54 50 55
REMARK SMILES IDX 64 57 85 58 52 59 36 60 37 61 45 62 38 63 40 64 46 65 39 66
REMARK SMILES IDX 41 67 42 68 43 69 44 70 68 71 69 72 77 73 70 74 72 75 78 76
REMARK SMILES IDX 71 77 73 78 74 79 75 80 76 81 53 82 54 83 62 84 55 85 57 86
REMARK SMILES IDX 63 87 56 88 58 89 59 90 60 91 61 92
REMARK H PARENT 10 16 83 45 51 56
REMARK Flexibility Score: inf
ROOT
ATOM      1  C   UNL A   1      36.383  21.035  25.388  1.00  0.00     0.275 C 
ENDROOT
BRANCH   1   2
ATOM      2  O   UNL A   1      35.342  21.859  24.640  1.00  0.00    -0.458 OA
BRANCH   2   3
ATOM      3  C   UNL A   1      35.040  23.197  24.991  1.00  0.00     0.343 C 
ATOM      4  O   UNL A   1      35.832  24.121  24.850  1.00  0.00    -0.246 OA
BRANCH   3   5
ATOM      5  C   UNL A   1      33.696  23.420  25.621  1.00  0.00     0.122 A 
ATOM      6  C   UNL A   1      34.066  22.191  27.966  1.00  0.00     0.088 C 
ATOM      7  C   UNL A   1      33.358  22.896  26.876  1.00  0.00     0.117 A 
ATOM      8  O   UNL A   1      32.058  23.132  27.186  1.00  0.00    -0.464 OA
ATOM      9  C   UNL A   1      31.532  23.908  26.217  1.00  0.00     0.122 A 
ATOM     10  C   UNL A   1      32.520  24.266  25.306  1.00  0.00     0.145 A 
ATOM     11  C   UNL A   1      30.082  24.205  26.374  1.00  0.00     0.089 C 
BRANCH  10  12
ATOM     12  S   UNL A   1      32.116  25.498  24.149  1.00  0.00     0.279 S 
ATOM     13  O   UNL A   1      33.373  26.073  23.733  1.00  0.00    -0.200 OA
ATOM     14  O   UNL A   1      31.319  24.772  23.171  1.00  0.00    -0.200 OA
BRANCH  12  15
ATOM     15  N   UNL A   1      31.222  26.798  24.604  1.00  0.00    -0.216 N 
ATOM     16  H   UNL A   1      31.028  26.964  25.555  1.00  0.00     0.202 HD
BRANCH  15  17
ATOM     17  N   UNL A   1      30.752  27.646  23.644  1.00  0.00    -0.256 N 
ATOM     18  C   UNL A   1      31.416  28.611  22.948  1.00  0.00     0.038 A 
ATOM     19  C   UNL A   1      29.406  27.640  23.364  1.00  0.00     0.038 A 
ATOM     20  C   UNL A   1      32.826  29.088  22.845  1.00  0.00     0.067 C 
ATOM     21  C   UNL A   1      30.417  29.278  22.308  1.00  0.00     0.025 A 
ATOM     22  C   UNL A   1      29.159  28.734  22.583  1.00  0.00     0.025 A 
ATOM     23  C   UNL A   1      28.420  26.678  23.910  1.00  0.00     0.067 C 
ENDBRANCH  15  17
ENDBRANCH  12  15
ENDBRANCH  10  12
ENDBRANCH   3   5
ENDBRANCH   2   3
ENDBRANCH   1   2
BRANCH   1  24
ATOM     24  C   UNL A   1      38.067  21.252  25.086  1.00  0.00     0.275 C 
BRANCH  24  25
ATOM     25  O   UNL A   1      39.298  20.894  26.068  1.00  0.00    -0.458 OA
BRANCH  25  26
ATOM     26  C   UNL A   1      40.318  21.851  26.399  1.00  0.00     0.338 C 
ATOM     27  O   UNL A   1      41.442  21.655  25.933  1.00  0.00    -0.246 OA
BRANCH  26  28
ATOM     28  C   UNL A   1      40.068  23.276  27.183  1.00  0.00     0.060 A 
ATOM     29  C   UNL A   1      38.997  24.092  26.808  1.00  0.00     0.016 A 
ATOM     30  C   UNL A   1      40.963  24.043  27.985  1.00  0.00     0.016 A 
ATOM     31  C   UNL A   1      38.826  25.510  27.248  1.00  0.00     0.010 A 
ATOM     32  C   UNL A   1      40.794  25.538  28.401  1.00  0.00     0.010 A 
ATOM     33  C   UNL A   1      39.711  26.366  28.040  1.00  0.00    -0.014 A 
BRANCH  33  34
ATOM     34  C   UNL A   1      39.337  28.070  28.284  1.00  0.00     0.031 A 
ATOM     35  C   UNL A   1      40.685  28.668  28.439  1.00  0.00     0.074 A 
ATOM     36  C   UNL A   1      38.371  29.119  28.536  1.00  0.00     0.049 A 
ATOM     37  N   UNL A   1      41.429  28.264  29.420  1.00  0.00    -0.248 NA
ATOM     38  C   UNL A   1      41.405  29.438  27.427  1.00  0.00     0.031 C 
ATOM     39  C   UNL A   1      36.904  29.019  28.732  1.00  0.00     0.029 A 
ATOM     40  N   UNL A   1      38.472  30.599  28.739  1.00  0.00    -0.354 N 
ATOM     41  C   UNL A   1      42.608  28.929  29.348  1.00  0.00     0.074 A 
ATOM     42  C   UNL A   1      42.609  29.518  28.015  1.00  0.00     0.031 C 
ATOM     43  C   UNL A   1      36.277  30.237  28.859  1.00  0.00     0.029 A 
ATOM     44  C   UNL A   1      37.212  31.373  28.846  1.00  0.00     0.049 A 
ATOM     45  H   UNL A   1      39.348  31.045  28.798  1.00  0.00     0.167 HD
ATOM     46  C   UNL A   1      43.079  29.363  30.548  1.00  0.00     0.034 A 
ATOM     47  C   UNL A   1      36.904  32.754  29.029  1.00  0.00     0.034 A 
ATOM     48  C   UNL A   1      42.944  30.780  30.688  1.00  0.00     0.049 A 
ATOM     49  C   UNL A   1      38.025  33.339  29.786  1.00  0.00     0.074 A 
ATOM     50  C   UNL A   1      43.092  31.834  29.809  1.00  0.00     0.029 A 
ATOM     51  N   UNL A   1      42.116  31.212  31.702  1.00  0.00    -0.354 N 
ATOM     52  N   UNL A   1      38.099  33.169  31.073  1.00  0.00    -0.248 NA
ATOM     53  C   UNL A   1      38.942  34.343  29.251  1.00  0.00     0.031 C 
ATOM     54  C   UNL A   1      41.958  32.643  30.033  1.00  0.00     0.029 A 
ATOM     55  C   UNL A   1      41.371  32.272  31.237  1.00  0.00     0.049 A 
ATOM     56  H   UNL A   1      42.066  30.826  32.606  1.00  0.00     0.167 HD
ATOM     57  C   UNL A   1      39.370  33.551  31.358  1.00  0.00     0.074 A 
ATOM     58  C   UNL A   1      39.719  34.511  30.327  1.00  0.00     0.031 C 
ATOM     59  C   UNL A   1      40.140  32.587  31.916  1.00  0.00     0.034 A 
BRANCH  46  60
ATOM     60  C   UNL A   1      42.897  28.359  31.679  1.00  0.00     0.023 A 
ATOM     61  C   UNL A   1      42.039  28.725  32.726  1.00  0.00     0.012 A 
ATOM     62  C   UNL A   1      43.694  27.189  31.833  1.00  0.00     0.148 A 
ATOM     63  C   UNL A   1      42.028  27.994  33.919  1.00  0.00     0.002 A 
ATOM     64  C   UNL A   1      43.784  26.558  33.067  1.00  0.00     0.091 A 
ATOM     65  F   UNL A   1      44.366  26.706  30.775  1.00  0.00    -0.205 F 
ATOM     66  C   UNL A   1      42.933  26.949  34.107  1.00  0.00     0.022 A 
BRANCH  64  67
ATOM     67  S   UNL A   1      45.161  25.453  33.464  1.00  0.00     0.127 S 
ATOM     68  O   UNL A   1      44.731  24.859  34.734  1.00  0.00    -0.237 OA
ATOM     69  O   UNL A   1      45.174  24.520  32.343  1.00  0.00    -0.237 OA
ATOM     70  O   UNL A   1      46.338  26.305  33.593  1.00  0.00    -0.744 OA
ENDBRANCH  64  67
ENDBRANCH  46  60
BRANCH  47  71
ATOM     71  C   UNL A   1      35.767  33.937  29.080  1.00  0.00     0.023 A 
ATOM     72  C   UNL A   1      34.905  34.124  27.925  1.00  0.00     0.012 A 
ATOM     73  C   UNL A   1      35.204  34.473  30.272  1.00  0.00     0.148 A 
ATOM     74  C   UNL A   1      33.596  34.669  27.956  1.00  0.00     0.002 A 
ATOM     75  C   UNL A   1      33.895  35.065  30.291  1.00  0.00     0.091 A 
ATOM     76  F   UNL A   1      35.891  34.328  31.411  1.00  0.00    -0.205 F 
ATOM     77  C   UNL A   1      33.085  35.132  29.147  1.00  0.00     0.022 A 
BRANCH  75  78
ATOM     78  S   UNL A   1      33.081  35.716  31.779  1.00  0.00     0.127 S 
ATOM     79  O   UNL A   1      34.122  36.560  32.373  1.00  0.00    -0.237 OA
ATOM     80  O   UNL A   1      31.957  36.461  31.213  1.00  0.00    -0.237 OA
ATOM     81  O   UNL A   1      32.729  34.546  32.569  1.00  0.00    -0.744 OA
ENDBRANCH  75  78
ENDBRANCH  47  71
BRANCH  59  82
ATOM     82  C   UNL A   1      39.490  31.705  32.973  1.00  0.00     0.023 A 
ATOM     83  C   UNL A   1      39.026  30.386  32.757  1.00  0.00     0.012 A 
ATOM     84  C   UNL A   1      39.324  32.243  34.257  1.00  0.00     0.148 A 
ATOM     85  C   UNL A   1      38.393  29.652  33.765  1.00  0.00     0.002 A 
ATOM     86  C   UNL A   1      38.745  31.494  35.278  1.00  0.00     0.091 A 
ATOM     87  F   UNL A   1      39.739  33.503  34.461  1.00  0.00    -0.205 F 
ATOM     88  C   UNL A   1      38.269  30.199  35.036  1.00  0.00     0.022 A 
BRANCH  86  89
ATOM     89  S   UNL A   1      38.617  32.165  36.935  1.00  0.00     0.127 S 
ATOM     90  O   UNL A   1      40.010  32.136  37.382  1.00  0.00    -0.237 OA
ATOM     91  O   UNL A   1      38.074  33.503  36.724  1.00  0.00    -0.237 OA
ATOM     92  O   UNL A   1      37.719  31.260  37.646  1.00  0.00    -0.744 OA
ENDBRANCH  86  89
ENDBRANCH  59  82
ENDBRANCH  33  34
ENDBRANCH  26  28
ENDBRANCH  25  26
ENDBRANCH  24  25
ENDBRANCH   1  24
TORSDOF 17
ENDMDL
MODEL 2
REMARK VINA RESULT:     -13.2      3.674      9.266
REMARK SMILES Cc1oc(C)c(S(=O)(=O)Nn2c(C)ccc2C)c1C(=O)OCCOC(=O)c1ccc(-c2c3nc(c(-c4cccc(S(=O)(=O)[O-])c4F)c4ccc([nH]4)c(-c4cccc(S(=O)(=O)[O-])c4F)c4nc(c(-c5cccc(S(=O)(=O)[O-])c5F)c5ccc2[nH]5)C=C4)C=C3)cc1
REMARK SMILES IDX 22 1 21 2 19 3 20 4 18 5 1 6 2 7 3 8 4 9 6 10 5 11 7 12 8 13
REMARK SMILES IDX 9 14 10 15 11 17 12 18 16 19 13 20 14 21 15 22 17 23 23 24
REMARK SMILES IDX 24 25 25 26 26 27 27 28 28 29 89 30 29 31 88 32 30 33 31 34
REMARK SMILES IDX 32 35 82 36 33 37 87 38 81 39 83 40 34 41 86 42 80 43 79 44
REMARK SMILES IDX 35 46 67 47 47 48 66 49 48 50 51 51 65 52 84 53 49 54 50 55
REMARK SMILES IDX 64 57 85 58 52 59 36 60 37 61 45 62 38 63 40 64 46 65 39 66
REMARK SMILES IDX 41 67 42 68 43 69 44 70 68 71 69 72 77 73 70 74 72 75 78 76
REMARK SMILES IDX 71 77 73 78 74 79 75 80 76 81 53 82 54 83 62 84 55 85 57 86
REMARK SMILES IDX 63 87 56 88 58 89 59 90 60 91 61 92
REMARK H PARENT 10 16 83 45 51 56
REMARK Flexibility Score: inf
ROOT
ATOM      1  C   UNL A   1      31.752  30.410  26.288  1.00  0.00     0.275 C 
ENDROOT
BRANCH   1   2
ATOM      2  O   UNL A   1      31.234  29.847  24.970  1.00  0.00    -0.458 OA
BRANCH   2   3
ATOM      3  C   UNL A   1      32.013  28.994  24.151  1.00  0.00     0.343 C 
ATOM      4  O   UNL A   1      33.093  29.324  23.677  1.00  0.00    -0.246 OA
BRANCH   3   5
ATOM      5  C   UNL A   1      31.404  27.659  23.832  1.00  0.00     0.122 A 
ATOM      6  C   UNL A   1      28.920  28.417  23.196  1.00  0.00     0.088 C 
ATOM      7  C   UNL A   1      30.053  27.512  23.491  1.00  0.00     0.117 A 
ATOM      8  O   UNL A   1      29.707  26.207  23.357  1.00  0.00    -0.464 OA
ATOM      9  C   UNL A   1      30.824  25.463  23.488  1.00  0.00     0.122 A 
ATOM     10  C   UNL A   1      31.934  26.292  23.616  1.00  0.00     0.145 A 
ATOM     11  C   UNL A   1      30.604  23.993  23.433  1.00  0.00     0.089 C 
BRANCH  10  12
ATOM     12  S   UNL A   1      33.496  25.540  23.501  1.00  0.00     0.279 S 
ATOM     13  O   UNL A   1      33.970  25.820  22.167  1.00  0.00    -0.200 OA
ATOM     14  O   UNL A   1      34.211  26.110  24.634  1.00  0.00    -0.200 OA
BRANCH  12  15
ATOM     15  N   UNL A   1      33.640  23.909  23.634  1.00  0.00    -0.216 N 
ATOM     16  H   UNL A   1      33.251  23.315  22.951  1.00  0.00     0.202 HD
BRANCH  15  17
ATOM     17  N   UNL A   1      34.307  23.389  24.704  1.00  0.00    -0.256 N 
ATOM     18  C   UNL A   1      33.887  23.245  25.992  1.00  0.00     0.038 A 
ATOM     19  C   UNL A   1      35.625  23.030  24.547  1.00  0.00     0.038 A 
ATOM     20  C   UNL A   1      32.618  23.474  26.744  1.00  0.00     0.067 C 
ATOM     21  C   UNL A   1      35.022  22.889  26.653  1.00  0.00     0.025 A 
ATOM     22  C   UNL A   1      36.123  22.796  25.797  1.00  0.00     0.025 A 
ATOM     23  C   UNL A   1      36.364  23.016  23.262  1.00  0.00     0.067 C 
ENDBRANCH  15  17
ENDBRANCH  12  15
ENDBRANCH  10  12
ENDBRANCH   3   5
ENDBRANCH   2   3
ENDBRANCH   1   2
BRANCH   1  24
ATOM     24  C   UNL A   1      31.740  32.107  26.592  1.00  0.00     0.275 C 
BRANCH  24  25
ATOM     25  O   UNL A   1      32.504  32.902  27.772  1.00  0.00    -0.458 OA
BRANCH  25  26
ATOM     26  C   UNL A   1      33.928  33.093  27.771  1.00  0.00     0.338 C 
ATOM     27  O   UNL A   1      34.340  34.233  27.552  1.00  0.00    -0.246 OA
BRANCH  26  28
ATOM     28  C   UNL A   1      35.040  31.966  28.222  1.00  0.00     0.060 A 
ATOM     29  C   UNL A   1      36.335  32.370  28.554  1.00  0.00     0.016 A 
ATOM     30  C   UNL A   1      35.044  30.557  28.012  1.00  0.00     0.016 A 
ATOM     31  C   UNL A   1      37.492  31.437  28.714  1.00  0.00     0.010 A 
ATOM     32  C   UNL A   1      36.270  29.598  28.138  1.00  0.00     0.010 A 
ATOM     33  C   UNL A   1      37.578  29.993  28.487  1.00  0.00    -0.014 A 
BRANCH  33  34
ATOM     34  C   UNL A   1      39.123  29.153  28.598  1.00  0.00     0.031 A 
ATOM     35  C   UNL A   1      39.212  28.850  30.048  1.00  0.00     0.074 A 
ATOM     36  C   UNL A   1      40.377  28.747  27.998  1.00  0.00     0.049 A 
ATOM     37  N   UNL A   1      39.219  29.839  30.884  1.00  0.00    -0.248 NA
ATOM     38  C   UNL A   1      38.975  27.550  30.669  1.00  0.00     0.031 C 
ATOM     39  C   UNL A   1      40.902  29.025  26.639  1.00  0.00     0.029 A 
ATOM     40  N   UNL A   1      41.571  27.993  28.494  1.00  0.00    -0.354 N 
ATOM     41  C   UNL A   1      39.285  29.324  32.136  1.00  0.00     0.074 A 
ATOM     42  C   UNL A   1      38.968  27.912  31.962  1.00  0.00     0.031 C 
ATOM     43  C   UNL A   1      42.098  28.402  26.368  1.00  0.00     0.029 A 
ATOM     44  C   UNL A   1      42.633  27.654  27.516  1.00  0.00     0.049 A 
ATOM     45  H   UNL A   1      41.648  27.728  29.439  1.00  0.00     0.167 HD
ATOM     46  C   UNL A   1      40.137  29.982  32.967  1.00  0.00     0.034 A 
ATOM     47  C   UNL A   1      43.878  26.962  27.599  1.00  0.00     0.034 A 
ATOM     48  C   UNL A   1      41.327  29.227  33.210  1.00  0.00     0.049 A 
ATOM     49  C   UNL A   1      44.376  27.151  28.973  1.00  0.00     0.074 A 
ATOM     50  C   UNL A   1      41.570  27.880  33.393  1.00  0.00     0.029 A 
ATOM     51  N   UNL A   1      42.504  29.794  32.773  1.00  0.00    -0.354 N 
ATOM     52  N   UNL A   1      44.955  28.266  29.306  1.00  0.00    -0.248 NA
ATOM     53  C   UNL A   1      44.521  26.074  29.949  1.00  0.00     0.031 C 
ATOM     54  C   UNL A   1      42.683  27.607  32.569  1.00  0.00     0.029 A 
ATOM     55  C   UNL A   1      43.285  28.808  32.213  1.00  0.00     0.049 A 
ATOM     56  H   UNL A   1      42.746  30.746  32.848  1.00  0.00     0.167 HD
ATOM     57  C   UNL A   1      44.982  28.201  30.662  1.00  0.00     0.074 A 
ATOM     58  C   UNL A   1      45.000  26.785  30.975  1.00  0.00     0.031 C 
ATOM     59  C   UNL A   1      44.319  29.201  31.290  1.00  0.00     0.034 A 
BRANCH  46  60
ATOM     60  C   UNL A   1      40.087  31.498  32.824  1.00  0.00     0.023 A 
ATOM     61  C   UNL A   1      41.195  32.121  32.232  1.00  0.00     0.012 A 
ATOM     62  C   UNL A   1      39.096  32.317  33.436  1.00  0.00     0.148 A 
ATOM     63  C   UNL A   1      41.351  33.509  32.310  1.00  0.00     0.002 A 
ATOM     64  C   UNL A   1      39.329  33.671  33.635  1.00  0.00     0.091 A 
ATOM     65  F   UNL A   1      37.935  31.765  33.827  1.00  0.00    -0.205 F 
ATOM     66  C   UNL A   1      40.450  34.273  33.052  1.00  0.00     0.022 A 
BRANCH  64  67
ATOM     67  S   UNL A   1      38.395  34.618  34.862  1.00  0.00     0.127 S 
ATOM     68  O   UNL A   1      38.279  33.667  35.972  1.00  0.00    -0.237 OA
ATOM     69  O   UNL A   1      39.264  35.756  35.139  1.00  0.00    -0.237 OA
ATOM     70  O   UNL A   1      37.115  34.936  34.238  1.00  0.00    -0.744 OA
ENDBRANCH  64  67
ENDBRANCH  46  60
BRANCH  47  71
ATOM     71  C   UNL A   1      45.175  26.323  26.821  1.00  0.00     0.023 A 
ATOM     72  C   UNL A   1      45.188  24.896  26.544  1.00  0.00     0.012 A 
ATOM     73  C   UNL A   1      46.051  27.050  25.968  1.00  0.00     0.148 A 
ATOM     74  C   UNL A   1      45.888  24.272  25.481  1.00  0.00     0.002 A 
ATOM     75  C   UNL A   1      46.794  26.407  24.920  1.00  0.00     0.091 A 
ATOM     76  F   UNL A   1      46.098  28.380  26.104  1.00  0.00    -0.205 F 
ATOM     77  C   UNL A   1      46.688  25.032  24.659  1.00  0.00     0.022 A 
BRANCH  75  78
ATOM     78  S   UNL A   1      47.886  27.270  23.752  1.00  0.00     0.127 S 
ATOM     79  O   UNL A   1      46.958  28.150  23.034  1.00  0.00    -0.237 OA
ATOM     80  O   UNL A   1      48.803  27.972  24.650  1.00  0.00    -0.237 OA
ATOM     81  O   UNL A   1      48.480  26.223  22.934  1.00  0.00    -0.744 OA
ENDBRANCH  75  78
ENDBRANCH  47  71
BRANCH  59  82
ATOM     82  C   UNL A   1      44.474  30.603  30.718  1.00  0.00     0.023 A 
ATOM     83  C   UNL A   1      43.652  31.166  29.712  1.00  0.00     0.012 A 
ATOM     84  C   UNL A   1      45.519  31.396  31.212  1.00  0.00     0.148 A 
ATOM     85  C   UNL A   1      43.884  32.446  29.199  1.00  0.00     0.002 A 
ATOM     86  C   UNL A   1      45.719  32.692  30.743  1.00  0.00     0.091 A 
ATOM     87  F   UNL A   1      46.317  30.858  32.148  1.00  0.00    -0.205 F 
ATOM     88  C   UNL A   1      44.909  33.220  29.729  1.00  0.00     0.022 A 
BRANCH  86  89
ATOM     89  S   UNL A   1      47.006  33.722  31.446  1.00  0.00     0.127 S 
ATOM     90  O   UNL A   1      46.841  34.967  30.695  1.00  0.00    -0.237 OA
ATOM     91  O   UNL A   1      46.646  33.811  32.857  1.00  0.00    -0.237 OA
ATOM     92  O   UNL A   1      48.252  33.004  31.190  1.00  0.00    -0.744 OA
ENDBRANCH  86  89
ENDBRANCH  59  82
ENDBRANCH  33  34
ENDBRANCH  26  28
ENDBRANCH  25  26
ENDBRANCH  24  25
ENDBRANCH   1  24
TORSDOF 17
ENDMDL
MODEL 3
REMARK VINA RESULT:     -12.9      1.585      2.019
REMARK SMILES Cc1oc(C)c(S(=O)(=O)Nn2c(C)ccc2C)c1C(=O)OCCOC(=O)c1ccc(-c2c3nc(c(-c4cccc(S(=O)(=O)[O-])c4F)c4ccc([nH]4)c(-c4cccc(S(=O)(=O)[O-])c4F)c4nc(c(-c5cccc(S(=O)(=O)[O-])c5F)c5ccc2[nH]5)C=C4)C=C3)cc1
REMARK SMILES IDX 22 1 21 2 19 3 20 4 18 5 1 6 2 7 3 8 4 9 6 10 5 11 7 12 8 13
REMARK SMILES IDX 9 14 10 15 11 17 12 18 16 19 13 20 14 21 15 22 17 23 23 24
REMARK SMILES IDX 24 25 25 26 26 27 27 28 28 29 89 30 29 31 88 32 30 33 31 34
REMARK SMILES IDX 32 35 82 36 33 37 87 38 81 39 83 40 34 41 86 42 80 43 79 44
REMARK SMILES IDX 35 46 67 47 47 48 66 49 48 50 51 51 65 52 84 53 49 54 50 55
REMARK SMILES IDX 64 57 85 58 52 59 36 60 37 61 45 62 38 63 40 64 46 65 39 66
REMARK SMILES IDX 41 67 42 68 43 69 44 70 68 71 69 72 77 73 70 74 72 75 78 76
REMARK SMILES IDX 71 77 73 78 74 79 75 80 76 81 53 82 54 83 62 84 55 85 57 86
REMARK SMILES IDX 63 87 56 88 58 89 59 90 60 91 61 92
REMARK H PARENT 10 16 83 45 51 56
REMARK Flexibility Score: inf
ROOT
ATOM      1  C   UNL A   1      37.003  22.027  24.287  1.00  0.00     0.275 C 
ENDROOT
BRANCH   1   2
ATOM      2  O   UNL A   1      35.546  21.616  24.107  1.00  0.00    -0.458 OA
BRANCH   2   3
ATOM      3  C   UNL A   1      34.511  22.560  23.903  1.00  0.00     0.343 C 
ATOM      4  O   UNL A   1      34.644  23.558  23.204  1.00  0.00    -0.246 OA
BRANCH   3   5
ATOM      5  C   UNL A   1      33.237  22.308  24.656  1.00  0.00     0.122 A 
ATOM      6  C   UNL A   1      33.219  19.635  24.665  1.00  0.00     0.088 C 
ATOM      7  C   UNL A   1      32.739  21.017  24.878  1.00  0.00     0.117 A 
ATOM      8  O   UNL A   1      31.523  21.044  25.480  1.00  0.00    -0.464 OA
ATOM      9  C   UNL A   1      31.232  22.327  25.776  1.00  0.00     0.122 A 
ATOM     10  C   UNL A   1      32.309  23.145  25.452  1.00  0.00     0.145 A 
ATOM     11  C   UNL A   1      29.891  22.537  26.385  1.00  0.00     0.089 C 
BRANCH  10  12
ATOM     12  S   UNL A   1      32.253  24.785  26.025  1.00  0.00     0.279 S 
ATOM     13  O   UNL A   1      31.883  24.701  27.418  1.00  0.00    -0.200 OA
ATOM     14  O   UNL A   1      33.572  25.292  25.678  1.00  0.00    -0.200 OA
BRANCH  12  15
ATOM     15  N   UNL A   1      31.167  25.844  25.395  1.00  0.00    -0.216 N 
ATOM     16  H   UNL A   1      30.259  25.547  25.156  1.00  0.00     0.202 HD
BRANCH  15  17
ATOM     17  N   UNL A   1      31.543  27.142  25.205  1.00  0.00    -0.256 N 
ATOM     18  C   UNL A   1      31.767  28.116  26.130  1.00  0.00     0.038 A 
ATOM     19  C   UNL A   1      31.630  27.619  23.919  1.00  0.00     0.038 A 
ATOM     20  C   UNL A   1      31.797  28.203  27.620  1.00  0.00     0.067 C 
ATOM     21  C   UNL A   1      31.888  29.242  25.374  1.00  0.00     0.025 A 
ATOM     22  C   UNL A   1      31.760  28.977  24.008  1.00  0.00     0.025 A 
ATOM     23  C   UNL A   1      31.497  26.803  22.689  1.00  0.00     0.067 C 
ENDBRANCH  15  17
ENDBRANCH  12  15
ENDBRANCH  10  12
ENDBRANCH   3   5
ENDBRANCH   2   3
ENDBRANCH   1   2
BRANCH   1  24
ATOM     24  C   UNL A   1      37.890  21.553  25.687  1.00  0.00     0.275 C 
BRANCH  24  25
ATOM     25  O   UNL A   1      39.398  20.979  25.750  1.00  0.00    -0.458 OA
BRANCH  25  26
ATOM     26  C   UNL A   1      40.463  21.692  26.400  1.00  0.00     0.338 C 
ATOM     27  O   UNL A   1      41.607  21.266  26.232  1.00  0.00    -0.246 OA
BRANCH  26  28
ATOM     28  C   UNL A   1      40.305  23.129  27.188  1.00  0.00     0.060 A 
ATOM     29  C   UNL A   1      39.193  23.936  26.934  1.00  0.00     0.016 A 
ATOM     30  C   UNL A   1      41.288  23.909  27.862  1.00  0.00     0.016 A 
ATOM     31  C   UNL A   1      39.071  25.360  27.371  1.00  0.00     0.010 A 
ATOM     32  C   UNL A   1      41.166  25.411  28.274  1.00  0.00     0.010 A 
ATOM     33  C   UNL A   1      40.043  26.230  28.036  1.00  0.00    -0.014 A 
BRANCH  33  34
ATOM     34  C   UNL A   1      39.695  27.937  28.299  1.00  0.00     0.031 A 
ATOM     35  C   UNL A   1      41.019  28.565  28.076  1.00  0.00     0.074 A 
ATOM     36  C   UNL A   1      38.795  28.980  28.749  1.00  0.00     0.049 A 
ATOM     37  N   UNL A   1      42.001  28.221  28.846  1.00  0.00    -0.248 NA
ATOM     38  C   UNL A   1      41.432  29.300  26.882  1.00  0.00     0.031 C 
ATOM     39  C   UNL A   1      37.432  28.863  29.321  1.00  0.00     0.029 A 
ATOM     40  N   UNL A   1      38.902  30.469  28.858  1.00  0.00    -0.354 N 
ATOM     41  C   UNL A   1      43.103  28.903  28.446  1.00  0.00     0.074 A 
ATOM     42  C   UNL A   1      42.744  29.428  27.134  1.00  0.00     0.031 C 
ATOM     43  C   UNL A   1      36.823  30.074  29.555  1.00  0.00     0.029 A 
ATOM     44  C   UNL A   1      37.690  31.224  29.255  1.00  0.00     0.049 A 
ATOM     45  H   UNL A   1      39.751  30.933  28.670  1.00  0.00     0.167 HD
ATOM     46  C   UNL A   1      43.854  29.401  29.464  1.00  0.00     0.034 A 
ATOM     47  C   UNL A   1      37.400  32.607  29.455  1.00  0.00     0.034 A 
ATOM     48  C   UNL A   1      43.718  30.820  29.576  1.00  0.00     0.049 A 
ATOM     49  C   UNL A   1      38.660  33.247  29.872  1.00  0.00     0.074 A 
ATOM     50  C   UNL A   1      43.604  31.835  28.647  1.00  0.00     0.029 A 
ATOM     51  N   UNL A   1      43.167  31.284  30.751  1.00  0.00    -0.354 N 
ATOM     52  N   UNL A   1      39.067  33.138  31.102  1.00  0.00    -0.248 NA
ATOM     53  C   UNL A   1      39.378  34.241  29.078  1.00  0.00     0.031 C 
ATOM     54  C   UNL A   1      42.542  32.632  29.123  1.00  0.00     0.029 A 
ATOM     55  C   UNL A   1      42.296  32.309  30.452  1.00  0.00     0.049 A 
ATOM     56  H   UNL A   1      43.362  30.941  31.652  1.00  0.00     0.167 HD
ATOM     57  C   UNL A   1      40.357  33.556  31.033  1.00  0.00     0.074 A 
ATOM     58  C   UNL A   1      40.401  34.472  29.908  1.00  0.00     0.031 C 
ATOM     59  C   UNL A   1      41.272  32.633  31.413  1.00  0.00     0.034 A 
BRANCH  46  60
ATOM     60  C   UNL A   1      43.999  28.448  30.644  1.00  0.00     0.023 A 
ATOM     61  C   UNL A   1      42.977  28.461  31.605  1.00  0.00     0.012 A 
ATOM     62  C   UNL A   1      45.187  27.717  30.928  1.00  0.00     0.148 A 
ATOM     63  C   UNL A   1      43.160  27.829  32.839  1.00  0.00     0.002 A 
ATOM     64  C   UNL A   1      45.417  27.219  32.204  1.00  0.00     0.091 A 
ATOM     65  F   UNL A   1      46.088  27.520  29.951  1.00  0.00    -0.205 F 
ATOM     66  C   UNL A   1      44.393  27.257  33.156  1.00  0.00     0.022 A 
BRANCH  64  67
ATOM     67  S   UNL A   1      47.084  26.792  32.763  1.00  0.00     0.127 S 
ATOM     68  O   UNL A   1      46.883  26.554  34.196  1.00  0.00    -0.237 OA
ATOM     69  O   UNL A   1      47.398  25.593  31.996  1.00  0.00    -0.237 OA
ATOM     70  O   UNL A   1      47.915  27.959  32.483  1.00  0.00    -0.744 OA
ENDBRANCH  64  67
ENDBRANCH  46  60
BRANCH  47  71
ATOM     71  C   UNL A   1      36.280  33.771  29.750  1.00  0.00     0.023 A 
ATOM     72  C   UNL A   1      35.525  34.310  28.631  1.00  0.00     0.012 A 
ATOM     73  C   UNL A   1      35.623  33.969  30.995  1.00  0.00     0.148 A 
ATOM     74  C   UNL A   1      34.226  34.874  28.711  1.00  0.00     0.002 A 
ATOM     75  C   UNL A   1      34.325  34.582  31.078  1.00  0.00     0.091 A 
ATOM     76  F   UNL A   1      36.205  33.482  32.097  1.00  0.00    -0.205 F 
ATOM     77  C   UNL A   1      33.620  35.002  29.940  1.00  0.00     0.022 A 
BRANCH  75  78
ATOM     78  S   UNL A   1      33.394  34.818  32.620  1.00  0.00     0.127 S 
ATOM     79  O   UNL A   1      33.292  33.454  33.147  1.00  0.00    -0.237 OA
ATOM     80  O   UNL A   1      34.283  35.691  33.386  1.00  0.00    -0.237 OA
ATOM     81  O   UNL A   1      32.125  35.405  32.217  1.00  0.00    -0.744 OA
ENDBRANCH  75  78
ENDBRANCH  47  71
BRANCH  59  82
ATOM     82  C   UNL A   1      40.943  31.791  32.636  1.00  0.00     0.023 A 
ATOM     83  C   UNL A   1      40.126  30.635  32.631  1.00  0.00     0.012 A 
ATOM     84  C   UNL A   1      41.476  32.196  33.868  1.00  0.00     0.148 A 
ATOM     85  C   UNL A   1      39.826  29.938  33.805  1.00  0.00     0.002 A 
ATOM     86  C   UNL A   1      41.224  31.471  35.030  1.00  0.00     0.091 A 
ATOM     87  F   UNL A   1      42.230  33.306  33.884  1.00  0.00    -0.205 F 
ATOM     88  C   UNL A   1      40.392  30.345  35.007  1.00  0.00     0.022 A 
BRANCH  86  89
ATOM     89  S   UNL A   1      41.982  31.953  36.581  1.00  0.00     0.127 S 
ATOM     90  O   UNL A   1      41.107  33.042  37.020  1.00  0.00    -0.237 OA
ATOM     91  O   UNL A   1      41.903  30.745  37.395  1.00  0.00    -0.237 OA
ATOM     92  O   UNL A   1      43.343  32.353  36.234  1.00  0.00    -0.744 OA
ENDBRANCH  86  89
ENDBRANCH  59  82
ENDBRANCH  33  34
ENDBRANCH  26  28
ENDBRANCH  25  26
ENDBRANCH  24  25
ENDBRANCH   1  24
TORSDOF 17
ENDMDL
