MODEL 1
REMARK VINA RESULT:     -11.2      0.000      0.000
REMARK SMILES O=C(OCCOC(=O)[C@H]1CC[C@@H](CNc2ncccn2)O1)c1ccc(-c2c3nc(c(-c4cccc(S(=O)(=O)[O-])c4F)c4ccc([nH]4)c(-c4cccc(S(=O)(=O)[O-])c4F)c4nc(c(-c5cccc(S(=O)(=O)[O-])c5F)c5ccc2[nH]5)C=C4)C=C3)cc1
REMARK SMILES IDX 4 1 3 2 2 3 1 4 22 5 23 6 84 7 24 8 83 9 25 10 26 11 27 12
REMARK SMILES IDX 77 13 28 14 82 15 76 16 78 17 29 18 81 19 75 20 74 21 30 23
REMARK SMILES IDX 62 24 42 25 61 26 43 27 46 28 60 29 79 30 44 31 45 32 59 34
REMARK SMILES IDX 80 35 47 36 31 37 32 38 40 39 33 40 35 41 41 42 34 43 36 44
REMARK SMILES IDX 37 45 38 46 39 47 63 48 64 49 72 50 65 51 67 52 73 53 66 54
REMARK SMILES IDX 68 55 69 56 70 57 71 58 48 59 49 60 57 61 50 62 52 63 58 64
REMARK SMILES IDX 51 65 53 66 54 67 55 68 56 69 5 70 6 71 7 72 8 73 9 74 10 75
REMARK SMILES IDX 21 76 11 77 12 78 13 79 14 80 15 82 16 83 20 84 17 85 19 86
REMARK SMILES IDX 18 87
REMARK H PARENT 78 22 46 33 14 81
REMARK Flexibility Score: inf
ROOT
ATOM      1  C   UNL A   1      31.842  31.175  26.894  1.00  0.00     0.275 C 
ENDROOT
BRANCH   1   2
ATOM      2  O   UNL A   1      32.587  32.405  26.798  1.00  0.00    -0.458 OA
BRANCH   2   3
ATOM      3  C   UNL A   1      33.472  32.961  27.662  1.00  0.00     0.338 C 
ATOM      4  O   UNL A   1      33.379  34.167  27.886  1.00  0.00    -0.246 OA
BRANCH   3   5
ATOM      5  C   UNL A   1      34.650  32.235  28.251  1.00  0.00     0.060 A 
ATOM      6  C   UNL A   1      34.672  30.907  28.684  1.00  0.00     0.016 A 
ATOM      7  C   UNL A   1      35.855  32.966  28.331  1.00  0.00     0.016 A 
ATOM      8  C   UNL A   1      35.853  30.306  29.129  1.00  0.00     0.010 A 
ATOM      9  C   UNL A   1      37.043  32.368  28.770  1.00  0.00     0.010 A 
ATOM     10  C   UNL A   1      37.041  31.032  29.184  1.00  0.00    -0.014 A 
BRANCH  10  11
ATOM     11  C   UNL A   1      38.215  30.443  29.863  1.00  0.00     0.031 A 
ATOM     12  C   UNL A   1      38.509  30.902  31.258  1.00  0.00     0.074 A 
ATOM     13  C   UNL A   1      38.974  29.500  29.276  1.00  0.00     0.049 A 
ATOM     14  N   UNL A   1      39.438  30.494  32.078  1.00  0.00    -0.248 NA
ATOM     15  C   UNL A   1      37.619  31.935  31.815  1.00  0.00     0.031 C 
ATOM     16  C   UNL A   1      38.734  28.932  27.955  1.00  0.00     0.029 A 
ATOM     17  N   UNL A   1      40.116  28.870  29.698  1.00  0.00    -0.354 N 
ATOM     18  C   UNL A   1      39.247  31.219  33.244  1.00  0.00     0.074 A 
ATOM     19  C   UNL A   1      38.136  32.115  33.019  1.00  0.00     0.031 C 
ATOM     20  C   UNL A   1      39.742  28.109  27.628  1.00  0.00     0.029 A 
ATOM     21  C   UNL A   1      40.691  28.074  28.734  1.00  0.00     0.049 A 
ATOM     22  H   UNL A   1      40.489  28.978  30.603  1.00  0.00     0.167 HD
ATOM     23  C   UNL A   1      39.926  31.129  34.408  1.00  0.00     0.034 A 
ATOM     24  C   UNL A   1      41.856  27.398  28.741  1.00  0.00     0.034 A 
ATOM     25  C   UNL A   1      41.047  30.255  34.602  1.00  0.00     0.049 A 
ATOM     26  C   UNL A   1      42.647  27.371  30.018  1.00  0.00     0.074 A 
ATOM     27  C   UNL A   1      41.803  30.063  35.742  1.00  0.00     0.029 A 
ATOM     28  N   UNL A   1      41.597  29.452  33.611  1.00  0.00    -0.354 N 
ATOM     29  N   UNL A   1      42.379  27.962  31.159  1.00  0.00    -0.248 NA
ATOM     30  C   UNL A   1      43.857  26.540  30.039  1.00  0.00     0.031 C 
ATOM     31  C   UNL A   1      42.841  29.180  35.426  1.00  0.00     0.029 A 
ATOM     32  C   UNL A   1      42.702  28.784  34.103  1.00  0.00     0.049 A 
ATOM     33  H   UNL A   1      41.250  29.371  32.694  1.00  0.00     0.167 HD
ATOM     34  C   UNL A   1      43.358  27.542  32.047  1.00  0.00     0.074 A 
ATOM     35  C   UNL A   1      44.224  26.639  31.311  1.00  0.00     0.031 C 
ATOM     36  C   UNL A   1      43.526  27.867  33.353  1.00  0.00     0.034 A 
BRANCH  23  37
ATOM     37  C   UNL A   1      39.473  32.023  35.529  1.00  0.00     0.023 A 
ATOM     38  C   UNL A   1      38.513  31.564  36.454  1.00  0.00     0.012 A 
ATOM     39  C   UNL A   1      39.970  33.334  35.639  1.00  0.00     0.148 A 
ATOM     40  C   UNL A   1      38.016  32.414  37.442  1.00  0.00     0.002 A 
ATOM     41  C   UNL A   1      39.506  34.159  36.655  1.00  0.00     0.091 A 
ATOM     42  F   UNL A   1      40.858  33.760  34.730  1.00  0.00    -0.205 F 
ATOM     43  C   UNL A   1      38.518  33.709  37.545  1.00  0.00     0.022 A 
BRANCH  41  44
ATOM     44  S   UNL A   1      40.138  35.820  36.910  1.00  0.00     0.127 S 
ATOM     45  O   UNL A   1      41.575  35.575  37.023  1.00  0.00    -0.237 OA
ATOM     46  O   UNL A   1      39.729  36.494  35.677  1.00  0.00    -0.237 OA
ATOM     47  O   UNL A   1      39.491  36.315  38.116  1.00  0.00    -0.744 OA
ENDBRANCH  41  44
ENDBRANCH  23  37
BRANCH  24  48
ATOM     48  C   UNL A   1      42.299  26.663  27.521  1.00  0.00     0.023 A 
ATOM     49  C   UNL A   1      43.029  27.330  26.519  1.00  0.00     0.012 A 
ATOM     50  C   UNL A   1      42.037  25.285  27.377  1.00  0.00     0.148 A 
ATOM     51  C   UNL A   1      43.467  26.644  25.384  1.00  0.00     0.002 A 
ATOM     52  C   UNL A   1      42.517  24.598  26.266  1.00  0.00     0.091 A 
ATOM     53  F   UNL A   1      41.333  24.670  28.337  1.00  0.00    -0.205 F 
ATOM     54  C   UNL A   1      43.220  25.279  25.261  1.00  0.00     0.022 A 
BRANCH  52  55
ATOM     55  S   UNL A   1      42.353  22.818  26.083  1.00  0.00     0.127 S 
ATOM     56  O   UNL A   1      42.953  22.599  24.769  1.00  0.00    -0.237 OA
ATOM     57  O   UNL A   1      43.147  22.329  27.211  1.00  0.00    -0.237 OA
ATOM     58  O   UNL A   1      40.926  22.544  26.182  1.00  0.00    -0.744 OA
ENDBRANCH  52  55
ENDBRANCH  24  48
BRANCH  36  59
ATOM     59  C   UNL A   1      44.669  27.224  34.087  1.00  0.00     0.023 A 
ATOM     60  C   UNL A   1      45.944  27.821  34.068  1.00  0.00     0.012 A 
ATOM     61  C   UNL A   1      44.445  26.082  34.880  1.00  0.00     0.148 A 
ATOM     62  C   UNL A   1      46.988  27.275  34.813  1.00  0.00     0.002 A 
ATOM     63  C   UNL A   1      45.474  25.578  35.663  1.00  0.00     0.091 A 
ATOM     64  F   UNL A   1      43.227  25.523  34.866  1.00  0.00    -0.205 F 
ATOM     65  C   UNL A   1      46.749  26.165  35.621  1.00  0.00     0.022 A 
BRANCH  63  66
ATOM     66  S   UNL A   1      45.229  24.224  36.816  1.00  0.00     0.127 S 
ATOM     67  O   UNL A   1      46.570  24.063  37.374  1.00  0.00    -0.237 OA
ATOM     68  O   UNL A   1      44.244  24.781  37.742  1.00  0.00    -0.237 OA
ATOM     69  O   UNL A   1      44.747  23.101  36.023  1.00  0.00    -0.744 OA
ENDBRANCH  63  66
ENDBRANCH  36  59
ENDBRANCH  10  11
ENDBRANCH   3   5
ENDBRANCH   2   3
ENDBRANCH   1   2
BRANCH   1  70
ATOM     70  C   UNL A   1      32.433  30.033  26.064  1.00  0.00     0.274 C 
BRANCH  70  71
ATOM     71  O   UNL A   1      31.437  29.049  25.764  1.00  0.00    -0.460 OA
BRANCH  71  72
ATOM     72  C   UNL A   1      31.482  27.896  26.500  1.00  0.00     0.335 C 
ATOM     73  O   UNL A   1      31.368  27.849  27.719  1.00  0.00    -0.249 OA
BRANCH  72  74
ATOM     74  C   UNL A   1      31.568  26.681  25.566  1.00  0.00     0.228 C 
ATOM     75  C   UNL A   1      30.342  25.800  25.623  1.00  0.00     0.047 C 
ATOM     76  O   UNL A   1      31.766  27.019  24.195  1.00  0.00    -0.361 OA
ATOM     77  C   UNL A   1      29.509  26.314  24.482  1.00  0.00     0.037 C 
ATOM     78  C   UNL A   1      30.566  26.713  23.463  1.00  0.00     0.138 C 
BRANCH  78  79
ATOM     79  C   UNL A   1      30.203  27.939  22.623  1.00  0.00     0.148 C 
BRANCH  79  80
ATOM     80  N   UNL A   1      29.846  29.062  23.452  1.00  0.00    -0.352 N 
ATOM     81  H   UNL A   1      30.011  29.038  24.423  1.00  0.00     0.163 HD
BRANCH  80  82
ATOM     82  C   UNL A   1      29.275  30.165  22.871  1.00  0.00     0.222 A 
ATOM     83  N   UNL A   1      29.013  30.047  21.569  1.00  0.00    -0.222 NA
ATOM     84  N   UNL A   1      28.988  31.258  23.595  1.00  0.00    -0.222 NA
ATOM     85  C   UNL A   1      28.402  31.076  20.962  1.00  0.00     0.117 A 
ATOM     86  C   UNL A   1      28.409  32.280  22.941  1.00  0.00     0.117 A 
ATOM     87  C   UNL A   1      28.080  32.242  21.608  1.00  0.00     0.040 A 
ENDBRANCH  80  82
ENDBRANCH  79  80
ENDBRANCH  78  79
ENDBRANCH  72  74
ENDBRANCH  71  72
ENDBRANCH  70  71
ENDBRANCH   1  70
TORSDOF 17
ENDMDL
MODEL 2
REMARK VINA RESULT:     -11.0      2.373      8.141
REMARK SMILES O=C(OCCOC(=O)[C@H]1CC[C@@H](CNc2ncccn2)O1)c1ccc(-c2c3nc(c(-c4cccc(S(=O)(=O)[O-])c4F)c4ccc([nH]4)c(-c4cccc(S(=O)(=O)[O-])c4F)c4nc(c(-c5cccc(S(=O)(=O)[O-])c5F)c5ccc2[nH]5)C=C4)C=C3)cc1
REMARK SMILES IDX 4 1 3 2 2 3 1 4 22 5 23 6 84 7 24 8 83 9 25 10 26 11 27 12
REMARK SMILES IDX 77 13 28 14 82 15 76 16 78 17 29 18 81 19 75 20 74 21 30 23
REMARK SMILES IDX 62 24 42 25 61 26 43 27 46 28 60 29 79 30 44 31 45 32 59 34
REMARK SMILES IDX 80 35 47 36 31 37 32 38 40 39 33 40 35 41 41 42 34 43 36 44
REMARK SMILES IDX 37 45 38 46 39 47 63 48 64 49 72 50 65 51 67 52 73 53 66 54
REMARK SMILES IDX 68 55 69 56 70 57 71 58 48 59 49 60 57 61 50 62 52 63 58 64
REMARK SMILES IDX 51 65 53 66 54 67 55 68 56 69 5 70 6 71 7 72 8 73 9 74 10 75
REMARK SMILES IDX 21 76 11 77 12 78 13 79 14 80 15 82 16 83 20 84 17 85 19 86
REMARK SMILES IDX 18 87
REMARK H PARENT 78 22 46 33 14 81
REMARK Flexibility Score: inf
ROOT
ATOM      1  C   UNL A   1      32.636  32.464  27.128  1.00  0.00     0.275 C 
ENDROOT
BRANCH   1   2
ATOM      2  O   UNL A   1      32.421  33.811  27.592  1.00  0.00    -0.458 OA
BRANCH   2   3
ATOM      3  C   UNL A   1      33.065  34.518  28.553  1.00  0.00     0.338 C 
ATOM      4  O   UNL A   1      32.710  35.679  28.752  1.00  0.00    -0.246 OA
BRANCH   3   5
ATOM      5  C   UNL A   1      34.282  34.030  29.290  1.00  0.00     0.060 A 
ATOM      6  C   UNL A   1      35.614  34.251  28.929  1.00  0.00     0.016 A 
ATOM      7  C   UNL A   1      34.041  33.314  30.483  1.00  0.00     0.016 A 
ATOM      8  C   UNL A   1      36.668  33.828  29.743  1.00  0.00     0.010 A 
ATOM      9  C   UNL A   1      35.093  32.894  31.306  1.00  0.00     0.010 A 
ATOM     10  C   UNL A   1      36.417  33.141  30.928  1.00  0.00    -0.014 A 
BRANCH  10  11
ATOM     11  C   UNL A   1      37.545  32.515  31.651  1.00  0.00     0.031 A 
ATOM     12  C   UNL A   1      38.227  31.353  30.996  1.00  0.00     0.074 A 
ATOM     13  C   UNL A   1      37.977  32.987  32.834  1.00  0.00     0.049 A 
ATOM     14  N   UNL A   1      39.269  30.680  31.398  1.00  0.00    -0.248 NA
ATOM     15  C   UNL A   1      37.682  30.913  29.701  1.00  0.00     0.031 C 
ATOM     16  C   UNL A   1      37.435  34.152  33.522  1.00  0.00     0.029 A 
ATOM     17  N   UNL A   1      38.954  32.534  33.683  1.00  0.00    -0.354 N 
ATOM     18  C   UNL A   1      39.503  29.736  30.409  1.00  0.00     0.074 A 
ATOM     19  C   UNL A   1      38.479  29.901  29.403  1.00  0.00     0.031 C 
ATOM     20  C   UNL A   1      38.012  34.274  34.727  1.00  0.00     0.029 A 
ATOM     21  C   UNL A   1      38.988  33.204  34.885  1.00  0.00     0.049 A 
ATOM     22  H   UNL A   1      39.570  31.800  33.456  1.00  0.00     0.167 HD
ATOM     23  C   UNL A   1      40.500  28.827  30.338  1.00  0.00     0.034 A 
ATOM     24  C   UNL A   1      39.722  32.974  35.991  1.00  0.00     0.034 A 
ATOM     25  C   UNL A   1      41.490  28.659  31.363  1.00  0.00     0.049 A 
ATOM     26  C   UNL A   1      40.775  31.903  35.929  1.00  0.00     0.074 A 
ATOM     27  C   UNL A   1      42.559  27.784  31.393  1.00  0.00     0.029 A 
ATOM     28  N   UNL A   1      41.506  29.360  32.561  1.00  0.00    -0.354 N 
ATOM     29  N   UNL A   1      41.070  31.104  34.931  1.00  0.00    -0.248 NA
ATOM     30  C   UNL A   1      41.637  31.742  37.106  1.00  0.00     0.031 C 
ATOM     31  C   UNL A   1      43.192  27.923  32.632  1.00  0.00     0.029 A 
ATOM     32  C   UNL A   1      42.549  28.919  33.353  1.00  0.00     0.049 A 
ATOM     33  H   UNL A   1      40.869  30.068  32.809  1.00  0.00     0.167 HD
ATOM     34  C   UNL A   1      42.178  30.375  35.339  1.00  0.00     0.074 A 
ATOM     35  C   UNL A   1      42.505  30.834  36.676  1.00  0.00     0.031 C 
ATOM     36  C   UNL A   1      42.866  29.418  34.669  1.00  0.00     0.034 A 
BRANCH  23  37
ATOM     37  C   UNL A   1      40.528  27.946  29.119  1.00  0.00     0.023 A 
ATOM     38  C   UNL A   1      39.690  26.814  29.047  1.00  0.00     0.012 A 
ATOM     39  C   UNL A   1      41.415  28.221  28.063  1.00  0.00     0.148 A 
ATOM     40  C   UNL A   1      39.773  25.939  27.964  1.00  0.00     0.002 A 
ATOM     41  C   UNL A   1      41.458  27.371  26.966  1.00  0.00     0.091 A 
ATOM     42  F   UNL A   1      42.225  29.284  28.168  1.00  0.00    -0.205 F 
ATOM     43  C   UNL A   1      40.652  26.221  26.922  1.00  0.00     0.022 A 
BRANCH  41  44
ATOM     44  S   UNL A   1      42.509  27.685  25.546  1.00  0.00     0.127 S 
ATOM     45  O   UNL A   1      41.958  28.943  25.044  1.00  0.00    -0.237 OA
ATOM     46  O   UNL A   1      43.830  27.801  26.165  1.00  0.00    -0.237 OA
ATOM     47  O   UNL A   1      42.350  26.537  24.666  1.00  0.00    -0.744 OA
ENDBRANCH  41  44
ENDBRANCH  23  37
BRANCH  24  48
ATOM     48  C   UNL A   1      39.512  33.806  37.211  1.00  0.00     0.023 A 
ATOM     49  C   UNL A   1      39.990  35.129  37.256  1.00  0.00     0.012 A 
ATOM     50  C   UNL A   1      38.792  33.298  38.313  1.00  0.00     0.148 A 
ATOM     51  C   UNL A   1      39.778  35.923  38.385  1.00  0.00     0.002 A 
ATOM     52  C   UNL A   1      38.545  34.111  39.415  1.00  0.00     0.091 A 
ATOM     53  F   UNL A   1      38.352  32.034  38.255  1.00  0.00    -0.205 F 
ATOM     54  C   UNL A   1      39.050  35.419  39.459  1.00  0.00     0.022 A 
BRANCH  52  55
ATOM     55  S   UNL A   1      37.513  33.588  40.790  1.00  0.00     0.127 S 
ATOM     56  O   UNL A   1      36.327  33.088  40.098  1.00  0.00    -0.237 OA
ATOM     57  O   UNL A   1      38.344  32.556  41.411  1.00  0.00    -0.237 OA
ATOM     58  O   UNL A   1      37.315  34.779  41.606  1.00  0.00    -0.744 OA
ENDBRANCH  52  55
ENDBRANCH  24  48
BRANCH  36  59
ATOM     59  C   UNL A   1      44.063  28.818  35.352  1.00  0.00     0.023 A 
ATOM     60  C   UNL A   1      45.339  29.382  35.162  1.00  0.00     0.012 A 
ATOM     61  C   UNL A   1      43.898  27.759  36.265  1.00  0.00     0.148 A 
ATOM     62  C   UNL A   1      46.440  28.882  35.856  1.00  0.00     0.002 A 
ATOM     63  C   UNL A   1      44.988  27.305  36.994  1.00  0.00     0.091 A 
ATOM     64  F   UNL A   1      42.676  27.228  36.414  1.00  0.00    -0.205 F 
ATOM     65  C   UNL A   1      46.262  27.856  36.781  1.00  0.00     0.022 A 
BRANCH  63  66
ATOM     66  S   UNL A   1      44.832  26.066  38.285  1.00  0.00     0.127 S 
ATOM     67  O   UNL A   1      46.213  25.948  38.751  1.00  0.00    -0.237 OA
ATOM     68  O   UNL A   1      43.922  26.716  39.227  1.00  0.00    -0.237 OA
ATOM     69  O   UNL A   1      44.290  24.877  37.641  1.00  0.00    -0.744 OA
ENDBRANCH  63  66
ENDBRANCH  36  59
ENDBRANCH  10  11
ENDBRANCH   3   5
ENDBRANCH   2   3
ENDBRANCH   1   2
BRANCH   1  70
ATOM     70  C   UNL A   1      31.371  31.789  26.593  1.00  0.00     0.274 C 
BRANCH  70  71
ATOM     71  O   UNL A   1      31.695  30.630  25.818  1.00  0.00    -0.460 OA
BRANCH  71  72
ATOM     72  C   UNL A   1      32.257  29.583  26.497  1.00  0.00     0.335 C 
ATOM     73  O   UNL A   1      31.862  29.170  27.581  1.00  0.00    -0.249 OA
BRANCH  72  74
ATOM     74  C   UNL A   1      33.361  28.939  25.647  1.00  0.00     0.228 C 
ATOM     75  C   UNL A   1      33.467  27.445  25.845  1.00  0.00     0.047 C 
ATOM     76  O   UNL A   1      33.213  29.158  24.246  1.00  0.00    -0.361 OA
ATOM     77  C   UNL A   1      32.622  26.901  24.726  1.00  0.00     0.037 C 
ATOM     78  C   UNL A   1      32.863  27.913  23.616  1.00  0.00     0.138 C 
BRANCH  78  79
ATOM     79  C   UNL A   1      31.651  28.165  22.717  1.00  0.00     0.148 C 
BRANCH  79  80
ATOM     80  N   UNL A   1      31.355  29.572  22.611  1.00  0.00    -0.352 N 
ATOM     81  H   UNL A   1      32.082  30.237  22.624  1.00  0.00     0.163 HD
BRANCH  80  82
ATOM     82  C   UNL A   1      30.049  29.970  22.490  1.00  0.00     0.222 A 
ATOM     83  N   UNL A   1      29.495  30.440  23.608  1.00  0.00    -0.222 NA
ATOM     84  N   UNL A   1      29.412  29.905  21.311  1.00  0.00    -0.222 NA
ATOM     85  C   UNL A   1      28.235  30.896  23.533  1.00  0.00     0.117 A 
ATOM     86  C   UNL A   1      28.140  30.340  21.287  1.00  0.00     0.117 A 
ATOM     87  C   UNL A   1      27.494  30.861  22.380  1.00  0.00     0.040 A 
ENDBRANCH  80  82
ENDBRANCH  79  80
ENDBRANCH  78  79
ENDBRANCH  72  74
ENDBRANCH  71  72
ENDBRANCH  70  71
ENDBRANCH   1  70
TORSDOF 17
ENDMDL
MODEL 3
REMARK VINA RESULT:     -10.8      5.962     11.138
REMARK SMILES O=C(OCCOC(=O)[C@H]1CC[C@@H](CNc2ncccn2)O1)c1ccc(-c2c3nc(c(-c4cccc(S(=O)(=O)[O-])c4F)c4ccc([nH]4)c(-c4cccc(S(=O)(=O)[O-])c4F)c4nc(c(-c5cccc(S(=O)(=O)[O-])c5F)c5ccc2[nH]5)C=C4)C=C3)cc1
REMARK SMILES IDX 4 1 3 2 2 3 1 4 22 5 23 6 84 7 24 8 83 9 25 10 26 11 27 12
REMARK SMILES IDX 77 13 28 14 82 15 76 16 78 17 29 18 81 19 75 20 74 21 30 23
REMARK SMILES IDX 62 24 42 25 61 26 43 27 46 28 60 29 79 30 44 31 45 32 59 34
REMARK SMILES IDX 80 35 47 36 31 37 32 38 40 39 33 40 35 41 41 42 34 43 36 44
REMARK SMILES IDX 37 45 38 46 39 47 63 48 64 49 72 50 65 51 67 52 73 53 66 54
REMARK SMILES IDX 68 55 69 56 70 57 71 58 48 59 49 60 57 61 50 62 52 63 58 64
REMARK SMILES IDX 51 65 53 66 54 67 55 68 56 69 5 70 6 71 7 72 8 73 9 74 10 75
REMARK SMILES IDX 21 76 11 77 12 78 13 79 14 80 15 82 16 83 20 84 17 85 19 86
REMARK SMILES IDX 18 87
REMARK H PARENT 78 22 46 33 14 81
REMARK Flexibility Score: inf
ROOT
ATOM      1  C   UNL A   1      37.586  21.087  25.710  1.00  0.00     0.275 C 
ENDROOT
BRANCH   1   2
ATOM      2  O   UNL A   1      38.984  20.733  25.731  1.00  0.00    -0.458 OA
BRANCH   2   3
ATOM      3  C   UNL A   1      39.969  21.113  26.582  1.00  0.00     0.338 C 
ATOM      4  O   UNL A   1      40.548  20.237  27.222  1.00  0.00    -0.246 OA
BRANCH   3   5
ATOM      5  C   UNL A   1      40.301  22.544  26.906  1.00  0.00     0.060 A 
ATOM      6  C   UNL A   1      39.803  23.677  26.258  1.00  0.00     0.016 A 
ATOM      7  C   UNL A   1      41.171  22.748  27.998  1.00  0.00     0.016 A 
ATOM      8  C   UNL A   1      40.109  24.965  26.706  1.00  0.00     0.010 A 
ATOM      9  C   UNL A   1      41.476  24.036  28.457  1.00  0.00     0.010 A 
ATOM     10  C   UNL A   1      40.952  25.153  27.799  1.00  0.00    -0.014 A 
BRANCH  10  11
ATOM     11  C   UNL A   1      41.434  26.516  28.111  1.00  0.00     0.031 A 
ATOM     12  C   UNL A   1      42.856  26.842  27.772  1.00  0.00     0.074 A 
ATOM     13  C   UNL A   1      40.623  27.449  28.642  1.00  0.00     0.049 A 
ATOM     14  N   UNL A   1      43.490  27.975  27.891  1.00  0.00    -0.248 NA
ATOM     15  C   UNL A   1      43.661  25.754  27.191  1.00  0.00     0.031 C 
ATOM     16  C   UNL A   1      39.210  27.261  28.942  1.00  0.00     0.029 A 
ATOM     17  N   UNL A   1      40.874  28.734  29.050  1.00  0.00    -0.354 N 
ATOM     18  C   UNL A   1      44.766  27.738  27.405  1.00  0.00     0.074 A 
ATOM     19  C   UNL A   1      44.830  26.348  27.017  1.00  0.00     0.031 C 
ATOM     20  C   UNL A   1      38.733  28.347  29.571  1.00  0.00     0.029 A 
ATOM     21  C   UNL A   1      39.810  29.321  29.696  1.00  0.00     0.049 A 
ATOM     22  H   UNL A   1      41.732  29.192  28.897  1.00  0.00     0.167 HD
ATOM     23  C   UNL A   1      45.788  28.612  27.273  1.00  0.00     0.034 A 
ATOM     24  C   UNL A   1      39.717  30.509  30.323  1.00  0.00     0.034 A 
ATOM     25  C   UNL A   1      45.715  29.982  27.693  1.00  0.00     0.049 A 
ATOM     26  C   UNL A   1      40.891  31.443  30.240  1.00  0.00     0.074 A 
ATOM     27  C   UNL A   1      46.679  30.966  27.594  1.00  0.00     0.029 A 
ATOM     28  N   UNL A   1      44.620  30.549  28.331  1.00  0.00    -0.354 N 
ATOM     29  N   UNL A   1      42.051  31.249  29.657  1.00  0.00    -0.248 NA
ATOM     30  C   UNL A   1      40.732  32.776  30.835  1.00  0.00     0.031 C 
ATOM     31  C   UNL A   1      46.183  32.117  28.217  1.00  0.00     0.029 A 
ATOM     32  C   UNL A   1      44.893  31.864  28.659  1.00  0.00     0.049 A 
ATOM     33  H   UNL A   1      43.774  30.084  28.521  1.00  0.00     0.167 HD
ATOM     34  C   UNL A   1      42.744  32.446  29.775  1.00  0.00     0.074 A 
ATOM     35  C   UNL A   1      41.868  33.363  30.480  1.00  0.00     0.031 C 
ATOM     36  C   UNL A   1      43.988  32.761  29.336  1.00  0.00     0.034 A 
BRANCH  23  37
ATOM     37  C   UNL A   1      47.061  28.080  26.674  1.00  0.00     0.023 A 
ATOM     38  C   UNL A   1      48.144  27.735  27.509  1.00  0.00     0.012 A 
ATOM     39  C   UNL A   1      47.196  27.962  25.279  1.00  0.00     0.148 A 
ATOM     40  C   UNL A   1      49.361  27.329  26.961  1.00  0.00     0.002 A 
ATOM     41  C   UNL A   1      48.395  27.511  24.743  1.00  0.00     0.091 A 
ATOM     42  F   UNL A   1      46.166  28.327  24.504  1.00  0.00    -0.205 F 
ATOM     43  C   UNL A   1      49.483  27.211  25.579  1.00  0.00     0.022 A 
BRANCH  41  44
ATOM     44  S   UNL A   1      48.628  27.265  22.981  1.00  0.00     0.127 S 
ATOM     45  O   UNL A   1      50.054  27.551  22.829  1.00  0.00    -0.237 OA
ATOM     46  O   UNL A   1      48.268  25.856  22.820  1.00  0.00    -0.237 OA
ATOM     47  O   UNL A   1      47.729  28.201  22.322  1.00  0.00    -0.744 OA
ENDBRANCH  41  44
ENDBRANCH  23  37
BRANCH  24  48
ATOM     48  C   UNL A   1      38.457  30.885  31.026  1.00  0.00     0.023 A 
ATOM     49  C   UNL A   1      38.306  30.619  32.400  1.00  0.00     0.012 A 
ATOM     50  C   UNL A   1      37.422  31.554  30.339  1.00  0.00     0.148 A 
ATOM     51  C   UNL A   1      37.138  30.988  33.071  1.00  0.00     0.002 A 
ATOM     52  C   UNL A   1      36.282  31.960  31.025  1.00  0.00     0.091 A 
ATOM     53  F   UNL A   1      37.580  31.791  29.030  1.00  0.00    -0.205 F 
ATOM     54  C   UNL A   1      36.132  31.665  32.388  1.00  0.00     0.022 A 
BRANCH  52  55
ATOM     55  S   UNL A   1      34.989  32.944  30.257  1.00  0.00     0.127 S 
ATOM     56  O   UNL A   1      34.472  32.021  29.249  1.00  0.00    -0.237 OA
ATOM     57  O   UNL A   1      34.090  33.188  31.386  1.00  0.00    -0.237 OA
ATOM     58  O   UNL A   1      35.654  34.134  29.744  1.00  0.00    -0.744 OA
ENDBRANCH  52  55
ENDBRANCH  24  48
BRANCH  36  59
ATOM     59  C   UNL A   1      44.473  34.163  29.574  1.00  0.00     0.023 A 
ATOM     60  C   UNL A   1      45.115  34.490  30.784  1.00  0.00     0.012 A 
ATOM     61  C   UNL A   1      44.381  35.126  28.551  1.00  0.00     0.148 A 
ATOM     62  C   UNL A   1      45.640  35.767  30.979  1.00  0.00     0.002 A 
ATOM     63  C   UNL A   1      44.956  36.376  28.731  1.00  0.00     0.091 A 
ATOM     64  F   UNL A   1      43.748  34.794  27.417  1.00  0.00    -0.205 F 
ATOM     65  C   UNL A   1      45.574  36.703  29.949  1.00  0.00     0.022 A 
BRANCH  63  66
ATOM     66  S   UNL A   1      45.018  37.603  27.422  1.00  0.00     0.127 S 
ATOM     67  O   UNL A   1      45.600  38.749  28.117  1.00  0.00    -0.237 OA
ATOM     68  O   UNL A   1      45.901  36.967  26.445  1.00  0.00    -0.237 OA
ATOM     69  O   UNL A   1      43.644  37.781  26.971  1.00  0.00    -0.744 OA
ENDBRANCH  63  66
ENDBRANCH  36  59
ENDBRANCH  10  11
ENDBRANCH   3   5
ENDBRANCH   2   3
ENDBRANCH   1   2
BRANCH   1  70
ATOM     70  C   UNL A   1      37.179  21.900  24.479  1.00  0.00     0.274 C 
BRANCH  70  71
ATOM     71  O   UNL A   1      35.887  22.490  24.659  1.00  0.00    -0.460 OA
BRANCH  71  72
ATOM     72  C   UNL A   1      35.343  23.107  23.565  1.00  0.00     0.335 C 
ATOM     73  O   UNL A   1      35.830  23.077  22.441  1.00  0.00    -0.249 OA
BRANCH  72  74
ATOM     74  C   UNL A   1      33.987  23.725  23.932  1.00  0.00     0.228 C 
ATOM     75  C   UNL A   1      33.020  23.766  22.772  1.00  0.00     0.047 C 
ATOM     76  O   UNL A   1      33.318  23.059  25.000  1.00  0.00    -0.361 OA
ATOM     77  C   UNL A   1      32.223  22.505  22.958  1.00  0.00     0.037 C 
ATOM     78  C   UNL A   1      32.164  22.380  24.473  1.00  0.00     0.138 C 
BRANCH  78  79
ATOM     79  C   UNL A   1      32.190  20.940  24.990  1.00  0.00     0.148 C 
BRANCH  79  80
ATOM     80  N   UNL A   1      33.441  20.291  24.688  1.00  0.00    -0.352 N 
ATOM     81  H   UNL A   1      34.213  20.817  24.377  1.00  0.00     0.163 HD
BRANCH  80  82
ATOM     82  C   UNL A   1      33.541  18.933  24.840  1.00  0.00     0.222 A 
ATOM     83  N   UNL A   1      32.500  18.352  25.437  1.00  0.00    -0.222 NA
ATOM     84  N   UNL A   1      34.611  18.263  24.386  1.00  0.00    -0.222 NA
ATOM     85  C   UNL A   1      32.520  17.015  25.561  1.00  0.00     0.117 A 
ATOM     86  C   UNL A   1      34.608  16.930  24.562  1.00  0.00     0.117 A 
ATOM     87  C   UNL A   1      33.572  16.241  25.143  1.00  0.00     0.040 A 
ENDBRANCH  80  82
ENDBRANCH  79  80
ENDBRANCH  78  79
ENDBRANCH  72  74
ENDBRANCH  71  72
ENDBRANCH  70  71
ENDBRANCH   1  70
TORSDOF 17
ENDMDL
