MODEL 1
REMARK VINA RESULT:     -13.3      0.000      0.000
REMARK SMILES Cc1ccc(-c2cc([C@@H](C)C(=O)OCCOC(=O)c3ccc(-c4c5nc(c(-c6cccc(S(=O)(=O)[O-])c6F)c6ccc([nH]6)c(-c6cccc(S(=O)(=O)[O-])c6F)c6nc(c(-c7cccc(S(=O)(=O)[O-])c7F)c7ccc4[nH]7)C=C6)C=C5)cc3)ccc2C[C@H]2CCCC2=O)cc1
REMARK SMILES IDX 14 1 13 2 11 3 12 4 9 5 10 6 8 7 6 8 7 9 84 10 83 11 82 12
REMARK SMILES IDX 5 13 1 14 2 15 3 16 93 17 4 18 92 19 85 20 86 21 87 22 90 23
REMARK SMILES IDX 88 24 89 25 91 26 15 27 16 28 17 29 18 30 19 31 20 32 81 33
REMARK SMILES IDX 21 34 80 35 22 36 23 37 24 38 74 39 25 40 79 41 73 42 75 43
REMARK SMILES IDX 26 44 78 45 72 46 71 47 27 49 59 50 39 51 58 52 40 53 43 54
REMARK SMILES IDX 57 55 76 56 41 57 42 58 56 60 77 61 44 62 28 63 29 64 37 65
REMARK SMILES IDX 30 66 32 67 38 68 31 69 33 70 34 71 35 72 36 73 60 74 61 75
REMARK SMILES IDX 69 76 62 77 64 78 70 79 63 80 65 81 66 82 67 83 68 84 45 85
REMARK SMILES IDX 46 86 54 87 47 88 49 89 55 90 48 91 50 92 51 93 52 94 53 95
REMARK H PARENT 75 48 43 59
REMARK Flexibility Score: inf
ROOT
ATOM      1  C   UNL A   1      33.070  28.563  27.064  1.00  0.00     0.274 C 
ENDROOT
BRANCH   1   2
ATOM      2  O   UNL A   1      32.458  28.689  25.784  1.00  0.00    -0.462 OA
BRANCH   2   3
ATOM      3  C   UNL A   1      31.493  27.744  25.539  1.00  0.00     0.313 C 
ATOM      4  O   UNL A   1      30.896  27.154  26.429  1.00  0.00    -0.252 OA
BRANCH   3   5
ATOM      5  C   UNL A   1      31.407  27.435  24.035  1.00  0.00     0.126 C 
ATOM      6  C   UNL A   1      30.064  27.751  23.383  1.00  0.00     0.025 C 
BRANCH   5   7
ATOM      7  C   UNL A   1      31.745  25.973  23.888  1.00  0.00    -0.033 A 
ATOM      8  C   UNL A   1      33.159  24.103  24.498  1.00  0.00    -0.015 A 
ATOM      9  C   UNL A   1      32.964  25.480  24.359  1.00  0.00     0.013 A 
ATOM     10  C   UNL A   1      32.063  23.243  24.244  1.00  0.00    -0.039 A 
ATOM     11  C   UNL A   1      30.913  23.743  23.616  1.00  0.00     0.004 A 
ATOM     12  C   UNL A   1      30.760  25.099  23.424  1.00  0.00     0.005 A 
BRANCH   8  13
ATOM     13  C   UNL A   1      34.502  23.591  24.800  1.00  0.00    -0.018 A 
ATOM     14  C   UNL A   1      38.427  21.906  25.446  1.00  0.00     0.044 C 
ATOM     15  C   UNL A   1      37.080  22.528  25.240  1.00  0.00    -0.051 A 
ATOM     16  C   UNL A   1      36.626  22.760  23.940  1.00  0.00     0.004 A 
ATOM     17  C   UNL A   1      36.260  22.879  26.321  1.00  0.00     0.004 A 
ATOM     18  C   UNL A   1      35.359  23.292  23.728  1.00  0.00     0.009 A 
ATOM     19  C   UNL A   1      34.982  23.413  26.103  1.00  0.00     0.009 A 
ENDBRANCH   8  13
BRANCH  10  20
ATOM     20  C   UNL A   1      32.017  21.805  24.711  1.00  0.00     0.047 C 
BRANCH  20  21
ATOM     21  C   UNL A   1      32.927  20.841  23.927  1.00  0.00     0.060 C 
ATOM     22  C   UNL A   1      33.542  19.681  24.714  1.00  0.00     0.012 C 
ATOM     23  C   UNL A   1      32.234  20.119  22.794  1.00  0.00     0.136 C 
ATOM     24  C   UNL A   1      32.721  18.437  24.401  1.00  0.00     0.009 C 
ATOM     25  C   UNL A   1      32.156  18.630  23.002  1.00  0.00     0.076 C 
ATOM     26  O   UNL A   1      31.808  20.683  21.791  1.00  0.00    -0.299 OA
ENDBRANCH  20  21
ENDBRANCH  10  20
ENDBRANCH   5   7
ENDBRANCH   3   5
ENDBRANCH   2   3
ENDBRANCH   1   2
BRANCH   1  27
ATOM     27  C   UNL A   1      34.538  29.014  27.062  1.00  0.00     0.275 C 
BRANCH  27  28
ATOM     28  O   UNL A   1      34.942  30.290  27.652  1.00  0.00    -0.458 OA
BRANCH  28  29
ATOM     29  C   UNL A   1      36.118  30.685  28.205  1.00  0.00     0.338 C 
ATOM     30  O   UNL A   1      36.254  31.810  28.677  1.00  0.00    -0.246 OA
BRANCH  29  31
ATOM     31  C   UNL A   1      37.225  29.720  28.201  1.00  0.00     0.060 A 
ATOM     32  C   UNL A   1      38.137  29.671  27.132  1.00  0.00     0.016 A 
ATOM     33  C   UNL A   1      37.434  28.974  29.349  1.00  0.00     0.016 A 
ATOM     34  C   UNL A   1      39.347  28.988  27.279  1.00  0.00     0.010 A 
ATOM     35  C   UNL A   1      38.681  28.450  29.554  1.00  0.00     0.010 A 
ATOM     36  C   UNL A   1      39.632  28.419  28.514  1.00  0.00    -0.014 A 
BRANCH  36  37
ATOM     37  C   UNL A   1      40.721  27.493  28.792  1.00  0.00     0.031 A 
ATOM     38  C   UNL A   1      40.672  26.043  28.560  1.00  0.00     0.074 A 
ATOM     39  C   UNL A   1      41.873  28.171  28.987  1.00  0.00     0.049 A 
ATOM     40  N   UNL A   1      41.601  25.235  28.932  1.00  0.00    -0.248 NA
ATOM     41  C   UNL A   1      39.581  25.352  27.897  1.00  0.00     0.031 C 
ATOM     42  C   UNL A   1      43.253  27.777  28.814  1.00  0.00     0.029 A 
ATOM     43  N   UNL A   1      41.961  29.481  29.481  1.00  0.00    -0.354 N 
ATOM     44  C   UNL A   1      41.379  24.018  28.308  1.00  0.00     0.074 A 
ATOM     45  C   UNL A   1      40.047  24.104  27.779  1.00  0.00     0.031 C 
ATOM     46  C   UNL A   1      44.025  28.676  29.456  1.00  0.00     0.029 A 
ATOM     47  C   UNL A   1      43.136  29.547  30.219  1.00  0.00     0.049 A 
ATOM     48  H   UNL A   1      41.316  30.210  29.332  1.00  0.00     0.167 HD
ATOM     49  C   UNL A   1      42.426  23.154  28.184  1.00  0.00     0.034 A 
ATOM     50  C   UNL A   1      43.051  29.670  31.580  1.00  0.00     0.034 A 
ATOM     51  C   UNL A   1      43.603  23.726  28.855  1.00  0.00     0.049 A 
ATOM     52  C   UNL A   1      43.551  28.402  32.266  1.00  0.00     0.074 A 
ATOM     53  C   UNL A   1      44.688  24.475  28.435  1.00  0.00     0.029 A 
ATOM     54  N   UNL A   1      43.554  23.865  30.226  1.00  0.00    -0.354 N 
ATOM     55  N   UNL A   1      43.937  27.327  31.631  1.00  0.00    -0.248 NA
ATOM     56  C   UNL A   1      43.599  28.224  33.714  1.00  0.00     0.031 C 
ATOM     57  C   UNL A   1      45.244  25.120  29.586  1.00  0.00     0.029 A 
ATOM     58  C   UNL A   1      44.512  24.740  30.700  1.00  0.00     0.049 A 
ATOM     59  H   UNL A   1      42.908  23.395  30.802  1.00  0.00     0.167 HD
ATOM     60  C   UNL A   1      44.180  26.315  32.514  1.00  0.00     0.074 A 
ATOM     61  C   UNL A   1      43.967  26.935  33.814  1.00  0.00     0.031 C 
ATOM     62  C   UNL A   1      44.504  25.043  32.127  1.00  0.00     0.034 A 
BRANCH  49  63
ATOM     63  C   UNL A   1      42.521  21.920  27.297  1.00  0.00     0.023 A 
ATOM     64  C   UNL A   1      41.503  20.952  27.481  1.00  0.00     0.012 A 
ATOM     65  C   UNL A   1      43.504  21.601  26.327  1.00  0.00     0.148 A 
ATOM     66  C   UNL A   1      41.486  19.723  26.816  1.00  0.00     0.002 A 
ATOM     67  C   UNL A   1      43.501  20.356  25.674  1.00  0.00     0.091 A 
ATOM     68  F   UNL A   1      44.427  22.507  25.991  1.00  0.00    -0.205 F 
ATOM     69  C   UNL A   1      42.496  19.417  25.925  1.00  0.00     0.022 A 
BRANCH  67  70
ATOM     70  S   UNL A   1      44.774  19.836  24.505  1.00  0.00     0.127 S 
ATOM     71  O   UNL A   1      44.560  20.760  23.390  1.00  0.00    -0.237 OA
ATOM     72  O   UNL A   1      46.007  20.072  25.254  1.00  0.00    -0.237 OA
ATOM     73  O   UNL A   1      44.498  18.440  24.190  1.00  0.00    -0.744 OA
ENDBRANCH  67  70
ENDBRANCH  49  63
BRANCH  50  74
ATOM     74  C   UNL A   1      41.881  30.528  32.026  1.00  0.00     0.023 A 
ATOM     75  C   UNL A   1      41.763  31.811  31.419  1.00  0.00     0.012 A 
ATOM     76  C   UNL A   1      40.748  30.013  32.686  1.00  0.00     0.148 A 
ATOM     77  C   UNL A   1      40.531  32.470  31.326  1.00  0.00     0.002 A 
ATOM     78  C   UNL A   1      39.529  30.702  32.626  1.00  0.00     0.091 A 
ATOM     79  F   UNL A   1      40.829  28.810  33.267  1.00  0.00    -0.205 F 
ATOM     80  C   UNL A   1      39.409  31.903  31.912  1.00  0.00     0.022 A 
BRANCH  78  81
ATOM     81  S   UNL A   1      38.046  30.084  33.437  1.00  0.00     0.127 S 
ATOM     82  O   UNL A   1      37.938  28.728  32.898  1.00  0.00    -0.237 OA
ATOM     83  O   UNL A   1      38.417  30.154  34.848  1.00  0.00    -0.237 OA
ATOM     84  O   UNL A   1      36.989  30.986  32.998  1.00  0.00    -0.744 OA
ENDBRANCH  78  81
ENDBRANCH  50  74
BRANCH  62  85
ATOM     85  C   UNL A   1      44.860  23.951  33.111  1.00  0.00     0.023 A 
ATOM     86  C   UNL A   1      43.865  23.071  33.574  1.00  0.00     0.012 A 
ATOM     87  C   UNL A   1      46.136  23.860  33.724  1.00  0.00     0.148 A 
ATOM     88  C   UNL A   1      44.140  22.103  34.543  1.00  0.00     0.002 A 
ATOM     89  C   UNL A   1      46.368  22.982  34.772  1.00  0.00     0.091 A 
ATOM     90  F   UNL A   1      47.161  24.581  33.259  1.00  0.00    -0.205 F 
ATOM     91  C   UNL A   1      45.384  22.073  35.160  1.00  0.00     0.022 A 
BRANCH  89  92
ATOM     92  S   UNL A   1      47.871  23.051  35.758  1.00  0.00     0.127 S 
ATOM     93  O   UNL A   1      47.850  24.436  36.234  1.00  0.00    -0.237 OA
ATOM     94  O   UNL A   1      47.600  22.048  36.784  1.00  0.00    -0.237 OA
ATOM     95  O   UNL A   1      48.964  22.749  34.846  1.00  0.00    -0.744 OA
ENDBRANCH  89  92
ENDBRANCH  62  85
ENDBRANCH  36  37
ENDBRANCH  29  31
ENDBRANCH  28  29
ENDBRANCH  27  28
ENDBRANCH   1  27
TORSDOF 18
ENDMDL
MODEL 2
REMARK VINA RESULT:     -13.2      4.348     10.423
REMARK SMILES Cc1ccc(-c2cc([C@@H](C)C(=O)OCCOC(=O)c3ccc(-c4c5nc(c(-c6cccc(S(=O)(=O)[O-])c6F)c6ccc([nH]6)c(-c6cccc(S(=O)(=O)[O-])c6F)c6nc(c(-c7cccc(S(=O)(=O)[O-])c7F)c7ccc4[nH]7)C=C6)C=C5)cc3)ccc2C[C@H]2CCCC2=O)cc1
REMARK SMILES IDX 14 1 13 2 11 3 12 4 9 5 10 6 8 7 6 8 7 9 84 10 83 11 82 12
REMARK SMILES IDX 5 13 1 14 2 15 3 16 93 17 4 18 92 19 85 20 86 21 87 22 90 23
REMARK SMILES IDX 88 24 89 25 91 26 15 27 16 28 17 29 18 30 19 31 20 32 81 33
REMARK SMILES IDX 21 34 80 35 22 36 23 37 24 38 74 39 25 40 79 41 73 42 75 43
REMARK SMILES IDX 26 44 78 45 72 46 71 47 27 49 59 50 39 51 58 52 40 53 43 54
REMARK SMILES IDX 57 55 76 56 41 57 42 58 56 60 77 61 44 62 28 63 29 64 37 65
REMARK SMILES IDX 30 66 32 67 38 68 31 69 33 70 34 71 35 72 36 73 60 74 61 75
REMARK SMILES IDX 69 76 62 77 64 78 70 79 63 80 65 81 66 82 67 83 68 84 45 85
REMARK SMILES IDX 46 86 54 87 47 88 49 89 55 90 48 91 50 92 51 93 52 94 53 95
REMARK H PARENT 75 48 43 59
REMARK Flexibility Score: inf
ROOT
ATOM      1  C   UNL A   1      36.740  22.304  25.746  1.00  0.00     0.274 C 
ENDROOT
BRANCH   1   2
ATOM      2  O   UNL A   1      35.413  22.786  25.936  1.00  0.00    -0.462 OA
BRANCH   2   3
ATOM      3  C   UNL A   1      34.527  22.350  24.982  1.00  0.00     0.313 C 
ATOM      4  O   UNL A   1      34.802  22.294  23.791  1.00  0.00    -0.252 OA
BRANCH   3   5
ATOM      5  C   UNL A   1      33.138  22.117  25.600  1.00  0.00     0.126 C 
ATOM      6  C   UNL A   1      32.425  20.852  25.133  1.00  0.00     0.025 C 
BRANCH   5   7
ATOM      7  C   UNL A   1      32.324  23.344  25.275  1.00  0.00    -0.033 A 
ATOM      8  C   UNL A   1      32.161  25.760  25.194  1.00  0.00    -0.015 A 
ATOM      9  C   UNL A   1      32.730  24.601  25.730  1.00  0.00     0.013 A 
ATOM     10  C   UNL A   1      31.247  25.623  24.121  1.00  0.00    -0.039 A 
ATOM     11  C   UNL A   1      30.733  24.358  23.798  1.00  0.00     0.004 A 
ATOM     12  C   UNL A   1      31.257  23.225  24.382  1.00  0.00     0.005 A 
BRANCH   8  13
ATOM     13  C   UNL A   1      32.447  27.059  25.817  1.00  0.00    -0.018 A 
ATOM     14  C   UNL A   1      33.581  30.806  27.643  1.00  0.00     0.044 C 
ATOM     15  C   UNL A   1      33.153  29.528  26.991  1.00  0.00    -0.051 A 
ATOM     16  C   UNL A   1      33.966  28.956  26.010  1.00  0.00     0.004 A 
ATOM     17  C   UNL A   1      31.958  28.886  27.345  1.00  0.00     0.004 A 
ATOM     18  C   UNL A   1      33.610  27.744  25.428  1.00  0.00     0.009 A 
ATOM     19  C   UNL A   1      31.604  27.663  26.757  1.00  0.00     0.009 A 
ENDBRANCH   8  13
BRANCH  10  20
ATOM     20  C   UNL A   1      30.860  26.771  23.216  1.00  0.00     0.047 C 
BRANCH  20  21
ATOM     21  C   UNL A   1      29.943  27.824  23.864  1.00  0.00     0.060 C 
ATOM     22  C   UNL A   1      30.184  29.284  23.469  1.00  0.00     0.012 C 
ATOM     23  C   UNL A   1      28.476  27.651  23.541  1.00  0.00     0.136 C 
ATOM     24  C   UNL A   1      29.124  29.655  22.441  1.00  0.00     0.009 C 
ATOM     25  C   UNL A   1      27.909  28.791  22.738  1.00  0.00     0.076 C 
ATOM     26  O   UNL A   1      27.807  26.696  23.923  1.00  0.00    -0.299 OA
ENDBRANCH  20  21
ENDBRANCH  10  20
ENDBRANCH   5   7
ENDBRANCH   3   5
ENDBRANCH   2   3
ENDBRANCH   1   2
BRANCH   1  27
ATOM     27  C   UNL A   1      37.797  23.404  25.924  1.00  0.00     0.275 C 
BRANCH  27  28
ATOM     28  O   UNL A   1      39.061  23.139  26.610  1.00  0.00    -0.458 OA
BRANCH  28  29
ATOM     29  C   UNL A   1      40.133  23.940  26.845  1.00  0.00     0.338 C 
ATOM     30  O   UNL A   1      41.277  23.557  26.615  1.00  0.00    -0.246 OA
BRANCH  29  31
ATOM     31  C   UNL A   1      39.873  25.274  27.401  1.00  0.00     0.060 A 
ATOM     32  C   UNL A   1      39.247  25.426  28.651  1.00  0.00     0.016 A 
ATOM     33  C   UNL A   1      40.401  26.365  26.733  1.00  0.00     0.016 A 
ATOM     34  C   UNL A   1      39.290  26.660  29.307  1.00  0.00     0.010 A 
ATOM     35  C   UNL A   1      40.590  27.521  27.442  1.00  0.00     0.010 A 
ATOM     36  C   UNL A   1      40.008  27.691  28.714  1.00  0.00    -0.014 A 
BRANCH  36  37
ATOM     37  C   UNL A   1      39.984  29.088  29.125  1.00  0.00     0.031 A 
ATOM     38  C   UNL A   1      38.923  30.047  28.787  1.00  0.00     0.074 A 
ATOM     39  C   UNL A   1      40.887  29.301  30.108  1.00  0.00     0.049 A 
ATOM     40  N   UNL A   1      38.992  31.302  29.057  1.00  0.00    -0.248 NA
ATOM     41  C   UNL A   1      37.686  29.700  28.111  1.00  0.00     0.031 C 
ATOM     42  C   UNL A   1      40.940  30.296  31.154  1.00  0.00     0.029 A 
ATOM     43  N   UNL A   1      42.068  28.567  30.287  1.00  0.00    -0.354 N 
ATOM     44  C   UNL A   1      37.730  31.845  28.875  1.00  0.00     0.074 A 
ATOM     45  C   UNL A   1      36.988  30.840  28.168  1.00  0.00     0.031 C 
ATOM     46  C   UNL A   1      42.191  30.303  31.657  1.00  0.00     0.029 A 
ATOM     47  C   UNL A   1      43.009  29.450  30.801  1.00  0.00     0.049 A 
ATOM     48  H   UNL A   1      42.203  27.612  30.088  1.00  0.00     0.167 HD
ATOM     49  C   UNL A   1      37.435  33.021  29.498  1.00  0.00     0.034 A 
ATOM     50  C   UNL A   1      44.061  29.824  30.008  1.00  0.00     0.034 A 
ATOM     51  C   UNL A   1      38.632  33.505  30.200  1.00  0.00     0.049 A 
ATOM     52  C   UNL A   1      43.953  31.300  29.633  1.00  0.00     0.074 A 
ATOM     53  C   UNL A   1      39.104  33.398  31.497  1.00  0.00     0.029 A 
ATOM     54  N   UNL A   1      39.712  33.891  29.435  1.00  0.00    -0.354 N 
ATOM     55  N   UNL A   1      42.954  32.071  29.969  1.00  0.00    -0.248 NA
ATOM     56  C   UNL A   1      44.929  32.003  28.806  1.00  0.00     0.031 C 
ATOM     57  C   UNL A   1      40.511  33.663  31.473  1.00  0.00     0.029 A 
ATOM     58  C   UNL A   1      40.881  33.956  30.169  1.00  0.00     0.049 A 
ATOM     59  H   UNL A   1      39.657  34.097  28.473  1.00  0.00     0.167 HD
ATOM     60  C   UNL A   1      43.068  33.288  29.362  1.00  0.00     0.074 A 
ATOM     61  C   UNL A   1      44.336  33.200  28.652  1.00  0.00     0.031 C 
ATOM     62  C   UNL A   1      42.113  34.264  29.452  1.00  0.00     0.034 A 
BRANCH  49  63
ATOM     63  C   UNL A   1      36.065  33.653  29.703  1.00  0.00     0.023 A 
ATOM     64  C   UNL A   1      35.384  34.039  28.522  1.00  0.00     0.012 A 
ATOM     65  C   UNL A   1      35.391  33.927  30.918  1.00  0.00     0.148 A 
ATOM     66  C   UNL A   1      34.160  34.712  28.529  1.00  0.00     0.002 A 
ATOM     67  C   UNL A   1      34.170  34.624  30.929  1.00  0.00     0.091 A 
ATOM     68  F   UNL A   1      35.892  33.483  32.074  1.00  0.00    -0.205 F 
ATOM     69  C   UNL A   1      33.560  35.021  29.735  1.00  0.00     0.022 A 
BRANCH  67  70
ATOM     70  S   UNL A   1      33.302  35.101  32.438  1.00  0.00     0.127 S 
ATOM     71  O   UNL A   1      32.080  35.709  31.907  1.00  0.00    -0.237 OA
ATOM     72  O   UNL A   1      33.095  33.816  33.103  1.00  0.00    -0.237 OA
ATOM     73  O   UNL A   1      34.178  36.030  33.141  1.00  0.00    -0.744 OA
ENDBRANCH  67  70
ENDBRANCH  49  63
BRANCH  50  74
ATOM     74  C   UNL A   1      44.553  28.706  29.108  1.00  0.00     0.023 A 
ATOM     75  C   UNL A   1      44.922  27.487  29.748  1.00  0.00     0.012 A 
ATOM     76  C   UNL A   1      44.318  28.667  27.719  1.00  0.00     0.148 A 
ATOM     77  C   UNL A   1      44.891  26.262  29.071  1.00  0.00     0.002 A 
ATOM     78  C   UNL A   1      44.334  27.441  27.041  1.00  0.00     0.091 A 
ATOM     79  F   UNL A   1      43.970  29.795  27.090  1.00  0.00    -0.205 F 
ATOM     80  C   UNL A   1      44.575  26.238  27.721  1.00  0.00     0.022 A 
BRANCH  78  81
ATOM     81  S   UNL A   1      44.026  27.328  25.271  1.00  0.00     0.127 S 
ATOM     82  O   UNL A   1      43.739  25.904  25.094  1.00  0.00    -0.237 OA
ATOM     83  O   UNL A   1      42.873  28.209  25.104  1.00  0.00    -0.237 OA
ATOM     84  O   UNL A   1      45.272  27.766  24.656  1.00  0.00    -0.744 OA
ENDBRANCH  78  81
ENDBRANCH  50  74
BRANCH  62  85
ATOM     85  C   UNL A   1      42.288  35.642  28.852  1.00  0.00     0.023 A 
ATOM     86  C   UNL A   1      41.838  35.900  27.545  1.00  0.00     0.012 A 
ATOM     87  C   UNL A   1      43.035  36.665  29.490  1.00  0.00     0.148 A 
ATOM     88  C   UNL A   1      42.054  37.135  26.928  1.00  0.00     0.002 A 
ATOM     89  C   UNL A   1      43.354  37.840  28.827  1.00  0.00     0.091 A 
ATOM     90  F   UNL A   1      43.395  36.539  30.771  1.00  0.00    -0.205 F 
ATOM     91  C   UNL A   1      42.832  38.097  27.559  1.00  0.00     0.022 A 
BRANCH  89  92
ATOM     92  S   UNL A   1      44.537  39.020  29.494  1.00  0.00     0.127 S 
ATOM     93  O   UNL A   1      43.841  39.491  30.694  1.00  0.00    -0.237 OA
ATOM     94  O   UNL A   1      45.693  38.167  29.754  1.00  0.00    -0.237 OA
ATOM     95  O   UNL A   1      44.714  40.036  28.467  1.00  0.00    -0.744 OA
ENDBRANCH  89  92
ENDBRANCH  62  85
ENDBRANCH  36  37
ENDBRANCH  29  31
ENDBRANCH  28  29
ENDBRANCH  27  28
ENDBRANCH   1  27
TORSDOF 18
ENDMDL
MODEL 3
REMARK VINA RESULT:     -12.8      1.535      1.932
REMARK SMILES Cc1ccc(-c2cc([C@@H](C)C(=O)OCCOC(=O)c3ccc(-c4c5nc(c(-c6cccc(S(=O)(=O)[O-])c6F)c6ccc([nH]6)c(-c6cccc(S(=O)(=O)[O-])c6F)c6nc(c(-c7cccc(S(=O)(=O)[O-])c7F)c7ccc4[nH]7)C=C6)C=C5)cc3)ccc2C[C@H]2CCCC2=O)cc1
REMARK SMILES IDX 14 1 13 2 11 3 12 4 9 5 10 6 8 7 6 8 7 9 84 10 83 11 82 12
REMARK SMILES IDX 5 13 1 14 2 15 3 16 93 17 4 18 92 19 85 20 86 21 87 22 90 23
REMARK SMILES IDX 88 24 89 25 91 26 15 27 16 28 17 29 18 30 19 31 20 32 81 33
REMARK SMILES IDX 21 34 80 35 22 36 23 37 24 38 74 39 25 40 79 41 73 42 75 43
REMARK SMILES IDX 26 44 78 45 72 46 71 47 27 49 59 50 39 51 58 52 40 53 43 54
REMARK SMILES IDX 57 55 76 56 41 57 42 58 56 60 77 61 44 62 28 63 29 64 37 65
REMARK SMILES IDX 30 66 32 67 38 68 31 69 33 70 34 71 35 72 36 73 60 74 61 75
REMARK SMILES IDX 69 76 62 77 64 78 70 79 63 80 65 81 66 82 67 83 68 84 45 85
REMARK SMILES IDX 46 86 54 87 47 88 49 89 55 90 48 91 50 92 51 93 52 94 53 95
REMARK H PARENT 75 48 43 59
REMARK Flexibility Score: inf
ROOT
ATOM      1  C   UNL A   1      32.152  29.127  27.237  1.00  0.00     0.274 C 
ENDROOT
BRANCH   1   2
ATOM      2  O   UNL A   1      31.408  29.040  26.025  1.00  0.00    -0.462 OA
BRANCH   2   3
ATOM      3  C   UNL A   1      31.726  27.943  25.262  1.00  0.00     0.313 C 
ATOM      4  O   UNL A   1      31.374  26.807  25.547  1.00  0.00    -0.252 OA
BRANCH   3   5
ATOM      5  C   UNL A   1      32.697  28.333  24.134  1.00  0.00     0.126 C 
ATOM      6  C   UNL A   1      32.130  29.294  23.093  1.00  0.00     0.025 C 
BRANCH   5   7
ATOM      7  C   UNL A   1      33.132  27.040  23.491  1.00  0.00    -0.033 A 
ATOM      8  C   UNL A   1      34.204  24.878  23.707  1.00  0.00    -0.015 A 
ATOM      9  C   UNL A   1      34.029  26.193  24.147  1.00  0.00     0.013 A 
ATOM     10  C   UNL A   1      33.381  24.410  22.653  1.00  0.00    -0.039 A 
ATOM     11  C   UNL A   1      32.616  25.319  21.907  1.00  0.00     0.004 A 
ATOM     12  C   UNL A   1      32.503  26.631  22.313  1.00  0.00     0.005 A 
BRANCH   8  13
ATOM     13  C   UNL A   1      35.288  24.065  24.273  1.00  0.00    -0.018 A 
ATOM     14  C   UNL A   1      38.400  21.455  25.744  1.00  0.00     0.044 C 
ATOM     15  C   UNL A   1      37.346  22.395  25.244  1.00  0.00    -0.051 A 
ATOM     16  C   UNL A   1      37.030  22.405  23.884  1.00  0.00     0.004 A 
ATOM     17  C   UNL A   1      36.665  23.263  26.108  1.00  0.00     0.004 A 
ATOM     18  C   UNL A   1      36.021  23.236  23.408  1.00  0.00     0.009 A 
ATOM     19  C   UNL A   1      35.647  24.098  25.626  1.00  0.00     0.009 A 
ENDBRANCH   8  13
BRANCH  10  20
ATOM     20  C   UNL A   1      33.197  22.942  22.341  1.00  0.00     0.047 C 
BRANCH  20  21
ATOM     21  C   UNL A   1      32.149  22.222  23.210  1.00  0.00     0.060 C 
ATOM     22  C   UNL A   1      32.669  21.487  24.448  1.00  0.00     0.012 C 
ATOM     23  C   UNL A   1      31.105  23.139  23.806  1.00  0.00     0.136 C 
ATOM     24  C   UNL A   1      32.393  22.376  25.652  1.00  0.00     0.009 C 
ATOM     25  C   UNL A   1      31.163  23.202  25.310  1.00  0.00     0.076 C 
ATOM     26  O   UNL A   1      30.273  23.743  23.138  1.00  0.00    -0.299 OA
ENDBRANCH  20  21
ENDBRANCH  10  20
ENDBRANCH   5   7
ENDBRANCH   3   5
ENDBRANCH   2   3
ENDBRANCH   1   2
BRANCH   1  27
ATOM     27  C   UNL A   1      33.133  30.308  27.242  1.00  0.00     0.275 C 
BRANCH  27  28
ATOM     28  O   UNL A   1      34.580  30.095  27.251  1.00  0.00    -0.458 OA
BRANCH  28  29
ATOM     29  C   UNL A   1      35.591  30.858  27.740  1.00  0.00     0.338 C 
ATOM     30  O   UNL A   1      35.516  32.083  27.754  1.00  0.00    -0.246 OA
BRANCH  29  31
ATOM     31  C   UNL A   1      36.785  30.162  28.238  1.00  0.00     0.060 A 
ATOM     32  C   UNL A   1      36.791  29.556  29.507  1.00  0.00     0.016 A 
ATOM     33  C   UNL A   1      37.842  29.986  27.361  1.00  0.00     0.016 A 
ATOM     34  C   UNL A   1      37.794  28.641  29.838  1.00  0.00     0.010 A 
ATOM     35  C   UNL A   1      38.724  28.972  27.616  1.00  0.00     0.010 A 
ATOM     36  C   UNL A   1      38.732  28.318  28.864  1.00  0.00    -0.014 A 
BRANCH  36  37
ATOM     37  C   UNL A   1      39.961  27.569  29.085  1.00  0.00     0.031 A 
ATOM     38  C   UNL A   1      40.151  26.148  28.759  1.00  0.00     0.074 A 
ATOM     39  C   UNL A   1      40.986  28.414  29.329  1.00  0.00     0.049 A 
ATOM     40  N   UNL A   1      41.204  25.483  29.081  1.00  0.00    -0.248 NA
ATOM     41  C   UNL A   1      39.185  25.331  28.048  1.00  0.00     0.031 C 
ATOM     42  C   UNL A   1      42.410  28.266  29.136  1.00  0.00     0.029 A 
ATOM     43  N   UNL A   1      40.859  29.685  29.908  1.00  0.00    -0.354 N 
ATOM     44  C   UNL A   1      41.183  24.289  28.378  1.00  0.00     0.074 A 
ATOM     45  C   UNL A   1      39.851  24.188  27.851  1.00  0.00     0.031 C 
ATOM     46  C   UNL A   1      43.028  29.237  29.839  1.00  0.00     0.029 A 
ATOM     47  C   UNL A   1      42.012  29.897  30.654  1.00  0.00     0.049 A 
ATOM     48  H   UNL A   1      40.101  30.306  29.805  1.00  0.00     0.167 HD
ATOM     49  C   UNL A   1      42.357  23.621  28.202  1.00  0.00     0.034 A 
ATOM     50  C   UNL A   1      41.917  29.915  32.020  1.00  0.00     0.034 A 
ATOM     51  C   UNL A   1      43.427  24.336  28.914  1.00  0.00     0.049 A 
ATOM     52  C   UNL A   1      42.624  28.706  32.623  1.00  0.00     0.074 A 
ATOM     53  C   UNL A   1      44.370  25.279  28.548  1.00  0.00     0.029 A 
ATOM     54  N   UNL A   1      43.365  24.375  30.291  1.00  0.00    -0.354 N 
ATOM     55  N   UNL A   1      43.179  27.753  31.921  1.00  0.00    -0.248 NA
ATOM     56  C   UNL A   1      42.711  28.445  34.057  1.00  0.00     0.031 C 
ATOM     57  C   UNL A   1      44.820  25.932  29.742  1.00  0.00     0.029 A 
ATOM     58  C   UNL A   1      44.168  25.364  30.825  1.00  0.00     0.049 A 
ATOM     59  H   UNL A   1      42.811  23.768  30.833  1.00  0.00     0.167 HD
ATOM     60  C   UNL A   1      43.592  26.741  32.737  1.00  0.00     0.074 A 
ATOM     61  C   UNL A   1      43.289  27.231  34.074  1.00  0.00     0.031 C 
ATOM     62  C   UNL A   1      44.120  25.568  32.269  1.00  0.00     0.034 A 
BRANCH  49  63
ATOM     63  C   UNL A   1      42.649  22.480  27.237  1.00  0.00     0.023 A 
ATOM     64  C   UNL A   1      41.896  21.297  27.439  1.00  0.00     0.012 A 
ATOM     65  C   UNL A   1      43.589  22.437  26.178  1.00  0.00     0.148 A 
ATOM     66  C   UNL A   1      42.098  20.127  26.703  1.00  0.00     0.002 A 
ATOM     67  C   UNL A   1      43.810  21.253  25.451  1.00  0.00     0.091 A 
ATOM     68  F   UNL A   1      44.251  23.543  25.828  1.00  0.00    -0.205 F 
ATOM     69  C   UNL A   1      43.068  20.099  25.720  1.00  0.00     0.022 A 
BRANCH  67  70
ATOM     70  S   UNL A   1      45.060  21.089  24.160  1.00  0.00     0.127 S 
ATOM     71  O   UNL A   1      44.538  21.974  23.117  1.00  0.00    -0.237 OA
ATOM     72  O   UNL A   1      46.266  21.583  24.822  1.00  0.00    -0.237 OA
ATOM     73  O   UNL A   1      45.088  19.678  23.792  1.00  0.00    -0.744 OA
ENDBRANCH  67  70
ENDBRANCH  49  63
BRANCH  50  74
ATOM     74  C   UNL A   1      40.624  30.536  32.516  1.00  0.00     0.023 A 
ATOM     75  C   UNL A   1      39.606  29.636  32.943  1.00  0.00     0.012 A 
ATOM     76  C   UNL A   1      40.514  31.882  32.919  1.00  0.00     0.148 A 
ATOM     77  C   UNL A   1      38.625  30.019  33.865  1.00  0.00     0.002 A 
ATOM     78  C   UNL A   1      39.500  32.266  33.807  1.00  0.00     0.091 A 
ATOM     79  F   UNL A   1      41.454  32.752  32.533  1.00  0.00    -0.205 F 
ATOM     80  C   UNL A   1      38.586  31.331  34.313  1.00  0.00     0.022 A 
BRANCH  78  81
ATOM     81  S   UNL A   1      39.320  33.967  34.368  1.00  0.00     0.127 S 
ATOM     82  O   UNL A   1      38.081  33.910  35.144  1.00  0.00    -0.237 OA
ATOM     83  O   UNL A   1      40.531  34.156  35.163  1.00  0.00    -0.237 OA
ATOM     84  O   UNL A   1      39.220  34.746  33.141  1.00  0.00    -0.744 OA
ENDBRANCH  78  81
ENDBRANCH  50  74
BRANCH  62  85
ATOM     85  C   UNL A   1      44.659  24.488  33.181  1.00  0.00     0.023 A 
ATOM     86  C   UNL A   1      43.778  23.569  33.778  1.00  0.00     0.012 A 
ATOM     87  C   UNL A   1      46.014  24.446  33.600  1.00  0.00     0.148 A 
ATOM     88  C   UNL A   1      44.228  22.609  34.688  1.00  0.00     0.002 A 
ATOM     89  C   UNL A   1      46.430  23.576  34.595  1.00  0.00     0.091 A 
ATOM     90  F   UNL A   1      46.931  25.208  32.995  1.00  0.00    -0.205 F 
ATOM     91  C   UNL A   1      45.550  22.627  35.115  1.00  0.00     0.022 A 
BRANCH  89  92
ATOM     92  S   UNL A   1      48.059  23.701  35.350  1.00  0.00     0.127 S 
ATOM     93  O   UNL A   1      48.050  25.080  35.845  1.00  0.00    -0.237 OA
ATOM     94  O   UNL A   1      47.983  22.679  36.390  1.00  0.00    -0.237 OA
ATOM     95  O   UNL A   1      49.017  23.454  34.283  1.00  0.00    -0.744 OA
ENDBRANCH  89  92
ENDBRANCH  62  85
ENDBRANCH  36  37
ENDBRANCH  29  31
ENDBRANCH  28  29
ENDBRANCH  27  28
ENDBRANCH   1  27
TORSDOF 18
ENDMDL
