MODEL 1
REMARK VINA RESULT:     -10.2      0.000      0.000
REMARK SMILES C[C@H]([N@H+](C)CCC(=O)OCCOC(=O)c1ccc(-c2c3nc(c(-c4cccc(S(=O)(=O)[O-])c4F)c4ccc([nH]4)c(-c4cccc(S(=O)(=O)[O-])c4F)c4nc(c(-c5cccc(S(=O)(=O)[O-])c5F)c5ccc2[nH]5)C=C4)C=C3)cc1)C1(C)CC1
REMARK SMILES IDX 10 1 9 2 7 3 8 4 6 5 5 6 3 7 4 8 2 10 1 11 78 12 79 13 80 14
REMARK SMILES IDX 81 15 11 16 12 17 13 18 14 19 15 20 16 21 77 22 17 23 76 24
REMARK SMILES IDX 18 25 19 26 20 27 70 28 21 29 75 30 69 31 71 32 22 33 74 34
REMARK SMILES IDX 68 35 67 36 23 38 55 39 35 40 54 41 36 42 39 43 53 44 72 45
REMARK SMILES IDX 37 46 38 47 52 49 73 50 40 51 24 52 25 53 33 54 26 55 28 56
REMARK SMILES IDX 34 57 27 58 29 59 30 60 31 61 32 62 56 63 57 64 65 65 58 66
REMARK SMILES IDX 60 67 66 68 59 69 61 70 62 71 63 72 64 73 41 74 42 75 50 76
REMARK SMILES IDX 43 77 45 78 51 79 44 80 46 81 47 82 48 83 49 84
REMARK H PARENT 3 9 71 37 39 48
REMARK Flexibility Score: inf
ROOT
ATOM      1  C   UNL A   1      34.750  21.364  25.903  1.00  0.00     0.274 C 
ENDROOT
BRANCH   1   2
ATOM      2  O   UNL A   1      33.628  20.468  25.865  1.00  0.00    -0.462 OA
BRANCH   2   3
ATOM      3  C   UNL A   1      32.989  20.314  24.680  1.00  0.00     0.311 C 
ATOM      4  O   UNL A   1      33.061  19.314  23.974  1.00  0.00    -0.252 OA
BRANCH   3   5
ATOM      5  C   UNL A   1      32.190  21.529  24.265  1.00  0.00     0.184 C 
BRANCH   5   6
ATOM      6  C   UNL A   1      32.928  22.506  23.344  1.00  0.00     0.274 C 
BRANCH   6   7
ATOM      7  N   UNL A   1      32.173  23.740  23.098  1.00  0.00    -0.334 N 
ATOM      8  C   UNL A   1      30.817  23.690  23.615  1.00  0.00     0.332 C 
ATOM      9  H   UNL A   1      32.012  23.797  22.092  1.00  0.00     0.348 HD
BRANCH   7  10
ATOM     10  C   UNL A   1      32.948  24.972  23.321  1.00  0.00     0.186 C 
ATOM     11  C   UNL A   1      34.401  24.615  23.668  1.00  0.00     0.076 C 
BRANCH  10  12
ATOM     12  C   UNL A   1      32.794  26.089  22.273  1.00  0.00     0.019 C 
ATOM     13  C   UNL A   1      32.544  25.573  20.868  1.00  0.00     0.018 C 
ATOM     14  C   UNL A   1      32.050  27.379  22.615  1.00  0.00     0.013 C 
ATOM     15  C   UNL A   1      33.529  27.415  22.409  1.00  0.00     0.013 C 
ENDBRANCH  10  12
ENDBRANCH   7  10
ENDBRANCH   6   7
ENDBRANCH   5   6
ENDBRANCH   3   5
ENDBRANCH   2   3
ENDBRANCH   1   2
BRANCH   1  16
ATOM     16  C   UNL A   1      35.974  20.717  25.253  1.00  0.00     0.275 C 
BRANCH  16  17
ATOM     17  O   UNL A   1      37.044  21.669  25.119  1.00  0.00    -0.458 OA
BRANCH  17  18
ATOM     18  C   UNL A   1      38.250  21.255  25.569  1.00  0.00     0.338 C 
ATOM     19  O   UNL A   1      38.746  20.147  25.463  1.00  0.00    -0.246 OA
BRANCH  18  20
ATOM     20  C   UNL A   1      38.973  22.406  26.127  1.00  0.00     0.060 A 
ATOM     21  C   UNL A   1      38.445  23.682  25.919  1.00  0.00     0.016 A 
ATOM     22  C   UNL A   1      40.190  22.236  26.788  1.00  0.00     0.016 A 
ATOM     23  C   UNL A   1      39.139  24.804  26.366  1.00  0.00     0.010 A 
ATOM     24  C   UNL A   1      40.881  23.362  27.242  1.00  0.00     0.010 A 
ATOM     25  C   UNL A   1      40.367  24.653  27.022  1.00  0.00    -0.014 A 
BRANCH  25  26
ATOM     26  C   UNL A   1      41.136  25.848  27.446  1.00  0.00     0.031 A 
ATOM     27  C   UNL A   1      40.465  26.917  28.260  1.00  0.00     0.074 A 
ATOM     28  C   UNL A   1      42.425  25.978  27.083  1.00  0.00     0.049 A 
ATOM     29  N   UNL A   1      40.938  28.069  28.658  1.00  0.00    -0.248 NA
ATOM     30  C   UNL A   1      39.078  26.659  28.678  1.00  0.00     0.031 C 
ATOM     31  C   UNL A   1      43.180  25.005  26.292  1.00  0.00     0.029 A 
ATOM     32  N   UNL A   1      43.320  26.993  27.310  1.00  0.00    -0.354 N 
ATOM     33  C   UNL A   1      39.899  28.691  29.338  1.00  0.00     0.074 A 
ATOM     34  C   UNL A   1      38.768  27.789  29.297  1.00  0.00     0.031 C 
ATOM     35  C   UNL A   1      44.418  25.480  26.080  1.00  0.00     0.029 A 
ATOM     36  C   UNL A   1      44.533  26.802  26.690  1.00  0.00     0.049 A 
ATOM     37  H   UNL A   1      43.113  27.781  27.862  1.00  0.00     0.167 HD
ATOM     38  C   UNL A   1      39.894  29.897  29.955  1.00  0.00     0.034 A 
ATOM     39  C   UNL A   1      45.606  27.613  26.603  1.00  0.00     0.034 A 
ATOM     40  C   UNL A   1      41.031  30.773  30.024  1.00  0.00     0.049 A 
ATOM     41  C   UNL A   1      45.573  28.947  27.299  1.00  0.00     0.074 A 
ATOM     42  C   UNL A   1      41.136  31.999  30.659  1.00  0.00     0.029 A 
ATOM     43  N   UNL A   1      42.262  30.520  29.439  1.00  0.00    -0.354 N 
ATOM     44  N   UNL A   1      44.617  29.477  28.022  1.00  0.00    -0.248 NA
ATOM     45  C   UNL A   1      46.778  29.783  27.190  1.00  0.00     0.031 C 
ATOM     46  C   UNL A   1      42.430  32.490  30.449  1.00  0.00     0.029 A 
ATOM     47  C   UNL A   1      43.134  31.565  29.695  1.00  0.00     0.049 A 
ATOM     48  H   UNL A   1      42.485  29.715  28.919  1.00  0.00     0.167 HD
ATOM     49  C   UNL A   1      45.110  30.695  28.474  1.00  0.00     0.074 A 
ATOM     50  C   UNL A   1      46.461  30.813  27.965  1.00  0.00     0.031 C 
ATOM     51  C   UNL A   1      44.494  31.641  29.227  1.00  0.00     0.034 A 
BRANCH  38  52
ATOM     52  C   UNL A   1      38.623  30.323  30.640  1.00  0.00     0.023 A 
ATOM     53  C   UNL A   1      38.409  29.965  31.987  1.00  0.00     0.012 A 
ATOM     54  C   UNL A   1      37.669  31.119  29.976  1.00  0.00     0.148 A 
ATOM     55  C   UNL A   1      37.253  30.370  32.654  1.00  0.00     0.002 A 
ATOM     56  C   UNL A   1      36.537  31.549  30.659  1.00  0.00     0.091 A 
ATOM     57  F   UNL A   1      37.878  31.428  28.688  1.00  0.00    -0.205 F 
ATOM     58  C   UNL A   1      36.322  31.169  31.994  1.00  0.00     0.022 A 
BRANCH  56  59
ATOM     59  S   UNL A   1      35.316  32.636  29.913  1.00  0.00     0.127 S 
ATOM     60  O   UNL A   1      36.143  33.767  29.494  1.00  0.00    -0.237 OA
ATOM     61  O   UNL A   1      34.803  31.819  28.813  1.00  0.00    -0.237 OA
ATOM     62  O   UNL A   1      34.344  32.921  30.958  1.00  0.00    -0.744 OA
ENDBRANCH  56  59
ENDBRANCH  38  52
BRANCH  39  63
ATOM     63  C   UNL A   1      46.813  27.163  25.856  1.00  0.00     0.023 A 
ATOM     64  C   UNL A   1      47.691  26.236  26.450  1.00  0.00     0.012 A 
ATOM     65  C   UNL A   1      47.075  27.615  24.548  1.00  0.00     0.148 A 
ATOM     66  C   UNL A   1      48.818  25.783  25.763  1.00  0.00     0.002 A 
ATOM     67  C   UNL A   1      48.170  27.119  23.849  1.00  0.00     0.091 A 
ATOM     68  F   UNL A   1      46.242  28.516  24.007  1.00  0.00    -0.205 F 
ATOM     69  C   UNL A   1      49.051  26.214  24.460  1.00  0.00     0.022 A 
BRANCH  67  70
ATOM     70  S   UNL A   1      48.463  27.522  22.122  1.00  0.00     0.127 S 
ATOM     71  O   UNL A   1      49.672  28.336  22.205  1.00  0.00    -0.237 OA
ATOM     72  O   UNL A   1      48.652  26.198  21.526  1.00  0.00    -0.237 OA
ATOM     73  O   UNL A   1      47.260  28.211  21.675  1.00  0.00    -0.744 OA
ENDBRANCH  67  70
ENDBRANCH  39  63
BRANCH  51  74
ATOM     74  C   UNL A   1      45.278  32.880  29.566  1.00  0.00     0.023 A 
ATOM     75  C   UNL A   1      46.069  32.904  30.732  1.00  0.00     0.012 A 
ATOM     76  C   UNL A   1      45.294  33.987  28.695  1.00  0.00     0.148 A 
ATOM     77  C   UNL A   1      46.843  34.022  31.040  1.00  0.00     0.002 A 
ATOM     78  C   UNL A   1      46.101  35.081  28.987  1.00  0.00     0.091 A 
ATOM     79  F   UNL A   1      44.517  33.954  27.602  1.00  0.00    -0.205 F 
ATOM     80  C   UNL A   1      46.868  35.105  30.163  1.00  0.00     0.022 A 
BRANCH  78  81
ATOM     81  S   UNL A   1      46.260  36.478  27.869  1.00  0.00     0.127 S 
ATOM     82  O   UNL A   1      47.190  37.339  28.596  1.00  0.00    -0.237 OA
ATOM     83  O   UNL A   1      46.817  35.856  26.666  1.00  0.00    -0.237 OA
ATOM     84  O   UNL A   1      44.913  37.006  27.700  1.00  0.00    -0.744 OA
ENDBRANCH  78  81
ENDBRANCH  51  74
ENDBRANCH  25  26
ENDBRANCH  18  20
ENDBRANCH  17  18
ENDBRANCH  16  17
ENDBRANCH   1  16
TORSDOF 18
ENDMDL
MODEL 2
REMARK VINA RESULT:     -10.1      1.723      2.134
REMARK SMILES C[C@H]([N@H+](C)CCC(=O)OCCOC(=O)c1ccc(-c2c3nc(c(-c4cccc(S(=O)(=O)[O-])c4F)c4ccc([nH]4)c(-c4cccc(S(=O)(=O)[O-])c4F)c4nc(c(-c5cccc(S(=O)(=O)[O-])c5F)c5ccc2[nH]5)C=C4)C=C3)cc1)C1(C)CC1
REMARK SMILES IDX 10 1 9 2 7 3 8 4 6 5 5 6 3 7 4 8 2 10 1 11 78 12 79 13 80 14
REMARK SMILES IDX 81 15 11 16 12 17 13 18 14 19 15 20 16 21 77 22 17 23 76 24
REMARK SMILES IDX 18 25 19 26 20 27 70 28 21 29 75 30 69 31 71 32 22 33 74 34
REMARK SMILES IDX 68 35 67 36 23 38 55 39 35 40 54 41 36 42 39 43 53 44 72 45
REMARK SMILES IDX 37 46 38 47 52 49 73 50 40 51 24 52 25 53 33 54 26 55 28 56
REMARK SMILES IDX 34 57 27 58 29 59 30 60 31 61 32 62 56 63 57 64 65 65 58 66
REMARK SMILES IDX 60 67 66 68 59 69 61 70 62 71 63 72 64 73 41 74 42 75 50 76
REMARK SMILES IDX 43 77 45 78 51 79 44 80 46 81 47 82 48 83 49 84
REMARK H PARENT 3 9 71 37 39 48
REMARK Flexibility Score: inf
ROOT
ATOM      1  C   UNL A   1      35.265  21.916  25.850  1.00  0.00     0.274 C 
ENDROOT
BRANCH   1   2
ATOM      2  O   UNL A   1      33.949  21.656  25.336  1.00  0.00    -0.462 OA
BRANCH   2   3
ATOM      3  C   UNL A   1      33.435  22.546  24.453  1.00  0.00     0.311 C 
ATOM      4  O   UNL A   1      33.905  22.780  23.345  1.00  0.00    -0.252 OA
BRANCH   3   5
ATOM      5  C   UNL A   1      32.222  23.283  24.977  1.00  0.00     0.184 C 
BRANCH   5   6
ATOM      6  C   UNL A   1      31.524  24.189  23.960  1.00  0.00     0.274 C 
BRANCH   6   7
ATOM      7  N   UNL A   1      32.094  25.540  23.913  1.00  0.00    -0.334 N 
ATOM      8  C   UNL A   1      32.521  25.932  22.581  1.00  0.00     0.332 C 
ATOM      9  H   UNL A   1      32.980  25.510  24.418  1.00  0.00     0.348 HD
BRANCH   7  10
ATOM     10  C   UNL A   1      31.356  26.530  24.716  1.00  0.00     0.186 C 
ATOM     11  C   UNL A   1      29.986  25.960  25.113  1.00  0.00     0.076 C 
BRANCH  10  12
ATOM     12  C   UNL A   1      32.127  27.205  25.865  1.00  0.00     0.019 C 
ATOM     13  C   UNL A   1      33.490  26.590  26.126  1.00  0.00     0.018 C 
ATOM     14  C   UNL A   1      32.071  28.720  26.055  1.00  0.00     0.013 C 
ATOM     15  C   UNL A   1      31.405  27.828  27.051  1.00  0.00     0.013 C 
ENDBRANCH  10  12
ENDBRANCH   7  10
ENDBRANCH   6   7
ENDBRANCH   5   6
ENDBRANCH   3   5
ENDBRANCH   2   3
ENDBRANCH   1   2
BRANCH   1  16
ATOM     16  C   UNL A   1      36.254  20.865  25.343  1.00  0.00     0.275 C 
BRANCH  16  17
ATOM     17  O   UNL A   1      37.512  21.471  25.001  1.00  0.00    -0.458 OA
BRANCH  17  18
ATOM     18  C   UNL A   1      38.566  21.089  25.757  1.00  0.00     0.338 C 
ATOM     19  O   UNL A   1      38.992  19.960  25.927  1.00  0.00    -0.246 OA
BRANCH  18  20
ATOM     20  C   UNL A   1      39.239  22.287  26.278  1.00  0.00     0.060 A 
ATOM     21  C   UNL A   1      38.711  23.538  25.949  1.00  0.00     0.016 A 
ATOM     22  C   UNL A   1      40.413  22.181  27.026  1.00  0.00     0.016 A 
ATOM     23  C   UNL A   1      39.363  24.698  26.361  1.00  0.00     0.010 A 
ATOM     24  C   UNL A   1      41.061  23.347  27.444  1.00  0.00     0.010 A 
ATOM     25  C   UNL A   1      40.548  24.611  27.102  1.00  0.00    -0.014 A 
BRANCH  25  26
ATOM     26  C   UNL A   1      41.274  25.845  27.490  1.00  0.00     0.031 A 
ATOM     27  C   UNL A   1      40.568  26.912  28.275  1.00  0.00     0.074 A 
ATOM     28  C   UNL A   1      42.558  26.009  27.120  1.00  0.00     0.049 A 
ATOM     29  N   UNL A   1      41.000  28.090  28.639  1.00  0.00    -0.248 NA
ATOM     30  C   UNL A   1      39.191  26.617  28.704  1.00  0.00     0.031 C 
ATOM     31  C   UNL A   1      43.346  25.041  26.355  1.00  0.00     0.029 A 
ATOM     32  N   UNL A   1      43.416  27.061  27.316  1.00  0.00    -0.354 N 
ATOM     33  C   UNL A   1      39.941  28.695  29.304  1.00  0.00     0.074 A 
ATOM     34  C   UNL A   1      38.842  27.753  29.291  1.00  0.00     0.031 C 
ATOM     35  C   UNL A   1      44.565  25.554  26.127  1.00  0.00     0.029 A 
ATOM     36  C   UNL A   1      44.634  26.896  26.699  1.00  0.00     0.049 A 
ATOM     37  H   UNL A   1      43.183  27.857  27.846  1.00  0.00     0.167 HD
ATOM     38  C   UNL A   1      39.894  29.916  29.887  1.00  0.00     0.034 A 
ATOM     39  C   UNL A   1      45.678  27.741  26.587  1.00  0.00     0.034 A 
ATOM     40  C   UNL A   1      41.000  30.834  29.928  1.00  0.00     0.049 A 
ATOM     41  C   UNL A   1      45.600  29.093  27.244  1.00  0.00     0.074 A 
ATOM     42  C   UNL A   1      41.062  32.080  30.527  1.00  0.00     0.029 A 
ATOM     43  N   UNL A   1      42.238  30.608  29.347  1.00  0.00    -0.354 N 
ATOM     44  N   UNL A   1      44.626  29.609  27.954  1.00  0.00    -0.248 NA
ATOM     45  C   UNL A   1      46.773  29.968  27.109  1.00  0.00     0.031 C 
ATOM     46  C   UNL A   1      42.337  32.610  30.301  1.00  0.00     0.029 A 
ATOM     47  C   UNL A   1      43.073  31.690  29.571  1.00  0.00     0.049 A 
ATOM     48  H   UNL A   1      42.488  29.797  28.849  1.00  0.00     0.167 HD
ATOM     49  C   UNL A   1      45.077  30.856  28.371  1.00  0.00     0.074 A 
ATOM     50  C   UNL A   1      46.422  31.008  27.855  1.00  0.00     0.031 C 
ATOM     51  C   UNL A   1      44.428  31.800  29.098  1.00  0.00     0.034 A 
BRANCH  38  52
ATOM     52  C   UNL A   1      38.610  30.317  30.563  1.00  0.00     0.023 A 
ATOM     53  C   UNL A   1      38.405  29.977  31.915  1.00  0.00     0.012 A 
ATOM     54  C   UNL A   1      37.634  31.071  29.883  1.00  0.00     0.148 A 
ATOM     55  C   UNL A   1      37.235  30.359  32.573  1.00  0.00     0.002 A 
ATOM     56  C   UNL A   1      36.488  31.480  30.556  1.00  0.00     0.091 A 
ATOM     57  F   UNL A   1      37.835  31.363  28.589  1.00  0.00    -0.205 F 
ATOM     58  C   UNL A   1      36.283  31.118  31.898  1.00  0.00     0.022 A 
BRANCH  56  59
ATOM     59  S   UNL A   1      35.236  32.516  29.790  1.00  0.00     0.127 S 
ATOM     60  O   UNL A   1      36.027  33.672  29.368  1.00  0.00    -0.237 OA
ATOM     61  O   UNL A   1      34.763  31.671  28.693  1.00  0.00    -0.237 OA
ATOM     62  O   UNL A   1      34.244  32.775  30.824  1.00  0.00    -0.744 OA
ENDBRANCH  56  59
ENDBRANCH  38  52
BRANCH  39  63
ATOM     63  C   UNL A   1      46.900  27.314  25.849  1.00  0.00     0.023 A 
ATOM     64  C   UNL A   1      47.012  27.591  24.474  1.00  0.00     0.012 A 
ATOM     65  C   UNL A   1      47.966  26.672  26.509  1.00  0.00     0.148 A 
ATOM     66  C   UNL A   1      48.155  27.220  23.764  1.00  0.00     0.002 A 
ATOM     67  C   UNL A   1      49.123  26.352  25.809  1.00  0.00     0.091 A 
ATOM     68  F   UNL A   1      47.832  26.393  27.814  1.00  0.00    -0.205 F 
ATOM     69  C   UNL A   1      49.214  26.612  24.433  1.00  0.00     0.022 A 
BRANCH  67  70
ATOM     70  S   UNL A   1      50.582  25.692  26.624  1.00  0.00     0.127 S 
ATOM     71  O   UNL A   1      51.510  25.546  25.506  1.00  0.00    -0.237 OA
ATOM     72  O   UNL A   1      50.918  26.760  27.567  1.00  0.00    -0.237 OA
ATOM     73  O   UNL A   1      50.146  24.455  27.257  1.00  0.00    -0.744 OA
ENDBRANCH  67  70
ENDBRANCH  39  63
BRANCH  51  74
ATOM     74  C   UNL A   1      45.168  33.076  29.399  1.00  0.00     0.023 A 
ATOM     75  C   UNL A   1      45.973  33.155  30.553  1.00  0.00     0.012 A 
ATOM     76  C   UNL A   1      45.130  34.164  28.506  1.00  0.00     0.148 A 
ATOM     77  C   UNL A   1      46.708  34.308  30.826  1.00  0.00     0.002 A 
ATOM     78  C   UNL A   1      45.898  35.294  28.763  1.00  0.00     0.091 A 
ATOM     79  F   UNL A   1      44.340  34.077  27.425  1.00  0.00    -0.205 F 
ATOM     80  C   UNL A   1      46.680  35.372  29.927  1.00  0.00     0.022 A 
BRANCH  78  81
ATOM     81  S   UNL A   1      45.988  36.672  27.613  1.00  0.00     0.127 S 
ATOM     82  O   UNL A   1      44.609  37.155  27.618  1.00  0.00    -0.237 OA
ATOM     83  O   UNL A   1      46.949  37.563  28.266  1.00  0.00    -0.237 OA
ATOM     84  O   UNL A   1      46.453  36.107  26.354  1.00  0.00    -0.744 OA
ENDBRANCH  78  81
ENDBRANCH  51  74
ENDBRANCH  25  26
ENDBRANCH  18  20
ENDBRANCH  17  18
ENDBRANCH  16  17
ENDBRANCH   1  16
TORSDOF 18
ENDMDL
MODEL 3
REMARK VINA RESULT:     -10.0      1.661      8.072
REMARK SMILES C[C@H]([N@H+](C)CCC(=O)OCCOC(=O)c1ccc(-c2c3nc(c(-c4cccc(S(=O)(=O)[O-])c4F)c4ccc([nH]4)c(-c4cccc(S(=O)(=O)[O-])c4F)c4nc(c(-c5cccc(S(=O)(=O)[O-])c5F)c5ccc2[nH]5)C=C4)C=C3)cc1)C1(C)CC1
REMARK SMILES IDX 10 1 9 2 7 3 8 4 6 5 5 6 3 7 4 8 2 10 1 11 78 12 79 13 80 14
REMARK SMILES IDX 81 15 11 16 12 17 13 18 14 19 15 20 16 21 77 22 17 23 76 24
REMARK SMILES IDX 18 25 19 26 20 27 70 28 21 29 75 30 69 31 71 32 22 33 74 34
REMARK SMILES IDX 68 35 67 36 23 38 55 39 35 40 54 41 36 42 39 43 53 44 72 45
REMARK SMILES IDX 37 46 38 47 52 49 73 50 40 51 24 52 25 53 33 54 26 55 28 56
REMARK SMILES IDX 34 57 27 58 29 59 30 60 31 61 32 62 56 63 57 64 65 65 58 66
REMARK SMILES IDX 60 67 66 68 59 69 61 70 62 71 63 72 64 73 41 74 42 75 50 76
REMARK SMILES IDX 43 77 45 78 51 79 44 80 46 81 47 82 48 83 49 84
REMARK H PARENT 3 9 71 37 39 48
REMARK Flexibility Score: inf
ROOT
ATOM      1  C   UNL A   1      35.664  22.003  25.791  1.00  0.00     0.274 C 
ENDROOT
BRANCH   1   2
ATOM      2  O   UNL A   1      34.324  21.522  25.982  1.00  0.00    -0.462 OA
BRANCH   2   3
ATOM      3  C   UNL A   1      33.410  21.814  25.025  1.00  0.00     0.311 C 
ATOM      4  O   UNL A   1      33.678  22.026  23.848  1.00  0.00    -0.252 OA
BRANCH   3   5
ATOM      5  C   UNL A   1      31.994  21.904  25.551  1.00  0.00     0.184 C 
BRANCH   5   6
ATOM      6  C   UNL A   1      31.459  23.327  25.730  1.00  0.00     0.274 C 
BRANCH   6   7
ATOM      7  N   UNL A   1      31.597  24.146  24.520  1.00  0.00    -0.334 N 
ATOM      8  C   UNL A   1      30.656  23.782  23.476  1.00  0.00     0.332 C 
ATOM      9  H   UNL A   1      32.491  23.901  24.093  1.00  0.00     0.348 HD
BRANCH   7  10
ATOM     10  C   UNL A   1      31.806  25.579  24.787  1.00  0.00     0.186 C 
ATOM     11  C   UNL A   1      31.190  25.950  26.143  1.00  0.00     0.076 C 
BRANCH  10  12
ATOM     12  C   UNL A   1      33.226  26.128  24.556  1.00  0.00     0.019 C 
ATOM     13  C   UNL A   1      34.302  25.368  25.309  1.00  0.00     0.018 C 
ATOM     14  C   UNL A   1      33.653  26.625  23.176  1.00  0.00     0.013 C 
ATOM     15  C   UNL A   1      33.474  27.606  24.289  1.00  0.00     0.013 C 
ENDBRANCH  10  12
ENDBRANCH   7  10
ENDBRANCH   6   7
ENDBRANCH   5   6
ENDBRANCH   3   5
ENDBRANCH   2   3
ENDBRANCH   1   2
BRANCH   1  16
ATOM     16  C   UNL A   1      36.618  20.838  25.525  1.00  0.00     0.275 C 
BRANCH  16  17
ATOM     17  O   UNL A   1      37.915  21.320  25.134  1.00  0.00    -0.458 OA
BRANCH  17  18
ATOM     18  C   UNL A   1      38.909  21.103  26.026  1.00  0.00     0.338 C 
ATOM     19  O   UNL A   1      39.392  20.036  26.360  1.00  0.00    -0.246 OA
BRANCH  18  20
ATOM     20  C   UNL A   1      39.439  22.399  26.474  1.00  0.00     0.060 A 
ATOM     21  C   UNL A   1      38.932  23.560  25.885  1.00  0.00     0.016 A 
ATOM     22  C   UNL A   1      40.469  22.465  27.413  1.00  0.00     0.016 A 
ATOM     23  C   UNL A   1      39.461  24.801  26.229  1.00  0.00     0.010 A 
ATOM     24  C   UNL A   1      40.994  23.712  27.761  1.00  0.00     0.010 A 
ATOM     25  C   UNL A   1      40.503  24.887  27.160  1.00  0.00    -0.014 A 
BRANCH  25  26
ATOM     26  C   UNL A   1      41.108  26.202  27.482  1.00  0.00     0.031 A 
ATOM     27  C   UNL A   1      42.523  26.493  27.074  1.00  0.00     0.074 A 
ATOM     28  C   UNL A   1      40.391  27.120  28.156  1.00  0.00     0.049 A 
ATOM     29  N   UNL A   1      43.255  27.545  27.330  1.00  0.00    -0.248 NA
ATOM     30  C   UNL A   1      43.207  25.464  26.274  1.00  0.00     0.031 C 
ATOM     31  C   UNL A   1      39.009  26.948  28.605  1.00  0.00     0.029 A 
ATOM     32  N   UNL A   1      40.736  28.371  28.602  1.00  0.00    -0.354 N 
ATOM     33  C   UNL A   1      44.496  27.292  26.761  1.00  0.00     0.074 A 
ATOM     34  C   UNL A   1      44.419  25.984  26.146  1.00  0.00     0.031 C 
ATOM     35  C   UNL A   1      38.630  28.043  29.283  1.00  0.00     0.029 A 
ATOM     36  C   UNL A   1      39.750  28.978  29.345  1.00  0.00     0.049 A 
ATOM     37  H   UNL A   1      41.605  28.792  28.410  1.00  0.00     0.167 HD
ATOM     38  C   UNL A   1      45.595  28.084  26.738  1.00  0.00     0.034 A 
ATOM     39  C   UNL A   1      39.759  30.145  30.019  1.00  0.00     0.034 A 
ATOM     40  C   UNL A   1      45.655  29.397  27.320  1.00  0.00     0.049 A 
ATOM     41  C   UNL A   1      40.992  31.006  29.977  1.00  0.00     0.074 A 
ATOM     42  C   UNL A   1      46.711  30.292  27.316  1.00  0.00     0.029 A 
ATOM     43  N   UNL A   1      44.618  30.005  28.010  1.00  0.00    -0.354 N 
ATOM     44  N   UNL A   1      42.123  30.795  29.350  1.00  0.00    -0.248 NA
ATOM     45  C   UNL A   1      40.941  32.278  30.712  1.00  0.00     0.031 C 
ATOM     46  C   UNL A   1      46.313  31.440  28.012  1.00  0.00     0.029 A 
ATOM     47  C   UNL A   1      45.006  31.264  28.438  1.00  0.00     0.049 A 
ATOM     48  H   UNL A   1      43.734  29.603  28.171  1.00  0.00     0.167 HD
ATOM     49  C   UNL A   1      42.910  31.916  29.593  1.00  0.00     0.074 A 
ATOM     50  C   UNL A   1      42.115  32.815  30.404  1.00  0.00     0.031 C 
ATOM     51  C   UNL A   1      44.182  32.169  29.197  1.00  0.00     0.034 A 
BRANCH  38  52
ATOM     52  C   UNL A   1      46.815  27.563  26.026  1.00  0.00     0.023 A 
ATOM     53  C   UNL A   1      46.975  27.821  24.650  1.00  0.00     0.012 A 
ATOM     54  C   UNL A   1      47.823  26.869  26.722  1.00  0.00     0.148 A 
ATOM     55  C   UNL A   1      48.109  27.373  23.971  1.00  0.00     0.002 A 
ATOM     56  C   UNL A   1      48.968  26.459  26.047  1.00  0.00     0.091 A 
ATOM     57  F   UNL A   1      47.641  26.611  28.026  1.00  0.00    -0.205 F 
ATOM     58  C   UNL A   1      49.108  26.701  24.671  1.00  0.00     0.022 A 
BRANCH  56  59
ATOM     59  S   UNL A   1      50.338  25.646  26.877  1.00  0.00     0.127 S 
ATOM     60  O   UNL A   1      51.259  25.410  25.766  1.00  0.00    -0.237 OA
ATOM     61  O   UNL A   1      50.779  26.670  27.825  1.00  0.00    -0.237 OA
ATOM     62  O   UNL A   1      49.779  24.452  27.495  1.00  0.00    -0.744 OA
ENDBRANCH  56  59
ENDBRANCH  38  52
BRANCH  39  63
ATOM     63  C   UNL A   1      38.542  30.579  30.761  1.00  0.00     0.023 A 
ATOM     64  C   UNL A   1      38.448  30.332  32.144  1.00  0.00     0.012 A 
ATOM     65  C   UNL A   1      37.497  31.269  30.115  1.00  0.00     0.148 A 
ATOM     66  C   UNL A   1      37.328  30.747  32.866  1.00  0.00     0.002 A 
ATOM     67  C   UNL A   1      36.409  31.727  30.849  1.00  0.00     0.091 A 
ATOM     68  F   UNL A   1      37.592  31.474  28.793  1.00  0.00    -0.205 F 
ATOM     69  C   UNL A   1      36.316  31.454  32.222  1.00  0.00     0.022 A 
BRANCH  67  70
ATOM     70  S   UNL A   1      35.132  32.759  30.121  1.00  0.00     0.127 S 
ATOM     71  O   UNL A   1      34.284  33.046  31.276  1.00  0.00    -0.237 OA
ATOM     72  O   UNL A   1      35.903  33.901  29.626  1.00  0.00    -0.237 OA
ATOM     73  O   UNL A   1      34.528  31.948  29.073  1.00  0.00    -0.744 OA
ENDBRANCH  67  70
ENDBRANCH  39  63
BRANCH  51  74
ATOM     74  C   UNL A   1      44.793  33.479  29.616  1.00  0.00     0.023 A 
ATOM     75  C   UNL A   1      45.553  33.543  30.802  1.00  0.00     0.012 A 
ATOM     76  C   UNL A   1      44.683  34.623  28.802  1.00  0.00     0.148 A 
ATOM     77  C   UNL A   1      46.171  34.733  31.184  1.00  0.00     0.002 A 
ATOM     78  C   UNL A   1      45.337  35.794  29.168  1.00  0.00     0.091 A 
ATOM     79  F   UNL A   1      43.938  34.548  27.690  1.00  0.00    -0.205 F 
ATOM     80  C   UNL A   1      46.073  35.854  30.362  1.00  0.00     0.022 A 
BRANCH  78  81
ATOM     81  S   UNL A   1      45.335  37.257  28.124  1.00  0.00     0.127 S 
ATOM     82  O   UNL A   1      46.164  38.178  28.899  1.00  0.00    -0.237 OA
ATOM     83  O   UNL A   1      45.958  36.764  26.893  1.00  0.00    -0.237 OA
ATOM     84  O   UNL A   1      43.937  37.638  27.977  1.00  0.00    -0.744 OA
ENDBRANCH  78  81
ENDBRANCH  51  74
ENDBRANCH  25  26
ENDBRANCH  18  20
ENDBRANCH  17  18
ENDBRANCH  16  17
ENDBRANCH   1  16
TORSDOF 18
ENDMDL
