MODEL 1
REMARK VINA RESULT:     -12.8      0.000      0.000
REMARK SMILES C[C@@H]1CCc2nc(NC(=O)[C@H]3CC=CC[C@@H]3C(=O)OCCOC(=O)c3ccc(-c4c5nc(c(-c6cccc(S(=O)(=O)[O-])c6F)c6ccc([nH]6)c(-c6cccc(S(=O)(=O)[O-])c6F)c6nc(c(-c7cccc(S(=O)(=O)[O-])c7F)c7ccc4[nH]7)C=C6)C=C5)cc3)sc2C1
REMARK SMILES IDX 21 1 20 2 19 3 17 4 18 5 16 6 11 7 12 8 13 9 15 10 14 11
REMARK SMILES IDX 9 12 8 13 10 15 7 16 1 17 2 18 3 19 90 20 4 21 89 22 5 23
REMARK SMILES IDX 88 24 6 25 22 26 23 27 24 28 25 29 26 30 87 31 27 32 86 33
REMARK SMILES IDX 28 34 29 35 30 36 80 37 31 38 85 39 79 40 81 41 32 42 84 43
REMARK SMILES IDX 78 44 77 45 33 47 65 48 45 49 64 50 46 51 49 52 63 53 82 54
REMARK SMILES IDX 47 55 48 56 62 58 83 59 50 60 34 61 35 62 43 63 36 64 38 65
REMARK SMILES IDX 44 66 37 67 39 68 40 69 41 70 42 71 66 72 67 73 75 74 68 75
REMARK SMILES IDX 70 76 76 77 69 78 71 79 72 80 73 81 74 82 51 83 52 84 60 85
REMARK SMILES IDX 53 86 55 87 61 88 54 89 56 90 57 91 58 92 59 93
REMARK H PARENT 8 14 81 46 49 57
REMARK Flexibility Score: inf
ROOT
ATOM      1  C   UNL A   1      33.482  31.485  27.576  1.00  0.00     0.275 C 
ENDROOT
BRANCH   1   2
ATOM      2  C   UNL A   1      33.405  29.995  27.231  1.00  0.00     0.274 C 
BRANCH   2   3
ATOM      3  O   UNL A   1      32.070  29.563  26.905  1.00  0.00    -0.462 OA
BRANCH   3   4
ATOM      4  C   UNL A   1      31.762  28.235  26.967  1.00  0.00     0.310 C 
ATOM      5  O   UNL A   1      31.174  27.719  27.912  1.00  0.00    -0.252 OA
BRANCH   4   6
ATOM      6  C   UNL A   1      32.177  27.499  25.676  1.00  0.00     0.116 C 
ATOM      7  C   UNL A   1      31.058  27.104  24.713  1.00  0.00     0.097 C 
ATOM      8  C   UNL A   1      30.146  26.040  25.344  1.00  0.00     0.041 C 
ATOM      9  C   UNL A   1      30.934  24.889  25.885  1.00  0.00    -0.030 C 
ATOM     10  C   UNL A   1      32.995  26.283  26.088  1.00  0.00     0.043 C 
ATOM     11  C   UNL A   1      32.232  24.998  26.188  1.00  0.00    -0.030 C 
BRANCH   7  12
ATOM     12  C   UNL A   1      31.312  26.764  23.201  1.00  0.00     0.230 C 
ATOM     13  N   UNL A   1      32.257  26.014  22.579  1.00  0.00    -0.302 N 
ATOM     14  H   UNL A   1      32.411  26.340  21.663  1.00  0.00     0.172 HD
ATOM     15  O   UNL A   1      30.578  27.380  22.398  1.00  0.00    -0.274 OA
BRANCH  13  16
ATOM     16  C   UNL A   1      33.057  24.939  22.853  1.00  0.00     0.189 A 
ATOM     17  C   UNL A   1      35.082  21.926  26.545  1.00  0.00     0.008 C 
ATOM     18  C   UNL A   1      35.046  21.328  25.129  1.00  0.00    -0.009 C 
ATOM     19  C   UNL A   1      36.227  21.879  24.293  1.00  0.00     0.010 C 
ATOM     20  C   UNL A   1      33.696  21.567  24.391  1.00  0.00     0.052 C 
ATOM     21  C   UNL A   1      36.128  23.412  24.062  1.00  0.00     0.058 C 
ATOM     22  C   UNL A   1      33.743  22.827  23.591  1.00  0.00     0.030 A 
ATOM     23  C   UNL A   1      34.758  23.758  23.583  1.00  0.00     0.057 A 
ATOM     24  S   UNL A   1      32.688  23.341  22.332  1.00  0.00    -0.101 S 
ATOM     25  N   UNL A   1      34.339  25.023  23.179  1.00  0.00    -0.225 NA
ENDBRANCH  13  16
ENDBRANCH   7  12
ENDBRANCH   4   6
ENDBRANCH   3   4
ENDBRANCH   2   3
ENDBRANCH   1   2
BRANCH   1  26
ATOM     26  O   UNL A   1      34.837  31.940  27.636  1.00  0.00    -0.458 OA
BRANCH  26  27
ATOM     27  C   UNL A   1      35.447  31.746  28.824  1.00  0.00     0.338 C 
ATOM     28  O   UNL A   1      35.089  32.160  29.912  1.00  0.00    -0.246 OA
BRANCH  27  29
ATOM     29  C   UNL A   1      36.778  31.187  28.667  1.00  0.00     0.060 A 
ATOM     30  C   UNL A   1      36.855  29.857  28.241  1.00  0.00     0.016 A 
ATOM     31  C   UNL A   1      37.861  31.854  29.246  1.00  0.00     0.016 A 
ATOM     32  C   UNL A   1      38.004  29.149  28.505  1.00  0.00     0.010 A 
ATOM     33  C   UNL A   1      39.012  31.144  29.507  1.00  0.00     0.010 A 
ATOM     34  C   UNL A   1      39.051  29.789  29.179  1.00  0.00    -0.014 A 
BRANCH  34  35
ATOM     35  C   UNL A   1      40.268  29.029  29.376  1.00  0.00     0.031 A 
ATOM     36  C   UNL A   1      40.573  28.796  30.809  1.00  0.00     0.074 A 
ATOM     37  C   UNL A   1      40.970  28.480  28.371  1.00  0.00     0.049 A 
ATOM     38  N   UNL A   1      41.596  29.214  31.478  1.00  0.00    -0.248 NA
ATOM     39  C   UNL A   1      39.526  28.166  31.629  1.00  0.00     0.031 C 
ATOM     40  C   UNL A   1      40.596  28.396  26.957  1.00  0.00     0.029 A 
ATOM     41  N   UNL A   1      42.105  27.734  28.442  1.00  0.00    -0.354 N 
ATOM     42  C   UNL A   1      41.429  28.690  32.756  1.00  0.00     0.074 A 
ATOM     43  C   UNL A   1      40.067  28.236  32.844  1.00  0.00     0.031 C 
ATOM     44  C   UNL A   1      41.336  27.431  26.368  1.00  0.00     0.029 A 
ATOM     45  C   UNL A   1      42.308  26.932  27.325  1.00  0.00     0.049 A 
ATOM     46  H   UNL A   1      42.723  27.759  29.209  1.00  0.00     0.167 HD
ATOM     47  C   UNL A   1      42.496  28.421  33.554  1.00  0.00     0.034 A 
ATOM     48  C   UNL A   1      43.147  25.871  27.246  1.00  0.00     0.034 A 
ATOM     49  C   UNL A   1      43.678  29.119  33.124  1.00  0.00     0.049 A 
ATOM     50  C   UNL A   1      44.135  25.998  28.343  1.00  0.00     0.074 A 
ATOM     51  C   UNL A   1      44.017  30.442  32.927  1.00  0.00     0.029 A 
ATOM     52  N   UNL A   1      44.634  28.382  32.470  1.00  0.00    -0.354 N 
ATOM     53  N   UNL A   1      45.048  26.927  28.391  1.00  0.00    -0.248 NA
ATOM     54  C   UNL A   1      43.869  25.317  29.600  1.00  0.00     0.031 C 
ATOM     55  C   UNL A   1      44.884  30.439  31.796  1.00  0.00     0.029 A 
ATOM     56  C   UNL A   1      45.056  29.112  31.393  1.00  0.00     0.049 A 
ATOM     57  H   UNL A   1      44.957  27.489  32.730  1.00  0.00     0.167 HD
ATOM     58  C   UNL A   1      45.134  27.257  29.737  1.00  0.00     0.074 A 
ATOM     59  C   UNL A   1      44.493  26.148  30.439  1.00  0.00     0.031 C 
ATOM     60  C   UNL A   1      45.449  28.527  30.130  1.00  0.00     0.034 A 
BRANCH  47  61
ATOM     61  C   UNL A   1      42.565  27.234  34.483  1.00  0.00     0.023 A 
ATOM     62  C   UNL A   1      42.193  27.441  35.829  1.00  0.00     0.012 A 
ATOM     63  C   UNL A   1      43.231  26.022  34.181  1.00  0.00     0.148 A 
ATOM     64  C   UNL A   1      42.512  26.514  36.827  1.00  0.00     0.002 A 
ATOM     65  C   UNL A   1      43.463  25.065  35.159  1.00  0.00     0.091 A 
ATOM     66  F   UNL A   1      43.778  25.836  32.977  1.00  0.00    -0.205 F 
ATOM     67  C   UNL A   1      43.138  25.319  36.492  1.00  0.00     0.022 A 
BRANCH  65  68
ATOM     68  S   UNL A   1      44.213  23.483  34.755  1.00  0.00     0.127 S 
ATOM     69  O   UNL A   1      45.418  23.903  34.046  1.00  0.00    -0.237 OA
ATOM     70  O   UNL A   1      44.439  22.909  36.081  1.00  0.00    -0.237 OA
ATOM     71  O   UNL A   1      43.213  22.774  33.964  1.00  0.00    -0.744 OA
ENDBRANCH  65  68
ENDBRANCH  47  61
BRANCH  48  72
ATOM     72  C   UNL A   1      43.017  24.623  26.462  1.00  0.00     0.023 A 
ATOM     73  C   UNL A   1      44.083  24.215  25.636  1.00  0.00     0.012 A 
ATOM     74  C   UNL A   1      41.986  23.696  26.728  1.00  0.00     0.148 A 
ATOM     75  C   UNL A   1      44.141  22.914  25.125  1.00  0.00     0.002 A 
ATOM     76  C   UNL A   1      42.042  22.407  26.209  1.00  0.00     0.091 A 
ATOM     77  F   UNL A   1      41.000  24.044  27.566  1.00  0.00    -0.205 F 
ATOM     78  C   UNL A   1      43.126  22.007  25.419  1.00  0.00     0.022 A 
BRANCH  76  79
ATOM     79  S   UNL A   1      40.776  21.179  26.563  1.00  0.00     0.127 S 
ATOM     80  O   UNL A   1      40.753  21.181  28.026  1.00  0.00    -0.237 OA
ATOM     81  O   UNL A   1      39.599  21.767  25.930  1.00  0.00    -0.237 OA
ATOM     82  O   UNL A   1      41.257  19.934  25.977  1.00  0.00    -0.744 OA
ENDBRANCH  76  79
ENDBRANCH  48  72
BRANCH  60  83
ATOM     83  C   UNL A   1      45.986  29.478  29.087  1.00  0.00     0.023 A 
ATOM     84  C   UNL A   1      47.335  29.459  28.675  1.00  0.00     0.012 A 
ATOM     85  C   UNL A   1      45.080  30.301  28.399  1.00  0.00     0.148 A 
ATOM     86  C   UNL A   1      47.777  30.270  27.627  1.00  0.00     0.002 A 
ATOM     87  C   UNL A   1      45.513  31.070  27.324  1.00  0.00     0.091 A 
ATOM     88  F   UNL A   1      43.798  30.306  28.793  1.00  0.00    -0.205 F 
ATOM     89  C   UNL A   1      46.864  31.066  26.943  1.00  0.00     0.022 A 
BRANCH  87  90
ATOM     90  S   UNL A   1      44.362  32.014  26.324  1.00  0.00     0.127 S 
ATOM     91  O   UNL A   1      43.339  31.019  26.011  1.00  0.00    -0.237 OA
ATOM     92  O   UNL A   1      43.929  33.065  27.247  1.00  0.00    -0.237 OA
ATOM     93  O   UNL A   1      45.134  32.506  25.188  1.00  0.00    -0.744 OA
ENDBRANCH  87  90
ENDBRANCH  60  83
ENDBRANCH  34  35
ENDBRANCH  27  29
ENDBRANCH  26  27
ENDBRANCH   1  26
TORSDOF 16
ENDMDL
MODEL 2
REMARK VINA RESULT:     -12.6      1.240      1.831
REMARK SMILES C[C@@H]1CCc2nc(NC(=O)[C@H]3CC=CC[C@@H]3C(=O)OCCOC(=O)c3ccc(-c4c5nc(c(-c6cccc(S(=O)(=O)[O-])c6F)c6ccc([nH]6)c(-c6cccc(S(=O)(=O)[O-])c6F)c6nc(c(-c7cccc(S(=O)(=O)[O-])c7F)c7ccc4[nH]7)C=C6)C=C5)cc3)sc2C1
REMARK SMILES IDX 21 1 20 2 19 3 17 4 18 5 16 6 11 7 12 8 13 9 15 10 14 11
REMARK SMILES IDX 9 12 8 13 10 15 7 16 1 17 2 18 3 19 90 20 4 21 89 22 5 23
REMARK SMILES IDX 88 24 6 25 22 26 23 27 24 28 25 29 26 30 87 31 27 32 86 33
REMARK SMILES IDX 28 34 29 35 30 36 80 37 31 38 85 39 79 40 81 41 32 42 84 43
REMARK SMILES IDX 78 44 77 45 33 47 65 48 45 49 64 50 46 51 49 52 63 53 82 54
REMARK SMILES IDX 47 55 48 56 62 58 83 59 50 60 34 61 35 62 43 63 36 64 38 65
REMARK SMILES IDX 44 66 37 67 39 68 40 69 41 70 42 71 66 72 67 73 75 74 68 75
REMARK SMILES IDX 70 76 76 77 69 78 71 79 72 80 73 81 74 82 51 83 52 84 60 85
REMARK SMILES IDX 53 86 55 87 61 88 54 89 56 90 57 91 58 92 59 93
REMARK H PARENT 8 14 81 46 49 57
REMARK Flexibility Score: inf
ROOT
ATOM      1  C   UNL A   1      33.379  31.362  27.363  1.00  0.00     0.275 C 
ENDROOT
BRANCH   1   2
ATOM      2  C   UNL A   1      32.520  30.111  27.153  1.00  0.00     0.274 C 
BRANCH   2   3
ATOM      3  O   UNL A   1      33.145  29.140  26.292  1.00  0.00    -0.462 OA
BRANCH   3   4
ATOM      4  C   UNL A   1      32.676  28.973  25.022  1.00  0.00     0.310 C 
ATOM      5  O   UNL A   1      33.213  29.460  24.032  1.00  0.00    -0.252 OA
BRANCH   4   6
ATOM      6  C   UNL A   1      31.448  28.040  24.991  1.00  0.00     0.116 C 
ATOM      7  C   UNL A   1      31.709  26.557  24.734  1.00  0.00     0.097 C 
ATOM      8  C   UNL A   1      32.246  26.337  23.310  1.00  0.00     0.041 C 
ATOM      9  C   UNL A   1      31.380  27.001  22.286  1.00  0.00    -0.030 C 
ATOM     10  C   UNL A   1      30.471  28.606  23.969  1.00  0.00     0.043 C 
ATOM     11  C   UNL A   1      30.554  28.006  22.599  1.00  0.00    -0.030 C 
BRANCH   7  12
ATOM     12  C   UNL A   1      30.677  25.431  25.097  1.00  0.00     0.230 C 
ATOM     13  N   UNL A   1      30.654  24.097  24.848  1.00  0.00    -0.302 N 
ATOM     14  H   UNL A   1      29.728  23.766  24.807  1.00  0.00     0.172 HD
ATOM     15  O   UNL A   1      29.618  25.843  25.619  1.00  0.00    -0.274 OA
BRANCH  13  16
ATOM     16  C   UNL A   1      31.542  23.077  24.637  1.00  0.00     0.189 A 
ATOM     17  C   UNL A   1      32.655  18.099  25.530  1.00  0.00     0.008 C 
ATOM     18  C   UNL A   1      33.367  18.746  24.331  1.00  0.00    -0.009 C 
ATOM     19  C   UNL A   1      34.577  19.578  24.822  1.00  0.00     0.010 C 
ATOM     20  C   UNL A   1      32.425  19.620  23.449  1.00  0.00     0.052 C 
ATOM     21  C   UNL A   1      34.152  20.782  25.708  1.00  0.00     0.058 C 
ATOM     22  C   UNL A   1      32.435  21.041  23.908  1.00  0.00     0.030 A 
ATOM     23  C   UNL A   1      33.058  21.539  25.032  1.00  0.00     0.057 A 
ATOM     24  S   UNL A   1      31.884  22.443  23.075  1.00  0.00    -0.101 S 
ATOM     25  N   UNL A   1      32.500  22.731  25.486  1.00  0.00    -0.225 NA
ENDBRANCH  13  16
ENDBRANCH   7  12
ENDBRANCH   4   6
ENDBRANCH   3   4
ENDBRANCH   2   3
ENDBRANCH   1   2
BRANCH   1  26
ATOM     26  O   UNL A   1      34.771  31.077  27.199  1.00  0.00    -0.458 OA
BRANCH  26  27
ATOM     27  C   UNL A   1      35.595  31.820  27.966  1.00  0.00     0.338 C 
ATOM     28  O   UNL A   1      35.646  33.035  28.030  1.00  0.00    -0.246 OA
BRANCH  27  29
ATOM     29  C   UNL A   1      36.655  31.021  28.556  1.00  0.00     0.060 A 
ATOM     30  C   UNL A   1      37.727  31.718  29.123  1.00  0.00     0.016 A 
ATOM     31  C   UNL A   1      36.725  29.660  28.245  1.00  0.00     0.016 A 
ATOM     32  C   UNL A   1      38.927  31.064  29.275  1.00  0.00     0.010 A 
ATOM     33  C   UNL A   1      37.926  29.007  28.401  1.00  0.00     0.010 A 
ATOM     34  C   UNL A   1      39.025  29.729  28.866  1.00  0.00    -0.014 A 
BRANCH  34  35
ATOM     35  C   UNL A   1      40.286  29.059  29.107  1.00  0.00     0.031 A 
ATOM     36  C   UNL A   1      40.521  28.778  30.544  1.00  0.00     0.074 A 
ATOM     37  C   UNL A   1      41.091  28.619  28.125  1.00  0.00     0.049 A 
ATOM     38  N   UNL A   1      41.463  29.240  31.297  1.00  0.00    -0.248 NA
ATOM     39  C   UNL A   1      39.481  28.025  31.264  1.00  0.00     0.031 C 
ATOM     40  C   UNL A   1      40.812  28.579  26.687  1.00  0.00     0.029 A 
ATOM     41  N   UNL A   1      42.278  27.963  28.235  1.00  0.00    -0.354 N 
ATOM     42  C   UNL A   1      41.261  28.640  32.536  1.00  0.00     0.074 A 
ATOM     43  C   UNL A   1      39.939  28.075  32.514  1.00  0.00     0.031 C 
ATOM     44  C   UNL A   1      41.665  27.708  26.104  1.00  0.00     0.029 A 
ATOM     45  C   UNL A   1      42.614  27.239  27.098  1.00  0.00     0.049 A 
ATOM     46  H   UNL A   1      42.843  27.998  29.041  1.00  0.00     0.167 HD
ATOM     47  C   UNL A   1      42.296  28.416  33.389  1.00  0.00     0.034 A 
ATOM     48  C   UNL A   1      43.540  26.253  27.025  1.00  0.00     0.034 A 
ATOM     49  C   UNL A   1      43.441  29.227  33.069  1.00  0.00     0.049 A 
ATOM     50  C   UNL A   1      44.446  26.402  28.189  1.00  0.00     0.074 A 
ATOM     51  C   UNL A   1      43.681  30.581  32.957  1.00  0.00     0.029 A 
ATOM     52  N   UNL A   1      44.492  28.602  32.446  1.00  0.00    -0.354 N 
ATOM     53  N   UNL A   1      45.274  27.396  28.339  1.00  0.00    -0.248 NA
ATOM     54  C   UNL A   1      44.160  25.638  29.393  1.00  0.00     0.031 C 
ATOM     55  C   UNL A   1      44.613  30.704  31.885  1.00  0.00     0.029 A 
ATOM     56  C   UNL A   1      44.918  29.418  31.433  1.00  0.00     0.049 A 
ATOM     57  H   UNL A   1      44.872  27.725  32.685  1.00  0.00     0.167 HD
ATOM     58  C   UNL A   1      45.250  27.662  29.702  1.00  0.00     0.074 A 
ATOM     59  C   UNL A   1      44.661  26.471  30.308  1.00  0.00     0.031 C 
ATOM     60  C   UNL A   1      45.435  28.932  30.173  1.00  0.00     0.034 A 
BRANCH  47  61
ATOM     61  C   UNL A   1      42.406  27.191  34.264  1.00  0.00     0.023 A 
ATOM     62  C   UNL A   1      41.987  27.315  35.606  1.00  0.00     0.012 A 
ATOM     63  C   UNL A   1      43.146  26.033  33.927  1.00  0.00     0.148 A 
ATOM     64  C   UNL A   1      42.330  26.360  36.570  1.00  0.00     0.002 A 
ATOM     65  C   UNL A   1      43.404  25.044  34.866  1.00  0.00     0.091 A 
ATOM     66  F   UNL A   1      43.734  25.934  32.732  1.00  0.00    -0.205 F 
ATOM     67  C   UNL A   1      43.030  25.218  36.199  1.00  0.00     0.022 A 
BRANCH  65  68
ATOM     68  S   UNL A   1      44.251  23.526  34.412  1.00  0.00     0.127 S 
ATOM     69  O   UNL A   1      45.554  24.032  33.992  1.00  0.00    -0.237 OA
ATOM     70  O   UNL A   1      44.248  22.790  35.676  1.00  0.00    -0.237 OA
ATOM     71  O   UNL A   1      43.426  22.922  33.372  1.00  0.00    -0.744 OA
ENDBRANCH  65  68
ENDBRANCH  47  61
BRANCH  48  72
ATOM     72  C   UNL A   1      43.563  25.041  26.177  1.00  0.00     0.023 A 
ATOM     73  C   UNL A   1      44.587  24.887  25.223  1.00  0.00     0.012 A 
ATOM     74  C   UNL A   1      42.762  23.919  26.484  1.00  0.00     0.148 A 
ATOM     75  C   UNL A   1      44.833  23.646  24.624  1.00  0.00     0.002 A 
ATOM     76  C   UNL A   1      43.002  22.691  25.878  1.00  0.00     0.091 A 
ATOM     77  F   UNL A   1      41.828  24.030  27.438  1.00  0.00    -0.205 F 
ATOM     78  C   UNL A   1      44.047  22.547  24.958  1.00  0.00     0.022 A 
BRANCH  76  79
ATOM     79  S   UNL A   1      42.039  21.225  26.276  1.00  0.00     0.127 S 
ATOM     80  O   UNL A   1      42.663  20.211  25.423  1.00  0.00    -0.237 OA
ATOM     81  O   UNL A   1      42.299  21.070  27.703  1.00  0.00    -0.237 OA
ATOM     82  O   UNL A   1      40.664  21.544  25.911  1.00  0.00    -0.744 OA
ENDBRANCH  76  79
ENDBRANCH  48  72
BRANCH  60  83
ATOM     83  C   UNL A   1      45.955  29.974  29.213  1.00  0.00     0.023 A 
ATOM     84  C   UNL A   1      47.334  30.166  28.984  1.00  0.00     0.012 A 
ATOM     85  C   UNL A   1      45.033  30.668  28.411  1.00  0.00     0.148 A 
ATOM     86  C   UNL A   1      47.782  31.056  28.005  1.00  0.00     0.002 A 
ATOM     87  C   UNL A   1      45.482  31.516  27.405  1.00  0.00     0.091 A 
ATOM     88  F   UNL A   1      43.724  30.472  28.631  1.00  0.00    -0.205 F 
ATOM     89  C   UNL A   1      46.857  31.722  27.207  1.00  0.00     0.022 A 
BRANCH  87  90
ATOM     90  S   UNL A   1      44.344  32.300  26.262  1.00  0.00     0.127 S 
ATOM     91  O   UNL A   1      43.414  31.213  25.961  1.00  0.00    -0.237 OA
ATOM     92  O   UNL A   1      43.778  33.381  27.071  1.00  0.00    -0.237 OA
ATOM     93  O   UNL A   1      45.158  32.762  25.144  1.00  0.00    -0.744 OA
ENDBRANCH  87  90
ENDBRANCH  60  83
ENDBRANCH  34  35
ENDBRANCH  27  29
ENDBRANCH  26  27
ENDBRANCH   1  26
TORSDOF 16
ENDMDL
MODEL 3
REMARK VINA RESULT:     -12.6      3.883      6.790
REMARK SMILES C[C@@H]1CCc2nc(NC(=O)[C@H]3CC=CC[C@@H]3C(=O)OCCOC(=O)c3ccc(-c4c5nc(c(-c6cccc(S(=O)(=O)[O-])c6F)c6ccc([nH]6)c(-c6cccc(S(=O)(=O)[O-])c6F)c6nc(c(-c7cccc(S(=O)(=O)[O-])c7F)c7ccc4[nH]7)C=C6)C=C5)cc3)sc2C1
REMARK SMILES IDX 21 1 20 2 19 3 17 4 18 5 16 6 11 7 12 8 13 9 15 10 14 11
REMARK SMILES IDX 9 12 8 13 10 15 7 16 1 17 2 18 3 19 90 20 4 21 89 22 5 23
REMARK SMILES IDX 88 24 6 25 22 26 23 27 24 28 25 29 26 30 87 31 27 32 86 33
REMARK SMILES IDX 28 34 29 35 30 36 80 37 31 38 85 39 79 40 81 41 32 42 84 43
REMARK SMILES IDX 78 44 77 45 33 47 65 48 45 49 64 50 46 51 49 52 63 53 82 54
REMARK SMILES IDX 47 55 48 56 62 58 83 59 50 60 34 61 35 62 43 63 36 64 38 65
REMARK SMILES IDX 44 66 37 67 39 68 40 69 41 70 42 71 66 72 67 73 75 74 68 75
REMARK SMILES IDX 70 76 76 77 69 78 71 79 72 80 73 81 74 82 51 83 52 84 60 85
REMARK SMILES IDX 53 86 55 87 61 88 54 89 56 90 57 91 58 92 59 93
REMARK H PARENT 8 14 81 46 49 57
REMARK Flexibility Score: inf
ROOT
ATOM      1  C   UNL A   1      34.391  33.553  28.783  1.00  0.00     0.275 C 
ENDROOT
BRANCH   1   2
ATOM      2  C   UNL A   1      34.331  33.880  30.279  1.00  0.00     0.274 C 
BRANCH   2   3
ATOM      3  O   UNL A   1      34.451  32.712  31.114  1.00  0.00    -0.462 OA
BRANCH   3   4
ATOM      4  C   UNL A   1      34.570  32.865  32.464  1.00  0.00     0.310 C 
ATOM      5  O   UNL A   1      33.656  33.254  33.185  1.00  0.00    -0.252 OA
BRANCH   4   6
ATOM      6  C   UNL A   1      35.959  32.415  32.963  1.00  0.00     0.116 C 
ATOM      7  C   UNL A   1      36.473  33.054  34.252  1.00  0.00     0.097 C 
ATOM      8  C   UNL A   1      36.736  34.555  34.049  1.00  0.00     0.041 C 
ATOM      9  C   UNL A   1      37.592  34.807  32.848  1.00  0.00    -0.030 C 
ATOM     10  C   UNL A   1      36.944  32.626  31.820  1.00  0.00     0.043 C 
ATOM     11  C   UNL A   1      37.706  33.915  31.858  1.00  0.00    -0.030 C 
BRANCH   7  12
ATOM     12  C   UNL A   1      37.618  32.422  35.122  1.00  0.00     0.230 C 
ATOM     13  N   UNL A   1      38.893  32.061  34.832  1.00  0.00    -0.302 N 
ATOM     14  H   UNL A   1      39.190  31.329  35.420  1.00  0.00     0.172 HD
ATOM     15  O   UNL A   1      37.269  32.081  36.273  1.00  0.00    -0.274 OA
BRANCH  13  16
ATOM     16  C   UNL A   1      39.887  32.416  33.960  1.00  0.00     0.189 A 
ATOM     17  C   UNL A   1      41.069  34.937  29.594  1.00  0.00     0.008 C 
ATOM     18  C   UNL A   1      42.237  34.671  30.558  1.00  0.00    -0.009 C 
ATOM     19  C   UNL A   1      42.737  33.215  30.393  1.00  0.00     0.010 C 
ATOM     20  C   UNL A   1      41.888  34.962  32.049  1.00  0.00     0.052 C 
ATOM     21  C   UNL A   1      41.663  32.167  30.797  1.00  0.00     0.058 C 
ATOM     22  C   UNL A   1      41.373  33.734  32.724  1.00  0.00     0.030 A 
ATOM     23  C   UNL A   1      41.091  32.524  32.128  1.00  0.00     0.057 A 
ATOM     24  S   UNL A   1      41.208  33.423  34.409  1.00  0.00    -0.101 S 
ATOM     25  N   UNL A   1      40.177  31.759  32.847  1.00  0.00    -0.225 NA
ENDBRANCH  13  16
ENDBRANCH   7  12
ENDBRANCH   4   6
ENDBRANCH   3   4
ENDBRANCH   2   3
ENDBRANCH   1   2
BRANCH   1  26
ATOM     26  O   UNL A   1      35.669  33.031  28.411  1.00  0.00    -0.458 OA
BRANCH  26  27
ATOM     27  C   UNL A   1      35.655  31.751  27.984  1.00  0.00     0.338 C 
ATOM     28  O   UNL A   1      34.778  31.196  27.349  1.00  0.00    -0.246 OA
BRANCH  27  29
ATOM     29  C   UNL A   1      36.714  30.965  28.592  1.00  0.00     0.060 A 
ATOM     30  C   UNL A   1      37.845  31.663  29.027  1.00  0.00     0.016 A 
ATOM     31  C   UNL A   1      36.710  29.578  28.414  1.00  0.00     0.016 A 
ATOM     32  C   UNL A   1      39.025  30.972  29.177  1.00  0.00     0.010 A 
ATOM     33  C   UNL A   1      37.891  28.889  28.568  1.00  0.00     0.010 A 
ATOM     34  C   UNL A   1      39.044  29.600  28.899  1.00  0.00    -0.014 A 
BRANCH  34  35
ATOM     35  C   UNL A   1      40.289  28.899  29.135  1.00  0.00     0.031 A 
ATOM     36  C   UNL A   1      40.512  28.595  30.570  1.00  0.00     0.074 A 
ATOM     37  C   UNL A   1      41.087  28.453  28.151  1.00  0.00     0.049 A 
ATOM     38  N   UNL A   1      41.461  29.026  31.331  1.00  0.00    -0.248 NA
ATOM     39  C   UNL A   1      39.453  27.857  31.277  1.00  0.00     0.031 C 
ATOM     40  C   UNL A   1      40.813  28.437  26.712  1.00  0.00     0.029 A 
ATOM     41  N   UNL A   1      42.258  27.769  28.257  1.00  0.00    -0.354 N 
ATOM     42  C   UNL A   1      41.242  28.416  32.562  1.00  0.00     0.074 A 
ATOM     43  C   UNL A   1      39.907  27.881  32.528  1.00  0.00     0.031 C 
ATOM     44  C   UNL A   1      41.647  27.554  26.120  1.00  0.00     0.029 A 
ATOM     45  C   UNL A   1      42.582  27.051  27.112  1.00  0.00     0.049 A 
ATOM     46  H   UNL A   1      42.821  27.781  29.065  1.00  0.00     0.167 HD
ATOM     47  C   UNL A   1      42.268  28.157  33.415  1.00  0.00     0.034 A 
ATOM     48  C   UNL A   1      43.486  26.046  27.030  1.00  0.00     0.034 A 
ATOM     49  C   UNL A   1      43.432  28.946  33.109  1.00  0.00     0.049 A 
ATOM     50  C   UNL A   1      44.390  26.159  28.198  1.00  0.00     0.074 A 
ATOM     51  C   UNL A   1      43.703  30.295  33.015  1.00  0.00     0.029 A 
ATOM     52  N   UNL A   1      44.471  28.305  32.482  1.00  0.00    -0.354 N 
ATOM     53  N   UNL A   1      45.241  27.133  28.364  1.00  0.00    -0.248 NA
ATOM     54  C   UNL A   1      44.083  25.388  29.392  1.00  0.00     0.031 C 
ATOM     55  C   UNL A   1      44.642  30.411  31.948  1.00  0.00     0.029 A 
ATOM     56  C   UNL A   1      44.919  29.124  31.482  1.00  0.00     0.049 A 
ATOM     57  H   UNL A   1      44.830  27.417  32.712  1.00  0.00     0.167 HD
ATOM     58  C   UNL A   1      45.217  27.382  29.729  1.00  0.00     0.074 A 
ATOM     59  C   UNL A   1      44.599  26.198  30.319  1.00  0.00     0.031 C 
ATOM     60  C   UNL A   1      45.430  28.641  30.216  1.00  0.00     0.034 A 
BRANCH  47  61
ATOM     61  C   UNL A   1      42.347  26.920  34.276  1.00  0.00     0.023 A 
ATOM     62  C   UNL A   1      41.824  27.006  35.584  1.00  0.00     0.012 A 
ATOM     63  C   UNL A   1      43.144  25.789  33.977  1.00  0.00     0.148 A 
ATOM     64  C   UNL A   1      42.120  26.044  36.555  1.00  0.00     0.002 A 
ATOM     65  C   UNL A   1      43.359  24.791  34.917  1.00  0.00     0.091 A 
ATOM     66  F   UNL A   1      43.824  25.730  32.829  1.00  0.00    -0.205 F 
ATOM     67  C   UNL A   1      42.879  24.928  36.220  1.00  0.00     0.022 A 
BRANCH  65  68
ATOM     68  S   UNL A   1      44.283  23.306  34.504  1.00  0.00     0.127 S 
ATOM     69  O   UNL A   1      43.420  22.695  33.497  1.00  0.00    -0.237 OA
ATOM     70  O   UNL A   1      45.535  23.863  33.994  1.00  0.00    -0.237 OA
ATOM     71  O   UNL A   1      44.424  22.580  35.760  1.00  0.00    -0.744 OA
ENDBRANCH  65  68
ENDBRANCH  47  61
BRANCH  48  72
ATOM     72  C   UNL A   1      43.484  24.844  26.166  1.00  0.00     0.023 A 
ATOM     73  C   UNL A   1      44.486  24.697  25.188  1.00  0.00     0.012 A 
ATOM     74  C   UNL A   1      42.685  23.722  26.478  1.00  0.00     0.148 A 
ATOM     75  C   UNL A   1      44.713  23.463  24.569  1.00  0.00     0.002 A 
ATOM     76  C   UNL A   1      42.906  22.500  25.852  1.00  0.00     0.091 A 
ATOM     77  F   UNL A   1      41.773  23.824  27.455  1.00  0.00    -0.205 F 
ATOM     78  C   UNL A   1      43.930  22.363  24.907  1.00  0.00     0.022 A 
BRANCH  76  79
ATOM     79  S   UNL A   1      41.945  21.033  26.253  1.00  0.00     0.127 S 
ATOM     80  O   UNL A   1      42.228  20.867  27.680  1.00  0.00    -0.237 OA
ATOM     81  O   UNL A   1      40.587  21.468  25.943  1.00  0.00    -0.237 OA
ATOM     82  O   UNL A   1      42.479  19.968  25.414  1.00  0.00    -0.744 OA
ENDBRANCH  76  79
ENDBRANCH  48  72
BRANCH  60  83
ATOM     83  C   UNL A   1      45.976  29.684  29.271  1.00  0.00     0.023 A 
ATOM     84  C   UNL A   1      47.359  29.830  29.030  1.00  0.00     0.012 A 
ATOM     85  C   UNL A   1      45.071  30.426  28.494  1.00  0.00     0.148 A 
ATOM     86  C   UNL A   1      47.829  30.723  28.064  1.00  0.00     0.002 A 
ATOM     87  C   UNL A   1      45.541  31.277  27.499  1.00  0.00     0.091 A 
ATOM     88  F   UNL A   1      43.759  30.273  28.725  1.00  0.00    -0.205 F 
ATOM     89  C   UNL A   1      46.919  31.438  27.290  1.00  0.00     0.022 A 
BRANCH  87  90
ATOM     90  S   UNL A   1      44.419  32.124  26.385  1.00  0.00     0.127 S 
ATOM     91  O   UNL A   1      43.922  33.214  27.221  1.00  0.00    -0.237 OA
ATOM     92  O   UNL A   1      45.307  32.542  25.299  1.00  0.00    -0.237 OA
ATOM     93  O   UNL A   1      43.427  31.130  25.989  1.00  0.00    -0.744 OA
ENDBRANCH  87  90
ENDBRANCH  60  83
ENDBRANCH  34  35
ENDBRANCH  27  29
ENDBRANCH  26  27
ENDBRANCH   1  26
TORSDOF 16
ENDMDL
