MODEL 1
REMARK VINA RESULT:     -11.2      0.000      0.000
REMARK SMILES Cc1nn(C)c(=O)c(C(=O)N[C@H](C)CC(=O)OCCOC(=O)c2ccc(-c3c4nc(c(-c5cccc(S(=O)(=O)[O-])c5F)c5ccc([nH]5)c(-c5cccc(S(=O)(=O)[O-])c5F)c5nc(c(-c6cccc(S(=O)(=O)[O-])c6F)c6ccc3[nH]6)C=C5)C=C4)cc2)c1C
REMARK SMILES IDX 18 1 17 2 15 3 16 4 14 5 12 6 13 7 11 8 9 9 10 10 8 12 1 13
REMARK SMILES IDX 2 14 3 15 86 16 4 17 87 18 5 19 6 20 7 21 19 22 20 23 21 24
REMARK SMILES IDX 22 25 23 26 24 27 85 28 25 29 84 30 26 31 27 32 28 33 78 34
REMARK SMILES IDX 29 35 83 36 77 37 79 38 30 39 82 40 76 41 75 42 31 44 63 45
REMARK SMILES IDX 43 46 62 47 44 48 47 49 61 50 80 51 45 52 46 53 60 55 81 56
REMARK SMILES IDX 48 57 32 58 33 59 41 60 34 61 36 62 42 63 35 64 37 65 38 66
REMARK SMILES IDX 39 67 40 68 64 69 65 70 73 71 66 72 68 73 74 74 67 75 69 76
REMARK SMILES IDX 70 77 71 78 72 79 49 80 50 81 58 82 51 83 53 84 59 85 52 86
REMARK SMILES IDX 54 87 55 88 56 89 57 90
REMARK H PARENT 11 11 79 43 47 54
REMARK Flexibility Score: inf
ROOT
ATOM      1  C   UNL A   1      34.619  19.970  24.889  1.00  0.00     0.274 C 
ENDROOT
BRANCH   1   2
ATOM      2  O   UNL A   1      34.475  21.328  25.360  1.00  0.00    -0.462 OA
BRANCH   2   3
ATOM      3  C   UNL A   1      33.247  21.886  25.193  1.00  0.00     0.307 C 
ATOM      4  O   UNL A   1      32.403  21.480  24.403  1.00  0.00    -0.252 OA
BRANCH   3   5
ATOM      5  C   UNL A   1      33.000  23.089  26.076  1.00  0.00     0.147 C 
BRANCH   5   6
ATOM      6  C   UNL A   1      33.245  24.449  25.414  1.00  0.00     0.090 C 
ATOM      7  C   UNL A   1      34.739  24.812  25.422  1.00  0.00     0.031 C 
BRANCH   6   8
ATOM      8  N   UNL A   1      32.773  24.482  24.027  1.00  0.00    -0.349 N 
ATOM      9  C   UNL A   1      32.161  25.455  23.293  1.00  0.00     0.257 C 
ATOM     10  O   UNL A   1      31.986  25.245  22.094  1.00  0.00    -0.269 OA
ATOM     11  H   UNL A   1      32.925  23.644  23.532  1.00  0.00     0.164 HD
BRANCH   9  12
ATOM     12  C   UNL A   1      31.690  26.709  23.934  1.00  0.00     0.111 A 
ATOM     13  C   UNL A   1      31.932  30.260  26.665  1.00  0.00     0.069 C 
ATOM     14  C   UNL A   1      31.677  29.150  24.816  1.00  0.00     0.062 A 
ATOM     15  N   UNL A   1      30.714  29.336  23.853  1.00  0.00    -0.175 NA
ATOM     16  C   UNL A   1      32.463  27.789  24.188  1.00  0.00    -0.010 A 
ATOM     17  N   UNL A   1      29.962  28.254  23.415  1.00  0.00    -0.232 N 
ATOM     18  C   UNL A   1      33.749  27.964  23.408  1.00  0.00     0.047 C 
ATOM     19  C   UNL A   1      28.614  28.573  22.966  1.00  0.00     0.178 C 
ATOM     20  C   UNL A   1      30.238  26.962  23.838  1.00  0.00     0.279 A 
ATOM     21  O   UNL A   1      29.418  26.062  23.985  1.00  0.00    -0.267 OA
ENDBRANCH   9  12
ENDBRANCH   6   8
ENDBRANCH   5   6
ENDBRANCH   3   5
ENDBRANCH   2   3
ENDBRANCH   1   2
BRANCH   1  22
ATOM     22  C   UNL A   1      36.078  19.538  24.968  1.00  0.00     0.275 C 
BRANCH  22  23
ATOM     23  O   UNL A   1      36.884  20.694  25.240  1.00  0.00    -0.458 OA
BRANCH  23  24
ATOM     24  C   UNL A   1      38.196  20.444  25.393  1.00  0.00     0.338 C 
ATOM     25  O   UNL A   1      38.815  19.447  25.067  1.00  0.00    -0.246 OA
BRANCH  24  26
ATOM     26  C   UNL A   1      38.803  21.558  26.125  1.00  0.00     0.060 A 
ATOM     27  C   UNL A   1      40.332  21.416  27.099  1.00  0.00     0.016 A 
ATOM     28  C   UNL A   1      38.120  23.180  25.776  1.00  0.00     0.016 A 
ATOM     29  C   UNL A   1      41.197  22.911  27.627  1.00  0.00     0.010 A 
ATOM     30  C   UNL A   1      39.014  24.662  26.257  1.00  0.00     0.010 A 
ATOM     31  C   UNL A   1      40.583  24.567  27.151  1.00  0.00    -0.014 A 
BRANCH  31  32
ATOM     32  C   UNL A   1      41.258  25.827  27.623  1.00  0.00     0.031 A 
ATOM     33  C   UNL A   1      42.694  26.155  27.226  1.00  0.00     0.074 A 
ATOM     34  C   UNL A   1      40.567  26.698  28.389  1.00  0.00     0.049 A 
ATOM     35  N   UNL A   1      43.438  27.177  27.583  1.00  0.00    -0.248 NA
ATOM     36  C   UNL A   1      43.416  25.222  26.347  1.00  0.00     0.031 C 
ATOM     37  C   UNL A   1      39.219  26.487  28.916  1.00  0.00     0.029 A 
ATOM     38  N   UNL A   1      40.897  27.949  28.859  1.00  0.00    -0.354 N 
ATOM     39  C   UNL A   1      44.698  26.956  27.022  1.00  0.00     0.074 A 
ATOM     40  C   UNL A   1      44.653  25.685  26.356  1.00  0.00     0.031 C 
ATOM     41  C   UNL A   1      38.802  27.591  29.549  1.00  0.00     0.029 A 
ATOM     42  C   UNL A   1      39.883  28.565  29.561  1.00  0.00     0.049 A 
ATOM     43  H   UNL A   1      41.776  28.365  28.707  1.00  0.00     0.167 HD
ATOM     44  C   UNL A   1      45.788  27.758  26.987  1.00  0.00     0.034 A 
ATOM     45  C   UNL A   1      39.825  29.769  30.163  1.00  0.00     0.034 A 
ATOM     46  C   UNL A   1      45.807  29.076  27.547  1.00  0.00     0.049 A 
ATOM     47  C   UNL A   1      41.033  30.659  30.094  1.00  0.00     0.074 A 
ATOM     48  C   UNL A   1      46.831  30.003  27.524  1.00  0.00     0.029 A 
ATOM     49  N   UNL A   1      44.739  29.659  28.207  1.00  0.00    -0.354 N 
ATOM     50  N   UNL A   1      42.175  30.446  29.484  1.00  0.00    -0.248 NA
ATOM     51  C   UNL A   1      40.949  31.954  30.782  1.00  0.00     0.031 C 
ATOM     52  C   UNL A   1      46.387  31.145  28.194  1.00  0.00     0.029 A 
ATOM     53  C   UNL A   1      45.081  30.935  28.611  1.00  0.00     0.049 A 
ATOM     54  H   UNL A   1      43.868  29.230  28.366  1.00  0.00     0.167 HD
ATOM     55  C   UNL A   1      42.945  31.578  29.710  1.00  0.00     0.074 A 
ATOM     56  C   UNL A   1      42.124  32.492  30.480  1.00  0.00     0.031 C 
ATOM     57  C   UNL A   1      44.223  31.832  29.341  1.00  0.00     0.034 A 
BRANCH  44  58
ATOM     58  C   UNL A   1      47.020  27.264  26.262  1.00  0.00     0.023 A 
ATOM     59  C   UNL A   1      47.153  27.486  24.875  1.00  0.00     0.012 A 
ATOM     60  C   UNL A   1      48.065  26.622  26.957  1.00  0.00     0.148 A 
ATOM     61  C   UNL A   1      48.282  27.045  24.185  1.00  0.00     0.002 A 
ATOM     62  C   UNL A   1      49.210  26.228  26.271  1.00  0.00     0.091 A 
ATOM     63  F   UNL A   1      47.918  26.403  28.271  1.00  0.00    -0.205 F 
ATOM     64  C   UNL A   1      49.314  26.426  24.884  1.00  0.00     0.022 A 
BRANCH  62  65
ATOM     65  S   UNL A   1      50.634  25.495  27.087  1.00  0.00     0.127 S 
ATOM     66  O   UNL A   1      50.049  24.293  27.682  1.00  0.00    -0.237 OA
ATOM     67  O   UNL A   1      51.533  25.240  25.961  1.00  0.00    -0.237 OA
ATOM     68  O   UNL A   1      51.111  26.487  28.040  1.00  0.00    -0.744 OA
ENDBRANCH  62  65
ENDBRANCH  44  58
BRANCH  45  69
ATOM     69  C   UNL A   1      38.555  30.207  30.819  1.00  0.00     0.023 A 
ATOM     70  C   UNL A   1      38.392  30.024  32.206  1.00  0.00     0.012 A 
ATOM     71  C   UNL A   1      37.555  30.900  30.103  1.00  0.00     0.148 A 
ATOM     72  C   UNL A   1      37.264  30.518  32.865  1.00  0.00     0.002 A 
ATOM     73  C   UNL A   1      36.470  31.450  30.777  1.00  0.00     0.091 A 
ATOM     74  F   UNL A   1      37.708  31.046  28.780  1.00  0.00    -0.205 F 
ATOM     75  C   UNL A   1      36.314  31.247  32.155  1.00  0.00     0.022 A 
BRANCH  73  76
ATOM     76  S   UNL A   1      35.299  32.552  29.972  1.00  0.00     0.127 S 
ATOM     77  O   UNL A   1      34.759  31.700  28.916  1.00  0.00    -0.237 OA
ATOM     78  O   UNL A   1      34.366  32.853  31.060  1.00  0.00    -0.237 OA
ATOM     79  O   UNL A   1      36.082  33.698  29.527  1.00  0.00    -0.744 OA
ENDBRANCH  73  76
ENDBRANCH  45  69
BRANCH  57  80
ATOM     80  C   UNL A   1      44.832  33.136  29.770  1.00  0.00     0.023 A 
ATOM     81  C   UNL A   1      45.617  33.174  30.937  1.00  0.00     0.012 A 
ATOM     82  C   UNL A   1      44.755  34.270  28.940  1.00  0.00     0.148 A 
ATOM     83  C   UNL A   1      46.311  34.331  31.281  1.00  0.00     0.002 A 
ATOM     84  C   UNL A   1      45.491  35.401  29.261  1.00  0.00     0.091 A 
ATOM     85  F   UNL A   1      43.993  34.207  27.839  1.00  0.00    -0.205 F 
ATOM     86  C   UNL A   1      46.261  35.437  30.436  1.00  0.00     0.022 A 
BRANCH  84  87
ATOM     87  S   UNL A   1      45.587  36.829  28.176  1.00  0.00     0.127 S 
ATOM     88  O   UNL A   1      44.198  37.282  28.158  1.00  0.00    -0.237 OA
ATOM     89  O   UNL A   1      46.506  37.706  28.902  1.00  0.00    -0.237 OA
ATOM     90  O   UNL A   1      46.096  36.336  26.903  1.00  0.00    -0.744 OA
ENDBRANCH  84  87
ENDBRANCH  57  80
ENDBRANCH  31  32
ENDBRANCH  24  26
ENDBRANCH  23  24
ENDBRANCH  22  23
ENDBRANCH   1  22
TORSDOF 17
ENDMDL
MODEL 2
REMARK VINA RESULT:     -11.1      4.743     10.121
REMARK SMILES Cc1nn(C)c(=O)c(C(=O)N[C@H](C)CC(=O)OCCOC(=O)c2ccc(-c3c4nc(c(-c5cccc(S(=O)(=O)[O-])c5F)c5ccc([nH]5)c(-c5cccc(S(=O)(=O)[O-])c5F)c5nc(c(-c6cccc(S(=O)(=O)[O-])c6F)c6ccc3[nH]6)C=C5)C=C4)cc2)c1C
REMARK SMILES IDX 18 1 17 2 15 3 16 4 14 5 12 6 13 7 11 8 9 9 10 10 8 12 1 13
REMARK SMILES IDX 2 14 3 15 86 16 4 17 87 18 5 19 6 20 7 21 19 22 20 23 21 24
REMARK SMILES IDX 22 25 23 26 24 27 85 28 25 29 84 30 26 31 27 32 28 33 78 34
REMARK SMILES IDX 29 35 83 36 77 37 79 38 30 39 82 40 76 41 75 42 31 44 63 45
REMARK SMILES IDX 43 46 62 47 44 48 47 49 61 50 80 51 45 52 46 53 60 55 81 56
REMARK SMILES IDX 48 57 32 58 33 59 41 60 34 61 36 62 42 63 35 64 37 65 38 66
REMARK SMILES IDX 39 67 40 68 64 69 65 70 73 71 66 72 68 73 74 74 67 75 69 76
REMARK SMILES IDX 70 77 71 78 72 79 49 80 50 81 58 82 51 83 53 84 59 85 52 86
REMARK SMILES IDX 54 87 55 88 56 89 57 90
REMARK H PARENT 11 11 79 43 47 54
REMARK Flexibility Score: inf
ROOT
ATOM      1  C   UNL A   1      31.439  28.868  24.492  1.00  0.00     0.274 C 
ENDROOT
BRANCH   1   2
ATOM      2  O   UNL A   1      32.622  28.782  23.668  1.00  0.00    -0.462 OA
BRANCH   2   3
ATOM      3  C   UNL A   1      32.864  27.569  23.105  1.00  0.00     0.307 C 
ATOM      4  O   UNL A   1      33.722  27.358  22.256  1.00  0.00    -0.252 OA
BRANCH   3   5
ATOM      5  C   UNL A   1      31.958  26.470  23.614  1.00  0.00     0.147 C 
BRANCH   5   6
ATOM      6  C   UNL A   1      32.655  25.356  24.400  1.00  0.00     0.090 C 
ATOM      7  C   UNL A   1      33.541  25.932  25.516  1.00  0.00     0.031 C 
BRANCH   6   8
ATOM      8  N   UNL A   1      31.699  24.426  25.008  1.00  0.00    -0.349 N 
ATOM      9  C   UNL A   1      31.801  23.114  25.364  1.00  0.00     0.257 C 
ATOM     10  O   UNL A   1      30.862  22.611  25.979  1.00  0.00    -0.269 OA
ATOM     11  H   UNL A   1      30.817  24.823  25.193  1.00  0.00     0.164 HD
BRANCH   9  12
ATOM     12  C   UNL A   1      32.993  22.313  24.987  1.00  0.00     0.111 A 
ATOM     13  C   UNL A   1      37.370  21.395  24.623  1.00  0.00     0.069 C 
ATOM     14  C   UNL A   1      35.285  21.107  25.159  1.00  0.00     0.062 A 
ATOM     15  N   UNL A   1      34.529  19.968  25.007  1.00  0.00    -0.175 NA
ATOM     16  C   UNL A   1      34.103  22.167  25.744  1.00  0.00    -0.010 A 
ATOM     17  N   UNL A   1      33.299  20.040  24.368  1.00  0.00    -0.232 N 
ATOM     18  C   UNL A   1      34.008  22.431  27.233  1.00  0.00     0.047 C 
ATOM     19  C   UNL A   1      32.891  18.833  23.663  1.00  0.00     0.178 C 
ATOM     20  C   UNL A   1      32.753  21.256  23.984  1.00  0.00     0.279 A 
ATOM     21  O   UNL A   1      32.028  21.444  23.013  1.00  0.00    -0.267 OA
ENDBRANCH   9  12
ENDBRANCH   6   8
ENDBRANCH   5   6
ENDBRANCH   3   5
ENDBRANCH   2   3
ENDBRANCH   1   2
BRANCH   1  22
ATOM     22  C   UNL A   1      31.256  30.293  25.001  1.00  0.00     0.275 C 
BRANCH  22  23
ATOM     23  O   UNL A   1      31.579  30.324  26.399  1.00  0.00    -0.458 OA
BRANCH  23  24
ATOM     24  C   UNL A   1      32.045  31.504  26.845  1.00  0.00     0.338 C 
ATOM     25  O   UNL A   1      31.489  32.587  26.828  1.00  0.00    -0.246 OA
BRANCH  24  26
ATOM     26  C   UNL A   1      33.426  31.322  27.298  1.00  0.00     0.060 A 
ATOM     27  C   UNL A   1      34.456  32.659  27.972  1.00  0.00     0.016 A 
ATOM     28  C   UNL A   1      33.978  29.620  27.437  1.00  0.00     0.016 A 
ATOM     29  C   UNL A   1      35.980  32.256  28.854  1.00  0.00     0.010 A 
ATOM     30  C   UNL A   1      35.465  29.223  28.362  1.00  0.00     0.010 A 
ATOM     31  C   UNL A   1      36.474  30.515  29.125  1.00  0.00    -0.014 A 
BRANCH  31  32
ATOM     32  C   UNL A   1      37.764  30.157  29.811  1.00  0.00     0.031 A 
ATOM     33  C   UNL A   1      38.056  30.609  31.239  1.00  0.00     0.074 A 
ATOM     34  C   UNL A   1      38.668  29.394  29.161  1.00  0.00     0.049 A 
ATOM     35  N   UNL A   1      39.138  30.423  31.961  1.00  0.00    -0.248 NA
ATOM     36  C   UNL A   1      37.039  31.395  31.954  1.00  0.00     0.031 C 
ATOM     37  C   UNL A   1      38.568  28.953  27.769  1.00  0.00     0.029 A 
ATOM     38  N   UNL A   1      39.856  28.841  29.582  1.00  0.00    -0.354 N 
ATOM     39  C   UNL A   1      38.932  31.116  33.156  1.00  0.00     0.074 A 
ATOM     40  C   UNL A   1      37.663  31.779  33.053  1.00  0.00     0.031 C 
ATOM     41  C   UNL A   1      39.585  28.131  27.480  1.00  0.00     0.029 A 
ATOM     42  C   UNL A   1      40.471  28.054  28.632  1.00  0.00     0.049 A 
ATOM     43  H   UNL A   1      40.232  28.993  30.479  1.00  0.00     0.167 HD
ATOM     44  C   UNL A   1      39.683  31.151  34.282  1.00  0.00     0.034 A 
ATOM     45  C   UNL A   1      41.623  27.356  28.668  1.00  0.00     0.034 A 
ATOM     46  C   UNL A   1      40.892  30.400  34.439  1.00  0.00     0.049 A 
ATOM     47  C   UNL A   1      42.433  27.383  29.932  1.00  0.00     0.074 A 
ATOM     48  C   UNL A   1      41.708  30.311  35.550  1.00  0.00     0.029 A 
ATOM     49  N   UNL A   1      41.442  29.591  33.459  1.00  0.00    -0.354 N 
ATOM     50  N   UNL A   1      42.162  27.984  31.067  1.00  0.00    -0.248 NA
ATOM     51  C   UNL A   1      43.697  26.636  29.932  1.00  0.00     0.031 C 
ATOM     52  C   UNL A   1      42.768  29.459  35.233  1.00  0.00     0.029 A 
ATOM     53  C   UNL A   1      42.597  29.003  33.934  1.00  0.00     0.049 A 
ATOM     54  H   UNL A   1      41.066  29.455  32.560  1.00  0.00     0.167 HD
ATOM     55  C   UNL A   1      43.217  27.685  31.918  1.00  0.00     0.074 A 
ATOM     56  C   UNL A   1      44.114  26.817  31.180  1.00  0.00     0.031 C 
ATOM     57  C   UNL A   1      43.442  28.111  33.184  1.00  0.00     0.034 A 
BRANCH  44  58
ATOM     58  C   UNL A   1      39.184  31.968  35.453  1.00  0.00     0.023 A 
ATOM     59  C   UNL A   1      38.229  31.418  36.335  1.00  0.00     0.012 A 
ATOM     60  C   UNL A   1      39.690  33.258  35.709  1.00  0.00     0.148 A 
ATOM     61  C   UNL A   1      37.757  32.150  37.424  1.00  0.00     0.002 A 
ATOM     62  C   UNL A   1      39.251  33.963  36.826  1.00  0.00     0.091 A 
ATOM     63  F   UNL A   1      40.584  33.775  34.854  1.00  0.00    -0.205 F 
ATOM     64  C   UNL A   1      38.275  33.417  37.676  1.00  0.00     0.022 A 
BRANCH  62  65
ATOM     65  S   UNL A   1      39.910  35.570  37.289  1.00  0.00     0.127 S 
ATOM     66  O   UNL A   1      39.143  35.867  38.499  1.00  0.00    -0.237 OA
ATOM     67  O   UNL A   1      41.322  35.265  37.522  1.00  0.00    -0.237 OA
ATOM     68  O   UNL A   1      39.652  36.454  36.161  1.00  0.00    -0.744 OA
ENDBRANCH  62  65
ENDBRANCH  44  58
BRANCH  45  69
ATOM     69  C   UNL A   1      42.027  26.533  27.486  1.00  0.00     0.023 A 
ATOM     70  C   UNL A   1      42.889  27.085  26.519  1.00  0.00     0.012 A 
ATOM     71  C   UNL A   1      41.653  25.177  27.369  1.00  0.00     0.148 A 
ATOM     72  C   UNL A   1      43.368  26.308  25.462  1.00  0.00     0.002 A 
ATOM     73  C   UNL A   1      42.190  24.391  26.355  1.00  0.00     0.091 A 
ATOM     74  F   UNL A   1      40.812  24.670  28.281  1.00  0.00    -0.205 F 
ATOM     75  C   UNL A   1      43.036  24.958  25.391  1.00  0.00     0.022 A 
BRANCH  73  76
ATOM     76  S   UNL A   1      41.958  22.609  26.296  1.00  0.00     0.127 S 
ATOM     77  O   UNL A   1      40.504  22.497  26.224  1.00  0.00    -0.237 OA
ATOM     78  O   UNL A   1      42.666  22.250  25.066  1.00  0.00    -0.237 OA
ATOM     79  O   UNL A   1      42.576  22.093  27.510  1.00  0.00    -0.744 OA
ENDBRANCH  73  76
ENDBRANCH  45  69
BRANCH  57  80
ATOM     80  C   UNL A   1      44.709  27.666  33.859  1.00  0.00     0.023 A 
ATOM     81  C   UNL A   1      45.835  28.508  33.823  1.00  0.00     0.012 A 
ATOM     82  C   UNL A   1      44.728  26.502  34.650  1.00  0.00     0.148 A 
ATOM     83  C   UNL A   1      46.974  28.191  34.559  1.00  0.00     0.002 A 
ATOM     84  C   UNL A   1      45.846  26.220  35.422  1.00  0.00     0.091 A 
ATOM     85  F   UNL A   1      43.642  25.715  34.658  1.00  0.00    -0.205 F 
ATOM     86  C   UNL A   1      46.974  27.058  35.369  1.00  0.00     0.022 A 
BRANCH  84  87
ATOM     87  S   UNL A   1      45.895  24.854  36.586  1.00  0.00     0.127 S 
ATOM     88  O   UNL A   1      47.230  25.002  37.161  1.00  0.00    -0.237 OA
ATOM     89  O   UNL A   1      44.797  25.185  37.495  1.00  0.00    -0.237 OA
ATOM     90  O   UNL A   1      45.688  23.645  35.799  1.00  0.00    -0.744 OA
ENDBRANCH  84  87
ENDBRANCH  57  80
ENDBRANCH  31  32
ENDBRANCH  24  26
ENDBRANCH  23  24
ENDBRANCH  22  23
ENDBRANCH   1  22
TORSDOF 17
ENDMDL
MODEL 3
REMARK VINA RESULT:     -10.9      4.749     10.057
REMARK SMILES Cc1nn(C)c(=O)c(C(=O)N[C@H](C)CC(=O)OCCOC(=O)c2ccc(-c3c4nc(c(-c5cccc(S(=O)(=O)[O-])c5F)c5ccc([nH]5)c(-c5cccc(S(=O)(=O)[O-])c5F)c5nc(c(-c6cccc(S(=O)(=O)[O-])c6F)c6ccc3[nH]6)C=C5)C=C4)cc2)c1C
REMARK SMILES IDX 18 1 17 2 15 3 16 4 14 5 12 6 13 7 11 8 9 9 10 10 8 12 1 13
REMARK SMILES IDX 2 14 3 15 86 16 4 17 87 18 5 19 6 20 7 21 19 22 20 23 21 24
REMARK SMILES IDX 22 25 23 26 24 27 85 28 25 29 84 30 26 31 27 32 28 33 78 34
REMARK SMILES IDX 29 35 83 36 77 37 79 38 30 39 82 40 76 41 75 42 31 44 63 45
REMARK SMILES IDX 43 46 62 47 44 48 47 49 61 50 80 51 45 52 46 53 60 55 81 56
REMARK SMILES IDX 48 57 32 58 33 59 41 60 34 61 36 62 42 63 35 64 37 65 38 66
REMARK SMILES IDX 39 67 40 68 64 69 65 70 73 71 66 72 68 73 74 74 67 75 69 76
REMARK SMILES IDX 70 77 71 78 72 79 49 80 50 81 58 82 51 83 53 84 59 85 52 86
REMARK SMILES IDX 54 87 55 88 56 89 57 90
REMARK H PARENT 11 11 79 43 47 54
REMARK Flexibility Score: inf
ROOT
ATOM      1  C   UNL A   1      31.474  28.780  24.344  1.00  0.00     0.274 C 
ENDROOT
BRANCH   1   2
ATOM      2  O   UNL A   1      32.683  28.678  23.561  1.00  0.00    -0.462 OA
BRANCH   2   3
ATOM      3  C   UNL A   1      32.754  27.615  22.717  1.00  0.00     0.307 C 
ATOM      4  O   UNL A   1      33.729  27.340  22.028  1.00  0.00    -0.252 OA
BRANCH   3   5
ATOM      5  C   UNL A   1      31.493  26.780  22.682  1.00  0.00     0.147 C 
BRANCH   5   6
ATOM      6  C   UNL A   1      31.667  25.311  23.080  1.00  0.00     0.090 C 
ATOM      7  C   UNL A   1      30.308  24.627  23.294  1.00  0.00     0.031 C 
BRANCH   6   8
ATOM      8  N   UNL A   1      32.410  24.550  22.072  1.00  0.00    -0.349 N 
ATOM      9  C   UNL A   1      33.265  23.492  22.173  1.00  0.00     0.257 C 
ATOM     10  O   UNL A   1      33.653  22.967  21.131  1.00  0.00    -0.269 OA
ATOM     11  H   UNL A   1      32.265  24.860  21.148  1.00  0.00     0.164 HD
BRANCH   9  12
ATOM     12  C   UNL A   1      33.739  23.020  23.498  1.00  0.00     0.111 A 
ATOM     13  C   UNL A   1      33.350  21.833  27.808  1.00  0.00     0.069 C 
ATOM     14  C   UNL A   1      33.874  21.663  25.707  1.00  0.00     0.062 A 
ATOM     15  N   UNL A   1      35.049  21.191  25.171  1.00  0.00    -0.175 NA
ATOM     16  C   UNL A   1      33.080  22.147  24.293  1.00  0.00    -0.010 A 
ATOM     17  N   UNL A   1      35.730  21.952  24.231  1.00  0.00    -0.232 N 
ATOM     18  C   UNL A   1      32.042  21.236  23.670  1.00  0.00     0.047 C 
ATOM     19  C   UNL A   1      37.176  21.775  24.215  1.00  0.00     0.178 C 
ATOM     20  C   UNL A   1      35.194  23.127  23.725  1.00  0.00     0.279 A 
ATOM     21  O   UNL A   1      35.831  24.109  23.358  1.00  0.00    -0.267 OA
ENDBRANCH   9  12
ENDBRANCH   6   8
ENDBRANCH   5   6
ENDBRANCH   3   5
ENDBRANCH   2   3
ENDBRANCH   1   2
BRANCH   1  22
ATOM     22  C   UNL A   1      31.333  30.188  24.911  1.00  0.00     0.275 C 
BRANCH  22  23
ATOM     23  O   UNL A   1      31.706  30.162  26.296  1.00  0.00    -0.458 OA
BRANCH  23  24
ATOM     24  C   UNL A   1      32.161  31.332  26.779  1.00  0.00     0.338 C 
ATOM     25  O   UNL A   1      31.595  32.410  26.798  1.00  0.00    -0.246 OA
BRANCH  24  26
ATOM     26  C   UNL A   1      33.544  31.148  27.226  1.00  0.00     0.060 A 
ATOM     27  C   UNL A   1      34.607  32.500  27.815  1.00  0.00     0.016 A 
ATOM     28  C   UNL A   1      34.066  29.446  27.451  1.00  0.00     0.016 A 
ATOM     29  C   UNL A   1      36.133  32.116  28.700  1.00  0.00     0.010 A 
ATOM     30  C   UNL A   1      35.557  29.071  28.380  1.00  0.00     0.010 A 
ATOM     31  C   UNL A   1      36.599  30.384  29.060  1.00  0.00    -0.014 A 
BRANCH  31  32
ATOM     32  C   UNL A   1      37.890  30.038  29.750  1.00  0.00     0.031 A 
ATOM     33  C   UNL A   1      38.182  30.509  31.172  1.00  0.00     0.074 A 
ATOM     34  C   UNL A   1      38.797  29.271  29.109  1.00  0.00     0.049 A 
ATOM     35  N   UNL A   1      39.264  30.337  31.896  1.00  0.00    -0.248 NA
ATOM     36  C   UNL A   1      37.161  31.301  31.878  1.00  0.00     0.031 C 
ATOM     37  C   UNL A   1      38.698  28.812  27.723  1.00  0.00     0.029 A 
ATOM     38  N   UNL A   1      39.987  28.728  29.536  1.00  0.00    -0.354 N 
ATOM     39  C   UNL A   1      39.056  31.044  33.083  1.00  0.00     0.074 A 
ATOM     40  C   UNL A   1      37.784  31.700  32.972  1.00  0.00     0.031 C 
ATOM     41  C   UNL A   1      39.718  27.991  27.443  1.00  0.00     0.029 A 
ATOM     42  C   UNL A   1      40.604  27.930  28.596  1.00  0.00     0.049 A 
ATOM     43  H   UNL A   1      40.362  28.892  30.431  1.00  0.00     0.167 HD
ATOM     44  C   UNL A   1      39.808  31.095  34.207  1.00  0.00     0.034 A 
ATOM     45  C   UNL A   1      41.759  27.238  28.640  1.00  0.00     0.034 A 
ATOM     46  C   UNL A   1      41.019  30.351  34.373  1.00  0.00     0.049 A 
ATOM     47  C   UNL A   1      42.569  27.283  29.904  1.00  0.00     0.074 A 
ATOM     48  C   UNL A   1      41.836  30.278  35.485  1.00  0.00     0.029 A 
ATOM     49  N   UNL A   1      41.571  29.531  33.404  1.00  0.00    -0.354 N 
ATOM     50  N   UNL A   1      42.297  27.897  31.031  1.00  0.00    -0.248 NA
ATOM     51  C   UNL A   1      43.836  26.541  29.913  1.00  0.00     0.031 C 
ATOM     52  C   UNL A   1      42.899  29.426  35.178  1.00  0.00     0.029 A 
ATOM     53  C   UNL A   1      42.729  28.953  33.885  1.00  0.00     0.049 A 
ATOM     54  H   UNL A   1      41.195  29.383  32.506  1.00  0.00     0.167 HD
ATOM     55  C   UNL A   1      43.353  27.613  31.885  1.00  0.00     0.074 A 
ATOM     56  C   UNL A   1      44.252  26.739  31.158  1.00  0.00     0.031 C 
ATOM     57  C   UNL A   1      43.577  28.055  33.146  1.00  0.00     0.034 A 
BRANCH  44  58
ATOM     58  C   UNL A   1      39.306  31.925  35.368  1.00  0.00     0.023 A 
ATOM     59  C   UNL A   1      38.374  31.372  36.274  1.00  0.00     0.012 A 
ATOM     60  C   UNL A   1      39.786  33.231  35.591  1.00  0.00     0.148 A 
ATOM     61  C   UNL A   1      37.900  32.116  37.354  1.00  0.00     0.002 A 
ATOM     62  C   UNL A   1      39.347  33.949  36.699  1.00  0.00     0.091 A 
ATOM     63  F   UNL A   1      40.658  33.749  34.715  1.00  0.00    -0.205 F 
ATOM     64  C   UNL A   1      38.394  33.399  37.574  1.00  0.00     0.022 A 
BRANCH  62  65
ATOM     65  S   UNL A   1      39.976  35.579  37.121  1.00  0.00     0.127 S 
ATOM     66  O   UNL A   1      39.241  35.871  38.352  1.00  0.00    -0.237 OA
ATOM     67  O   UNL A   1      41.403  35.315  37.313  1.00  0.00    -0.237 OA
ATOM     68  O   UNL A   1      39.658  36.440  35.992  1.00  0.00    -0.744 OA
ENDBRANCH  62  65
ENDBRANCH  44  58
BRANCH  45  69
ATOM     69  C   UNL A   1      42.166  26.401  27.469  1.00  0.00     0.023 A 
ATOM     70  C   UNL A   1      43.057  26.930  26.516  1.00  0.00     0.012 A 
ATOM     71  C   UNL A   1      41.763  25.054  27.349  1.00  0.00     0.148 A 
ATOM     72  C   UNL A   1      43.538  26.139  25.470  1.00  0.00     0.002 A 
ATOM     73  C   UNL A   1      42.300  24.253  26.347  1.00  0.00     0.091 A 
ATOM     74  F   UNL A   1      40.895  24.569  28.247  1.00  0.00    -0.205 F 
ATOM     75  C   UNL A   1      43.176  24.797  25.397  1.00  0.00     0.022 A 
BRANCH  73  76
ATOM     76  S   UNL A   1      42.028  22.476  26.290  1.00  0.00     0.127 S 
ATOM     77  O   UNL A   1      40.571  22.392  26.329  1.00  0.00    -0.237 OA
ATOM     78  O   UNL A   1      42.633  22.116  25.006  1.00  0.00    -0.237 OA
ATOM     79  O   UNL A   1      42.728  21.935  27.449  1.00  0.00    -0.744 OA
ENDBRANCH  73  76
ENDBRANCH  45  69
BRANCH  57  80
ATOM     80  C   UNL A   1      44.845  27.623  33.826  1.00  0.00     0.023 A 
ATOM     81  C   UNL A   1      45.908  28.539  33.937  1.00  0.00     0.012 A 
ATOM     82  C   UNL A   1      44.918  26.380  34.482  1.00  0.00     0.148 A 
ATOM     83  C   UNL A   1      47.038  28.218  34.685  1.00  0.00     0.002 A 
ATOM     84  C   UNL A   1      46.023  26.089  35.270  1.00  0.00     0.091 A 
ATOM     85  F   UNL A   1      43.893  25.526  34.351  1.00  0.00    -0.205 F 
ATOM     86  C   UNL A   1      47.088  27.002  35.364  1.00  0.00     0.022 A 
BRANCH  84  87
ATOM     87  S   UNL A   1      46.126  24.606  36.275  1.00  0.00     0.127 S 
ATOM     88  O   UNL A   1      47.430  24.771  36.916  1.00  0.00    -0.237 OA
ATOM     89  O   UNL A   1      44.981  24.761  37.172  1.00  0.00    -0.237 OA
ATOM     90  O   UNL A   1      46.027  23.483  35.351  1.00  0.00    -0.744 OA
ENDBRANCH  84  87
ENDBRANCH  57  80
ENDBRANCH  31  32
ENDBRANCH  24  26
ENDBRANCH  23  24
ENDBRANCH  22  23
ENDBRANCH   1  22
TORSDOF 17
ENDMDL
