MODEL 1
REMARK VINA RESULT:     -10.4      0.000      0.000
REMARK SMILES NC(=O)C[C@@H](NC(=O)c1ccc(CO)cc1)C(=O)OCCOC(=O)c1ccc(-c2c3nc(c(-c4cccc(S(=O)(=O)[O-])c4F)c4ccc([nH]4)c(-c4cccc(S(=O)(=O)[O-])c4F)c4nc(c(-c5cccc(S(=O)(=O)[O-])c5F)c5ccc2[nH]5)C=C4)C=C3)cc1
REMARK SMILES IDX 20 1 19 2 17 3 18 4 5 5 4 6 2 7 1 8 3 11 6 12 7 13 8 15 9 16
REMARK SMILES IDX 10 17 16 18 11 19 15 20 12 21 13 22 14 23 21 25 22 26 23 27
REMARK SMILES IDX 24 28 25 29 26 30 87 31 27 32 86 33 28 34 29 35 30 36 80 37
REMARK SMILES IDX 31 38 85 39 79 40 81 41 32 42 84 43 78 44 77 45 33 47 65 48
REMARK SMILES IDX 45 49 64 50 46 51 49 52 63 53 82 54 47 55 48 56 62 58 83 59
REMARK SMILES IDX 50 60 34 61 35 62 43 63 36 64 38 65 44 66 37 67 39 68 40 69
REMARK SMILES IDX 41 70 42 71 66 72 67 73 75 74 68 75 70 76 76 77 69 78 71 79
REMARK SMILES IDX 72 80 73 81 74 82 51 83 52 84 60 85 53 86 55 87 61 88 54 89
REMARK SMILES IDX 56 90 57 91 58 92 59 93
REMARK H PARENT 1 9 1 10 6 14 14 24 81 46 49 57
REMARK Flexibility Score: inf
ROOT
ATOM      1  C   UNL A   1      33.398  33.689  27.749  1.00  0.00     0.274 C 
ENDROOT
BRANCH   1   2
ATOM      2  O   UNL A   1      34.017  34.856  28.329  1.00  0.00    -0.461 OA
BRANCH   2   3
ATOM      3  C   UNL A   1      33.295  35.466  29.309  1.00  0.00     0.329 C 
ATOM      4  O   UNL A   1      32.294  36.143  29.105  1.00  0.00    -0.250 OA
BRANCH   3   5
ATOM      5  C   UNL A   1      33.896  35.310  30.711  1.00  0.00     0.201 C 
BRANCH   5   6
ATOM      6  C   UNL A   1      33.102  36.154  31.717  1.00  0.00     0.136 C 
BRANCH   6   7
ATOM      7  C   UNL A   1      34.046  36.901  32.622  1.00  0.00     0.220 C 
ATOM      8  N   UNL A   1      34.244  38.213  32.312  1.00  0.00    -0.370 N 
ATOM      9  H   UNL A   1      34.850  38.762  32.862  1.00  0.00     0.159 HD
ATOM     10  H   UNL A   1      33.784  38.612  31.539  1.00  0.00     0.159 HD
ATOM     11  O   UNL A   1      34.572  36.398  33.605  1.00  0.00    -0.275 OA
ENDBRANCH   6   7
ENDBRANCH   5   6
BRANCH   5  12
ATOM     12  N   UNL A   1      34.116  33.946  31.252  1.00  0.00    -0.338 N 
ATOM     13  C   UNL A   1      35.241  33.324  31.730  1.00  0.00     0.251 C 
ATOM     14  H   UNL A   1      33.308  33.386  31.270  1.00  0.00     0.164 HD
ATOM     15  O   UNL A   1      35.134  32.361  32.484  1.00  0.00    -0.269 OA
BRANCH  13  16
ATOM     16  C   UNL A   1      36.560  33.687  31.202  1.00  0.00     0.039 A 
ATOM     17  C   UNL A   1      37.453  34.336  32.060  1.00  0.00     0.014 A 
ATOM     18  C   UNL A   1      36.929  33.361  29.898  1.00  0.00     0.014 A 
ATOM     19  C   UNL A   1      38.765  34.558  31.644  1.00  0.00     0.007 A 
ATOM     20  C   UNL A   1      38.254  33.559  29.497  1.00  0.00     0.007 A 
ATOM     21  C   UNL A   1      39.192  34.112  30.384  1.00  0.00    -0.023 A 
BRANCH  21  22
ATOM     22  C   UNL A   1      40.651  34.172  30.020  1.00  0.00     0.191 C 
BRANCH  22  23
ATOM     23  O   UNL A   1      40.868  35.135  29.004  1.00  0.00    -0.392 OA
ATOM     24  H   UNL A   1      40.271  34.960  28.260  1.00  0.00     0.211 HD
ENDBRANCH  22  23
ENDBRANCH  21  22
ENDBRANCH  13  16
ENDBRANCH   5  12
ENDBRANCH   3   5
ENDBRANCH   2   3
ENDBRANCH   1   2
BRANCH   1  25
ATOM     25  C   UNL A   1      33.907  32.350  28.297  1.00  0.00     0.275 C 
BRANCH  25  26
ATOM     26  O   UNL A   1      34.333  31.452  27.257  1.00  0.00    -0.458 OA
BRANCH  26  27
ATOM     27  C   UNL A   1      34.480  30.163  27.654  1.00  0.00     0.338 C 
ATOM     28  O   UNL A   1      33.697  29.253  27.434  1.00  0.00    -0.246 OA
BRANCH  27  29
ATOM     29  C   UNL A   1      35.815  29.944  28.245  1.00  0.00     0.060 A 
ATOM     30  C   UNL A   1      36.922  30.068  27.395  1.00  0.00     0.016 A 
ATOM     31  C   UNL A   1      35.986  29.561  29.576  1.00  0.00     0.016 A 
ATOM     32  C   UNL A   1      38.202  29.785  27.860  1.00  0.00     0.010 A 
ATOM     33  C   UNL A   1      37.272  29.257  30.039  1.00  0.00     0.010 A 
ATOM     34  C   UNL A   1      38.378  29.340  29.175  1.00  0.00    -0.014 A 
BRANCH  34  35
ATOM     35  C   UNL A   1      39.699  28.818  29.591  1.00  0.00     0.031 A 
ATOM     36  C   UNL A   1      40.443  29.526  30.689  1.00  0.00     0.074 A 
ATOM     37  C   UNL A   1      40.220  27.722  29.010  1.00  0.00     0.049 A 
ATOM     38  N   UNL A   1      41.633  29.287  31.171  1.00  0.00    -0.248 NA
ATOM     39  C   UNL A   1      39.752  30.660  31.325  1.00  0.00     0.031 C 
ATOM     40  C   UNL A   1      39.576  26.940  27.957  1.00  0.00     0.029 A 
ATOM     41  N   UNL A   1      41.424  27.095  29.210  1.00  0.00    -0.354 N 
ATOM     42  C   UNL A   1      41.851  30.260  32.139  1.00  0.00     0.074 A 
ATOM     43  C   UNL A   1      40.669  31.094  32.176  1.00  0.00     0.031 C 
ATOM     44  C   UNL A   1      40.407  25.953  27.578  1.00  0.00     0.029 A 
ATOM     45  C   UNL A   1      41.649  26.054  28.341  1.00  0.00     0.049 A 
ATOM     46  H   UNL A   1      42.064  27.364  29.908  1.00  0.00     0.167 HD
ATOM     47  C   UNL A   1      42.933  30.434  32.933  1.00  0.00     0.034 A 
ATOM     48  C   UNL A   1      42.745  25.290  28.166  1.00  0.00     0.034 A 
ATOM     49  C   UNL A   1      44.090  29.581  32.912  1.00  0.00     0.049 A 
ATOM     50  C   UNL A   1      43.944  25.516  29.051  1.00  0.00     0.074 A 
ATOM     51  C   UNL A   1      45.223  29.651  33.703  1.00  0.00     0.029 A 
ATOM     52  N   UNL A   1      44.263  28.508  32.053  1.00  0.00    -0.354 N 
ATOM     53  N   UNL A   1      44.099  26.377  30.028  1.00  0.00    -0.248 NA
ATOM     54  C   UNL A   1      45.109  24.646  28.830  1.00  0.00     0.031 C 
ATOM     55  C   UNL A   1      46.092  28.629  33.306  1.00  0.00     0.029 A 
ATOM     56  C   UNL A   1      45.490  27.911  32.285  1.00  0.00     0.049 A 
ATOM     57  H   UNL A   1      43.611  28.215  31.376  1.00  0.00     0.167 HD
ATOM     58  C   UNL A   1      45.361  26.133  30.559  1.00  0.00     0.074 A 
ATOM     59  C   UNL A   1      45.921  25.030  29.807  1.00  0.00     0.031 C 
ATOM     60  C   UNL A   1      46.007  26.774  31.565  1.00  0.00     0.034 A 
BRANCH  47  61
ATOM     61  C   UNL A   1      42.906  31.583  33.904  1.00  0.00     0.023 A 
ATOM     62  C   UNL A   1      43.369  32.852  33.500  1.00  0.00     0.012 A 
ATOM     63  C   UNL A   1      42.381  31.418  35.201  1.00  0.00     0.148 A 
ATOM     64  C   UNL A   1      43.336  33.932  34.381  1.00  0.00     0.002 A 
ATOM     65  C   UNL A   1      42.315  32.509  36.059  1.00  0.00     0.091 A 
ATOM     66  F   UNL A   1      41.972  30.198  35.575  1.00  0.00    -0.205 F 
ATOM     67  C   UNL A   1      42.801  33.764  35.655  1.00  0.00     0.022 A 
BRANCH  65  68
ATOM     68  S   UNL A   1      41.579  32.408  37.695  1.00  0.00     0.127 S 
ATOM     69  O   UNL A   1      40.201  32.036  37.375  1.00  0.00    -0.237 OA
ATOM     70  O   UNL A   1      42.366  31.346  38.323  1.00  0.00    -0.237 OA
ATOM     71  O   UNL A   1      41.749  33.724  38.294  1.00  0.00    -0.744 OA
ENDBRANCH  65  68
ENDBRANCH  47  61
BRANCH  48  72
ATOM     72  C   UNL A   1      42.751  24.223  27.125  1.00  0.00     0.023 A 
ATOM     73  C   UNL A   1      43.415  24.445  25.904  1.00  0.00     0.012 A 
ATOM     74  C   UNL A   1      42.123  22.981  27.350  1.00  0.00     0.148 A 
ATOM     75  C   UNL A   1      43.432  23.461  24.914  1.00  0.00     0.002 A 
ATOM     76  C   UNL A   1      42.190  21.986  26.382  1.00  0.00     0.091 A 
ATOM     77  F   UNL A   1      41.475  22.796  28.508  1.00  0.00    -0.205 F 
ATOM     78  C   UNL A   1      42.831  22.228  25.157  1.00  0.00     0.022 A 
BRANCH  76  79
ATOM     79  S   UNL A   1      41.558  20.328  26.664  1.00  0.00     0.127 S 
ATOM     80  O   UNL A   1      42.292  19.927  27.861  1.00  0.00    -0.237 OA
ATOM     81  O   UNL A   1      40.131  20.577  26.870  1.00  0.00    -0.237 OA
ATOM     82  O   UNL A   1      41.865  19.581  25.452  1.00  0.00    -0.744 OA
ENDBRANCH  76  79
ENDBRANCH  48  72
BRANCH  60  83
ATOM     83  C   UNL A   1      47.378  26.282  31.942  1.00  0.00     0.023 A 
ATOM     84  C   UNL A   1      47.526  25.379  33.014  1.00  0.00     0.012 A 
ATOM     85  C   UNL A   1      48.508  26.644  31.181  1.00  0.00     0.148 A 
ATOM     86  C   UNL A   1      48.781  24.867  33.339  1.00  0.00     0.002 A 
ATOM     87  C   UNL A   1      49.747  26.093  31.483  1.00  0.00     0.091 A 
ATOM     88  F   UNL A   1      48.349  27.518  30.177  1.00  0.00    -0.205 F 
ATOM     89  C   UNL A   1      49.888  25.213  32.568  1.00  0.00     0.022 A 
BRANCH  87  90
ATOM     90  S   UNL A   1      51.207  26.407  30.484  1.00  0.00     0.127 S 
ATOM     91  O   UNL A   1      50.793  25.888  29.181  1.00  0.00    -0.237 OA
ATOM     92  O   UNL A   1      51.325  27.865  30.551  1.00  0.00    -0.237 OA
ATOM     93  O   UNL A   1      52.296  25.686  31.129  1.00  0.00    -0.744 OA
ENDBRANCH  87  90
ENDBRANCH  60  83
ENDBRANCH  34  35
ENDBRANCH  27  29
ENDBRANCH  26  27
ENDBRANCH  25  26
ENDBRANCH   1  25
TORSDOF 20
ENDMDL
MODEL 2
REMARK VINA RESULT:     -10.2      1.975      2.363
REMARK SMILES NC(=O)C[C@@H](NC(=O)c1ccc(CO)cc1)C(=O)OCCOC(=O)c1ccc(-c2c3nc(c(-c4cccc(S(=O)(=O)[O-])c4F)c4ccc([nH]4)c(-c4cccc(S(=O)(=O)[O-])c4F)c4nc(c(-c5cccc(S(=O)(=O)[O-])c5F)c5ccc2[nH]5)C=C4)C=C3)cc1
REMARK SMILES IDX 20 1 19 2 17 3 18 4 5 5 4 6 2 7 1 8 3 11 6 12 7 13 8 15 9 16
REMARK SMILES IDX 10 17 16 18 11 19 15 20 12 21 13 22 14 23 21 25 22 26 23 27
REMARK SMILES IDX 24 28 25 29 26 30 87 31 27 32 86 33 28 34 29 35 30 36 80 37
REMARK SMILES IDX 31 38 85 39 79 40 81 41 32 42 84 43 78 44 77 45 33 47 65 48
REMARK SMILES IDX 45 49 64 50 46 51 49 52 63 53 82 54 47 55 48 56 62 58 83 59
REMARK SMILES IDX 50 60 34 61 35 62 43 63 36 64 38 65 44 66 37 67 39 68 40 69
REMARK SMILES IDX 41 70 42 71 66 72 67 73 75 74 68 75 70 76 76 77 69 78 71 79
REMARK SMILES IDX 72 80 73 81 74 82 51 83 52 84 60 85 53 86 55 87 61 88 54 89
REMARK SMILES IDX 56 90 57 91 58 92 59 93
REMARK H PARENT 1 9 1 10 6 14 14 24 81 46 49 57
REMARK Flexibility Score: inf
ROOT
ATOM      1  C   UNL A   1      34.619  34.556  27.687  1.00  0.00     0.274 C 
ENDROOT
BRANCH   1   2
ATOM      2  O   UNL A   1      34.680  35.559  28.723  1.00  0.00    -0.461 OA
BRANCH   2   3
ATOM      3  C   UNL A   1      33.592  35.611  29.539  1.00  0.00     0.329 C 
ATOM      4  O   UNL A   1      32.497  36.046  29.198  1.00  0.00    -0.250 OA
BRANCH   3   5
ATOM      5  C   UNL A   1      33.870  35.157  30.976  1.00  0.00     0.201 C 
BRANCH   5   6
ATOM      6  C   UNL A   1      32.766  35.669  31.911  1.00  0.00     0.136 C 
BRANCH   6   7
ATOM      7  C   UNL A   1      33.249  36.881  32.663  1.00  0.00     0.220 C 
ATOM      8  N   UNL A   1      33.993  36.625  33.777  1.00  0.00    -0.370 N 
ATOM      9  H   UNL A   1      34.342  37.371  34.317  1.00  0.00     0.159 HD
ATOM     10  H   UNL A   1      34.180  35.695  34.041  1.00  0.00     0.159 HD
ATOM     11  O   UNL A   1      33.044  38.028  32.292  1.00  0.00    -0.275 OA
ENDBRANCH   6   7
ENDBRANCH   5   6
BRANCH   5  12
ATOM     12  N   UNL A   1      34.134  33.720  31.238  1.00  0.00    -0.338 N 
ATOM     13  C   UNL A   1      35.281  33.048  31.573  1.00  0.00     0.251 C 
ATOM     14  H   UNL A   1      33.340  33.144  31.156  1.00  0.00     0.164 HD
ATOM     15  O   UNL A   1      35.210  31.955  32.126  1.00  0.00    -0.269 OA
BRANCH  13  16
ATOM     16  C   UNL A   1      36.582  33.544  31.111  1.00  0.00     0.039 A 
ATOM     17  C   UNL A   1      37.365  34.269  32.014  1.00  0.00     0.014 A 
ATOM     18  C   UNL A   1      37.044  33.267  29.826  1.00  0.00     0.014 A 
ATOM     19  C   UNL A   1      38.667  34.623  31.664  1.00  0.00     0.007 A 
ATOM     20  C   UNL A   1      38.360  33.597  29.491  1.00  0.00     0.007 A 
ATOM     21  C   UNL A   1      39.196  34.231  30.425  1.00  0.00    -0.023 A 
BRANCH  21  22
ATOM     22  C   UNL A   1      40.657  34.437  30.132  1.00  0.00     0.191 C 
BRANCH  22  23
ATOM     23  O   UNL A   1      40.823  35.307  29.027  1.00  0.00    -0.392 OA
ATOM     24  H   UNL A   1      41.721  35.674  29.037  1.00  0.00     0.211 HD
ENDBRANCH  22  23
ENDBRANCH  21  22
ENDBRANCH  13  16
ENDBRANCH   5  12
ENDBRANCH   3   5
ENDBRANCH   2   3
ENDBRANCH   1   2
BRANCH   1  25
ATOM     25  C   UNL A   1      33.613  33.426  27.940  1.00  0.00     0.275 C 
BRANCH  25  26
ATOM     26  O   UNL A   1      34.210  32.290  28.590  1.00  0.00    -0.458 OA
BRANCH  26  27
ATOM     27  C   UNL A   1      34.294  31.181  27.813  1.00  0.00     0.338 C 
ATOM     28  O   UNL A   1      33.556  30.900  26.882  1.00  0.00    -0.246 OA
BRANCH  27  29
ATOM     29  C   UNL A   1      35.523  30.419  28.116  1.00  0.00     0.060 A 
ATOM     30  C   UNL A   1      35.574  29.748  29.345  1.00  0.00     0.016 A 
ATOM     31  C   UNL A   1      36.624  30.409  27.259  1.00  0.00     0.016 A 
ATOM     32  C   UNL A   1      36.734  29.088  29.738  1.00  0.00     0.010 A 
ATOM     33  C   UNL A   1      37.797  29.761  27.663  1.00  0.00     0.010 A 
ATOM     34  C   UNL A   1      37.864  29.124  28.915  1.00  0.00    -0.014 A 
BRANCH  34  35
ATOM     35  C   UNL A   1      39.157  28.627  29.437  1.00  0.00     0.031 A 
ATOM     36  C   UNL A   1      39.776  29.323  30.617  1.00  0.00     0.074 A 
ATOM     37  C   UNL A   1      39.761  27.564  28.877  1.00  0.00     0.049 A 
ATOM     38  N   UNL A   1      40.923  29.102  31.201  1.00  0.00    -0.248 NA
ATOM     39  C   UNL A   1      38.995  30.418  31.217  1.00  0.00     0.031 C 
ATOM     40  C   UNL A   1      39.240  26.795  27.749  1.00  0.00     0.029 A 
ATOM     41  N   UNL A   1      40.960  26.964  29.171  1.00  0.00    -0.354 N 
ATOM     42  C   UNL A   1      41.022  30.052  32.210  1.00  0.00     0.074 A 
ATOM     43  C   UNL A   1      39.817  30.852  32.160  1.00  0.00     0.031 C 
ATOM     44  C   UNL A   1      40.131  25.843  27.422  1.00  0.00     0.029 A 
ATOM     45  C   UNL A   1      41.295  25.955  28.299  1.00  0.00     0.049 A 
ATOM     46  H   UNL A   1      41.525  27.230  29.932  1.00  0.00     0.167 HD
ATOM     47  C   UNL A   1      42.021  30.233  33.105  1.00  0.00     0.034 A 
ATOM     48  C   UNL A   1      42.425  25.227  28.206  1.00  0.00     0.034 A 
ATOM     49  C   UNL A   1      43.201  29.413  33.168  1.00  0.00     0.049 A 
ATOM     50  C   UNL A   1      43.531  25.461  29.203  1.00  0.00     0.074 A 
ATOM     51  C   UNL A   1      44.254  29.490  34.061  1.00  0.00     0.029 A 
ATOM     52  N   UNL A   1      43.484  28.370  32.300  1.00  0.00    -0.354 N 
ATOM     53  N   UNL A   1      43.569  26.297  30.212  1.00  0.00    -0.248 NA
ATOM     54  C   UNL A   1      44.737  24.630  29.067  1.00  0.00     0.031 C 
ATOM     55  C   UNL A   1      45.186  28.505  33.720  1.00  0.00     0.029 A 
ATOM     56  C   UNL A   1      44.701  27.801  32.628  1.00  0.00     0.049 A 
ATOM     57  H   UNL A   1      42.906  28.079  31.559  1.00  0.00     0.167 HD
ATOM     58  C   UNL A   1      44.784  26.072  30.851  1.00  0.00     0.074 A 
ATOM     59  C   UNL A   1      45.445  25.006  30.125  1.00  0.00     0.031 C 
ATOM     60  C   UNL A   1      45.316  26.701  31.929  1.00  0.00     0.034 A 
BRANCH  47  61
ATOM     61  C   UNL A   1      41.872  31.352  34.100  1.00  0.00     0.023 A 
ATOM     62  C   UNL A   1      41.211  31.116  35.323  1.00  0.00     0.012 A 
ATOM     63  C   UNL A   1      42.425  32.622  33.845  1.00  0.00     0.148 A 
ATOM     64  C   UNL A   1      41.078  32.136  36.264  1.00  0.00     0.002 A 
ATOM     65  C   UNL A   1      42.324  33.621  34.806  1.00  0.00     0.091 A 
ATOM     66  F   UNL A   1      43.026  32.832  32.666  1.00  0.00    -0.205 F 
ATOM     67  C   UNL A   1      41.642  33.383  36.011  1.00  0.00     0.022 A 
BRANCH  65  68
ATOM     68  S   UNL A   1      43.079  35.238  34.601  1.00  0.00     0.127 S 
ATOM     69  O   UNL A   1      42.603  35.939  35.793  1.00  0.00    -0.237 OA
ATOM     70  O   UNL A   1      44.506  34.916  34.613  1.00  0.00    -0.237 OA
ATOM     71  O   UNL A   1      42.585  35.754  33.332  1.00  0.00    -0.744 OA
ENDBRANCH  65  68
ENDBRANCH  47  61
BRANCH  48  72
ATOM     72  C   UNL A   1      42.558  24.192  27.142  1.00  0.00     0.023 A 
ATOM     73  C   UNL A   1      43.230  24.505  25.945  1.00  0.00     0.012 A 
ATOM     74  C   UNL A   1      42.043  22.892  27.320  1.00  0.00     0.148 A 
ATOM     75  C   UNL A   1      43.365  23.552  24.934  1.00  0.00     0.002 A 
ATOM     76  C   UNL A   1      42.230  21.932  26.332  1.00  0.00     0.091 A 
ATOM     77  F   UNL A   1      41.386  22.618  28.455  1.00  0.00    -0.205 F 
ATOM     78  C   UNL A   1      42.876  22.263  25.132  1.00  0.00     0.022 A 
BRANCH  76  79
ATOM     79  S   UNL A   1      41.749  20.215  26.560  1.00  0.00     0.127 S 
ATOM     80  O   UNL A   1      40.293  20.318  26.620  1.00  0.00    -0.237 OA
ATOM     81  O   UNL A   1      42.274  19.588  25.346  1.00  0.00    -0.237 OA
ATOM     82  O   UNL A   1      42.406  19.785  27.786  1.00  0.00    -0.744 OA
ENDBRANCH  76  79
ENDBRANCH  48  72
BRANCH  60  83
ATOM     83  C   UNL A   1      46.662  26.235  32.418  1.00  0.00     0.023 A 
ATOM     84  C   UNL A   1      47.832  26.868  31.953  1.00  0.00     0.012 A 
ATOM     85  C   UNL A   1      46.762  25.231  33.403  1.00  0.00     0.148 A 
ATOM     86  C   UNL A   1      49.082  26.490  32.439  1.00  0.00     0.002 A 
ATOM     87  C   UNL A   1      48.008  24.892  33.915  1.00  0.00     0.091 A 
ATOM     88  F   UNL A   1      45.639  24.629  33.818  1.00  0.00    -0.205 F 
ATOM     89  C   UNL A   1      49.170  25.513  33.428  1.00  0.00     0.022 A 
BRANCH  87  90
ATOM     90  S   UNL A   1      48.206  23.715  35.258  1.00  0.00     0.127 S 
ATOM     91  O   UNL A   1      47.329  24.281  36.281  1.00  0.00    -0.237 OA
ATOM     92  O   UNL A   1      47.721  22.471  34.658  1.00  0.00    -0.237 OA
ATOM     93  O   UNL A   1      49.627  23.713  35.582  1.00  0.00    -0.744 OA
ENDBRANCH  87  90
ENDBRANCH  60  83
ENDBRANCH  34  35
ENDBRANCH  27  29
ENDBRANCH  26  27
ENDBRANCH  25  26
ENDBRANCH   1  25
TORSDOF 20
ENDMDL
MODEL 3
REMARK VINA RESULT:     -10.1      5.013      9.405
REMARK SMILES NC(=O)C[C@@H](NC(=O)c1ccc(CO)cc1)C(=O)OCCOC(=O)c1ccc(-c2c3nc(c(-c4cccc(S(=O)(=O)[O-])c4F)c4ccc([nH]4)c(-c4cccc(S(=O)(=O)[O-])c4F)c4nc(c(-c5cccc(S(=O)(=O)[O-])c5F)c5ccc2[nH]5)C=C4)C=C3)cc1
REMARK SMILES IDX 20 1 19 2 17 3 18 4 5 5 4 6 2 7 1 8 3 11 6 12 7 13 8 15 9 16
REMARK SMILES IDX 10 17 16 18 11 19 15 20 12 21 13 22 14 23 21 25 22 26 23 27
REMARK SMILES IDX 24 28 25 29 26 30 87 31 27 32 86 33 28 34 29 35 30 36 80 37
REMARK SMILES IDX 31 38 85 39 79 40 81 41 32 42 84 43 78 44 77 45 33 47 65 48
REMARK SMILES IDX 45 49 64 50 46 51 49 52 63 53 82 54 47 55 48 56 62 58 83 59
REMARK SMILES IDX 50 60 34 61 35 62 43 63 36 64 38 65 44 66 37 67 39 68 40 69
REMARK SMILES IDX 41 70 42 71 66 72 67 73 75 74 68 75 70 76 76 77 69 78 71 79
REMARK SMILES IDX 72 80 73 81 74 82 51 83 52 84 60 85 53 86 55 87 61 88 54 89
REMARK SMILES IDX 56 90 57 91 58 92 59 93
REMARK H PARENT 1 9 1 10 6 14 14 24 81 46 49 57
REMARK Flexibility Score: inf
ROOT
ATOM      1  C   UNL A   1      35.527  21.044  25.374  1.00  0.00     0.274 C 
ENDROOT
BRANCH   1   2
ATOM      2  O   UNL A   1      34.634  21.241  24.257  1.00  0.00    -0.461 OA
BRANCH   2   3
ATOM      3  C   UNL A   1      33.309  21.169  24.559  1.00  0.00     0.329 C 
ATOM      4  O   UNL A   1      32.674  20.122  24.621  1.00  0.00    -0.250 OA
BRANCH   3   5
ATOM      5  C   UNL A   1      32.636  22.535  24.732  1.00  0.00     0.201 C 
BRANCH   5   6
ATOM      6  C   UNL A   1      31.815  22.877  23.481  1.00  0.00     0.136 C 
BRANCH   6   7
ATOM      7  C   UNL A   1      32.506  23.956  22.690  1.00  0.00     0.220 C 
ATOM      8  N   UNL A   1      31.699  24.947  22.216  1.00  0.00    -0.370 N 
ATOM      9  H   UNL A   1      32.085  25.685  21.690  1.00  0.00     0.159 HD
ATOM     10  H   UNL A   1      30.733  24.924  22.398  1.00  0.00     0.159 HD
ATOM     11  O   UNL A   1      33.716  23.989  22.513  1.00  0.00    -0.275 OA
ENDBRANCH   6   7
ENDBRANCH   5   6
BRANCH   5  12
ATOM     12  N   UNL A   1      31.834  22.793  25.953  1.00  0.00    -0.338 N 
ATOM     13  C   UNL A   1      31.153  23.903  26.382  1.00  0.00     0.251 C 
ATOM     14  H   UNL A   1      31.784  22.027  26.570  1.00  0.00     0.164 HD
ATOM     15  O   UNL A   1      30.245  23.786  27.200  1.00  0.00    -0.269 OA
BRANCH  13  16
ATOM     16  C   UNL A   1      31.621  25.241  26.006  1.00  0.00     0.039 A 
ATOM     17  C   UNL A   1      32.988  25.511  26.110  1.00  0.00     0.014 A 
ATOM     18  C   UNL A   1      30.737  26.204  25.521  1.00  0.00     0.014 A 
ATOM     19  C   UNL A   1      33.490  26.715  25.618  1.00  0.00     0.007 A 
ATOM     20  C   UNL A   1      31.248  27.396  25.002  1.00  0.00     0.007 A 
ATOM     21  C   UNL A   1      32.632  27.638  25.001  1.00  0.00    -0.023 A 
BRANCH  21  22
ATOM     22  C   UNL A   1      33.201  28.838  24.295  1.00  0.00     0.191 C 
BRANCH  22  23
ATOM     23  O   UNL A   1      33.814  29.714  25.224  1.00  0.00    -0.392 OA
ATOM     24  H   UNL A   1      34.613  29.297  25.582  1.00  0.00     0.211 HD
ENDBRANCH  22  23
ENDBRANCH  21  22
ENDBRANCH  13  16
ENDBRANCH   5  12
ENDBRANCH   3   5
ENDBRANCH   2   3
ENDBRANCH   1   2
BRANCH   1  25
ATOM     25  C   UNL A   1      36.861  20.374  25.021  1.00  0.00     0.275 C 
BRANCH  25  26
ATOM     26  O   UNL A   1      37.963  21.299  25.020  1.00  0.00    -0.458 OA
BRANCH  26  27
ATOM     27  C   UNL A   1      38.960  20.985  25.883  1.00  0.00     0.338 C 
ATOM     28  O   UNL A   1      39.449  19.877  26.039  1.00  0.00    -0.246 OA
BRANCH  27  29
ATOM     29  C   UNL A   1      39.524  22.202  26.501  1.00  0.00     0.060 A 
ATOM     30  C   UNL A   1      39.010  23.434  26.076  1.00  0.00     0.016 A 
ATOM     31  C   UNL A   1      40.572  22.152  27.422  1.00  0.00     0.016 A 
ATOM     32  C   UNL A   1      39.558  24.624  26.546  1.00  0.00     0.010 A 
ATOM     33  C   UNL A   1      41.135  23.349  27.880  1.00  0.00     0.010 A 
ATOM     34  C   UNL A   1      40.649  24.586  27.421  1.00  0.00    -0.014 A 
BRANCH  34  35
ATOM     35  C   UNL A   1      41.372  25.840  27.730  1.00  0.00     0.031 A 
ATOM     36  C   UNL A   1      40.658  26.915  28.501  1.00  0.00     0.074 A 
ATOM     37  C   UNL A   1      42.648  26.012  27.342  1.00  0.00     0.049 A 
ATOM     38  N   UNL A   1      41.068  28.111  28.829  1.00  0.00    -0.248 NA
ATOM     39  C   UNL A   1      39.294  26.599  28.960  1.00  0.00     0.031 C 
ATOM     40  C   UNL A   1      43.448  25.027  26.616  1.00  0.00     0.029 A 
ATOM     41  N   UNL A   1      43.486  27.089  27.487  1.00  0.00    -0.354 N 
ATOM     42  C   UNL A   1      40.005  28.705  29.498  1.00  0.00     0.074 A 
ATOM     43  C   UNL A   1      38.929  27.738  29.530  1.00  0.00     0.031 C 
ATOM     44  C   UNL A   1      44.653  25.559  26.348  1.00  0.00     0.029 A 
ATOM     45  C   UNL A   1      44.698  26.928  26.858  1.00  0.00     0.049 A 
ATOM     46  H   UNL A   1      43.243  27.898  27.993  1.00  0.00     0.167 HD
ATOM     47  C   UNL A   1      39.936  29.940  30.047  1.00  0.00     0.034 A 
ATOM     48  C   UNL A   1      45.713  27.797  26.692  1.00  0.00     0.034 A 
ATOM     49  C   UNL A   1      41.021  30.884  30.040  1.00  0.00     0.049 A 
ATOM     50  C   UNL A   1      45.604  29.174  27.297  1.00  0.00     0.074 A 
ATOM     51  C   UNL A   1      41.065  32.147  30.601  1.00  0.00     0.029 A 
ATOM     52  N   UNL A   1      42.250  30.669  29.435  1.00  0.00    -0.354 N 
ATOM     53  N   UNL A   1      44.632  29.687  28.010  1.00  0.00    -0.248 NA
ATOM     54  C   UNL A   1      46.745  30.080  27.100  1.00  0.00     0.031 C 
ATOM     55  C   UNL A   1      42.316  32.705  30.318  1.00  0.00     0.029 A 
ATOM     56  C   UNL A   1      43.058  31.779  29.600  1.00  0.00     0.049 A 
ATOM     57  H   UNL A   1      42.508  29.847  28.958  1.00  0.00     0.167 HD
ATOM     58  C   UNL A   1      45.054  30.961  28.375  1.00  0.00     0.074 A 
ATOM     59  C   UNL A   1      46.380  31.134  27.819  1.00  0.00     0.031 C 
ATOM     60  C   UNL A   1      44.399  31.910  29.089  1.00  0.00     0.034 A 
BRANCH  47  61
ATOM     61  C   UNL A   1      38.648  30.334  30.718  1.00  0.00     0.023 A 
ATOM     62  C   UNL A   1      38.431  29.993  32.068  1.00  0.00     0.012 A 
ATOM     63  C   UNL A   1      37.675  31.081  30.026  1.00  0.00     0.148 A 
ATOM     64  C   UNL A   1      37.251  30.365  32.711  1.00  0.00     0.002 A 
ATOM     65  C   UNL A   1      36.519  31.482  30.687  1.00  0.00     0.091 A 
ATOM     66  F   UNL A   1      37.889  31.372  28.736  1.00  0.00    -0.205 F 
ATOM     67  C   UNL A   1      36.301  31.117  32.026  1.00  0.00     0.022 A 
BRANCH  65  68
ATOM     68  S   UNL A   1      35.270  32.513  29.908  1.00  0.00     0.127 S 
ATOM     69  O   UNL A   1      34.305  32.678  30.995  1.00  0.00    -0.237 OA
ATOM     70  O   UNL A   1      36.029  33.720  29.579  1.00  0.00    -0.237 OA
ATOM     71  O   UNL A   1      34.794  31.763  28.755  1.00  0.00    -0.744 OA
ENDBRANCH  65  68
ENDBRANCH  47  61
BRANCH  48  72
ATOM     72  C   UNL A   1      46.931  27.385  25.938  1.00  0.00     0.023 A 
ATOM     73  C   UNL A   1      47.022  27.654  24.559  1.00  0.00     0.012 A 
ATOM     74  C   UNL A   1      48.010  26.750  26.587  1.00  0.00     0.148 A 
ATOM     75  C   UNL A   1      48.152  27.275  23.833  1.00  0.00     0.002 A 
ATOM     76  C   UNL A   1      49.156  26.426  25.869  1.00  0.00     0.091 A 
ATOM     77  F   UNL A   1      47.897  26.481  27.894  1.00  0.00    -0.205 F 
ATOM     78  C   UNL A   1      49.223  26.673  24.489  1.00  0.00     0.022 A 
BRANCH  76  79
ATOM     79  S   UNL A   1      50.629  25.769  26.659  1.00  0.00     0.127 S 
ATOM     80  O   UNL A   1      50.129  24.527  27.241  1.00  0.00    -0.237 OA
ATOM     81  O   UNL A   1      51.534  25.597  25.522  1.00  0.00    -0.237 OA
ATOM     82  O   UNL A   1      51.051  26.790  27.609  1.00  0.00    -0.744 OA
ENDBRANCH  76  79
ENDBRANCH  48  72
BRANCH  60  83
ATOM     83  C   UNL A   1      45.113  33.211  29.346  1.00  0.00     0.023 A 
ATOM     84  C   UNL A   1      45.935  33.344  30.482  1.00  0.00     0.012 A 
ATOM     85  C   UNL A   1      45.040  34.268  28.417  1.00  0.00     0.148 A 
ATOM     86  C   UNL A   1      46.650  34.519  30.705  1.00  0.00     0.002 A 
ATOM     87  C   UNL A   1      45.792  35.418  28.622  1.00  0.00     0.091 A 
ATOM     88  F   UNL A   1      44.238  34.128  27.351  1.00  0.00    -0.205 F 
ATOM     89  C   UNL A   1      46.589  35.550  29.770  1.00  0.00     0.022 A 
BRANCH  87  90
ATOM     90  S   UNL A   1      45.849  36.755  27.423  1.00  0.00     0.127 S 
ATOM     91  O   UNL A   1      46.782  37.684  28.057  1.00  0.00    -0.237 OA
ATOM     92  O   UNL A   1      46.370  36.084  26.230  1.00  0.00    -0.237 OA
ATOM     93  O   UNL A   1      44.478  37.234  27.292  1.00  0.00    -0.744 OA
ENDBRANCH  87  90
ENDBRANCH  60  83
ENDBRANCH  34  35
ENDBRANCH  27  29
ENDBRANCH  26  27
ENDBRANCH  25  26
ENDBRANCH   1  25
TORSDOF 20
ENDMDL
