MODEL 1
REMARK VINA RESULT:     -12.2      0.000      0.000
REMARK SMILES CCOC(=O)c1c(NC(=O)[C@@H]2[C@@H](C(=O)OCCOC(=O)c3ccc(-c4c5nc(c(-c6cccc(S(=O)(=O)[O-])c6F)c6ccc([nH]6)c(-c6cccc(S(=O)(=O)[O-])c6F)c6nc(c(-c7cccc(S(=O)(=O)[O-])c7F)c7ccc4[nH]7)C=C6)C=C5)cc3)[C@@H]3C=C[C@H]2CC3)sc2c1CCC2
REMARK SMILES IDX 16 1 15 2 13 3 14 4 12 5 11 6 87 7 84 8 86 9 88 10 85 11
REMARK SMILES IDX 89 12 9 13 8 14 10 16 7 17 6 18 92 19 90 20 91 21 93 22
REMARK SMILES IDX 95 23 94 24 4 25 5 26 3 27 2 28 1 29 17 30 18 31 19 32 20 33
REMARK SMILES IDX 21 34 22 35 83 36 23 37 82 38 24 39 25 40 26 41 76 42 27 43
REMARK SMILES IDX 81 44 75 45 77 46 28 47 80 48 74 49 73 50 29 52 61 53 41 54
REMARK SMILES IDX 60 55 42 56 45 57 59 58 78 59 43 60 44 61 58 63 79 64 46 65
REMARK SMILES IDX 30 66 31 67 39 68 32 69 34 70 40 71 33 72 35 73 36 74 37 75
REMARK SMILES IDX 38 76 62 77 63 78 71 79 64 80 66 81 72 82 65 83 67 84 68 85
REMARK SMILES IDX 69 86 70 87 47 88 48 89 56 90 49 91 51 92 57 93 50 94 52 95
REMARK SMILES IDX 53 96 54 97 55 98
REMARK H PARENT 8 15 77 51 45 62
REMARK Flexibility Score: inf
ROOT
ATOM      1  C   UNL A   1      32.986  29.720  26.946  1.00  0.00     0.274 C 
ENDROOT
BRANCH   1   2
ATOM      2  O   UNL A   1      32.919  29.938  25.511  1.00  0.00    -0.462 OA
BRANCH   2   3
ATOM      3  C   UNL A   1      33.069  28.811  24.754  1.00  0.00     0.310 C 
ATOM      4  O   UNL A   1      34.037  28.630  24.017  1.00  0.00    -0.252 OA
BRANCH   3   5
ATOM      5  C   UNL A   1      31.858  27.861  24.806  1.00  0.00     0.119 C 
ATOM      6  C   UNL A   1      32.075  26.323  24.517  1.00  0.00     0.100 C 
ATOM      7  C   UNL A   1      31.065  25.860  23.400  1.00  0.00     0.025 C 
ATOM      8  C   UNL A   1      30.828  28.416  23.763  1.00  0.00     0.026 C 
ATOM      9  C   UNL A   1      29.662  26.324  23.763  1.00  0.00    -0.027 C 
ATOM     10  C   UNL A   1      31.413  26.598  22.087  1.00  0.00     0.009 C 
ATOM     11  C   UNL A   1      29.543  27.646  23.959  1.00  0.00    -0.027 C 
ATOM     12  C   UNL A   1      31.300  28.120  22.308  1.00  0.00     0.009 C 
BRANCH   6  13
ATOM     13  C   UNL A   1      31.857  25.408  25.757  1.00  0.00     0.229 C 
ATOM     14  N   UNL A   1      32.401  24.164  25.992  1.00  0.00    -0.317 N 
ATOM     15  H   UNL A   1      31.911  23.648  26.672  1.00  0.00     0.170 HD
ATOM     16  O   UNL A   1      31.071  25.791  26.642  1.00  0.00    -0.274 OA
BRANCH  14  17
ATOM     17  C   UNL A   1      33.494  23.489  25.473  1.00  0.00     0.110 A 
ATOM     18  C   UNL A   1      33.602  22.161  25.016  1.00  0.00     0.098 A 
ATOM     19  C   UNL A   1      34.988  21.796  24.957  1.00  0.00    -0.017 A 
ATOM     20  S   UNL A   1      34.991  24.260  25.398  1.00  0.00    -0.122 S 
ATOM     21  C   UNL A   1      35.780  22.821  25.361  1.00  0.00     0.011 A 
ATOM     22  C   UNL A   1      35.827  20.591  24.698  1.00  0.00     0.038 C 
ATOM     23  C   UNL A   1      37.182  22.468  25.588  1.00  0.00     0.047 C 
ATOM     24  C   UNL A   1      37.116  20.923  25.513  1.00  0.00     0.010 C 
BRANCH  18  25
ATOM     25  C   UNL A   1      32.504  21.239  24.788  1.00  0.00     0.341 C 
ATOM     26  O   UNL A   1      31.577  21.069  25.575  1.00  0.00    -0.246 OA
BRANCH  25  27
ATOM     27  O   UNL A   1      32.671  20.568  23.616  1.00  0.00    -0.462 OA
BRANCH  27  28
ATOM     28  C   UNL A   1      32.414  19.162  23.563  1.00  0.00     0.230 C 
ATOM     29  C   UNL A   1      32.894  18.448  24.811  1.00  0.00     0.049 C 
ENDBRANCH  27  28
ENDBRANCH  25  27
ENDBRANCH  18  25
ENDBRANCH  14  17
ENDBRANCH   6  13
ENDBRANCH   3   5
ENDBRANCH   2   3
ENDBRANCH   1   2
BRANCH   1  30
ATOM     30  C   UNL A   1      34.291  29.042  27.386  1.00  0.00     0.275 C 
BRANCH  30  31
ATOM     31  O   UNL A   1      35.513  29.811  27.344  1.00  0.00    -0.458 OA
BRANCH  31  32
ATOM     32  C   UNL A   1      35.874  30.427  28.487  1.00  0.00     0.338 C 
ATOM     33  O   UNL A   1      35.395  31.454  28.929  1.00  0.00    -0.246 OA
BRANCH  32  34
ATOM     34  C   UNL A   1      37.142  29.939  29.049  1.00  0.00     0.060 A 
ATOM     35  C   UNL A   1      38.287  30.375  28.369  1.00  0.00     0.016 A 
ATOM     36  C   UNL A   1      37.202  28.872  29.946  1.00  0.00     0.016 A 
ATOM     37  C   UNL A   1      39.412  29.586  28.374  1.00  0.00     0.010 A 
ATOM     38  C   UNL A   1      38.373  28.125  30.019  1.00  0.00     0.010 A 
ATOM     39  C   UNL A   1      39.436  28.428  29.161  1.00  0.00    -0.014 A 
BRANCH  39  40
ATOM     40  C   UNL A   1      40.712  27.711  29.213  1.00  0.00     0.031 A 
ATOM     41  C   UNL A   1      41.480  28.136  30.407  1.00  0.00     0.074 A 
ATOM     42  C   UNL A   1      41.110  26.749  28.355  1.00  0.00     0.049 A 
ATOM     43  N   UNL A   1      42.647  28.689  30.444  1.00  0.00    -0.248 NA
ATOM     44  C   UNL A   1      40.748  28.179  31.689  1.00  0.00     0.031 C 
ATOM     45  C   UNL A   1      40.329  26.205  27.248  1.00  0.00     0.029 A 
ATOM     46  N   UNL A   1      42.226  25.949  28.356  1.00  0.00    -0.354 N 
ATOM     47  C   UNL A   1      42.891  28.860  31.803  1.00  0.00     0.074 A 
ATOM     48  C   UNL A   1      41.621  28.816  32.467  1.00  0.00     0.031 C 
ATOM     49  C   UNL A   1      40.860  25.043  26.832  1.00  0.00     0.029 A 
ATOM     50  C   UNL A   1      42.043  24.777  27.615  1.00  0.00     0.049 A 
ATOM     51  H   UNL A   1      43.061  26.175  28.824  1.00  0.00     0.167 HD
ATOM     52  C   UNL A   1      44.119  28.565  32.302  1.00  0.00     0.034 A 
ATOM     53  C   UNL A   1      42.729  23.612  27.688  1.00  0.00     0.034 A 
ATOM     54  C   UNL A   1      45.130  28.625  31.281  1.00  0.00     0.049 A 
ATOM     55  C   UNL A   1      44.045  23.898  28.284  1.00  0.00     0.074 A 
ATOM     56  C   UNL A   1      45.733  29.613  30.535  1.00  0.00     0.029 A 
ATOM     57  N   UNL A   1      45.377  27.428  30.662  1.00  0.00    -0.354 N 
ATOM     58  N   UNL A   1      44.976  24.561  27.661  1.00  0.00    -0.248 NA
ATOM     59  C   UNL A   1      44.238  23.738  29.721  1.00  0.00     0.031 C 
ATOM     60  C   UNL A   1      46.252  28.975  29.374  1.00  0.00     0.029 A 
ATOM     61  C   UNL A   1      45.971  27.612  29.445  1.00  0.00     0.049 A 
ATOM     62  H   UNL A   1      45.156  26.548  31.046  1.00  0.00     0.167 HD
ATOM     63  C   UNL A   1      45.584  25.286  28.669  1.00  0.00     0.074 A 
ATOM     64  C   UNL A   1      45.240  24.600  29.905  1.00  0.00     0.031 C 
ATOM     65  C   UNL A   1      45.997  26.564  28.446  1.00  0.00     0.034 A 
BRANCH  52  66
ATOM     66  C   UNL A   1      44.321  27.731  33.553  1.00  0.00     0.023 A 
ATOM     67  C   UNL A   1      45.035  28.329  34.610  1.00  0.00     0.012 A 
ATOM     68  C   UNL A   1      44.114  26.331  33.641  1.00  0.00     0.148 A 
ATOM     69  C   UNL A   1      45.536  27.572  35.676  1.00  0.00     0.002 A 
ATOM     70  C   UNL A   1      44.535  25.597  34.740  1.00  0.00     0.091 A 
ATOM     71  F   UNL A   1      43.641  25.647  32.598  1.00  0.00    -0.205 F 
ATOM     72  C   UNL A   1      45.275  26.207  35.749  1.00  0.00     0.022 A 
BRANCH  70  73
ATOM     73  S   UNL A   1      44.185  23.838  34.877  1.00  0.00     0.127 S 
ATOM     74  O   UNL A   1      45.024  23.288  33.816  1.00  0.00    -0.237 OA
ATOM     75  O   UNL A   1      44.633  23.552  36.239  1.00  0.00    -0.237 OA
ATOM     76  O   UNL A   1      42.745  23.704  34.685  1.00  0.00    -0.744 OA
ENDBRANCH  70  73
ENDBRANCH  52  66
BRANCH  53  77
ATOM     77  C   UNL A   1      42.273  22.232  27.391  1.00  0.00     0.023 A 
ATOM     78  C   UNL A   1      40.919  21.892  27.573  1.00  0.00     0.012 A 
ATOM     79  C   UNL A   1      43.101  21.311  26.707  1.00  0.00     0.148 A 
ATOM     80  C   UNL A   1      40.398  20.696  27.062  1.00  0.00     0.002 A 
ATOM     81  C   UNL A   1      42.584  20.117  26.214  1.00  0.00     0.091 A 
ATOM     82  F   UNL A   1      44.376  21.640  26.462  1.00  0.00    -0.205 F 
ATOM     83  C   UNL A   1      41.228  19.813  26.376  1.00  0.00     0.022 A 
BRANCH  81  84
ATOM     84  S   UNL A   1      43.597  18.937  25.309  1.00  0.00     0.127 S 
ATOM     85  O   UNL A   1      44.777  18.826  26.168  1.00  0.00    -0.237 OA
ATOM     86  O   UNL A   1      42.739  17.756  25.290  1.00  0.00    -0.237 OA
ATOM     87  O   UNL A   1      43.859  19.552  24.013  1.00  0.00    -0.744 OA
ENDBRANCH  81  84
ENDBRANCH  53  77
BRANCH  65  88
ATOM     88  C   UNL A   1      46.322  26.957  27.035  1.00  0.00     0.023 A 
ATOM     89  C   UNL A   1      45.365  27.477  26.142  1.00  0.00     0.012 A 
ATOM     90  C   UNL A   1      47.669  26.899  26.642  1.00  0.00     0.148 A 
ATOM     91  C   UNL A   1      45.751  27.920  24.874  1.00  0.00     0.002 A 
ATOM     92  C   UNL A   1      48.054  27.388  25.404  1.00  0.00     0.091 A 
ATOM     93  F   UNL A   1      48.559  26.379  27.502  1.00  0.00    -0.205 F 
ATOM     94  C   UNL A   1      47.097  27.891  24.511  1.00  0.00     0.022 A 
BRANCH  92  95
ATOM     95  S   UNL A   1      49.786  27.491  24.947  1.00  0.00     0.127 S 
ATOM     96  O   UNL A   1      50.214  26.098  25.051  1.00  0.00    -0.237 OA
ATOM     97  O   UNL A   1      49.721  28.012  23.580  1.00  0.00    -0.237 OA
ATOM     98  O   UNL A   1      50.392  28.411  25.902  1.00  0.00    -0.744 OA
ENDBRANCH  92  95
ENDBRANCH  65  88
ENDBRANCH  39  40
ENDBRANCH  32  34
ENDBRANCH  31  32
ENDBRANCH  30  31
ENDBRANCH   1  30
TORSDOF 19
ENDMDL
MODEL 2
REMARK VINA RESULT:     -12.0      5.057     10.641
REMARK SMILES CCOC(=O)c1c(NC(=O)[C@@H]2[C@@H](C(=O)OCCOC(=O)c3ccc(-c4c5nc(c(-c6cccc(S(=O)(=O)[O-])c6F)c6ccc([nH]6)c(-c6cccc(S(=O)(=O)[O-])c6F)c6nc(c(-c7cccc(S(=O)(=O)[O-])c7F)c7ccc4[nH]7)C=C6)C=C5)cc3)[C@@H]3C=C[C@H]2CC3)sc2c1CCC2
REMARK SMILES IDX 16 1 15 2 13 3 14 4 12 5 11 6 87 7 84 8 86 9 88 10 85 11
REMARK SMILES IDX 89 12 9 13 8 14 10 16 7 17 6 18 92 19 90 20 91 21 93 22
REMARK SMILES IDX 95 23 94 24 4 25 5 26 3 27 2 28 1 29 17 30 18 31 19 32 20 33
REMARK SMILES IDX 21 34 22 35 83 36 23 37 82 38 24 39 25 40 26 41 76 42 27 43
REMARK SMILES IDX 81 44 75 45 77 46 28 47 80 48 74 49 73 50 29 52 61 53 41 54
REMARK SMILES IDX 60 55 42 56 45 57 59 58 78 59 43 60 44 61 58 63 79 64 46 65
REMARK SMILES IDX 30 66 31 67 39 68 32 69 34 70 40 71 33 72 35 73 36 74 37 75
REMARK SMILES IDX 38 76 62 77 63 78 71 79 64 80 66 81 72 82 65 83 67 84 68 85
REMARK SMILES IDX 69 86 70 87 47 88 48 89 56 90 49 91 51 92 57 93 50 94 52 95
REMARK SMILES IDX 53 96 54 97 55 98
REMARK H PARENT 8 15 77 51 45 62
REMARK Flexibility Score: inf
ROOT
ATOM      1  C   UNL A   1      37.273  23.698  25.417  1.00  0.00     0.274 C 
ENDROOT
BRANCH   1   2
ATOM      2  O   UNL A   1      35.989  23.207  25.887  1.00  0.00    -0.462 OA
BRANCH   2   3
ATOM      3  C   UNL A   1      35.512  22.119  25.211  1.00  0.00     0.310 C 
ATOM      4  O   UNL A   1      36.030  21.006  25.296  1.00  0.00    -0.252 OA
BRANCH   3   5
ATOM      5  C   UNL A   1      34.363  22.445  24.241  1.00  0.00     0.119 C 
ATOM      6  C   UNL A   1      33.460  23.713  24.516  1.00  0.00     0.100 C 
ATOM      7  C   UNL A   1      31.946  23.280  24.513  1.00  0.00     0.025 C 
ATOM      8  C   UNL A   1      33.438  21.179  24.225  1.00  0.00     0.026 C 
ATOM      9  C   UNL A   1      31.657  22.459  23.264  1.00  0.00    -0.027 C 
ATOM     10  C   UNL A   1      31.708  22.317  25.699  1.00  0.00     0.009 C 
ATOM     11  C   UNL A   1      32.436  21.377  23.112  1.00  0.00    -0.027 C 
ATOM     12  C   UNL A   1      32.615  21.080  25.545  1.00  0.00     0.009 C 
BRANCH   6  13
ATOM     13  C   UNL A   1      33.628  24.849  23.466  1.00  0.00     0.229 C 
ATOM     14  N   UNL A   1      33.244  26.167  23.583  1.00  0.00    -0.317 N 
ATOM     15  H   UNL A   1      33.170  26.629  22.716  1.00  0.00     0.170 HD
ATOM     16  O   UNL A   1      34.121  24.564  22.361  1.00  0.00    -0.274 OA
BRANCH  14  17
ATOM     17  C   UNL A   1      32.941  26.979  24.664  1.00  0.00     0.110 A 
ATOM     18  C   UNL A   1      31.855  27.853  24.861  1.00  0.00     0.098 A 
ATOM     19  C   UNL A   1      32.171  28.763  25.924  1.00  0.00    -0.017 A 
ATOM     20  S   UNL A   1      34.006  27.060  25.968  1.00  0.00    -0.122 S 
ATOM     21  C   UNL A   1      33.412  28.524  26.418  1.00  0.00     0.011 A 
ATOM     22  C   UNL A   1      31.600  29.974  26.580  1.00  0.00     0.038 C 
ATOM     23  C   UNL A   1      33.931  29.555  27.317  1.00  0.00     0.047 C 
ATOM     24  C   UNL A   1      32.886  30.679  27.115  1.00  0.00     0.010 C 
BRANCH  18  25
ATOM     25  C   UNL A   1      30.665  27.945  24.035  1.00  0.00     0.341 C 
ATOM     26  O   UNL A   1      29.742  27.136  24.069  1.00  0.00    -0.246 OA
BRANCH  25  27
ATOM     27  O   UNL A   1      30.738  29.016  23.198  1.00  0.00    -0.462 OA
BRANCH  27  28
ATOM     28  C   UNL A   1      29.685  29.982  23.192  1.00  0.00     0.230 C 
ATOM     29  C   UNL A   1      29.215  30.307  21.789  1.00  0.00     0.049 C 
ENDBRANCH  27  28
ENDBRANCH  25  27
ENDBRANCH  18  25
ENDBRANCH  14  17
ENDBRANCH   6  13
ENDBRANCH   3   5
ENDBRANCH   2   3
ENDBRANCH   1   2
BRANCH   1  30
ATOM     30  C   UNL A   1      38.454  23.159  26.235  1.00  0.00     0.275 C 
BRANCH  30  31
ATOM     31  O   UNL A   1      39.052  24.020  27.230  1.00  0.00    -0.458 OA
BRANCH  31  32
ATOM     32  C   UNL A   1      40.364  24.288  27.080  1.00  0.00     0.338 C 
ATOM     33  O   UNL A   1      41.253  23.466  26.955  1.00  0.00    -0.246 OA
BRANCH  32  34
ATOM     34  C   UNL A   1      40.726  25.678  27.394  1.00  0.00     0.060 A 
ATOM     35  C   UNL A   1      41.245  25.868  28.681  1.00  0.00     0.016 A 
ATOM     36  C   UNL A   1      40.278  26.758  26.634  1.00  0.00     0.016 A 
ATOM     37  C   UNL A   1      41.066  27.080  29.306  1.00  0.00     0.010 A 
ATOM     38  C   UNL A   1      40.180  28.006  27.238  1.00  0.00     0.010 A 
ATOM     39  C   UNL A   1      40.483  28.138  28.598  1.00  0.00    -0.014 A 
BRANCH  39  40
ATOM     40  C   UNL A   1      40.442  29.429  29.287  1.00  0.00     0.031 A 
ATOM     41  C   UNL A   1      41.802  30.013  29.343  1.00  0.00     0.074 A 
ATOM     42  C   UNL A   1      39.330  30.044  29.741  1.00  0.00     0.049 A 
ATOM     43  N   UNL A   1      42.491  30.322  30.391  1.00  0.00    -0.248 NA
ATOM     44  C   UNL A   1      42.578  30.013  28.087  1.00  0.00     0.031 C 
ATOM     45  C   UNL A   1      37.959  29.570  29.587  1.00  0.00     0.029 A 
ATOM     46  N   UNL A   1      39.156  31.282  30.310  1.00  0.00    -0.354 N 
ATOM     47  C   UNL A   1      43.674  30.838  29.872  1.00  0.00     0.074 A 
ATOM     48  C   UNL A   1      43.787  30.356  28.525  1.00  0.00     0.031 C 
ATOM     49  C   UNL A   1      37.092  30.568  29.824  1.00  0.00     0.029 A 
ATOM     50  C   UNL A   1      37.843  31.746  30.188  1.00  0.00     0.049 A 
ATOM     51  H   UNL A   1      39.875  31.786  30.755  1.00  0.00     0.167 HD
ATOM     52  C   UNL A   1      44.209  31.960  30.419  1.00  0.00     0.034 A 
ATOM     53  C   UNL A   1      37.382  33.016  30.268  1.00  0.00     0.034 A 
ATOM     54  C   UNL A   1      43.767  32.147  31.774  1.00  0.00     0.049 A 
ATOM     55  C   UNL A   1      38.366  33.808  31.024  1.00  0.00     0.074 A 
ATOM     56  C   UNL A   1      43.980  31.525  32.983  1.00  0.00     0.029 A 
ATOM     57  N   UNL A   1      42.649  32.929  31.899  1.00  0.00    -0.354 N 
ATOM     58  N   UNL A   1      38.564  33.659  32.303  1.00  0.00    -0.248 NA
ATOM     59  C   UNL A   1      39.391  34.560  30.310  1.00  0.00     0.031 C 
ATOM     60  C   UNL A   1      42.873  31.869  33.809  1.00  0.00     0.029 A 
ATOM     61  C   UNL A   1      42.020  32.707  33.093  1.00  0.00     0.049 A 
ATOM     62  H   UNL A   1      42.339  33.568  31.218  1.00  0.00     0.167 HD
ATOM     63  C   UNL A   1      39.924  33.866  32.444  1.00  0.00     0.074 A 
ATOM     64  C   UNL A   1      40.331  34.603  31.257  1.00  0.00     0.031 C 
ATOM     65  C   UNL A   1      40.648  33.113  33.315  1.00  0.00     0.034 A 
BRANCH  52  66
ATOM     66  C   UNL A   1      44.690  33.133  29.585  1.00  0.00     0.023 A 
ATOM     67  C   UNL A   1      46.026  33.541  29.770  1.00  0.00     0.012 A 
ATOM     68  C   UNL A   1      43.850  34.022  28.867  1.00  0.00     0.148 A 
ATOM     69  C   UNL A   1      46.488  34.774  29.291  1.00  0.00     0.002 A 
ATOM     70  C   UNL A   1      44.332  35.201  28.319  1.00  0.00     0.091 A 
ATOM     71  F   UNL A   1      42.532  33.825  28.825  1.00  0.00    -0.205 F 
ATOM     72  C   UNL A   1      45.645  35.599  28.554  1.00  0.00     0.022 A 
BRANCH  70  73
ATOM     73  S   UNL A   1      43.274  36.272  27.334  1.00  0.00     0.127 S 
ATOM     74  O   UNL A   1      42.897  35.385  26.237  1.00  0.00    -0.237 OA
ATOM     75  O   UNL A   1      42.204  36.583  28.281  1.00  0.00    -0.237 OA
ATOM     76  O   UNL A   1      44.098  37.419  26.972  1.00  0.00    -0.744 OA
ENDBRANCH  70  73
ENDBRANCH  52  66
BRANCH  53  77
ATOM     77  C   UNL A   1      36.196  33.629  29.620  1.00  0.00     0.023 A 
ATOM     78  C   UNL A   1      35.788  33.180  28.349  1.00  0.00     0.012 A 
ATOM     79  C   UNL A   1      35.321  34.481  30.335  1.00  0.00     0.148 A 
ATOM     80  C   UNL A   1      34.540  33.537  27.823  1.00  0.00     0.002 A 
ATOM     81  C   UNL A   1      34.088  34.845  29.802  1.00  0.00     0.091 A 
ATOM     82  F   UNL A   1      35.655  34.866  31.573  1.00  0.00    -0.205 F 
ATOM     83  C   UNL A   1      33.687  34.363  28.551  1.00  0.00     0.022 A 
BRANCH  81  84
ATOM     84  S   UNL A   1      32.933  35.898  30.694  1.00  0.00     0.127 S 
ATOM     85  O   UNL A   1      33.815  36.941  31.219  1.00  0.00    -0.237 OA
ATOM     86  O   UNL A   1      32.036  36.332  29.627  1.00  0.00    -0.237 OA
ATOM     87  O   UNL A   1      32.336  35.050  31.720  1.00  0.00    -0.744 OA
ENDBRANCH  81  84
ENDBRANCH  53  77
BRANCH  65  88
ATOM     88  C   UNL A   1      39.927  32.511  34.485  1.00  0.00     0.023 A 
ATOM     89  C   UNL A   1      39.361  31.222  34.459  1.00  0.00     0.012 A 
ATOM     90  C   UNL A   1      39.925  33.239  35.686  1.00  0.00     0.148 A 
ATOM     91  C   UNL A   1      38.791  30.677  35.614  1.00  0.00     0.002 A 
ATOM     92  C   UNL A   1      39.406  32.674  36.841  1.00  0.00     0.091 A 
ATOM     93  F   UNL A   1      40.451  34.474  35.681  1.00  0.00    -0.205 F 
ATOM     94  C   UNL A   1      38.828  31.397  36.808  1.00  0.00     0.022 A 
BRANCH  92  95
ATOM     95  S   UNL A   1      39.550  33.506  38.424  1.00  0.00     0.127 S 
ATOM     96  O   UNL A   1      38.650  34.644  38.255  1.00  0.00    -0.237 OA
ATOM     97  O   UNL A   1      39.078  32.485  39.361  1.00  0.00    -0.237 OA
ATOM     98  O   UNL A   1      40.963  33.835  38.570  1.00  0.00    -0.744 OA
ENDBRANCH  92  95
ENDBRANCH  65  88
ENDBRANCH  39  40
ENDBRANCH  32  34
ENDBRANCH  31  32
ENDBRANCH  30  31
ENDBRANCH   1  30
TORSDOF 19
ENDMDL
MODEL 3
REMARK VINA RESULT:     -12.0      1.122      2.994
REMARK SMILES CCOC(=O)c1c(NC(=O)[C@@H]2[C@@H](C(=O)OCCOC(=O)c3ccc(-c4c5nc(c(-c6cccc(S(=O)(=O)[O-])c6F)c6ccc([nH]6)c(-c6cccc(S(=O)(=O)[O-])c6F)c6nc(c(-c7cccc(S(=O)(=O)[O-])c7F)c7ccc4[nH]7)C=C6)C=C5)cc3)[C@@H]3C=C[C@H]2CC3)sc2c1CCC2
REMARK SMILES IDX 16 1 15 2 13 3 14 4 12 5 11 6 87 7 84 8 86 9 88 10 85 11
REMARK SMILES IDX 89 12 9 13 8 14 10 16 7 17 6 18 92 19 90 20 91 21 93 22
REMARK SMILES IDX 95 23 94 24 4 25 5 26 3 27 2 28 1 29 17 30 18 31 19 32 20 33
REMARK SMILES IDX 21 34 22 35 83 36 23 37 82 38 24 39 25 40 26 41 76 42 27 43
REMARK SMILES IDX 81 44 75 45 77 46 28 47 80 48 74 49 73 50 29 52 61 53 41 54
REMARK SMILES IDX 60 55 42 56 45 57 59 58 78 59 43 60 44 61 58 63 79 64 46 65
REMARK SMILES IDX 30 66 31 67 39 68 32 69 34 70 40 71 33 72 35 73 36 74 37 75
REMARK SMILES IDX 38 76 62 77 63 78 71 79 64 80 66 81 72 82 65 83 67 84 68 85
REMARK SMILES IDX 69 86 70 87 47 88 48 89 56 90 49 91 51 92 57 93 50 94 52 95
REMARK SMILES IDX 53 96 54 97 55 98
REMARK H PARENT 8 15 77 51 45 62
REMARK Flexibility Score: inf
ROOT
ATOM      1  C   UNL A   1      34.090  27.445  25.560  1.00  0.00     0.274 C 
ENDROOT
BRANCH   1   2
ATOM      2  O   UNL A   1      34.333  26.035  25.810  1.00  0.00    -0.462 OA
BRANCH   2   3
ATOM      3  C   UNL A   1      34.290  25.242  24.698  1.00  0.00     0.310 C 
ATOM      4  O   UNL A   1      33.975  25.671  23.589  1.00  0.00    -0.252 OA
BRANCH   3   5
ATOM      5  C   UNL A   1      34.538  23.751  24.988  1.00  0.00     0.119 C 
ATOM      6  C   UNL A   1      34.849  23.298  26.470  1.00  0.00     0.100 C 
ATOM      7  C   UNL A   1      36.174  22.446  26.482  1.00  0.00     0.025 C 
ATOM      8  C   UNL A   1      35.745  23.329  24.082  1.00  0.00     0.026 C 
ATOM      9  C   UNL A   1      36.091  21.367  25.411  1.00  0.00    -0.027 C 
ATOM     10  C   UNL A   1      37.348  23.356  26.055  1.00  0.00     0.009 C 
ATOM     11  C   UNL A   1      35.860  21.825  24.171  1.00  0.00    -0.027 C 
ATOM     12  C   UNL A   1      37.081  23.905  24.638  1.00  0.00     0.009 C 
BRANCH   6  13
ATOM     13  C   UNL A   1      33.728  22.434  27.118  1.00  0.00     0.229 C 
ATOM     14  N   UNL A   1      32.366  22.620  27.029  1.00  0.00    -0.317 N 
ATOM     15  H   UNL A   1      31.864  22.156  27.738  1.00  0.00     0.170 HD
ATOM     16  O   UNL A   1      34.062  21.482  27.845  1.00  0.00    -0.274 OA
BRANCH  14  17
ATOM     17  C   UNL A   1      31.554  23.321  26.152  1.00  0.00     0.110 A 
ATOM     18  C   UNL A   1      31.322  23.120  24.778  1.00  0.00     0.098 A 
ATOM     19  C   UNL A   1      30.745  24.308  24.220  1.00  0.00    -0.017 A 
ATOM     20  S   UNL A   1      30.725  24.684  26.695  1.00  0.00    -0.122 S 
ATOM     21  C   UNL A   1      30.598  25.270  25.165  1.00  0.00     0.011 A 
ATOM     22  C   UNL A   1      30.360  24.858  22.888  1.00  0.00     0.038 C 
ATOM     23  C   UNL A   1      30.266  26.599  24.652  1.00  0.00     0.047 C 
ATOM     24  C   UNL A   1      30.485  26.394  23.133  1.00  0.00     0.010 C 
BRANCH  18  25
ATOM     25  C   UNL A   1      31.738  21.969  23.996  1.00  0.00     0.341 C 
ATOM     26  O   UNL A   1      31.998  22.013  22.796  1.00  0.00    -0.246 OA
BRANCH  25  27
ATOM     27  O   UNL A   1      31.755  20.844  24.761  1.00  0.00    -0.462 OA
BRANCH  27  28
ATOM     28  C   UNL A   1      32.669  19.790  24.447  1.00  0.00     0.230 C 
ATOM     29  C   UNL A   1      32.871  18.844  25.614  1.00  0.00     0.049 C 
ENDBRANCH  27  28
ENDBRANCH  25  27
ENDBRANCH  18  25
ENDBRANCH  14  17
ENDBRANCH   6  13
ENDBRANCH   3   5
ENDBRANCH   2   3
ENDBRANCH   1   2
BRANCH   1  30
ATOM     30  C   UNL A   1      34.273  28.315  26.812  1.00  0.00     0.275 C 
BRANCH  30  31
ATOM     31  O   UNL A   1      35.257  29.371  26.778  1.00  0.00    -0.458 OA
BRANCH  31  32
ATOM     32  C   UNL A   1      35.518  29.985  27.949  1.00  0.00     0.338 C 
ATOM     33  O   UNL A   1      34.869  30.887  28.445  1.00  0.00    -0.246 OA
BRANCH  32  34
ATOM     34  C   UNL A   1      36.861  29.707  28.478  1.00  0.00     0.060 A 
ATOM     35  C   UNL A   1      37.905  29.941  27.573  1.00  0.00     0.016 A 
ATOM     36  C   UNL A   1      37.069  28.954  29.634  1.00  0.00     0.016 A 
ATOM     37  C   UNL A   1      39.063  29.208  27.678  1.00  0.00     0.010 A 
ATOM     38  C   UNL A   1      38.277  28.281  29.786  1.00  0.00     0.010 A 
ATOM     39  C   UNL A   1      39.228  28.335  28.760  1.00  0.00    -0.014 A 
BRANCH  39  40
ATOM     40  C   UNL A   1      40.535  27.687  28.872  1.00  0.00     0.031 A 
ATOM     41  C   UNL A   1      41.262  28.218  30.049  1.00  0.00     0.074 A 
ATOM     42  C   UNL A   1      40.995  26.699  28.077  1.00  0.00     0.049 A 
ATOM     43  N   UNL A   1      42.400  28.830  30.070  1.00  0.00    -0.248 NA
ATOM     44  C   UNL A   1      40.508  28.298  31.316  1.00  0.00     0.031 C 
ATOM     45  C   UNL A   1      40.261  26.053  26.993  1.00  0.00     0.029 A 
ATOM     46  N   UNL A   1      42.149  25.956  28.140  1.00  0.00    -0.354 N 
ATOM     47  C   UNL A   1      42.612  29.091  31.420  1.00  0.00     0.074 A 
ATOM     48  C   UNL A   1      41.334  29.021  32.068  1.00  0.00     0.031 C 
ATOM     49  C   UNL A   1      40.855  24.897  26.653  1.00  0.00     0.029 A 
ATOM     50  C   UNL A   1      42.036  24.736  27.466  1.00  0.00     0.049 A 
ATOM     51  H   UNL A   1      42.964  26.251  28.606  1.00  0.00     0.167 HD
ATOM     52  C   UNL A   1      43.845  28.887  31.952  1.00  0.00     0.034 A 
ATOM     53  C   UNL A   1      42.778  23.613  27.616  1.00  0.00     0.034 A 
ATOM     54  C   UNL A   1      44.869  28.938  30.944  1.00  0.00     0.049 A 
ATOM     55  C   UNL A   1      44.067  23.999  28.213  1.00  0.00     0.074 A 
ATOM     56  C   UNL A   1      45.434  29.911  30.150  1.00  0.00     0.029 A 
ATOM     57  N   UNL A   1      45.184  27.722  30.400  1.00  0.00    -0.354 N 
ATOM     58  N   UNL A   1      44.976  24.671  27.565  1.00  0.00    -0.248 NA
ATOM     59  C   UNL A   1      44.244  23.931  29.659  1.00  0.00     0.031 C 
ATOM     60  C   UNL A   1      46.003  29.234  29.035  1.00  0.00     0.029 A 
ATOM     61  C   UNL A   1      45.788  27.865  29.181  1.00  0.00     0.049 A 
ATOM     62  H   UNL A   1      45.001  26.856  30.830  1.00  0.00     0.167 HD
ATOM     63  C   UNL A   1      45.530  25.482  28.537  1.00  0.00     0.074 A 
ATOM     64  C   UNL A   1      45.200  24.852  29.806  1.00  0.00     0.031 C 
ATOM     65  C   UNL A   1      45.883  26.764  28.246  1.00  0.00     0.034 A 
BRANCH  52  66
ATOM     66  C   UNL A   1      44.066  28.138  33.252  1.00  0.00     0.023 A 
ATOM     67  C   UNL A   1      44.753  28.823  34.275  1.00  0.00     0.012 A 
ATOM     68  C   UNL A   1      43.906  26.739  33.424  1.00  0.00     0.148 A 
ATOM     69  C   UNL A   1      45.272  28.149  35.387  1.00  0.00     0.002 A 
ATOM     70  C   UNL A   1      44.344  26.088  34.568  1.00  0.00     0.091 A 
ATOM     71  F   UNL A   1      43.463  25.978  32.423  1.00  0.00    -0.205 F 
ATOM     72  C   UNL A   1      45.057  26.783  35.541  1.00  0.00     0.022 A 
BRANCH  70  73
ATOM     73  S   UNL A   1      44.053  24.330  34.810  1.00  0.00     0.127 S 
ATOM     74  O   UNL A   1      42.608  24.296  35.013  1.00  0.00    -0.237 OA
ATOM     75  O   UNL A   1      44.517  23.775  33.539  1.00  0.00    -0.237 OA
ATOM     76  O   UNL A   1      44.867  23.947  35.958  1.00  0.00    -0.744 OA
ENDBRANCH  70  73
ENDBRANCH  52  66
BRANCH  53  77
ATOM     77  C   UNL A   1      42.395  22.198  27.394  1.00  0.00     0.023 A 
ATOM     78  C   UNL A   1      41.096  21.767  27.724  1.00  0.00     0.012 A 
ATOM     79  C   UNL A   1      43.213  21.320  26.643  1.00  0.00     0.148 A 
ATOM     80  C   UNL A   1      40.613  20.525  27.292  1.00  0.00     0.002 A 
ATOM     81  C   UNL A   1      42.736  20.081  26.228  1.00  0.00     0.091 A 
ATOM     82  F   UNL A   1      44.428  21.733  26.259  1.00  0.00    -0.205 F 
ATOM     83  C   UNL A   1      41.430  19.685  26.539  1.00  0.00     0.022 A 
BRANCH  81  84
ATOM     84  S   UNL A   1      43.732  18.952  25.243  1.00  0.00     0.127 S 
ATOM     85  O   UNL A   1      44.946  18.832  26.051  1.00  0.00    -0.237 OA
ATOM     86  O   UNL A   1      42.894  17.757  25.214  1.00  0.00    -0.237 OA
ATOM     87  O   UNL A   1      43.933  19.618  23.961  1.00  0.00    -0.744 OA
ENDBRANCH  81  84
ENDBRANCH  53  77
BRANCH  65  88
ATOM     88  C   UNL A   1      46.212  27.091  26.819  1.00  0.00     0.023 A 
ATOM     89  C   UNL A   1      45.252  27.541  25.893  1.00  0.00     0.012 A 
ATOM     90  C   UNL A   1      47.563  27.045  26.441  1.00  0.00     0.148 A 
ATOM     91  C   UNL A   1      45.638  27.928  24.607  1.00  0.00     0.002 A 
ATOM     92  C   UNL A   1      47.949  27.478  25.182  1.00  0.00     0.091 A 
ATOM     93  F   UNL A   1      48.457  26.591  27.334  1.00  0.00    -0.205 F 
ATOM     94  C   UNL A   1      46.988  27.911  24.256  1.00  0.00     0.022 A 
BRANCH  92  95
ATOM     95  S   UNL A   1      49.681  27.598  24.735  1.00  0.00     0.127 S 
ATOM     96  O   UNL A   1      50.167  28.617  25.661  1.00  0.00    -0.237 OA
ATOM     97  O   UNL A   1      50.171  26.243  25.002  1.00  0.00    -0.237 OA
ATOM     98  O   UNL A   1      49.701  27.965  23.323  1.00  0.00    -0.744 OA
ENDBRANCH  92  95
ENDBRANCH  65  88
ENDBRANCH  39  40
ENDBRANCH  32  34
ENDBRANCH  31  32
ENDBRANCH  30  31
ENDBRANCH   1  30
TORSDOF 19
ENDMDL
