MODEL 1
REMARK VINA RESULT:     -12.0      0.000      0.000
REMARK SMILES O=C(OCCOC(=O)c1cccnc1Nc1cccc(C(F)(F)F)c1)c1ccc(-c2c3nc(c(-c4cccc(S(=O)(=O)[O-])c4F)c4ccc([nH]4)c(-c4cccc(S(=O)(=O)[O-])c4F)c4nc(c(-c5cccc(S(=O)(=O)[O-])c5F)c5ccc2[nH]5)C=C4)C=C3)cc1
REMARK SMILES IDX 4 1 3 2 2 3 1 4 26 5 27 6 88 7 28 8 87 9 29 10 30 11 31 12
REMARK SMILES IDX 81 13 32 14 86 15 80 16 82 17 33 18 85 19 79 20 78 21 34 23
REMARK SMILES IDX 66 24 46 25 65 26 47 27 50 28 64 29 83 30 48 31 49 32 63 34
REMARK SMILES IDX 84 35 51 36 35 37 36 38 44 39 37 40 39 41 45 42 38 43 40 44
REMARK SMILES IDX 41 45 42 46 43 47 67 48 68 49 76 50 69 51 71 52 77 53 70 54
REMARK SMILES IDX 72 55 73 56 74 57 75 58 52 59 53 60 61 61 54 62 56 63 62 64
REMARK SMILES IDX 55 65 57 66 58 67 59 68 60 69 5 70 6 71 7 72 8 73 9 74 10 75
REMARK SMILES IDX 14 76 11 77 13 78 12 79 15 80 16 82 17 83 25 84 18 85 20 86
REMARK SMILES IDX 19 87 21 88 22 89 23 90 24 91
REMARK H PARENT 82 22 50 33 15 81
REMARK Flexibility Score: inf
ROOT
ATOM      1  C   UNL A   1      37.519  21.253  25.412  1.00  0.00     0.275 C 
ENDROOT
BRANCH   1   2
ATOM      2  O   UNL A   1      38.936  21.003  25.440  1.00  0.00    -0.458 OA
BRANCH   2   3
ATOM      3  C   UNL A   1      39.856  21.294  26.390  1.00  0.00     0.338 C 
ATOM      4  O   UNL A   1      40.330  20.373  27.052  1.00  0.00    -0.246 OA
BRANCH   3   5
ATOM      5  C   UNL A   1      40.209  22.689  26.787  1.00  0.00     0.060 A 
ATOM      6  C   UNL A   1      39.769  23.852  26.154  1.00  0.00     0.016 A 
ATOM      7  C   UNL A   1      41.081  22.821  27.880  1.00  0.00     0.016 A 
ATOM      8  C   UNL A   1      40.124  25.110  26.648  1.00  0.00     0.010 A 
ATOM      9  C   UNL A   1      41.418  24.072  28.396  1.00  0.00     0.010 A 
ATOM     10  C   UNL A   1      40.953  25.226  27.765  1.00  0.00    -0.014 A 
BRANCH  10  11
ATOM     11  C   UNL A   1      41.475  26.552  28.152  1.00  0.00     0.031 A 
ATOM     12  C   UNL A   1      42.913  26.862  27.858  1.00  0.00     0.074 A 
ATOM     13  C   UNL A   1      40.672  27.465  28.725  1.00  0.00     0.049 A 
ATOM     14  N   UNL A   1      43.554  27.989  28.001  1.00  0.00    -0.248 NA
ATOM     15  C   UNL A   1      43.732  25.767  27.306  1.00  0.00     0.031 C 
ATOM     16  C   UNL A   1      39.257  27.268  29.035  1.00  0.00     0.029 A 
ATOM     17  N   UNL A   1      40.935  28.733  29.170  1.00  0.00    -0.354 N 
ATOM     18  C   UNL A   1      44.841  27.745  27.541  1.00  0.00     0.074 A 
ATOM     19  C   UNL A   1      44.910  26.353  27.167  1.00  0.00     0.031 C 
ATOM     20  C   UNL A   1      38.793  28.348  29.684  1.00  0.00     0.029 A 
ATOM     21  C   UNL A   1      39.870  29.323  29.809  1.00  0.00     0.049 A 
ATOM     22  H   UNL A   1      41.804  29.180  29.044  1.00  0.00     0.167 HD
ATOM     23  C   UNL A   1      45.862  28.621  27.400  1.00  0.00     0.034 A 
ATOM     24  C   UNL A   1      39.782  30.521  30.421  1.00  0.00     0.034 A 
ATOM     25  C   UNL A   1      45.779  29.999  27.788  1.00  0.00     0.049 A 
ATOM     26  C   UNL A   1      40.956  31.458  30.320  1.00  0.00     0.074 A 
ATOM     27  C   UNL A   1      46.731  30.991  27.655  1.00  0.00     0.029 A 
ATOM     28  N   UNL A   1      44.681  30.571  28.415  1.00  0.00    -0.354 N 
ATOM     29  N   UNL A   1      42.111  31.267  29.727  1.00  0.00    -0.248 NA
ATOM     30  C   UNL A   1      40.795  32.794  30.907  1.00  0.00     0.031 C 
ATOM     31  C   UNL A   1      46.218  32.158  28.232  1.00  0.00     0.029 A 
ATOM     32  C   UNL A   1      44.936  31.900  28.695  1.00  0.00     0.049 A 
ATOM     33  H   UNL A   1      43.844  30.099  28.628  1.00  0.00     0.167 HD
ATOM     34  C   UNL A   1      42.790  32.474  29.816  1.00  0.00     0.074 A 
ATOM     35  C   UNL A   1      41.916  33.390  30.522  1.00  0.00     0.031 C 
ATOM     36  C   UNL A   1      44.024  32.800  29.354  1.00  0.00     0.034 A 
BRANCH  23  37
ATOM     37  C   UNL A   1      47.125  28.101  26.773  1.00  0.00     0.023 A 
ATOM     38  C   UNL A   1      48.227  27.780  27.595  1.00  0.00     0.012 A 
ATOM     39  C   UNL A   1      47.229  27.937  25.380  1.00  0.00     0.148 A 
ATOM     40  C   UNL A   1      49.427  27.344  27.035  1.00  0.00     0.002 A 
ATOM     41  C   UNL A   1      48.415  27.464  24.833  1.00  0.00     0.091 A 
ATOM     42  F   UNL A   1      46.179  28.273  24.617  1.00  0.00    -0.205 F 
ATOM     43  C   UNL A   1      49.518  27.179  25.656  1.00  0.00     0.022 A 
BRANCH  41  44
ATOM     44  S   UNL A   1      48.619  27.164  23.075  1.00  0.00     0.127 S 
ATOM     45  O   UNL A   1      47.704  28.148  22.499  1.00  0.00    -0.237 OA
ATOM     46  O   UNL A   1      50.038  27.462  22.878  1.00  0.00    -0.237 OA
ATOM     47  O   UNL A   1      48.254  25.771  22.860  1.00  0.00    -0.744 OA
ENDBRANCH  41  44
ENDBRANCH  23  37
BRANCH  24  48
ATOM     48  C   UNL A   1      38.523  30.919  31.109  1.00  0.00     0.023 A 
ATOM     49  C   UNL A   1      38.362  30.673  32.485  1.00  0.00     0.012 A 
ATOM     50  C   UNL A   1      37.488  31.565  30.402  1.00  0.00     0.148 A 
ATOM     51  C   UNL A   1      37.182  31.032  33.139  1.00  0.00     0.002 A 
ATOM     52  C   UNL A   1      36.334  31.959  31.070  1.00  0.00     0.091 A 
ATOM     53  F   UNL A   1      37.659  31.789  29.091  1.00  0.00    -0.205 F 
ATOM     54  C   UNL A   1      36.171  31.680  32.434  1.00  0.00     0.022 A 
BRANCH  52  55
ATOM     55  S   UNL A   1      35.033  32.904  30.266  1.00  0.00     0.127 S 
ATOM     56  O   UNL A   1      35.775  34.049  29.744  1.00  0.00    -0.237 OA
ATOM     57  O   UNL A   1      34.559  31.960  29.254  1.00  0.00    -0.237 OA
ATOM     58  O   UNL A   1      34.062  33.198  31.312  1.00  0.00    -0.744 OA
ENDBRANCH  52  55
ENDBRANCH  24  48
BRANCH  36  59
ATOM     59  C   UNL A   1      44.489  34.216  29.552  1.00  0.00     0.023 A 
ATOM     60  C   UNL A   1      45.182  34.570  30.725  1.00  0.00     0.012 A 
ATOM     61  C   UNL A   1      44.321  35.168  28.528  1.00  0.00     0.148 A 
ATOM     62  C   UNL A   1      45.681  35.862  30.886  1.00  0.00     0.002 A 
ATOM     63  C   UNL A   1      44.867  36.435  28.672  1.00  0.00     0.091 A 
ATOM     64  F   UNL A   1      43.638  34.812  27.429  1.00  0.00    -0.205 F 
ATOM     65  C   UNL A   1      45.536  36.788  29.854  1.00  0.00     0.022 A 
BRANCH  63  66
ATOM     66  S   UNL A   1      44.823  37.651  27.351  1.00  0.00     0.127 S 
ATOM     67  O   UNL A   1      45.694  37.036  26.352  1.00  0.00    -0.237 OA
ATOM     68  O   UNL A   1      43.404  37.673  26.996  1.00  0.00    -0.237 OA
ATOM     69  O   UNL A   1      45.316  38.892  27.933  1.00  0.00    -0.744 OA
ENDBRANCH  63  66
ENDBRANCH  36  59
ENDBRANCH  10  11
ENDBRANCH   3   5
ENDBRANCH   2   3
ENDBRANCH   1   2
BRANCH   1  70
ATOM     70  C   UNL A   1      37.064  22.377  24.480  1.00  0.00     0.275 C 
BRANCH  70  71
ATOM     71  O   UNL A   1      36.169  23.323  25.082  1.00  0.00    -0.458 OA
BRANCH  71  72
ATOM     72  C   UNL A   1      35.116  23.692  24.303  1.00  0.00     0.342 C 
ATOM     73  O   UNL A   1      35.133  23.796  23.088  1.00  0.00    -0.246 OA
BRANCH  72  74
ATOM     74  C   UNL A   1      33.908  23.854  25.134  1.00  0.00     0.102 A 
ATOM     75  C   UNL A   1      33.372  25.131  25.344  1.00  0.00     0.021 A 
ATOM     76  C   UNL A   1      33.298  22.742  25.730  1.00  0.00     0.144 A 
ATOM     77  C   UNL A   1      32.252  25.278  26.154  1.00  0.00     0.021 A 
ATOM     78  N   UNL A   1      32.205  22.900  26.522  1.00  0.00    -0.238 NA
ATOM     79  C   UNL A   1      31.717  24.144  26.728  1.00  0.00     0.113 A 
BRANCH  76  80
ATOM     80  N   UNL A   1      33.810  21.437  25.566  1.00  0.00    -0.340 N 
ATOM     81  H   UNL A   1      34.572  21.195  26.140  1.00  0.00     0.168 HD
BRANCH  80  82
ATOM     82  C   UNL A   1      33.360  20.445  24.680  1.00  0.00     0.040 A 
ATOM     83  C   UNL A   1      32.485  20.778  23.639  1.00  0.00     0.026 A 
ATOM     84  C   UNL A   1      33.834  19.133  24.763  1.00  0.00     0.039 A 
ATOM     85  C   UNL A   1      32.102  19.825  22.694  1.00  0.00     0.003 A 
ATOM     86  C   UNL A   1      33.416  18.149  23.855  1.00  0.00     0.058 A 
ATOM     87  C   UNL A   1      32.558  18.512  22.806  1.00  0.00     0.013 A 
BRANCH  86  88
ATOM     88  C   UNL A   1      33.846  16.717  24.022  1.00  0.00     0.416 C 
ATOM     89  F   UNL A   1      34.814  16.587  24.978  1.00  0.00    -0.166 F 
ATOM     90  F   UNL A   1      32.833  15.897  24.418  1.00  0.00    -0.166 F 
ATOM     91  F   UNL A   1      34.371  16.153  22.899  1.00  0.00    -0.166 F 
ENDBRANCH  86  88
ENDBRANCH  80  82
ENDBRANCH  76  80
ENDBRANCH  72  74
ENDBRANCH  71  72
ENDBRANCH  70  71
ENDBRANCH   1  70
TORSDOF 17
ENDMDL
MODEL 2
REMARK VINA RESULT:     -12.0      5.796     11.047
REMARK SMILES O=C(OCCOC(=O)c1cccnc1Nc1cccc(C(F)(F)F)c1)c1ccc(-c2c3nc(c(-c4cccc(S(=O)(=O)[O-])c4F)c4ccc([nH]4)c(-c4cccc(S(=O)(=O)[O-])c4F)c4nc(c(-c5cccc(S(=O)(=O)[O-])c5F)c5ccc2[nH]5)C=C4)C=C3)cc1
REMARK SMILES IDX 4 1 3 2 2 3 1 4 26 5 27 6 88 7 28 8 87 9 29 10 30 11 31 12
REMARK SMILES IDX 81 13 32 14 86 15 80 16 82 17 33 18 85 19 79 20 78 21 34 23
REMARK SMILES IDX 66 24 46 25 65 26 47 27 50 28 64 29 83 30 48 31 49 32 63 34
REMARK SMILES IDX 84 35 51 36 35 37 36 38 44 39 37 40 39 41 45 42 38 43 40 44
REMARK SMILES IDX 41 45 42 46 43 47 67 48 68 49 76 50 69 51 71 52 77 53 70 54
REMARK SMILES IDX 72 55 73 56 74 57 75 58 52 59 53 60 61 61 54 62 56 63 62 64
REMARK SMILES IDX 55 65 57 66 58 67 59 68 60 69 5 70 6 71 7 72 8 73 9 74 10 75
REMARK SMILES IDX 14 76 11 77 13 78 12 79 15 80 16 82 17 83 25 84 18 85 20 86
REMARK SMILES IDX 19 87 21 88 22 89 23 90 24 91
REMARK H PARENT 82 22 50 33 15 81
REMARK Flexibility Score: inf
ROOT
ATOM      1  C   UNL A   1      32.204  30.101  26.901  1.00  0.00     0.275 C 
ENDROOT
BRANCH   1   2
ATOM      2  O   UNL A   1      32.698  31.450  26.818  1.00  0.00    -0.458 OA
BRANCH   2   3
ATOM      3  C   UNL A   1      33.592  32.103  27.597  1.00  0.00     0.338 C 
ATOM      4  O   UNL A   1      33.451  33.314  27.766  1.00  0.00    -0.246 OA
BRANCH   3   5
ATOM      5  C   UNL A   1      34.831  31.467  28.132  1.00  0.00     0.060 A 
ATOM      6  C   UNL A   1      34.968  30.126  28.490  1.00  0.00     0.016 A 
ATOM      7  C   UNL A   1      35.939  32.314  28.306  1.00  0.00     0.016 A 
ATOM      8  C   UNL A   1      36.197  29.628  28.932  1.00  0.00     0.010 A 
ATOM      9  C   UNL A   1      37.175  31.820  28.720  1.00  0.00     0.010 A 
ATOM     10  C   UNL A   1      37.302  30.472  29.055  1.00  0.00    -0.014 A 
BRANCH  10  11
ATOM     11  C   UNL A   1      38.531  29.976  29.706  1.00  0.00     0.031 A 
ATOM     12  C   UNL A   1      38.898  30.536  31.048  1.00  0.00     0.074 A 
ATOM     13  C   UNL A   1      39.281  29.025  29.122  1.00  0.00     0.049 A 
ATOM     14  N   UNL A   1      39.858  30.173  31.853  1.00  0.00    -0.248 NA
ATOM     15  C   UNL A   1      38.059  31.633  31.565  1.00  0.00     0.031 C 
ATOM     16  C   UNL A   1      39.000  28.405  27.830  1.00  0.00     0.029 A 
ATOM     17  N   UNL A   1      40.447  28.432  29.529  1.00  0.00    -0.354 N 
ATOM     18  C   UNL A   1      39.727  30.979  32.976  1.00  0.00     0.074 A 
ATOM     19  C   UNL A   1      38.634  31.889  32.729  1.00  0.00     0.031 C 
ATOM     20  C   UNL A   1      40.002  27.568  27.514  1.00  0.00     0.029 A 
ATOM     21  C   UNL A   1      40.981  27.575  28.596  1.00  0.00     0.049 A 
ATOM     22  H   UNL A   1      40.862  28.603  30.405  1.00  0.00     0.167 HD
ATOM     23  C   UNL A   1      40.430  30.931  34.130  1.00  0.00     0.034 A 
ATOM     24  C   UNL A   1      42.131  26.873  28.622  1.00  0.00     0.034 A 
ATOM     25  C   UNL A   1      41.521  30.028  34.353  1.00  0.00     0.049 A 
ATOM     26  C   UNL A   1      42.943  26.888  29.889  1.00  0.00     0.074 A 
ATOM     27  C   UNL A   1      42.281  29.857  35.494  1.00  0.00     0.029 A 
ATOM     28  N   UNL A   1      42.026  29.159  33.396  1.00  0.00    -0.354 N 
ATOM     29  N   UNL A   1      42.707  27.532  31.008  1.00  0.00    -0.248 NA
ATOM     30  C   UNL A   1      44.137  26.034  29.927  1.00  0.00     0.031 C 
ATOM     31  C   UNL A   1      43.267  28.905  35.215  1.00  0.00     0.029 A 
ATOM     32  C   UNL A   1      43.101  28.461  33.912  1.00  0.00     0.049 A 
ATOM     33  H   UNL A   1      41.670  29.055  32.484  1.00  0.00     0.167 HD
ATOM     34  C   UNL A   1      43.686  27.116  31.901  1.00  0.00     0.074 A 
ATOM     35  C   UNL A   1      44.518  26.166  31.191  1.00  0.00     0.031 C 
ATOM     36  C   UNL A   1      43.878  27.483  33.194  1.00  0.00     0.034 A 
BRANCH  23  37
ATOM     37  C   UNL A   1      40.003  31.864  35.228  1.00  0.00     0.023 A 
ATOM     38  C   UNL A   1      40.557  33.161  35.292  1.00  0.00     0.012 A 
ATOM     39  C   UNL A   1      39.067  31.462  36.197  1.00  0.00     0.148 A 
ATOM     40  C   UNL A   1      40.215  34.029  36.329  1.00  0.00     0.002 A 
ATOM     41  C   UNL A   1      38.701  32.346  37.205  1.00  0.00     0.091 A 
ATOM     42  F   UNL A   1      38.574  30.217  36.132  1.00  0.00    -0.205 F 
ATOM     43  C   UNL A   1      39.283  33.624  37.280  1.00  0.00     0.022 A 
BRANCH  41  44
ATOM     44  S   UNL A   1      37.469  31.945  38.447  1.00  0.00     0.127 S 
ATOM     45  O   UNL A   1      36.426  32.929  38.157  1.00  0.00    -0.237 OA
ATOM     46  O   UNL A   1      37.121  30.568  38.096  1.00  0.00    -0.237 OA
ATOM     47  O   UNL A   1      38.130  32.098  39.735  1.00  0.00    -0.744 OA
ENDBRANCH  41  44
ENDBRANCH  23  37
BRANCH  24  48
ATOM     48  C   UNL A   1      42.532  26.050  27.448  1.00  0.00     0.023 A 
ATOM     49  C   UNL A   1      43.307  26.618  26.419  1.00  0.00     0.012 A 
ATOM     50  C   UNL A   1      42.166  24.692  27.360  1.00  0.00     0.148 A 
ATOM     51  C   UNL A   1      43.681  25.860  25.309  1.00  0.00     0.002 A 
ATOM     52  C   UNL A   1      42.579  23.931  26.271  1.00  0.00     0.091 A 
ATOM     53  F   UNL A   1      41.426  24.168  28.348  1.00  0.00    -0.205 F 
ATOM     54  C   UNL A   1      43.323  24.516  25.237  1.00  0.00     0.022 A 
BRANCH  52  55
ATOM     55  S   UNL A   1      42.264  22.166  26.156  1.00  0.00     0.127 S 
ATOM     56  O   UNL A   1      42.774  21.687  27.439  1.00  0.00    -0.237 OA
ATOM     57  O   UNL A   1      40.808  22.129  26.017  1.00  0.00    -0.237 OA
ATOM     58  O   UNL A   1      42.990  21.716  24.975  1.00  0.00    -0.744 OA
ENDBRANCH  52  55
ENDBRANCH  24  48
BRANCH  36  59
ATOM     59  C   UNL A   1      45.003  26.823  33.943  1.00  0.00     0.023 A 
ATOM     60  C   UNL A   1      46.272  27.430  33.982  1.00  0.00     0.012 A 
ATOM     61  C   UNL A   1      44.768  25.651  34.687  1.00  0.00     0.148 A 
ATOM     62  C   UNL A   1      47.301  26.865  34.734  1.00  0.00     0.002 A 
ATOM     63  C   UNL A   1      45.781  25.124  35.477  1.00  0.00     0.091 A 
ATOM     64  F   UNL A   1      43.556  25.079  34.617  1.00  0.00    -0.205 F 
ATOM     65  C   UNL A   1      47.051  25.722  35.491  1.00  0.00     0.022 A 
BRANCH  63  66
ATOM     66  S   UNL A   1      45.513  23.722  36.567  1.00  0.00     0.127 S 
ATOM     67  O   UNL A   1      44.825  24.349  37.693  1.00  0.00    -0.237 OA
ATOM     68  O   UNL A   1      44.673  22.848  35.747  1.00  0.00    -0.237 OA
ATOM     69  O   UNL A   1      46.835  23.184  36.859  1.00  0.00    -0.744 OA
ENDBRANCH  63  66
ENDBRANCH  36  59
ENDBRANCH  10  11
ENDBRANCH   3   5
ENDBRANCH   2   3
ENDBRANCH   1   2
BRANCH   1  70
ATOM     70  C   UNL A   1      31.810  29.457  25.572  1.00  0.00     0.275 C 
BRANCH  70  71
ATOM     71  O   UNL A   1      32.262  28.106  25.408  1.00  0.00    -0.458 OA
BRANCH  71  72
ATOM     72  C   UNL A   1      33.383  27.964  24.650  1.00  0.00     0.342 C 
ATOM     73  O   UNL A   1      34.380  28.664  24.716  1.00  0.00    -0.246 OA
BRANCH  72  74
ATOM     74  C   UNL A   1      33.265  26.768  23.795  1.00  0.00     0.102 A 
ATOM     75  C   UNL A   1      33.911  25.580  24.164  1.00  0.00     0.021 A 
ATOM     76  C   UNL A   1      32.524  26.810  22.606  1.00  0.00     0.144 A 
ATOM     77  C   UNL A   1      33.821  24.467  23.337  1.00  0.00     0.021 A 
ATOM     78  N   UNL A   1      32.445  25.716  21.806  1.00  0.00    -0.238 NA
ATOM     79  C   UNL A   1      33.094  24.587  22.170  1.00  0.00     0.113 A 
BRANCH  76  80
ATOM     80  N   UNL A   1      31.871  27.987  22.181  1.00  0.00    -0.340 N 
ATOM     81  H   UNL A   1      32.414  28.619  21.657  1.00  0.00     0.168 HD
BRANCH  80  82
ATOM     82  C   UNL A   1      30.538  28.361  22.417  1.00  0.00     0.040 A 
ATOM     83  C   UNL A   1      29.664  27.476  23.060  1.00  0.00     0.026 A 
ATOM     84  C   UNL A   1      30.079  29.641  22.097  1.00  0.00     0.039 A 
ATOM     85  C   UNL A   1      28.365  27.865  23.386  1.00  0.00     0.003 A 
ATOM     86  C   UNL A   1      28.759  30.031  22.368  1.00  0.00     0.058 A 
ATOM     87  C   UNL A   1      27.910  29.135  23.034  1.00  0.00     0.013 A 
BRANCH  86  88
ATOM     88  C   UNL A   1      28.245  31.371  21.918  1.00  0.00     0.416 C 
ATOM     89  F   UNL A   1      27.303  31.865  22.775  1.00  0.00    -0.166 F 
ATOM     90  F   UNL A   1      29.217  32.324  21.858  1.00  0.00    -0.166 F 
ATOM     91  F   UNL A   1      27.649  31.362  20.693  1.00  0.00    -0.166 F 
ENDBRANCH  86  88
ENDBRANCH  80  82
ENDBRANCH  76  80
ENDBRANCH  72  74
ENDBRANCH  71  72
ENDBRANCH  70  71
ENDBRANCH   1  70
TORSDOF 17
ENDMDL
MODEL 3
REMARK VINA RESULT:     -11.8      2.189      2.576
REMARK SMILES O=C(OCCOC(=O)c1cccnc1Nc1cccc(C(F)(F)F)c1)c1ccc(-c2c3nc(c(-c4cccc(S(=O)(=O)[O-])c4F)c4ccc([nH]4)c(-c4cccc(S(=O)(=O)[O-])c4F)c4nc(c(-c5cccc(S(=O)(=O)[O-])c5F)c5ccc2[nH]5)C=C4)C=C3)cc1
REMARK SMILES IDX 4 1 3 2 2 3 1 4 26 5 27 6 88 7 28 8 87 9 29 10 30 11 31 12
REMARK SMILES IDX 81 13 32 14 86 15 80 16 82 17 33 18 85 19 79 20 78 21 34 23
REMARK SMILES IDX 66 24 46 25 65 26 47 27 50 28 64 29 83 30 48 31 49 32 63 34
REMARK SMILES IDX 84 35 51 36 35 37 36 38 44 39 37 40 39 41 45 42 38 43 40 44
REMARK SMILES IDX 41 45 42 46 43 47 67 48 68 49 76 50 69 51 71 52 77 53 70 54
REMARK SMILES IDX 72 55 73 56 74 57 75 58 52 59 53 60 61 61 54 62 56 63 62 64
REMARK SMILES IDX 55 65 57 66 58 67 59 68 60 69 5 70 6 71 7 72 8 73 9 74 10 75
REMARK SMILES IDX 14 76 11 77 13 78 12 79 15 80 16 82 17 83 25 84 18 85 20 86
REMARK SMILES IDX 19 87 21 88 22 89 23 90 24 91
REMARK H PARENT 82 22 50 33 15 81
REMARK Flexibility Score: inf
ROOT
ATOM      1  C   UNL A   1      37.580  21.730  24.715  1.00  0.00     0.275 C 
ENDROOT
BRANCH   1   2
ATOM      2  O   UNL A   1      37.995  22.218  26.004  1.00  0.00    -0.458 OA
BRANCH   2   3
ATOM      3  C   UNL A   1      39.221  22.582  26.447  1.00  0.00     0.338 C 
ATOM      4  O   UNL A   1      40.048  21.702  26.680  1.00  0.00    -0.246 OA
BRANCH   3   5
ATOM      5  C   UNL A   1      39.573  23.983  26.823  1.00  0.00     0.060 A 
ATOM      6  C   UNL A   1      40.152  24.931  25.979  1.00  0.00     0.016 A 
ATOM      7  C   UNL A   1      39.314  24.353  28.153  1.00  0.00     0.016 A 
ATOM      8  C   UNL A   1      40.390  26.233  26.427  1.00  0.00     0.010 A 
ATOM      9  C   UNL A   1      39.523  25.657  28.601  1.00  0.00     0.010 A 
ATOM     10  C   UNL A   1      40.083  26.600  27.739  1.00  0.00    -0.014 A 
BRANCH  10  11
ATOM     11  C   UNL A   1      40.520  27.914  28.251  1.00  0.00     0.031 A 
ATOM     12  C   UNL A   1      41.992  28.201  28.304  1.00  0.00     0.074 A 
ATOM     13  C   UNL A   1      39.619  28.838  28.628  1.00  0.00     0.049 A 
ATOM     14  N   UNL A   1      42.599  29.316  28.604  1.00  0.00    -0.248 NA
ATOM     15  C   UNL A   1      42.900  27.095  27.948  1.00  0.00     0.031 C 
ATOM     16  C   UNL A   1      38.169  28.662  28.597  1.00  0.00     0.029 A 
ATOM     17  N   UNL A   1      39.790  30.098  29.135  1.00  0.00    -0.354 N 
ATOM     18  C   UNL A   1      43.954  29.053  28.455  1.00  0.00     0.074 A 
ATOM     19  C   UNL A   1      44.087  27.662  28.094  1.00  0.00     0.031 C 
ATOM     20  C   UNL A   1      37.581  29.747  29.130  1.00  0.00     0.029 A 
ATOM     21  C   UNL A   1      38.615  30.702  29.514  1.00  0.00     0.049 A 
ATOM     22  H   UNL A   1      40.671  30.530  29.221  1.00  0.00     0.167 HD
ATOM     23  C   UNL A   1      44.992  29.912  28.566  1.00  0.00     0.034 A 
ATOM     24  C   UNL A   1      38.404  31.897  30.100  1.00  0.00     0.034 A 
ATOM     25  C   UNL A   1      44.842  31.289  28.938  1.00  0.00     0.049 A 
ATOM     26  C   UNL A   1      39.583  32.814  30.286  1.00  0.00     0.074 A 
ATOM     27  C   UNL A   1      45.813  32.265  29.042  1.00  0.00     0.029 A 
ATOM     28  N   UNL A   1      43.637  31.875  29.296  1.00  0.00    -0.354 N 
ATOM     29  N   UNL A   1      40.841  32.607  29.978  1.00  0.00    -0.248 NA
ATOM     30  C   UNL A   1      39.309  34.150  30.832  1.00  0.00     0.031 C 
ATOM     31  C   UNL A   1      45.197  33.437  29.494  1.00  0.00     0.029 A 
ATOM     32  C   UNL A   1      43.839  33.198  29.642  1.00  0.00     0.049 A 
ATOM     33  H   UNL A   1      42.766  31.417  29.302  1.00  0.00     0.167 HD
ATOM     34  C   UNL A   1      41.500  33.802  30.236  1.00  0.00     0.074 A 
ATOM     35  C   UNL A   1      40.499  34.729  30.727  1.00  0.00     0.031 C 
ATOM     36  C   UNL A   1      42.812  34.110  30.078  1.00  0.00     0.034 A 
BRANCH  23  37
ATOM     37  C   UNL A   1      46.359  29.374  28.247  1.00  0.00     0.023 A 
ATOM     38  C   UNL A   1      46.842  29.447  26.923  1.00  0.00     0.012 A 
ATOM     39  C   UNL A   1      47.160  28.792  29.245  1.00  0.00     0.148 A 
ATOM     40  C   UNL A   1      48.086  28.911  26.589  1.00  0.00     0.002 A 
ATOM     41  C   UNL A   1      48.414  28.295  28.914  1.00  0.00     0.091 A 
ATOM     42  F   UNL A   1      46.670  28.709  30.490  1.00  0.00    -0.205 F 
ATOM     43  C   UNL A   1      48.873  28.342  27.586  1.00  0.00     0.022 A 
BRANCH  41  44
ATOM     44  S   UNL A   1      49.531  27.593  30.131  1.00  0.00     0.127 S 
ATOM     45  O   UNL A   1      48.973  28.113  31.379  1.00  0.00    -0.237 OA
ATOM     46  O   UNL A   1      49.337  26.157  29.929  1.00  0.00    -0.237 OA
ATOM     47  O   UNL A   1      50.859  28.083  29.789  1.00  0.00    -0.744 OA
ENDBRANCH  41  44
ENDBRANCH  23  37
BRANCH  24  48
ATOM     48  C   UNL A   1      37.025  32.313  30.478  1.00  0.00     0.023 A 
ATOM     49  C   UNL A   1      36.555  32.091  31.786  1.00  0.00     0.012 A 
ATOM     50  C   UNL A   1      36.183  32.952  29.546  1.00  0.00     0.148 A 
ATOM     51  C   UNL A   1      35.260  32.466  32.149  1.00  0.00     0.002 A 
ATOM     52  C   UNL A   1      34.910  33.363  29.927  1.00  0.00     0.091 A 
ATOM     53  F   UNL A   1      36.648  33.153  28.304  1.00  0.00    -0.205 F 
ATOM     54  C   UNL A   1      34.440  33.107  31.224  1.00  0.00     0.022 A 
BRANCH  52  55
ATOM     55  S   UNL A   1      33.834  34.299  28.836  1.00  0.00     0.127 S 
ATOM     56  O   UNL A   1      34.731  35.348  28.359  1.00  0.00    -0.237 OA
ATOM     57  O   UNL A   1      33.471  33.294  27.837  1.00  0.00    -0.237 OA
ATOM     58  O   UNL A   1      32.724  34.742  29.669  1.00  0.00    -0.744 OA
ENDBRANCH  52  55
ENDBRANCH  24  48
BRANCH  36  59
ATOM     59  C   UNL A   1      43.239  35.516  30.394  1.00  0.00     0.023 A 
ATOM     60  C   UNL A   1      43.761  35.823  31.664  1.00  0.00     0.012 A 
ATOM     61  C   UNL A   1      43.211  36.507  29.393  1.00  0.00     0.148 A 
ATOM     62  C   UNL A   1      44.228  37.107  31.942  1.00  0.00     0.002 A 
ATOM     63  C   UNL A   1      43.727  37.768  29.660  1.00  0.00     0.091 A 
ATOM     64  F   UNL A   1      42.689  36.196  28.197  1.00  0.00    -0.205 F 
ATOM     65  C   UNL A   1      44.224  38.073  30.937  1.00  0.00     0.022 A 
BRANCH  63  66
ATOM     66  S   UNL A   1      43.863  39.034  28.395  1.00  0.00     0.127 S 
ATOM     67  O   UNL A   1      42.458  39.315  28.104  1.00  0.00    -0.237 OA
ATOM     68  O   UNL A   1      44.567  40.105  29.102  1.00  0.00    -0.237 OA
ATOM     69  O   UNL A   1      44.620  38.433  27.306  1.00  0.00    -0.744 OA
ENDBRANCH  63  66
ENDBRANCH  36  59
ENDBRANCH  10  11
ENDBRANCH   3   5
ENDBRANCH   2   3
ENDBRANCH   1   2
BRANCH   1  70
ATOM     70  C   UNL A   1      36.892  22.753  23.810  1.00  0.00     0.275 C 
BRANCH  70  71
ATOM     71  O   UNL A   1      35.971  23.620  24.486  1.00  0.00    -0.458 OA
BRANCH  71  72
ATOM     72  C   UNL A   1      34.748  23.728  23.898  1.00  0.00     0.342 C 
ATOM     73  O   UNL A   1      34.533  23.703  22.697  1.00  0.00    -0.246 OA
BRANCH  72  74
ATOM     74  C   UNL A   1      33.696  23.780  24.929  1.00  0.00     0.102 A 
ATOM     75  C   UNL A   1      33.073  24.999  25.229  1.00  0.00     0.021 A 
ATOM     76  C   UNL A   1      33.321  22.623  25.626  1.00  0.00     0.144 A 
ATOM     77  C   UNL A   1      32.104  25.045  26.225  1.00  0.00     0.021 A 
ATOM     78  N   UNL A   1      32.375  22.683  26.599  1.00  0.00    -0.238 NA
ATOM     79  C   UNL A   1      31.802  23.873  26.887  1.00  0.00     0.113 A 
BRANCH  76  80
ATOM     80  N   UNL A   1      33.932  21.376  25.375  1.00  0.00    -0.340 N 
ATOM     81  H   UNL A   1      34.794  21.217  25.823  1.00  0.00     0.168 HD
BRANCH  80  82
ATOM     82  C   UNL A   1      33.454  20.336  24.562  1.00  0.00     0.040 A 
ATOM     83  C   UNL A   1      32.452  20.588  23.617  1.00  0.00     0.026 A 
ATOM     84  C   UNL A   1      34.018  19.058  24.616  1.00  0.00     0.039 A 
ATOM     85  C   UNL A   1      32.032  19.589  22.738  1.00  0.00     0.003 A 
ATOM     86  C   UNL A   1      33.569  18.028  23.777  1.00  0.00     0.058 A 
ATOM     87  C   UNL A   1      32.581  18.311  22.822  1.00  0.00     0.013 A 
BRANCH  86  88
ATOM     88  C   UNL A   1      34.107  16.631  23.921  1.00  0.00     0.416 C 
ATOM     89  F   UNL A   1      34.486  16.107  22.717  1.00  0.00    -0.166 F 
ATOM     90  F   UNL A   1      35.214  16.562  24.711  1.00  0.00    -0.166 F 
ATOM     91  F   UNL A   1      33.218  15.737  24.439  1.00  0.00    -0.166 F 
ENDBRANCH  86  88
ENDBRANCH  80  82
ENDBRANCH  76  80
ENDBRANCH  72  74
ENDBRANCH  71  72
ENDBRANCH  70  71
ENDBRANCH   1  70
TORSDOF 17
ENDMDL
