MODEL 1
REMARK VINA RESULT:     -11.1      0.000      0.000
REMARK SMILES C[C@H]1C[C@H](C)CN(S(=O)(=O)N[C@@H](CCC(N)=O)C(=O)OCCOC(=O)c2ccc(-c3c4nc(c(-c5cccc(S(=O)(=O)[O-])c5F)c5ccc([nH]5)c(-c5cccc(S(=O)(=O)[O-])c5F)c5nc(c(-c6cccc(S(=O)(=O)[O-])c6F)c6ccc3[nH]6)C=C5)C=C4)cc2)C1
REMARK SMILES IDX 21 1 20 2 18 3 19 4 12 5 11 6 8 8 9 9 10 10 7 11 1 12 2 13
REMARK SMILES IDX 3 14 89 15 4 16 5 17 6 18 13 19 14 20 15 21 16 22 17 23
REMARK SMILES IDX 22 26 23 27 24 28 25 29 26 30 27 31 88 32 28 33 87 34 29 35
REMARK SMILES IDX 30 36 31 37 81 38 32 39 86 40 80 41 82 42 33 43 85 44 79 45
REMARK SMILES IDX 78 46 34 48 66 49 46 50 65 51 47 52 50 53 64 54 83 55 48 56
REMARK SMILES IDX 49 57 63 59 84 60 51 61 35 62 36 63 44 64 37 65 39 66 45 67
REMARK SMILES IDX 38 68 40 69 41 70 42 71 43 72 67 73 68 74 76 75 69 76 71 77
REMARK SMILES IDX 77 78 70 79 72 80 73 81 74 82 75 83 52 84 53 85 61 86 54 87
REMARK SMILES IDX 56 88 62 89 55 90 57 91 58 92 59 93 60 94
REMARK H PARENT 11 7 16 24 16 25 82 47 50 58
REMARK Flexibility Score: inf
ROOT
ATOM      1  C   UNL A   1      32.896  28.719  24.936  1.00  0.00     0.274 C 
ENDROOT
BRANCH   1   2
ATOM      2  O   UNL A   1      32.103  28.027  23.945  1.00  0.00    -0.461 OA
BRANCH   2   3
ATOM      3  C   UNL A   1      31.154  27.185  24.430  1.00  0.00     0.324 C 
ATOM      4  O   UNL A   1      29.989  27.501  24.657  1.00  0.00    -0.250 OA
BRANCH   3   5
ATOM      5  C   UNL A   1      31.688  25.794  24.767  1.00  0.00     0.181 C 
BRANCH   5   6
ATOM      6  N   UNL A   1      32.830  25.347  23.937  1.00  0.00    -0.188 NA
ATOM      7  H   UNL A   1      33.008  26.111  23.286  1.00  0.00     0.143 HD
BRANCH   6   8
ATOM      8  S   UNL A   1      32.853  23.964  23.017  1.00  0.00     0.280 S 
ATOM      9  O   UNL A   1      33.900  24.084  22.030  1.00  0.00    -0.195 OA
ATOM     10  O   UNL A   1      31.492  23.730  22.597  1.00  0.00    -0.195 OA
BRANCH   8  11
ATOM     11  N   UNL A   1      33.280  22.685  24.070  1.00  0.00    -0.188 NA
ATOM     12  C   UNL A   1      32.590  18.867  23.795  1.00  0.00     0.009 C 
ATOM     13  C   UNL A   1      33.034  20.177  24.448  1.00  0.00     0.001 C 
ATOM     14  C   UNL A   1      34.526  20.105  24.782  1.00  0.00     0.009 C 
ATOM     15  C   UNL A   1      32.726  21.382  23.546  1.00  0.00     0.106 C 
ATOM     16  C   UNL A   1      35.001  21.418  25.391  1.00  0.00     0.001 C 
ATOM     17  C   UNL A   1      34.408  21.632  26.788  1.00  0.00     0.009 C 
ATOM     18  C   UNL A   1      34.709  22.575  24.431  1.00  0.00     0.106 C 
ENDBRANCH   8  11
ENDBRANCH   6   8
ENDBRANCH   5   6
BRANCH   5  19
ATOM     19  C   UNL A   1      31.839  25.681  26.289  1.00  0.00     0.042 C 
BRANCH  19  20
ATOM     20  C   UNL A   1      31.921  24.271  26.870  1.00  0.00     0.102 C 
BRANCH  20  21
ATOM     21  C   UNL A   1      30.632  23.484  26.790  1.00  0.00     0.217 C 
ATOM     22  N   UNL A   1      30.701  22.282  26.154  1.00  0.00    -0.370 N 
ATOM     23  O   UNL A   1      29.578  23.871  27.283  1.00  0.00    -0.275 OA
ATOM     24  H   UNL A   1      31.552  21.981  25.761  1.00  0.00     0.159 HD
ATOM     25  H   UNL A   1      29.900  21.714  26.087  1.00  0.00     0.159 HD
ENDBRANCH  20  21
ENDBRANCH  19  20
ENDBRANCH   5  19
ENDBRANCH   3   5
ENDBRANCH   2   3
ENDBRANCH   1   2
BRANCH   1  26
ATOM     26  C   UNL A   1      32.194  29.979  25.446  1.00  0.00     0.275 C 
BRANCH  26  27
ATOM     27  O   UNL A   1      32.417  30.165  26.852  1.00  0.00    -0.458 OA
BRANCH  27  28
ATOM     28  C   UNL A   1      33.010  31.339  27.167  1.00  0.00     0.338 C 
ATOM     29  O   UNL A   1      32.487  32.438  27.239  1.00  0.00    -0.246 OA
BRANCH  28  30
ATOM     30  C   UNL A   1      34.397  31.093  27.567  1.00  0.00     0.060 A 
ATOM     31  C   UNL A   1      34.767  29.781  27.843  1.00  0.00     0.016 A 
ATOM     32  C   UNL A   1      35.276  32.146  27.808  1.00  0.00     0.016 A 
ATOM     33  C   UNL A   1      35.992  29.519  28.440  1.00  0.00     0.010 A 
ATOM     34  C   UNL A   1      36.525  31.873  28.375  1.00  0.00     0.010 A 
ATOM     35  C   UNL A   1      36.875  30.561  28.746  1.00  0.00    -0.014 A 
BRANCH  35  36
ATOM     36  C   UNL A   1      38.119  30.280  29.516  1.00  0.00     0.031 A 
ATOM     37  C   UNL A   1      39.187  29.386  28.937  1.00  0.00     0.074 A 
ATOM     38  C   UNL A   1      38.302  30.837  30.730  1.00  0.00     0.049 A 
ATOM     39  N   UNL A   1      40.252  28.890  29.513  1.00  0.00    -0.248 NA
ATOM     40  C   UNL A   1      39.034  28.989  27.527  1.00  0.00     0.031 C 
ATOM     41  C   UNL A   1      37.369  31.752  31.391  1.00  0.00     0.029 A 
ATOM     42  N   UNL A   1      39.326  30.702  31.634  1.00  0.00    -0.354 N 
ATOM     43  C   UNL A   1      40.848  28.059  28.569  1.00  0.00     0.074 A 
ATOM     44  C   UNL A   1      40.034  28.132  27.375  1.00  0.00     0.031 C 
ATOM     45  C   UNL A   1      37.862  32.099  32.588  1.00  0.00     0.029 A 
ATOM     46  C   UNL A   1      39.097  31.359  32.820  1.00  0.00     0.049 A 
ATOM     47  H   UNL A   1      40.144  30.184  31.451  1.00  0.00     0.167 HD
ATOM     48  C   UNL A   1      41.969  27.308  28.688  1.00  0.00     0.034 A 
ATOM     49  C   UNL A   1      39.765  31.326  33.989  1.00  0.00     0.034 A 
ATOM     50  C   UNL A   1      42.807  27.292  29.860  1.00  0.00     0.049 A 
ATOM     51  C   UNL A   1      40.994  30.471  34.101  1.00  0.00     0.074 A 
ATOM     52  C   UNL A   1      43.991  26.605  30.062  1.00  0.00     0.029 A 
ATOM     53  N   UNL A   1      42.551  27.996  31.027  1.00  0.00    -0.354 N 
ATOM     54  N   UNL A   1      41.565  29.724  33.188  1.00  0.00    -0.248 NA
ATOM     55  C   UNL A   1      41.680  30.466  35.400  1.00  0.00     0.031 C 
ATOM     56  C   UNL A   1      44.432  26.866  31.363  1.00  0.00     0.029 A 
ATOM     57  C   UNL A   1      43.547  27.750  31.958  1.00  0.00     0.049 A 
ATOM     58  H   UNL A   1      41.775  28.584  31.173  1.00  0.00     0.167 HD
ATOM     59  C   UNL A   1      42.693  29.183  33.791  1.00  0.00     0.074 A 
ATOM     60  C   UNL A   1      42.737  29.709  35.140  1.00  0.00     0.031 C 
ATOM     61  C   UNL A   1      43.603  28.318  33.280  1.00  0.00     0.034 A 
BRANCH  48  62
ATOM     62  C   UNL A   1      42.367  26.433  27.525  1.00  0.00     0.023 A 
ATOM     63  C   UNL A   1      43.195  26.941  26.504  1.00  0.00     0.012 A 
ATOM     64  C   UNL A   1      41.974  25.079  27.482  1.00  0.00     0.148 A 
ATOM     65  C   UNL A   1      43.595  26.127  25.443  1.00  0.00     0.002 A 
ATOM     66  C   UNL A   1      42.416  24.262  26.449  1.00  0.00     0.091 A 
ATOM     67  F   UNL A   1      41.172  24.616  28.452  1.00  0.00    -0.205 F 
ATOM     68  C   UNL A   1      43.215  24.787  25.421  1.00  0.00     0.022 A 
BRANCH  66  69
ATOM     69  S   UNL A   1      42.053  22.503  26.377  1.00  0.00     0.127 S 
ATOM     70  O   UNL A   1      42.615  22.034  27.643  1.00  0.00    -0.237 OA
ATOM     71  O   UNL A   1      40.591  22.493  26.318  1.00  0.00    -0.237 OA
ATOM     72  O   UNL A   1      42.713  22.004  25.179  1.00  0.00    -0.744 OA
ENDBRANCH  66  69
ENDBRANCH  48  62
BRANCH  49  73
ATOM     73  C   UNL A   1      39.268  32.121  35.148  1.00  0.00     0.023 A 
ATOM     74  C   UNL A   1      38.362  31.538  36.054  1.00  0.00     0.012 A 
ATOM     75  C   UNL A   1      39.720  33.436  35.377  1.00  0.00     0.148 A 
ATOM     76  C   UNL A   1      37.898  32.261  37.154  1.00  0.00     0.002 A 
ATOM     77  C   UNL A   1      39.306  34.124  36.509  1.00  0.00     0.091 A 
ATOM     78  F   UNL A   1      40.568  33.978  34.492  1.00  0.00    -0.205 F 
ATOM     79  C   UNL A   1      38.380  33.545  37.389  1.00  0.00     0.022 A 
BRANCH  77  80
ATOM     80  S   UNL A   1      39.992  35.719  36.970  1.00  0.00     0.127 S 
ATOM     81  O   UNL A   1      41.412  35.405  37.103  1.00  0.00    -0.237 OA
ATOM     82  O   UNL A   1      39.647  36.540  35.808  1.00  0.00    -0.237 OA
ATOM     83  O   UNL A   1      39.310  36.101  38.198  1.00  0.00    -0.744 OA
ENDBRANCH  77  80
ENDBRANCH  49  73
BRANCH  61  84
ATOM     84  C   UNL A   1      44.755  27.921  34.166  1.00  0.00     0.023 A 
ATOM     85  C   UNL A   1      45.932  28.695  34.183  1.00  0.00     0.012 A 
ATOM     86  C   UNL A   1      44.645  26.809  35.025  1.00  0.00     0.148 A 
ATOM     87  C   UNL A   1      46.997  28.346  35.013  1.00  0.00     0.002 A 
ATOM     88  C   UNL A   1      45.688  26.499  35.887  1.00  0.00     0.091 A 
ATOM     89  F   UNL A   1      43.523  26.076  34.978  1.00  0.00    -0.205 F 
ATOM     90  C   UNL A   1      46.871  27.257  35.872  1.00  0.00     0.022 A 
BRANCH  88  91
ATOM     91  S   UNL A   1      45.578  25.174  37.094  1.00  0.00     0.127 S 
ATOM     92  O   UNL A   1      46.883  25.257  37.747  1.00  0.00    -0.237 OA
ATOM     93  O   UNL A   1      44.452  25.604  37.923  1.00  0.00    -0.237 OA
ATOM     94  O   UNL A   1      45.338  23.955  36.333  1.00  0.00    -0.744 OA
ENDBRANCH  88  91
ENDBRANCH  61  84
ENDBRANCH  35  36
ENDBRANCH  28  30
ENDBRANCH  27  28
ENDBRANCH  26  27
ENDBRANCH   1  26
TORSDOF 20
ENDMDL
MODEL 2
REMARK VINA RESULT:     -11.0      1.383      2.025
REMARK SMILES C[C@H]1C[C@H](C)CN(S(=O)(=O)N[C@@H](CCC(N)=O)C(=O)OCCOC(=O)c2ccc(-c3c4nc(c(-c5cccc(S(=O)(=O)[O-])c5F)c5ccc([nH]5)c(-c5cccc(S(=O)(=O)[O-])c5F)c5nc(c(-c6cccc(S(=O)(=O)[O-])c6F)c6ccc3[nH]6)C=C5)C=C4)cc2)C1
REMARK SMILES IDX 21 1 20 2 18 3 19 4 12 5 11 6 8 8 9 9 10 10 7 11 1 12 2 13
REMARK SMILES IDX 3 14 89 15 4 16 5 17 6 18 13 19 14 20 15 21 16 22 17 23
REMARK SMILES IDX 22 26 23 27 24 28 25 29 26 30 27 31 88 32 28 33 87 34 29 35
REMARK SMILES IDX 30 36 31 37 81 38 32 39 86 40 80 41 82 42 33 43 85 44 79 45
REMARK SMILES IDX 78 46 34 48 66 49 46 50 65 51 47 52 50 53 64 54 83 55 48 56
REMARK SMILES IDX 49 57 63 59 84 60 51 61 35 62 36 63 44 64 37 65 39 66 45 67
REMARK SMILES IDX 38 68 40 69 41 70 42 71 43 72 67 73 68 74 76 75 69 76 71 77
REMARK SMILES IDX 77 78 70 79 72 80 73 81 74 82 75 83 52 84 53 85 61 86 54 87
REMARK SMILES IDX 56 88 62 89 55 90 57 91 58 92 59 93 60 94
REMARK H PARENT 11 7 16 24 16 25 82 47 50 58
REMARK Flexibility Score: inf
ROOT
ATOM      1  C   UNL A   1      32.460  29.023  25.251  1.00  0.00     0.274 C 
ENDROOT
BRANCH   1   2
ATOM      2  O   UNL A   1      32.751  28.039  26.269  1.00  0.00    -0.461 OA
BRANCH   2   3
ATOM      3  C   UNL A   1      31.675  27.393  26.792  1.00  0.00     0.324 C 
ATOM      4  O   UNL A   1      30.979  27.823  27.707  1.00  0.00    -0.250 OA
BRANCH   3   5
ATOM      5  C   UNL A   1      31.446  26.006  26.193  1.00  0.00     0.181 C 
BRANCH   5   6
ATOM      6  N   UNL A   1      31.486  24.892  27.167  1.00  0.00    -0.188 NA
ATOM      7  H   UNL A   1      32.222  25.136  27.830  1.00  0.00     0.143 HD
BRANCH   6   8
ATOM      8  S   UNL A   1      31.748  23.299  26.778  1.00  0.00     0.280 S 
ATOM      9  O   UNL A   1      30.610  22.812  26.034  1.00  0.00    -0.195 OA
ATOM     10  O   UNL A   1      32.144  22.640  27.999  1.00  0.00    -0.195 OA
BRANCH   8  11
ATOM     11  N   UNL A   1      33.100  23.269  25.730  1.00  0.00    -0.188 NA
ATOM     12  C   UNL A   1      33.265  23.164  21.846  1.00  0.00     0.009 C 
ATOM     13  C   UNL A   1      33.787  23.103  23.281  1.00  0.00     0.001 C 
ATOM     14  C   UNL A   1      34.791  24.236  23.512  1.00  0.00     0.009 C 
ATOM     15  C   UNL A   1      32.636  23.170  24.296  1.00  0.00     0.106 C 
ATOM     16  C   UNL A   1      35.289  24.223  24.951  1.00  0.00     0.001 C 
ATOM     17  C   UNL A   1      36.173  23.002  25.225  1.00  0.00     0.009 C 
ATOM     18  C   UNL A   1      34.104  24.336  25.915  1.00  0.00     0.106 C 
ENDBRANCH   8  11
ENDBRANCH   6   8
ENDBRANCH   5   6
BRANCH   5  19
ATOM     19  C   UNL A   1      30.238  26.072  25.250  1.00  0.00     0.042 C 
BRANCH  19  20
ATOM     20  C   UNL A   1      30.530  26.016  23.752  1.00  0.00     0.102 C 
BRANCH  20  21
ATOM     21  C   UNL A   1      30.146  27.266  22.993  1.00  0.00     0.217 C 
ATOM     22  N   UNL A   1      31.068  27.738  22.108  1.00  0.00    -0.370 N 
ATOM     23  O   UNL A   1      29.065  27.828  23.126  1.00  0.00    -0.275 OA
ATOM     24  H   UNL A   1      31.934  27.279  22.008  1.00  0.00     0.159 HD
ATOM     25  H   UNL A   1      30.869  28.536  21.569  1.00  0.00     0.159 HD
ENDBRANCH  20  21
ENDBRANCH  19  20
ENDBRANCH   5  19
ENDBRANCH   3   5
ENDBRANCH   2   3
ENDBRANCH   1   2
BRANCH   1  26
ATOM     26  C   UNL A   1      31.891  30.309  25.851  1.00  0.00     0.275 C 
BRANCH  26  27
ATOM     27  O   UNL A   1      32.404  30.538  27.172  1.00  0.00    -0.458 OA
BRANCH  27  28
ATOM     28  C   UNL A   1      33.115  31.682  27.298  1.00  0.00     0.338 C 
ATOM     29  O   UNL A   1      32.698  32.826  27.225  1.00  0.00    -0.246 OA
BRANCH  28  30
ATOM     30  C   UNL A   1      34.488  31.362  27.691  1.00  0.00     0.060 A 
ATOM     31  C   UNL A   1      34.789  30.032  27.963  1.00  0.00     0.016 A 
ATOM     32  C   UNL A   1      35.423  32.366  27.931  1.00  0.00     0.016 A 
ATOM     33  C   UNL A   1      36.001  29.703  28.555  1.00  0.00     0.010 A 
ATOM     34  C   UNL A   1      36.658  32.026  28.492  1.00  0.00     0.010 A 
ATOM     35  C   UNL A   1      36.940  30.697  28.859  1.00  0.00    -0.014 A 
BRANCH  35  36
ATOM     36  C   UNL A   1      38.170  30.348  29.623  1.00  0.00     0.031 A 
ATOM     37  C   UNL A   1      39.211  29.441  29.016  1.00  0.00     0.074 A 
ATOM     38  C   UNL A   1      38.365  30.855  30.856  1.00  0.00     0.049 A 
ATOM     39  N   UNL A   1      40.257  28.890  29.578  1.00  0.00    -0.248 NA
ATOM     40  C   UNL A   1      39.052  29.099  27.592  1.00  0.00     0.031 C 
ATOM     41  C   UNL A   1      37.459  31.776  31.546  1.00  0.00     0.029 A 
ATOM     42  N   UNL A   1      39.380  30.655  31.758  1.00  0.00    -0.354 N 
ATOM     43  C   UNL A   1      40.830  28.075  28.607  1.00  0.00     0.074 A 
ATOM     44  C   UNL A   1      40.025  28.216  27.413  1.00  0.00     0.031 C 
ATOM     45  C   UNL A   1      37.957  32.064  32.756  1.00  0.00     0.029 A 
ATOM     46  C   UNL A   1      39.166  31.277  32.966  1.00  0.00     0.049 A 
ATOM     47  H   UNL A   1      40.182  30.118  31.560  1.00  0.00     0.167 HD
ATOM     48  C   UNL A   1      41.926  27.283  28.704  1.00  0.00     0.034 A 
ATOM     49  C   UNL A   1      39.827  31.181  34.136  1.00  0.00     0.034 A 
ATOM     50  C   UNL A   1      42.757  27.199  29.877  1.00  0.00     0.049 A 
ATOM     51  C   UNL A   1      41.027  30.283  34.222  1.00  0.00     0.074 A 
ATOM     52  C   UNL A   1      43.917  26.467  30.059  1.00  0.00     0.029 A 
ATOM     53  N   UNL A   1      42.519  27.869  31.068  1.00  0.00    -0.354 N 
ATOM     54  N   UNL A   1      41.578  29.550  33.285  1.00  0.00    -0.248 NA
ATOM     55  C   UNL A   1      41.707  30.210  35.522  1.00  0.00     0.031 C 
ATOM     56  C   UNL A   1      44.360  26.667  31.370  1.00  0.00     0.029 A 
ATOM     57  C   UNL A   1      43.501  27.558  31.992  1.00  0.00     0.049 A 
ATOM     58  H   UNL A   1      41.761  28.476  31.231  1.00  0.00     0.167 HD
ATOM     59  C   UNL A   1      42.686  28.952  33.872  1.00  0.00     0.074 A 
ATOM     60  C   UNL A   1      42.740  29.428  35.240  1.00  0.00     0.031 C 
ATOM     61  C   UNL A   1      43.569  28.076  33.334  1.00  0.00     0.034 A 
BRANCH  48  62
ATOM     62  C   UNL A   1      42.301  26.438  27.511  1.00  0.00     0.023 A 
ATOM     63  C   UNL A   1      43.092  26.977  26.478  1.00  0.00     0.012 A 
ATOM     64  C   UNL A   1      41.923  25.080  27.452  1.00  0.00     0.148 A 
ATOM     65  C   UNL A   1      43.472  26.191  25.389  1.00  0.00     0.002 A 
ATOM     66  C   UNL A   1      42.345  24.290  26.389  1.00  0.00     0.091 A 
ATOM     67  F   UNL A   1      41.155  24.587  28.434  1.00  0.00    -0.205 F 
ATOM     68  C   UNL A   1      43.108  24.847  25.350  1.00  0.00     0.022 A 
BRANCH  66  69
ATOM     69  S   UNL A   1      42.002  22.529  26.291  1.00  0.00     0.127 S 
ATOM     70  O   UNL A   1      42.642  22.173  25.026  1.00  0.00    -0.237 OA
ATOM     71  O   UNL A   1      42.680  22.017  27.482  1.00  0.00    -0.237 OA
ATOM     72  O   UNL A   1      40.552  22.399  26.315  1.00  0.00    -0.744 OA
ENDBRANCH  66  69
ENDBRANCH  48  62
BRANCH  49  73
ATOM     73  C   UNL A   1      39.350  31.950  35.321  1.00  0.00     0.023 A 
ATOM     74  C   UNL A   1      38.508  31.327  36.262  1.00  0.00     0.012 A 
ATOM     75  C   UNL A   1      39.761  33.280  35.538  1.00  0.00     0.148 A 
ATOM     76  C   UNL A   1      38.066  32.025  37.386  1.00  0.00     0.002 A 
ATOM     77  C   UNL A   1      39.370  33.945  36.692  1.00  0.00     0.091 A 
ATOM     78  F   UNL A   1      40.548  33.860  34.621  1.00  0.00    -0.205 F 
ATOM     79  C   UNL A   1      38.506  33.327  37.608  1.00  0.00     0.022 A 
BRANCH  77  80
ATOM     80  S   UNL A   1      40.013  35.564  37.133  1.00  0.00     0.127 S 
ATOM     81  O   UNL A   1      39.332  35.821  38.399  1.00  0.00    -0.237 OA
ATOM     82  O   UNL A   1      41.448  35.296  37.246  1.00  0.00    -0.237 OA
ATOM     83  O   UNL A   1      39.653  36.444  36.030  1.00  0.00    -0.744 OA
ENDBRANCH  77  80
ENDBRANCH  49  73
BRANCH  61  84
ATOM     84  C   UNL A   1      44.704  27.611  34.210  1.00  0.00     0.023 A 
ATOM     85  C   UNL A   1      45.854  28.411  34.360  1.00  0.00     0.012 A 
ATOM     86  C   UNL A   1      44.601  26.404  34.929  1.00  0.00     0.148 A 
ATOM     87  C   UNL A   1      46.901  27.997  35.182  1.00  0.00     0.002 A 
ATOM     88  C   UNL A   1      45.625  26.024  35.787  1.00  0.00     0.091 A 
ATOM     89  F   UNL A   1      43.506  25.650  34.757  1.00  0.00    -0.205 F 
ATOM     90  C   UNL A   1      46.782  26.811  35.903  1.00  0.00     0.022 A 
BRANCH  88  91
ATOM     91  S   UNL A   1      45.517  24.564  36.827  1.00  0.00     0.127 S 
ATOM     92  O   UNL A   1      46.857  23.997  36.684  1.00  0.00    -0.237 OA
ATOM     93  O   UNL A   1      45.236  25.141  38.141  1.00  0.00    -0.237 OA
ATOM     94  O   UNL A   1      44.437  23.756  36.277  1.00  0.00    -0.744 OA
ENDBRANCH  88  91
ENDBRANCH  61  84
ENDBRANCH  35  36
ENDBRANCH  28  30
ENDBRANCH  27  28
ENDBRANCH  26  27
ENDBRANCH   1  26
TORSDOF 20
ENDMDL
MODEL 3
REMARK VINA RESULT:     -10.8      1.544      3.284
REMARK SMILES C[C@H]1C[C@H](C)CN(S(=O)(=O)N[C@@H](CCC(N)=O)C(=O)OCCOC(=O)c2ccc(-c3c4nc(c(-c5cccc(S(=O)(=O)[O-])c5F)c5ccc([nH]5)c(-c5cccc(S(=O)(=O)[O-])c5F)c5nc(c(-c6cccc(S(=O)(=O)[O-])c6F)c6ccc3[nH]6)C=C5)C=C4)cc2)C1
REMARK SMILES IDX 21 1 20 2 18 3 19 4 12 5 11 6 8 8 9 9 10 10 7 11 1 12 2 13
REMARK SMILES IDX 3 14 89 15 4 16 5 17 6 18 13 19 14 20 15 21 16 22 17 23
REMARK SMILES IDX 22 26 23 27 24 28 25 29 26 30 27 31 88 32 28 33 87 34 29 35
REMARK SMILES IDX 30 36 31 37 81 38 32 39 86 40 80 41 82 42 33 43 85 44 79 45
REMARK SMILES IDX 78 46 34 48 66 49 46 50 65 51 47 52 50 53 64 54 83 55 48 56
REMARK SMILES IDX 49 57 63 59 84 60 51 61 35 62 36 63 44 64 37 65 39 66 45 67
REMARK SMILES IDX 38 68 40 69 41 70 42 71 43 72 67 73 68 74 76 75 69 76 71 77
REMARK SMILES IDX 77 78 70 79 72 80 73 81 74 82 75 83 52 84 53 85 61 86 54 87
REMARK SMILES IDX 56 88 62 89 55 90 57 91 58 92 59 93 60 94
REMARK H PARENT 11 7 16 24 16 25 82 47 50 58
REMARK Flexibility Score: inf
ROOT
ATOM      1  C   UNL A   1      31.783  28.302  27.602  1.00  0.00     0.274 C 
ENDROOT
BRANCH   1   2
ATOM      2  O   UNL A   1      31.283  27.193  26.823  1.00  0.00    -0.461 OA
BRANCH   2   3
ATOM      3  C   UNL A   1      32.224  26.441  26.192  1.00  0.00     0.324 C 
ATOM      4  O   UNL A   1      33.437  26.599  26.310  1.00  0.00    -0.250 OA
BRANCH   3   5
ATOM      5  C   UNL A   1      31.638  25.412  25.228  1.00  0.00     0.181 C 
BRANCH   5   6
ATOM      6  N   UNL A   1      30.799  25.979  24.146  1.00  0.00    -0.188 NA
ATOM      7  H   UNL A   1      30.412  25.174  23.654  1.00  0.00     0.143 HD
BRANCH   6   8
ATOM      8  S   UNL A   1      31.344  27.006  22.961  1.00  0.00     0.280 S 
ATOM      9  O   UNL A   1      31.526  26.251  21.744  1.00  0.00    -0.195 OA
ATOM     10  O   UNL A   1      32.454  27.733  23.529  1.00  0.00    -0.195 OA
BRANCH   8  11
ATOM     11  N   UNL A   1      30.092  28.138  22.683  1.00  0.00    -0.188 NA
ATOM     12  C   UNL A   1      26.339  28.030  23.697  1.00  0.00     0.009 C 
ATOM     13  C   UNL A   1      27.594  28.543  22.992  1.00  0.00     0.001 C 
ATOM     14  C   UNL A   1      27.908  29.964  23.468  1.00  0.00     0.009 C 
ATOM     15  C   UNL A   1      28.788  27.604  23.227  1.00  0.00     0.106 C 
ATOM     16  C   UNL A   1      29.185  30.477  22.813  1.00  0.00     0.001 C 
ATOM     17  C   UNL A   1      28.982  30.720  21.313  1.00  0.00     0.009 C 
ATOM     18  C   UNL A   1      30.346  29.527  23.117  1.00  0.00     0.106 C 
ENDBRANCH   8  11
ENDBRANCH   6   8
ENDBRANCH   5   6
BRANCH   5  19
ATOM     19  C   UNL A   1      32.747  24.435  24.818  1.00  0.00     0.042 C 
BRANCH  19  20
ATOM     20  C   UNL A   1      32.377  22.955  24.768  1.00  0.00     0.102 C 
BRANCH  20  21
ATOM     21  C   UNL A   1      32.028  22.443  23.389  1.00  0.00     0.217 C 
ATOM     22  N   UNL A   1      31.597  23.374  22.494  1.00  0.00    -0.370 N 
ATOM     23  O   UNL A   1      32.142  21.267  23.061  1.00  0.00    -0.275 OA
ATOM     24  H   UNL A   1      31.508  24.316  22.768  1.00  0.00     0.159 HD
ATOM     25  H   UNL A   1      31.373  23.106  21.574  1.00  0.00     0.159 HD
ENDBRANCH  20  21
ENDBRANCH  19  20
ENDBRANCH   5  19
ENDBRANCH   3   5
ENDBRANCH   2   3
ENDBRANCH   1   2
BRANCH   1  26
ATOM     26  C   UNL A   1      31.592  29.636  26.879  1.00  0.00     0.275 C 
BRANCH  26  27
ATOM     27  O   UNL A   1      32.844  30.152  26.401  1.00  0.00    -0.458 OA
BRANCH  27  28
ATOM     28  C   UNL A   1      33.283  31.243  27.069  1.00  0.00     0.338 C 
ATOM     29  O   UNL A   1      32.638  32.230  27.382  1.00  0.00    -0.246 OA
BRANCH  28  30
ATOM     30  C   UNL A   1      34.659  31.020  27.515  1.00  0.00     0.060 A 
ATOM     31  C   UNL A   1      35.083  29.705  27.671  1.00  0.00     0.016 A 
ATOM     32  C   UNL A   1      35.470  32.081  27.912  1.00  0.00     0.016 A 
ATOM     33  C   UNL A   1      36.290  29.437  28.302  1.00  0.00     0.010 A 
ATOM     34  C   UNL A   1      36.703  31.807  28.513  1.00  0.00     0.010 A 
ATOM     35  C   UNL A   1      37.102  30.480  28.763  1.00  0.00    -0.014 A 
BRANCH  35  36
ATOM     36  C   UNL A   1      38.320  30.177  29.565  1.00  0.00     0.031 A 
ATOM     37  C   UNL A   1      39.389  29.268  29.010  1.00  0.00     0.074 A 
ATOM     38  C   UNL A   1      38.479  30.726  30.785  1.00  0.00     0.049 A 
ATOM     39  N   UNL A   1      40.430  28.752  29.613  1.00  0.00    -0.248 NA
ATOM     40  C   UNL A   1      39.267  28.878  27.595  1.00  0.00     0.031 C 
ATOM     41  C   UNL A   1      37.543  31.653  31.425  1.00  0.00     0.029 A 
ATOM     42  N   UNL A   1      39.477  30.570  31.715  1.00  0.00    -0.354 N 
ATOM     43  C   UNL A   1      41.037  27.916  28.681  1.00  0.00     0.074 A 
ATOM     44  C   UNL A   1      40.258  28.006  27.466  1.00  0.00     0.031 C 
ATOM     45  C   UNL A   1      38.010  31.987  32.636  1.00  0.00     0.029 A 
ATOM     46  C   UNL A   1      39.226  31.226  32.898  1.00  0.00     0.049 A 
ATOM     47  H   UNL A   1      40.291  30.040  31.552  1.00  0.00     0.167 HD
ATOM     48  C   UNL A   1      42.143  27.146  28.827  1.00  0.00     0.034 A 
ATOM     49  C   UNL A   1      39.861  31.178  34.084  1.00  0.00     0.034 A 
ATOM     50  C   UNL A   1      42.948  27.112  30.021  1.00  0.00     0.049 A 
ATOM     51  C   UNL A   1      41.073  30.303  34.225  1.00  0.00     0.074 A 
ATOM     52  C   UNL A   1      44.115  26.405  30.251  1.00  0.00     0.029 A 
ATOM     53  N   UNL A   1      42.673  27.815  31.184  1.00  0.00    -0.354 N 
ATOM     54  N   UNL A   1      41.657  29.550  33.325  1.00  0.00    -0.248 NA
ATOM     55  C   UNL A   1      41.724  30.282  35.542  1.00  0.00     0.031 C 
ATOM     56  C   UNL A   1      44.526  26.654  31.565  1.00  0.00     0.029 A 
ATOM     57  C   UNL A   1      43.639  27.550  32.139  1.00  0.00     0.049 A 
ATOM     58  H   UNL A   1      41.903  28.415  31.311  1.00  0.00     0.167 HD
ATOM     59  C   UNL A   1      42.759  28.989  33.955  1.00  0.00     0.074 A 
ATOM     60  C   UNL A   1      42.776  29.509  35.308  1.00  0.00     0.031 C 
ATOM     61  C   UNL A   1      43.669  28.111  33.465  1.00  0.00     0.034 A 
BRANCH  48  62
ATOM     62  C   UNL A   1      42.558  26.269  27.671  1.00  0.00     0.023 A 
ATOM     63  C   UNL A   1      43.478  26.742  26.714  1.00  0.00     0.012 A 
ATOM     64  C   UNL A   1      42.084  24.944  27.574  1.00  0.00     0.148 A 
ATOM     65  C   UNL A   1      43.893  25.925  25.662  1.00  0.00     0.002 A 
ATOM     66  C   UNL A   1      42.539  24.120  26.551  1.00  0.00     0.091 A 
ATOM     67  F   UNL A   1      41.196  24.514  28.482  1.00  0.00    -0.205 F 
ATOM     68  C   UNL A   1      43.432  24.612  25.587  1.00  0.00     0.022 A 
BRANCH  66  69
ATOM     69  S   UNL A   1      42.073  22.389  26.418  1.00  0.00     0.127 S 
ATOM     70  O   UNL A   1      42.571  21.851  27.683  1.00  0.00    -0.237 OA
ATOM     71  O   UNL A   1      40.615  22.470  26.322  1.00  0.00    -0.237 OA
ATOM     72  O   UNL A   1      42.733  21.885  25.222  1.00  0.00    -0.744 OA
ENDBRANCH  66  69
ENDBRANCH  48  62
BRANCH  49  73
ATOM     73  C   UNL A   1      39.346  31.976  35.233  1.00  0.00     0.023 A 
ATOM     74  C   UNL A   1      38.450  31.387  36.144  1.00  0.00     0.012 A 
ATOM     75  C   UNL A   1      39.773  33.303  35.448  1.00  0.00     0.148 A 
ATOM     76  C   UNL A   1      37.970  32.112  37.235  1.00  0.00     0.002 A 
ATOM     77  C   UNL A   1      39.342  33.995  36.571  1.00  0.00     0.091 A 
ATOM     78  F   UNL A   1      40.612  33.851  34.559  1.00  0.00    -0.205 F 
ATOM     79  C   UNL A   1      38.425  33.409  37.456  1.00  0.00     0.022 A 
BRANCH  77  80
ATOM     80  S   UNL A   1      39.996  35.608  37.015  1.00  0.00     0.127 S 
ATOM     81  O   UNL A   1      41.427  35.334  37.113  1.00  0.00    -0.237 OA
ATOM     82  O   UNL A   1      39.600  36.419  35.862  1.00  0.00    -0.237 OA
ATOM     83  O   UNL A   1      39.334  35.973  38.260  1.00  0.00    -0.744 OA
ENDBRANCH  77  80
ENDBRANCH  49  73
BRANCH  61  84
ATOM     84  C   UNL A   1      44.790  27.692  34.380  1.00  0.00     0.023 A 
ATOM     85  C   UNL A   1      45.976  28.451  34.436  1.00  0.00     0.012 A 
ATOM     86  C   UNL A   1      44.641  26.576  35.227  1.00  0.00     0.148 A 
ATOM     87  C   UNL A   1      47.013  28.081  35.292  1.00  0.00     0.002 A 
ATOM     88  C   UNL A   1      45.655  26.246  36.115  1.00  0.00     0.091 A 
ATOM     89  F   UNL A   1      43.511  25.859  35.144  1.00  0.00    -0.205 F 
ATOM     90  C   UNL A   1      46.848  26.987  36.140  1.00  0.00     0.022 A 
BRANCH  88  91
ATOM     91  S   UNL A   1      45.493  24.914  37.309  1.00  0.00     0.127 S 
ATOM     92  O   UNL A   1      46.724  25.057  38.084  1.00  0.00    -0.237 OA
ATOM     93  O   UNL A   1      44.274  25.287  38.025  1.00  0.00    -0.237 OA
ATOM     94  O   UNL A   1      45.387  23.686  36.532  1.00  0.00    -0.744 OA
ENDBRANCH  88  91
ENDBRANCH  61  84
ENDBRANCH  35  36
ENDBRANCH  28  30
ENDBRANCH  27  28
ENDBRANCH  26  27
ENDBRANCH   1  26
TORSDOF 20
ENDMDL
