MODEL 1
REMARK VINA RESULT:     -11.2      0.000      0.000
REMARK SMILES COc1ncccc1COc1cc(C)sc1C(=O)OCCOC(=O)c1ccc(-c2c3nc(c(-c4cccc(S(=O)(=O)[O-])c4F)c4ccc([nH]4)c(-c4cccc(S(=O)(=O)[O-])c4F)c4nc(c(-c5cccc(S(=O)(=O)[O-])c5F)c5ccc2[nH]5)C=C4)C=C3)cc1
REMARK SMILES IDX 20 1 19 2 17 3 18 4 16 5 11 6 12 7 13 8 15 9 14 10 10 11
REMARK SMILES IDX 9 12 8 13 3 14 4 15 5 16 7 17 6 18 2 19 1 20 21 21 22 22
REMARK SMILES IDX 23 23 24 24 25 25 26 26 87 27 27 28 86 29 28 30 29 31 30 32
REMARK SMILES IDX 80 33 31 34 85 35 79 36 81 37 32 38 84 39 78 40 77 41 33 43
REMARK SMILES IDX 65 44 45 45 64 46 46 47 49 48 63 49 82 50 47 51 48 52 62 54
REMARK SMILES IDX 83 55 50 56 34 57 35 58 43 59 36 60 38 61 44 62 37 63 39 64
REMARK SMILES IDX 40 65 41 66 42 67 66 68 67 69 75 70 68 71 70 72 76 73 69 74
REMARK SMILES IDX 71 75 72 76 73 77 74 78 51 79 52 80 60 81 53 82 55 83 61 84
REMARK SMILES IDX 54 85 56 86 57 87 58 88 59 89
REMARK H PARENT 81 42 49 53
REMARK Flexibility Score: inf
ROOT
ATOM      1  C   UNL A   1      31.621  29.148  24.164  1.00  0.00     0.275 C 
ENDROOT
BRANCH   1   2
ATOM      2  O   UNL A   1      31.353  27.778  24.508  1.00  0.00    -0.458 OA
BRANCH   2   3
ATOM      3  C   UNL A   1      32.254  26.837  24.089  1.00  0.00     0.352 C 
ATOM      4  O   UNL A   1      33.262  27.093  23.453  1.00  0.00    -0.245 OA
BRANCH   3   5
ATOM      5  C   UNL A   1      31.884  25.533  24.614  1.00  0.00     0.155 A 
ATOM      6  C   UNL A   1      32.004  24.269  24.062  1.00  0.00     0.145 A 
ATOM      7  C   UNL A   1      31.195  23.327  24.764  1.00  0.00     0.062 A 
ATOM      8  C   UNL A   1      30.696  23.830  25.949  1.00  0.00     0.006 A 
ATOM      9  S   UNL A   1      31.189  25.443  26.185  1.00  0.00    -0.130 S 
ATOM     10  C   UNL A   1      29.849  23.137  26.962  1.00  0.00     0.056 C 
BRANCH   6  11
ATOM     11  O   UNL A   1      32.805  24.093  22.977  1.00  0.00    -0.487 OA
BRANCH  11  12
ATOM     12  C   UNL A   1      33.433  22.822  22.779  1.00  0.00     0.271 C 
BRANCH  12  13
ATOM     13  C   UNL A   1      34.624  22.488  23.639  1.00  0.00     0.052 A 
ATOM     14  C   UNL A   1      34.613  21.469  24.586  1.00  0.00     0.219 A 
ATOM     15  N   UNL A   1      35.699  21.083  25.295  1.00  0.00    -0.222 NA
ATOM     16  C   UNL A   1      36.852  21.744  25.047  1.00  0.00     0.115 A 
ATOM     17  C   UNL A   1      35.823  23.194  23.472  1.00  0.00     0.014 A 
ATOM     18  C   UNL A   1      36.960  22.810  24.172  1.00  0.00     0.021 A 
BRANCH  14  19
ATOM     19  O   UNL A   1      33.417  20.921  24.973  1.00  0.00    -0.481 OA
ATOM     20  C   UNL A   1      33.288  19.585  24.497  1.00  0.00     0.280 C 
ENDBRANCH  14  19
ENDBRANCH  12  13
ENDBRANCH  11  12
ENDBRANCH   6  11
ENDBRANCH   3   5
ENDBRANCH   2   3
ENDBRANCH   1   2
BRANCH   1  21
ATOM     21  C   UNL A   1      31.577  30.014  25.423  1.00  0.00     0.275 C 
BRANCH  21  22
ATOM     22  O   UNL A   1      32.893  30.123  25.992  1.00  0.00    -0.458 OA
BRANCH  22  23
ATOM     23  C   UNL A   1      33.101  31.181  26.810  1.00  0.00     0.338 C 
ATOM     24  O   UNL A   1      32.349  32.113  27.035  1.00  0.00    -0.246 OA
BRANCH  23  25
ATOM     25  C   UNL A   1      34.383  30.987  27.502  1.00  0.00     0.060 A 
ATOM     26  C   UNL A   1      34.697  29.704  27.946  1.00  0.00     0.016 A 
ATOM     27  C   UNL A   1      35.243  32.052  27.755  1.00  0.00     0.016 A 
ATOM     28  C   UNL A   1      35.866  29.473  28.665  1.00  0.00     0.010 A 
ATOM     29  C   UNL A   1      36.443  31.812  28.436  1.00  0.00     0.010 A 
ATOM     30  C   UNL A   1      36.763  30.521  28.900  1.00  0.00    -0.014 A 
BRANCH  30  31
ATOM     31  C   UNL A   1      38.046  30.265  29.606  1.00  0.00     0.031 A 
ATOM     32  C   UNL A   1      39.073  29.348  29.005  1.00  0.00     0.074 A 
ATOM     33  C   UNL A   1      38.269  30.838  30.805  1.00  0.00     0.049 A 
ATOM     34  N   UNL A   1      40.172  28.881  29.536  1.00  0.00    -0.248 NA
ATOM     35  C   UNL A   1      38.830  28.891  27.627  1.00  0.00     0.031 C 
ATOM     36  C   UNL A   1      37.361  31.765  31.482  1.00  0.00     0.029 A 
ATOM     37  N   UNL A   1      39.319  30.704  31.682  1.00  0.00    -0.354 N 
ATOM     38  C   UNL A   1      40.728  28.037  28.583  1.00  0.00     0.074 A 
ATOM     39  C   UNL A   1      39.847  28.062  27.434  1.00  0.00     0.031 C 
ATOM     40  C   UNL A   1      37.883  32.107  32.670  1.00  0.00     0.029 A 
ATOM     41  C   UNL A   1      39.127  31.373  32.870  1.00  0.00     0.049 A 
ATOM     42  H   UNL A   1      40.129  30.182  31.481  1.00  0.00     0.167 HD
ATOM     43  C   UNL A   1      41.872  27.314  28.657  1.00  0.00     0.034 A 
ATOM     44  C   UNL A   1      39.842  31.356  34.012  1.00  0.00     0.034 A 
ATOM     45  C   UNL A   1      42.762  27.327  29.788  1.00  0.00     0.049 A 
ATOM     46  C   UNL A   1      41.081  30.508  34.083  1.00  0.00     0.074 A 
ATOM     47  C   UNL A   1      43.968  26.665  29.940  1.00  0.00     0.029 A 
ATOM     48  N   UNL A   1      42.543  28.032  30.961  1.00  0.00    -0.354 N 
ATOM     49  N   UNL A   1      41.634  29.777  33.146  1.00  0.00    -0.248 NA
ATOM     50  C   UNL A   1      41.799  30.487  35.365  1.00  0.00     0.031 C 
ATOM     51  C   UNL A   1      44.466  26.950  31.215  1.00  0.00     0.029 A 
ATOM     52  C   UNL A   1      43.580  27.806  31.851  1.00  0.00     0.049 A 
ATOM     53  H   UNL A   1      41.764  28.608  31.137  1.00  0.00     0.167 HD
ATOM     54  C   UNL A   1      42.772  29.221  33.719  1.00  0.00     0.074 A 
ATOM     55  C   UNL A   1      42.847  29.728  35.075  1.00  0.00     0.031 C 
ATOM     56  C   UNL A   1      43.661  28.350  33.182  1.00  0.00     0.034 A 
BRANCH  43  57
ATOM     57  C   UNL A   1      42.244  26.459  27.475  1.00  0.00     0.023 A 
ATOM     58  C   UNL A   1      42.993  27.015  26.420  1.00  0.00     0.012 A 
ATOM     59  C   UNL A   1      41.914  25.089  27.444  1.00  0.00     0.148 A 
ATOM     60  C   UNL A   1      43.390  26.225  25.340  1.00  0.00     0.002 A 
ATOM     61  C   UNL A   1      42.345  24.301  26.383  1.00  0.00     0.091 A 
ATOM     62  F   UNL A   1      41.184  24.584  28.449  1.00  0.00    -0.205 F 
ATOM     63  C   UNL A   1      43.076  24.868  25.327  1.00  0.00     0.022 A 
BRANCH  61  64
ATOM     64  S   UNL A   1      42.052  22.530  26.307  1.00  0.00     0.127 S 
ATOM     65  O   UNL A   1      40.591  22.475  26.275  1.00  0.00    -0.237 OA
ATOM     66  O   UNL A   1      42.702  22.165  25.047  1.00  0.00    -0.237 OA
ATOM     67  O   UNL A   1      42.673  21.966  27.497  1.00  0.00    -0.744 OA
ENDBRANCH  61  64
ENDBRANCH  43  57
BRANCH  44  68
ATOM     68  C   UNL A   1      39.394  32.163  35.184  1.00  0.00     0.023 A 
ATOM     69  C   UNL A   1      39.650  33.546  35.213  1.00  0.00     0.012 A 
ATOM     70  C   UNL A   1      38.698  31.572  36.257  1.00  0.00     0.148 A 
ATOM     71  C   UNL A   1      39.241  34.323  36.297  1.00  0.00     0.002 A 
ATOM     72  C   UNL A   1      38.241  32.361  37.307  1.00  0.00     0.091 A 
ATOM     73  F   UNL A   1      38.487  30.248  36.228  1.00  0.00    -0.205 F 
ATOM     74  C   UNL A   1      38.526  33.734  37.337  1.00  0.00     0.022 A 
BRANCH  72  75
ATOM     75  S   UNL A   1      37.197  31.703  38.613  1.00  0.00     0.127 S 
ATOM     76  O   UNL A   1      38.062  31.836  39.782  1.00  0.00    -0.237 OA
ATOM     77  O   UNL A   1      36.058  32.621  38.584  1.00  0.00    -0.237 OA
ATOM     78  O   UNL A   1      36.877  30.342  38.208  1.00  0.00    -0.744 OA
ENDBRANCH  72  75
ENDBRANCH  44  68
BRANCH  56  79
ATOM     79  C   UNL A   1      44.799  27.893  34.055  1.00  0.00     0.023 A 
ATOM     80  C   UNL A   1      45.997  28.634  34.076  1.00  0.00     0.012 A 
ATOM     81  C   UNL A   1      44.658  26.779  34.906  1.00  0.00     0.148 A 
ATOM     82  C   UNL A   1      47.047  28.259  34.912  1.00  0.00     0.002 A 
ATOM     83  C   UNL A   1      45.691  26.438  35.769  1.00  0.00     0.091 A 
ATOM     84  F   UNL A   1      43.515  26.079  34.857  1.00  0.00    -0.205 F 
ATOM     85  C   UNL A   1      46.890  27.169  35.766  1.00  0.00     0.022 A 
BRANCH  83  86
ATOM     86  S   UNL A   1      45.551  25.109  36.969  1.00  0.00     0.127 S 
ATOM     87  O   UNL A   1      44.366  25.513  37.725  1.00  0.00    -0.237 OA
ATOM     88  O   UNL A   1      45.357  23.938  36.113  1.00  0.00    -0.237 OA
ATOM     89  O   UNL A   1      46.798  25.111  37.721  1.00  0.00    -0.744 OA
ENDBRANCH  83  86
ENDBRANCH  56  79
ENDBRANCH  30  31
ENDBRANCH  23  25
ENDBRANCH  22  23
ENDBRANCH  21  22
ENDBRANCH   1  21
TORSDOF 18
ENDMDL
MODEL 2
REMARK VINA RESULT:     -11.0      5.221      9.948
REMARK SMILES COc1ncccc1COc1cc(C)sc1C(=O)OCCOC(=O)c1ccc(-c2c3nc(c(-c4cccc(S(=O)(=O)[O-])c4F)c4ccc([nH]4)c(-c4cccc(S(=O)(=O)[O-])c4F)c4nc(c(-c5cccc(S(=O)(=O)[O-])c5F)c5ccc2[nH]5)C=C4)C=C3)cc1
REMARK SMILES IDX 20 1 19 2 17 3 18 4 16 5 11 6 12 7 13 8 15 9 14 10 10 11
REMARK SMILES IDX 9 12 8 13 3 14 4 15 5 16 7 17 6 18 2 19 1 20 21 21 22 22
REMARK SMILES IDX 23 23 24 24 25 25 26 26 87 27 27 28 86 29 28 30 29 31 30 32
REMARK SMILES IDX 80 33 31 34 85 35 79 36 81 37 32 38 84 39 78 40 77 41 33 43
REMARK SMILES IDX 65 44 45 45 64 46 46 47 49 48 63 49 82 50 47 51 48 52 62 54
REMARK SMILES IDX 83 55 50 56 34 57 35 58 43 59 36 60 38 61 44 62 37 63 39 64
REMARK SMILES IDX 40 65 41 66 42 67 66 68 67 69 75 70 68 71 70 72 76 73 69 74
REMARK SMILES IDX 71 75 72 76 73 77 74 78 51 79 52 80 60 81 53 82 55 83 61 84
REMARK SMILES IDX 54 85 56 86 57 87 58 88 59 89
REMARK H PARENT 81 42 49 53
REMARK Flexibility Score: inf
ROOT
ATOM      1  C   UNL A   1      36.293  22.183  23.838  1.00  0.00     0.275 C 
ENDROOT
BRANCH   1   2
ATOM      2  O   UNL A   1      35.532  23.283  24.368  1.00  0.00    -0.458 OA
BRANCH   2   3
ATOM      3  C   UNL A   1      34.415  23.665  23.677  1.00  0.00     0.352 C 
ATOM      4  O   UNL A   1      34.347  23.711  22.460  1.00  0.00    -0.245 OA
BRANCH   3   5
ATOM      5  C   UNL A   1      33.317  23.887  24.602  1.00  0.00     0.155 A 
ATOM      6  C   UNL A   1      33.120  24.875  25.552  1.00  0.00     0.145 A 
ATOM      7  C   UNL A   1      32.090  24.506  26.467  1.00  0.00     0.062 A 
ATOM      8  C   UNL A   1      31.378  23.399  26.051  1.00  0.00     0.006 A 
ATOM      9  S   UNL A   1      31.981  22.803  24.573  1.00  0.00    -0.130 S 
ATOM     10  C   UNL A   1      30.215  22.744  26.717  1.00  0.00     0.056 C 
BRANCH   6  11
ATOM     11  O   UNL A   1      33.895  25.993  25.517  1.00  0.00    -0.487 OA
BRANCH  11  12
ATOM     12  C   UNL A   1      33.261  27.275  25.482  1.00  0.00     0.271 C 
BRANCH  12  13
ATOM     13  C   UNL A   1      32.196  27.501  24.440  1.00  0.00     0.052 A 
ATOM     14  C   UNL A   1      32.412  27.298  23.081  1.00  0.00     0.219 A 
ATOM     15  N   UNL A   1      31.445  27.394  22.139  1.00  0.00    -0.222 NA
ATOM     16  C   UNL A   1      30.203  27.706  22.574  1.00  0.00     0.115 A 
ATOM     17  C   UNL A   1      30.911  27.898  24.833  1.00  0.00     0.014 A 
ATOM     18  C   UNL A   1      29.893  27.988  23.892  1.00  0.00     0.021 A 
BRANCH  14  19
ATOM     19  O   UNL A   1      33.694  27.161  22.614  1.00  0.00    -0.481 OA
ATOM     20  C   UNL A   1      34.245  28.423  22.254  1.00  0.00     0.280 C 
ENDBRANCH  14  19
ENDBRANCH  12  13
ENDBRANCH  11  12
ENDBRANCH   6  11
ENDBRANCH   3   5
ENDBRANCH   2   3
ENDBRANCH   1   2
BRANCH   1  21
ATOM     21  C   UNL A   1      36.320  21.039  24.852  1.00  0.00     0.275 C 
BRANCH  21  22
ATOM     22  O   UNL A   1      37.084  21.422  26.008  1.00  0.00    -0.458 OA
BRANCH  22  23
ATOM     23  C   UNL A   1      38.416  21.196  25.942  1.00  0.00     0.338 C 
ATOM     24  O   UNL A   1      38.987  20.200  25.534  1.00  0.00    -0.246 OA
BRANCH  23  25
ATOM     25  C   UNL A   1      39.116  22.419  26.359  1.00  0.00     0.060 A 
ATOM     26  C   UNL A   1      40.263  22.281  27.137  1.00  0.00     0.016 A 
ATOM     27  C   UNL A   1      38.629  23.683  26.037  1.00  0.00     0.016 A 
ATOM     28  C   UNL A   1      40.929  23.405  27.618  1.00  0.00     0.010 A 
ATOM     29  C   UNL A   1      39.325  24.814  26.478  1.00  0.00     0.010 A 
ATOM     30  C   UNL A   1      40.479  24.685  27.275  1.00  0.00    -0.014 A 
BRANCH  30  31
ATOM     31  C   UNL A   1      41.227  25.888  27.727  1.00  0.00     0.031 A 
ATOM     32  C   UNL A   1      40.537  26.954  28.529  1.00  0.00     0.074 A 
ATOM     33  C   UNL A   1      42.523  26.031  27.385  1.00  0.00     0.049 A 
ATOM     34  N   UNL A   1      40.973  28.137  28.877  1.00  0.00    -0.248 NA
ATOM     35  C   UNL A   1      39.176  26.654  29.001  1.00  0.00     0.031 C 
ATOM     36  C   UNL A   1      43.311  25.056  26.628  1.00  0.00     0.029 A 
ATOM     37  N   UNL A   1      43.400  27.065  27.605  1.00  0.00    -0.354 N 
ATOM     38  C   UNL A   1      39.928  28.744  29.561  1.00  0.00     0.074 A 
ATOM     39  C   UNL A   1      38.835  27.794  29.588  1.00  0.00     0.031 C 
ATOM     40  C   UNL A   1      44.547  25.540  26.437  1.00  0.00     0.029 A 
ATOM     41  C   UNL A   1      44.621  26.885  26.994  1.00  0.00     0.049 A 
ATOM     42  H   UNL A   1      43.179  27.856  28.146  1.00  0.00     0.167 HD
ATOM     43  C   UNL A   1      39.886  29.976  30.122  1.00  0.00     0.034 A 
ATOM     44  C   UNL A   1      45.664  27.727  26.851  1.00  0.00     0.034 A 
ATOM     45  C   UNL A   1      40.992  30.898  30.125  1.00  0.00     0.049 A 
ATOM     46  C   UNL A   1      45.572  29.106  27.442  1.00  0.00     0.074 A 
ATOM     47  C   UNL A   1      41.063  32.152  30.706  1.00  0.00     0.029 A 
ATOM     48  N   UNL A   1      42.215  30.671  29.515  1.00  0.00    -0.354 N 
ATOM     49  N   UNL A   1      44.607  29.636  28.153  1.00  0.00    -0.248 NA
ATOM     50  C   UNL A   1      46.716  30.002  27.218  1.00  0.00     0.031 C 
ATOM     51  C   UNL A   1      42.322  32.694  30.426  1.00  0.00     0.029 A 
ATOM     52  C   UNL A   1      43.042  31.768  29.687  1.00  0.00     0.049 A 
ATOM     53  H   UNL A   1      42.461  29.850  29.029  1.00  0.00     0.167 HD
ATOM     54  C   UNL A   1      45.031  30.920  28.474  1.00  0.00     0.074 A 
ATOM     55  C   UNL A   1      46.356  31.075  27.908  1.00  0.00     0.031 C 
ATOM     56  C   UNL A   1      44.374  31.892  29.153  1.00  0.00     0.034 A 
BRANCH  43  57
ATOM     57  C   UNL A   1      38.611  30.401  30.799  1.00  0.00     0.023 A 
ATOM     58  C   UNL A   1      38.436  30.154  32.175  1.00  0.00     0.012 A 
ATOM     59  C   UNL A   1      37.618  31.107  30.091  1.00  0.00     0.148 A 
ATOM     60  C   UNL A   1      37.283  30.584  32.832  1.00  0.00     0.002 A 
ATOM     61  C   UNL A   1      36.489  31.565  30.760  1.00  0.00     0.091 A 
ATOM     62  F   UNL A   1      37.795  31.314  28.778  1.00  0.00    -0.205 F 
ATOM     63  C   UNL A   1      36.316  31.298  32.128  1.00  0.00     0.022 A 
BRANCH  61  64
ATOM     64  S   UNL A   1      35.219  32.553  29.960  1.00  0.00     0.127 S 
ATOM     65  O   UNL A   1      34.276  32.764  31.057  1.00  0.00    -0.237 OA
ATOM     66  O   UNL A   1      35.964  33.747  29.560  1.00  0.00    -0.237 OA
ATOM     67  O   UNL A   1      34.720  31.748  28.854  1.00  0.00    -0.744 OA
ENDBRANCH  61  64
ENDBRANCH  43  57
BRANCH  44  68
ATOM     68  C   UNL A   1      46.879  27.288  26.107  1.00  0.00     0.023 A 
ATOM     69  C   UNL A   1      46.984  27.557  24.729  1.00  0.00     0.012 A 
ATOM     70  C   UNL A   1      47.940  26.628  26.758  1.00  0.00     0.148 A 
ATOM     71  C   UNL A   1      48.111  27.159  24.010  1.00  0.00     0.002 A 
ATOM     72  C   UNL A   1      49.086  26.286  26.049  1.00  0.00     0.091 A 
ATOM     73  F   UNL A   1      47.813  26.354  28.065  1.00  0.00    -0.205 F 
ATOM     74  C   UNL A   1      49.166  26.536  24.671  1.00  0.00     0.022 A 
BRANCH  72  75
ATOM     75  S   UNL A   1      50.541  25.605  26.854  1.00  0.00     0.127 S 
ATOM     76  O   UNL A   1      51.450  25.426  25.725  1.00  0.00    -0.237 OA
ATOM     77  O   UNL A   1      50.910  26.679  27.777  1.00  0.00    -0.237 OA
ATOM     78  O   UNL A   1      50.089  24.385  27.508  1.00  0.00    -0.744 OA
ENDBRANCH  72  75
ENDBRANCH  44  68
BRANCH  56  79
ATOM     79  C   UNL A   1      45.078  33.210  29.332  1.00  0.00     0.023 A 
ATOM     80  C   UNL A   1      45.989  33.370  30.395  1.00  0.00     0.012 A 
ATOM     81  C   UNL A   1      44.897  34.261  28.411  1.00  0.00     0.148 A 
ATOM     82  C   UNL A   1      46.690  34.564  30.554  1.00  0.00     0.002 A 
ATOM     83  C   UNL A   1      45.631  35.431  28.549  1.00  0.00     0.091 A 
ATOM     84  F   UNL A   1      44.012  34.092  27.417  1.00  0.00    -0.205 F 
ATOM     85  C   UNL A   1      46.520  35.589  29.625  1.00  0.00     0.022 A 
BRANCH  83  86
ATOM     86  S   UNL A   1      45.550  36.771  27.356  1.00  0.00     0.127 S 
ATOM     87  O   UNL A   1      46.117  37.884  28.118  1.00  0.00    -0.237 OA
ATOM     88  O   UNL A   1      46.403  36.276  26.275  1.00  0.00    -0.237 OA
ATOM     89  O   UNL A   1      44.144  36.912  27.003  1.00  0.00    -0.744 OA
ENDBRANCH  83  86
ENDBRANCH  56  79
ENDBRANCH  30  31
ENDBRANCH  23  25
ENDBRANCH  22  23
ENDBRANCH  21  22
ENDBRANCH   1  21
TORSDOF 18
ENDMDL
MODEL 3
REMARK VINA RESULT:     -10.7      1.696      2.371
REMARK SMILES COc1ncccc1COc1cc(C)sc1C(=O)OCCOC(=O)c1ccc(-c2c3nc(c(-c4cccc(S(=O)(=O)[O-])c4F)c4ccc([nH]4)c(-c4cccc(S(=O)(=O)[O-])c4F)c4nc(c(-c5cccc(S(=O)(=O)[O-])c5F)c5ccc2[nH]5)C=C4)C=C3)cc1
REMARK SMILES IDX 20 1 19 2 17 3 18 4 16 5 11 6 12 7 13 8 15 9 14 10 10 11
REMARK SMILES IDX 9 12 8 13 3 14 4 15 5 16 7 17 6 18 2 19 1 20 21 21 22 22
REMARK SMILES IDX 23 23 24 24 25 25 26 26 87 27 27 28 86 29 28 30 29 31 30 32
REMARK SMILES IDX 80 33 31 34 85 35 79 36 81 37 32 38 84 39 78 40 77 41 33 43
REMARK SMILES IDX 65 44 45 45 64 46 46 47 49 48 63 49 82 50 47 51 48 52 62 54
REMARK SMILES IDX 83 55 50 56 34 57 35 58 43 59 36 60 38 61 44 62 37 63 39 64
REMARK SMILES IDX 40 65 41 66 42 67 66 68 67 69 75 70 68 71 70 72 76 73 69 74
REMARK SMILES IDX 71 75 72 76 73 77 74 78 51 79 52 80 60 81 53 82 55 83 61 84
REMARK SMILES IDX 54 85 56 86 57 87 58 88 59 89
REMARK H PARENT 81 42 49 53
REMARK Flexibility Score: inf
ROOT
ATOM      1  C   UNL A   1      30.953  29.727  24.832  1.00  0.00     0.275 C 
ENDROOT
BRANCH   1   2
ATOM      2  O   UNL A   1      30.805  28.520  24.065  1.00  0.00    -0.458 OA
BRANCH   2   3
ATOM      3  C   UNL A   1      31.184  27.347  24.659  1.00  0.00     0.352 C 
ATOM      4  O   UNL A   1      30.892  27.035  25.801  1.00  0.00    -0.245 OA
BRANCH   3   5
ATOM      5  C   UNL A   1      31.871  26.506  23.694  1.00  0.00     0.155 A 
ATOM      6  C   UNL A   1      33.045  25.780  23.801  1.00  0.00     0.145 A 
ATOM      7  C   UNL A   1      33.527  25.396  22.514  1.00  0.00     0.062 A 
ATOM      8  C   UNL A   1      32.603  25.612  21.512  1.00  0.00     0.006 A 
ATOM      9  S   UNL A   1      31.175  26.302  22.134  1.00  0.00    -0.130 S 
ATOM     10  C   UNL A   1      32.729  25.305  20.058  1.00  0.00     0.056 C 
BRANCH   6  11
ATOM     11  O   UNL A   1      33.576  25.555  25.033  1.00  0.00    -0.487 OA
BRANCH  11  12
ATOM     12  C   UNL A   1      33.160  24.399  25.766  1.00  0.00     0.271 C 
BRANCH  12  13
ATOM     13  C   UNL A   1      33.778  23.075  25.395  1.00  0.00     0.052 A 
ATOM     14  C   UNL A   1      35.057  22.699  25.791  1.00  0.00     0.219 A 
ATOM     15  N   UNL A   1      35.593  21.478  25.559  1.00  0.00    -0.222 NA
ATOM     16  C   UNL A   1      34.814  20.589  24.902  1.00  0.00     0.115 A 
ATOM     17  C   UNL A   1      33.039  22.146  24.650  1.00  0.00     0.014 A 
ATOM     18  C   UNL A   1      33.554  20.879  24.412  1.00  0.00     0.021 A 
BRANCH  14  19
ATOM     19  O   UNL A   1      35.914  23.646  26.292  1.00  0.00    -0.481 OA
ATOM     20  C   UNL A   1      37.241  23.436  25.822  1.00  0.00     0.280 C 
ENDBRANCH  14  19
ENDBRANCH  12  13
ENDBRANCH  11  12
ENDBRANCH   6  11
ENDBRANCH   3   5
ENDBRANCH   2   3
ENDBRANCH   1   2
BRANCH   1  21
ATOM     21  C   UNL A   1      32.419  29.912  25.225  1.00  0.00     0.275 C 
BRANCH  21  22
ATOM     22  O   UNL A   1      32.530  30.064  26.651  1.00  0.00    -0.458 OA
BRANCH  22  23
ATOM     23  C   UNL A   1      33.043  31.240  27.085  1.00  0.00     0.338 C 
ATOM     24  O   UNL A   1      32.534  32.345  27.029  1.00  0.00    -0.246 OA
BRANCH  23  25
ATOM     25  C   UNL A   1      34.321  30.968  27.757  1.00  0.00     0.060 A 
ATOM     26  C   UNL A   1      35.174  32.043  27.996  1.00  0.00     0.016 A 
ATOM     27  C   UNL A   1      34.701  29.674  28.103  1.00  0.00     0.016 A 
ATOM     28  C   UNL A   1      36.427  31.836  28.568  1.00  0.00     0.010 A 
ATOM     29  C   UNL A   1      35.940  29.471  28.724  1.00  0.00     0.010 A 
ATOM     30  C   UNL A   1      36.815  30.550  28.958  1.00  0.00    -0.014 A 
BRANCH  30  31
ATOM     31  C   UNL A   1      38.121  30.334  29.634  1.00  0.00     0.031 A 
ATOM     32  C   UNL A   1      39.166  29.459  29.003  1.00  0.00     0.074 A 
ATOM     33  C   UNL A   1      38.350  30.905  30.833  1.00  0.00     0.049 A 
ATOM     34  N   UNL A   1      40.294  29.027  29.507  1.00  0.00    -0.248 NA
ATOM     35  C   UNL A   1      38.911  29.005  27.627  1.00  0.00     0.031 C 
ATOM     36  C   UNL A   1      37.424  31.794  31.538  1.00  0.00     0.029 A 
ATOM     37  N   UNL A   1      39.422  30.802  31.686  1.00  0.00    -0.354 N 
ATOM     38  C   UNL A   1      40.858  28.211  28.535  1.00  0.00     0.074 A 
ATOM     39  C   UNL A   1      39.952  28.214  27.405  1.00  0.00     0.031 C 
ATOM     40  C   UNL A   1      37.960  32.145  32.716  1.00  0.00     0.029 A 
ATOM     41  C   UNL A   1      39.232  31.454  32.884  1.00  0.00     0.049 A 
ATOM     42  H   UNL A   1      40.246  30.311  31.463  1.00  0.00     0.167 HD
ATOM     43  C   UNL A   1      42.028  27.530  28.578  1.00  0.00     0.034 A 
ATOM     44  C   UNL A   1      39.973  31.454  34.010  1.00  0.00     0.034 A 
ATOM     45  C   UNL A   1      42.941  27.566  29.689  1.00  0.00     0.049 A 
ATOM     46  C   UNL A   1      41.243  30.650  34.047  1.00  0.00     0.074 A 
ATOM     47  C   UNL A   1      44.173  26.945  29.810  1.00  0.00     0.029 A 
ATOM     48  N   UNL A   1      42.724  28.252  30.873  1.00  0.00    -0.354 N 
ATOM     49  N   UNL A   1      41.801  29.947  33.092  1.00  0.00    -0.248 NA
ATOM     50  C   UNL A   1      41.988  30.645  35.313  1.00  0.00     0.031 C 
ATOM     51  C   UNL A   1      44.688  27.238  31.077  1.00  0.00     0.029 A 
ATOM     52  C   UNL A   1      43.787  28.057  31.739  1.00  0.00     0.049 A 
ATOM     53  H   UNL A   1      41.928  28.799  31.071  1.00  0.00     0.167 HD
ATOM     54  C   UNL A   1      42.970  29.428  33.636  1.00  0.00     0.074 A 
ATOM     55  C   UNL A   1      43.056  29.926  34.993  1.00  0.00     0.031 C 
ATOM     56  C   UNL A   1      43.878  28.593  33.072  1.00  0.00     0.034 A 
BRANCH  43  57
ATOM     57  C   UNL A   1      42.404  26.697  27.381  1.00  0.00     0.023 A 
ATOM     58  C   UNL A   1      43.151  27.276  26.336  1.00  0.00     0.012 A 
ATOM     59  C   UNL A   1      42.083  25.326  27.326  1.00  0.00     0.148 A 
ATOM     60  C   UNL A   1      43.551  26.508  25.242  1.00  0.00     0.002 A 
ATOM     61  C   UNL A   1      42.518  24.559  26.251  1.00  0.00     0.091 A 
ATOM     62  F   UNL A   1      41.355  24.800  28.322  1.00  0.00    -0.205 F 
ATOM     63  C   UNL A   1      43.245  25.150  25.205  1.00  0.00     0.022 A 
BRANCH  61  64
ATOM     64  S   UNL A   1      42.234  22.788  26.143  1.00  0.00     0.127 S 
ATOM     65  O   UNL A   1      42.905  22.460  24.886  1.00  0.00    -0.237 OA
ATOM     66  O   UNL A   1      42.914  22.294  27.342  1.00  0.00    -0.237 OA
ATOM     67  O   UNL A   1      40.789  22.610  26.145  1.00  0.00    -0.744 OA
ENDBRANCH  61  64
ENDBRANCH  43  57
BRANCH  44  68
ATOM     68  C   UNL A   1      39.522  32.235  35.198  1.00  0.00     0.023 A 
ATOM     69  C   UNL A   1      38.696  31.622  36.158  1.00  0.00     0.012 A 
ATOM     70  C   UNL A   1      39.925  33.571  35.393  1.00  0.00     0.148 A 
ATOM     71  C   UNL A   1      38.262  32.330  37.279  1.00  0.00     0.002 A 
ATOM     72  C   UNL A   1      39.537  34.253  36.541  1.00  0.00     0.091 A 
ATOM     73  F   UNL A   1      40.688  34.150  34.455  1.00  0.00    -0.205 F 
ATOM     74  C   UNL A   1      38.692  33.640  37.477  1.00  0.00     0.022 A 
BRANCH  72  75
ATOM     75  S   UNL A   1      40.159  35.892  36.936  1.00  0.00     0.127 S 
ATOM     76  O   UNL A   1      39.505  36.160  38.213  1.00  0.00    -0.237 OA
ATOM     77  O   UNL A   1      41.601  35.659  37.020  1.00  0.00    -0.237 OA
ATOM     78  O   UNL A   1      39.755  36.740  35.823  1.00  0.00    -0.744 OA
ENDBRANCH  72  75
ENDBRANCH  44  68
BRANCH  56  79
ATOM     79  C   UNL A   1      45.050  28.170  33.916  1.00  0.00     0.023 A 
ATOM     80  C   UNL A   1      46.200  28.981  33.960  1.00  0.00     0.012 A 
ATOM     81  C   UNL A   1      44.985  27.015  34.720  1.00  0.00     0.148 A 
ATOM     82  C   UNL A   1      47.279  28.637  34.772  1.00  0.00     0.002 A 
ATOM     83  C   UNL A   1      46.045  26.701  35.560  1.00  0.00     0.091 A 
ATOM     84  F   UNL A   1      43.886  26.249  34.649  1.00  0.00    -0.205 F 
ATOM     85  C   UNL A   1      47.198  27.505  35.580  1.00  0.00     0.022 A 
BRANCH  83  86
ATOM     86  S   UNL A   1      45.998  25.317  36.703  1.00  0.00     0.127 S 
ATOM     87  O   UNL A   1      44.784  25.602  37.468  1.00  0.00    -0.237 OA
ATOM     88  O   UNL A   1      45.894  24.171  35.799  1.00  0.00    -0.237 OA
ATOM     89  O   UNL A   1      47.239  25.378  37.463  1.00  0.00    -0.744 OA
ENDBRANCH  83  86
ENDBRANCH  56  79
ENDBRANCH  30  31
ENDBRANCH  23  25
ENDBRANCH  22  23
ENDBRANCH  21  22
ENDBRANCH   1  21
TORSDOF 18
ENDMDL
