MODEL 1
REMARK VINA RESULT:     -11.5      0.000      0.000
REMARK SMILES CCN(CC)c1ccc([C@@H]2c3[nH]c4ccccc4c3C[C@@H](C(=O)OCCOC(=O)c3ccc(-c4c5nc(c(-c6cccc(S(=O)(=O)[O-])c6F)c6ccc([nH]6)c(-c6cccc(S(=O)(=O)[O-])c6F)c6nc(c(-c7cccc(S(=O)(=O)[O-])c7F)c7ccc4[nH]7)C=C6)C=C5)cc3)N2C(C)=O)cc1
REMARK SMILES IDX 25 1 24 2 22 3 23 4 21 5 10 6 11 7 93 8 12 9 19 10 13 11
REMARK SMILES IDX 18 13 20 14 14 15 17 16 15 17 16 18 9 19 6 20 7 21 98 22
REMARK SMILES IDX 8 23 97 24 3 25 2 26 1 27 4 28 5 29 94 30 95 31 96 32 26 33
REMARK SMILES IDX 27 34 28 35 29 36 30 37 31 38 92 39 32 40 91 41 33 42 34 43
REMARK SMILES IDX 35 44 85 45 36 46 90 47 84 48 86 49 37 50 89 51 83 52 82 53
REMARK SMILES IDX 38 55 70 56 50 57 69 58 51 59 54 60 68 61 87 62 52 63 53 64
REMARK SMILES IDX 67 66 88 67 55 68 39 69 40 70 48 71 41 72 43 73 49 74 42 75
REMARK SMILES IDX 44 76 45 77 46 78 47 79 71 80 72 81 80 82 73 83 75 84 81 85
REMARK SMILES IDX 74 86 76 87 77 88 78 89 79 90 56 91 57 92 65 93 58 94 60 95
REMARK SMILES IDX 66 96 59 97 61 98 62 99 63 100 64 101
REMARK H PARENT 12 12 86 54 54 65
REMARK Flexibility Score: inf
ROOT
ATOM      1  C   UNL A   1      33.692  30.810  27.791  1.00  0.00     0.274 C 
ENDROOT
BRANCH   1   2
ATOM      2  O   UNL A   1      33.208  29.904  26.780  1.00  0.00    -0.461 OA
BRANCH   2   3
ATOM      3  C   UNL A   1      33.928  28.834  26.375  1.00  0.00     0.329 C 
ATOM      4  O   UNL A   1      34.735  28.249  27.087  1.00  0.00    -0.250 OA
BRANCH   3   5
ATOM      5  C   UNL A   1      33.839  28.627  24.827  1.00  0.00     0.200 C 
ATOM      6  C   UNL A   1      32.609  26.433  24.815  1.00  0.00     0.163 C 
ATOM      7  C   UNL A   1      31.368  27.293  24.735  1.00  0.00     0.047 A 
ATOM      8  N   UNL A   1      33.623  27.281  24.163  1.00  0.00    -0.316 N 
ATOM      9  N   UNL A   1      30.066  26.880  24.748  1.00  0.00    -0.356 N 
ATOM     10  C   UNL A   1      31.357  28.671  24.512  1.00  0.00    -0.014 A 
ATOM     11  C   UNL A   1      29.328  27.809  24.042  1.00  0.00     0.046 A 
ATOM     12  H   UNL A   1      29.716  26.068  25.183  1.00  0.00     0.166 HD
ATOM     13  C   UNL A   1      30.085  28.980  23.982  1.00  0.00     0.003 A 
ATOM     14  C   UNL A   1      32.608  29.512  24.467  1.00  0.00     0.075 C 
ATOM     15  C   UNL A   1      28.099  27.683  23.394  1.00  0.00     0.026 A 
ATOM     16  C   UNL A   1      29.578  30.104  23.310  1.00  0.00     0.010 A 
ATOM     17  C   UNL A   1      27.664  28.776  22.638  1.00  0.00     0.002 A 
ATOM     18  C   UNL A   1      28.379  29.973  22.610  1.00  0.00     0.001 A 
BRANCH   6  19
ATOM     19  C   UNL A   1      32.603  24.969  24.402  1.00  0.00    -0.019 A 
ATOM     20  C   UNL A   1      32.691  22.132  24.107  1.00  0.00     0.037 A 
ATOM     21  C   UNL A   1      31.506  22.854  23.941  1.00  0.00     0.026 A 
ATOM     22  C   UNL A   1      33.857  22.882  24.269  1.00  0.00     0.026 A 
ATOM     23  C   UNL A   1      31.461  24.246  24.071  1.00  0.00     0.008 A 
ATOM     24  C   UNL A   1      33.819  24.273  24.407  1.00  0.00     0.008 A 
BRANCH  20  25
ATOM     25  N   UNL A   1      32.720  20.747  24.169  1.00  0.00    -0.372 N 
BRANCH  25  26
ATOM     26  C   UNL A   1      33.071  20.127  25.455  1.00  0.00     0.113 C 
ATOM     27  C   UNL A   1      32.996  18.608  25.416  1.00  0.00     0.027 C 
ENDBRANCH  25  26
BRANCH  25  28
ATOM     28  C   UNL A   1      32.114  19.906  23.138  1.00  0.00     0.113 C 
ATOM     29  C   UNL A   1      32.033  20.581  21.774  1.00  0.00     0.027 C 
ENDBRANCH  25  28
ENDBRANCH  20  25
ENDBRANCH   6  19
BRANCH   8  30
ATOM     30  C   UNL A   1      33.626  27.210  22.749  1.00  0.00     0.221 C 
ATOM     31  C   UNL A   1      34.118  28.405  21.982  1.00  0.00     0.114 C 
ATOM     32  O   UNL A   1      33.209  26.248  22.101  1.00  0.00    -0.275 OA
ENDBRANCH   8  30
ENDBRANCH   3   5
ENDBRANCH   2   3
ENDBRANCH   1   2
BRANCH   1  33
ATOM     33  C   UNL A   1      33.331  32.224  27.323  1.00  0.00     0.275 C 
BRANCH  33  34
ATOM     34  O   UNL A   1      32.808  32.904  28.474  1.00  0.00    -0.458 OA
BRANCH  34  35
ATOM     35  C   UNL A   1      33.284  34.138  28.738  1.00  0.00     0.338 C 
ATOM     36  O   UNL A   1      32.743  35.216  28.542  1.00  0.00    -0.246 OA
BRANCH  35  37
ATOM     37  C   UNL A   1      34.544  33.922  29.461  1.00  0.00     0.060 A 
ATOM     38  C   UNL A   1      34.504  33.148  30.629  1.00  0.00     0.016 A 
ATOM     39  C   UNL A   1      35.752  34.387  28.955  1.00  0.00     0.016 A 
ATOM     40  C   UNL A   1      35.676  32.775  31.267  1.00  0.00     0.010 A 
ATOM     41  C   UNL A   1      36.934  33.983  29.577  1.00  0.00     0.010 A 
ATOM     42  C   UNL A   1      36.901  33.151  30.714  1.00  0.00    -0.014 A 
BRANCH  42  43
ATOM     43  C   UNL A   1      38.159  32.625  31.284  1.00  0.00     0.031 A 
ATOM     44  C   UNL A   1      38.823  31.447  30.647  1.00  0.00     0.074 A 
ATOM     45  C   UNL A   1      38.650  33.177  32.410  1.00  0.00     0.049 A 
ATOM     46  N   UNL A   1      39.807  30.717  31.095  1.00  0.00    -0.248 NA
ATOM     47  C   UNL A   1      38.303  31.029  29.334  1.00  0.00     0.031 C 
ATOM     48  C   UNL A   1      38.087  34.344  33.094  1.00  0.00     0.029 A 
ATOM     49  N   UNL A   1      39.707  32.805  33.201  1.00  0.00    -0.354 N 
ATOM     50  C   UNL A   1      39.994  29.720  30.148  1.00  0.00     0.074 A 
ATOM     51  C   UNL A   1      39.030  29.946  29.094  1.00  0.00     0.031 C 
ATOM     52  C   UNL A   1      38.784  34.573  34.218  1.00  0.00     0.029 A 
ATOM     53  C   UNL A   1      39.801  33.538  34.362  1.00  0.00     0.049 A 
ATOM     54  H   UNL A   1      40.335  32.086  32.962  1.00  0.00     0.167 HD
ATOM     55  C   UNL A   1      40.893  28.709  30.165  1.00  0.00     0.034 A 
ATOM     56  C   UNL A   1      40.584  33.361  35.443  1.00  0.00     0.034 A 
ATOM     57  C   UNL A   1      41.860  28.517  31.212  1.00  0.00     0.049 A 
ATOM     58  C   UNL A   1      41.552  32.209  35.449  1.00  0.00     0.074 A 
ATOM     59  C   UNL A   1      42.843  27.548  31.309  1.00  0.00     0.029 A 
ATOM     60  N   UNL A   1      41.961  29.305  32.349  1.00  0.00    -0.354 N 
ATOM     61  N   UNL A   1      41.776  31.318  34.513  1.00  0.00    -0.248 NA
ATOM     62  C   UNL A   1      42.383  32.046  36.648  1.00  0.00     0.031 C 
ATOM     63  C   UNL A   1      43.526  27.741  32.515  1.00  0.00     0.029 A 
ATOM     64  C   UNL A   1      42.980  28.840  33.161  1.00  0.00     0.049 A 
ATOM     65  H   UNL A   1      41.391  30.082  32.549  1.00  0.00     0.167 HD
ATOM     66  C   UNL A   1      42.787  30.499  35.000  1.00  0.00     0.074 A 
ATOM     67  C   UNL A   1      43.150  31.020  36.304  1.00  0.00     0.031 C 
ATOM     68  C   UNL A   1      43.351  29.404  34.434  1.00  0.00     0.034 A 
BRANCH  55  69
ATOM     69  C   UNL A   1      40.875  27.744  29.012  1.00  0.00     0.023 A 
ATOM     70  C   UNL A   1      39.916  26.713  28.979  1.00  0.00     0.012 A 
ATOM     71  C   UNL A   1      41.783  27.881  27.945  1.00  0.00     0.148 A 
ATOM     72  C   UNL A   1      39.876  25.815  27.913  1.00  0.00     0.002 A 
ATOM     73  C   UNL A   1      41.714  27.006  26.867  1.00  0.00     0.091 A 
ATOM     74  F   UNL A   1      42.707  28.851  28.011  1.00  0.00    -0.205 F 
ATOM     75  C   UNL A   1      40.768  25.967  26.854  1.00  0.00     0.022 A 
BRANCH  73  76
ATOM     76  S   UNL A   1      42.776  27.159  25.427  1.00  0.00     0.127 S 
ATOM     77  O   UNL A   1      44.097  27.269  26.045  1.00  0.00    -0.237 OA
ATOM     78  O   UNL A   1      42.533  25.897  24.727  1.00  0.00    -0.237 OA
ATOM     79  O   UNL A   1      42.318  28.344  24.716  1.00  0.00    -0.744 OA
ENDBRANCH  73  76
ENDBRANCH  55  69
BRANCH  56  80
ATOM     80  C   UNL A   1      40.485  34.297  36.599  1.00  0.00     0.023 A 
ATOM     81  C   UNL A   1      40.931  35.624  36.452  1.00  0.00     0.012 A 
ATOM     82  C   UNL A   1      39.919  33.895  37.826  1.00  0.00     0.148 A 
ATOM     83  C   UNL A   1      40.834  36.528  37.511  1.00  0.00     0.002 A 
ATOM     84  C   UNL A   1      39.775  34.815  38.858  1.00  0.00     0.091 A 
ATOM     85  F   UNL A   1      39.522  32.622  37.957  1.00  0.00    -0.205 F 
ATOM     86  C   UNL A   1      40.246  36.128  38.708  1.00  0.00     0.022 A 
BRANCH  84  87
ATOM     87  S   UNL A   1      38.905  34.421  40.381  1.00  0.00     0.127 S 
ATOM     88  O   UNL A   1      38.694  35.745  40.956  1.00  0.00    -0.237 OA
ATOM     89  O   UNL A   1      37.696  33.765  39.881  1.00  0.00    -0.237 OA
ATOM     90  O   UNL A   1      39.798  33.539  41.122  1.00  0.00    -0.744 OA
ENDBRANCH  84  87
ENDBRANCH  56  80
BRANCH  68  91
ATOM     91  C   UNL A   1      44.431  28.704  35.214  1.00  0.00     0.023 A 
ATOM     92  C   UNL A   1      45.774  29.093  35.043  1.00  0.00     0.012 A 
ATOM     93  C   UNL A   1      44.109  27.715  36.164  1.00  0.00     0.148 A 
ATOM     94  C   UNL A   1      46.785  28.488  35.788  1.00  0.00     0.002 A 
ATOM     95  C   UNL A   1      45.117  27.150  36.935  1.00  0.00     0.091 A 
ATOM     96  F   UNL A   1      42.827  27.345  36.295  1.00  0.00    -0.205 F 
ATOM     97  C   UNL A   1      46.457  27.527  36.741  1.00  0.00     0.022 A 
BRANCH  95  98
ATOM     98  S   UNL A   1      44.775  25.973  38.247  1.00  0.00     0.127 S 
ATOM     99  O   UNL A   1      44.315  24.809  37.492  1.00  0.00    -0.237 OA
ATOM    100  O   UNL A   1      46.087  25.814  38.875  1.00  0.00    -0.237 OA
ATOM    101  O   UNL A   1      43.774  26.604  39.098  1.00  0.00    -0.744 OA
ENDBRANCH  95  98
ENDBRANCH  68  91
ENDBRANCH  42  43
ENDBRANCH  35  37
ENDBRANCH  34  35
ENDBRANCH  33  34
ENDBRANCH   1  33
TORSDOF 19
ENDMDL
MODEL 2
REMARK VINA RESULT:     -10.8      7.545     14.067
REMARK SMILES CCN(CC)c1ccc([C@@H]2c3[nH]c4ccccc4c3C[C@@H](C(=O)OCCOC(=O)c3ccc(-c4c5nc(c(-c6cccc(S(=O)(=O)[O-])c6F)c6ccc([nH]6)c(-c6cccc(S(=O)(=O)[O-])c6F)c6nc(c(-c7cccc(S(=O)(=O)[O-])c7F)c7ccc4[nH]7)C=C6)C=C5)cc3)N2C(C)=O)cc1
REMARK SMILES IDX 25 1 24 2 22 3 23 4 21 5 10 6 11 7 93 8 12 9 19 10 13 11
REMARK SMILES IDX 18 13 20 14 14 15 17 16 15 17 16 18 9 19 6 20 7 21 98 22
REMARK SMILES IDX 8 23 97 24 3 25 2 26 1 27 4 28 5 29 94 30 95 31 96 32 26 33
REMARK SMILES IDX 27 34 28 35 29 36 30 37 31 38 92 39 32 40 91 41 33 42 34 43
REMARK SMILES IDX 35 44 85 45 36 46 90 47 84 48 86 49 37 50 89 51 83 52 82 53
REMARK SMILES IDX 38 55 70 56 50 57 69 58 51 59 54 60 68 61 87 62 52 63 53 64
REMARK SMILES IDX 67 66 88 67 55 68 39 69 40 70 48 71 41 72 43 73 49 74 42 75
REMARK SMILES IDX 44 76 45 77 46 78 47 79 71 80 72 81 80 82 73 83 75 84 81 85
REMARK SMILES IDX 74 86 76 87 77 88 78 89 79 90 56 91 57 92 65 93 58 94 60 95
REMARK SMILES IDX 66 96 59 97 61 98 62 99 63 100 64 101
REMARK H PARENT 12 12 86 54 54 65
REMARK Flexibility Score: inf
ROOT
ATOM      1  C   UNL A   1      48.194  38.997  30.540  1.00  0.00     0.274 C 
ENDROOT
BRANCH   1   2
ATOM      2  O   UNL A   1      46.951  39.657  30.847  1.00  0.00    -0.461 OA
BRANCH   2   3
ATOM      3  C   UNL A   1      46.084  39.159  31.757  1.00  0.00     0.329 C 
ATOM      4  O   UNL A   1      46.363  38.264  32.545  1.00  0.00    -0.250 OA
BRANCH   3   5
ATOM      5  C   UNL A   1      44.619  39.635  31.482  1.00  0.00     0.200 C 
ATOM      6  C   UNL A   1      44.896  40.323  29.078  1.00  0.00     0.163 C 
ATOM      7  C   UNL A   1      44.455  38.909  28.773  1.00  0.00     0.047 A 
ATOM      8  N   UNL A   1      44.233  40.588  30.367  1.00  0.00    -0.316 N 
ATOM      9  N   UNL A   1      44.366  38.310  27.547  1.00  0.00    -0.356 N 
ATOM     10  C   UNL A   1      43.944  38.006  29.706  1.00  0.00    -0.014 A 
ATOM     11  C   UNL A   1      43.379  37.348  27.626  1.00  0.00     0.046 A 
ATOM     12  H   UNL A   1      44.908  38.525  26.753  1.00  0.00     0.166 HD
ATOM     13  C   UNL A   1      43.182  37.066  28.978  1.00  0.00     0.003 A 
ATOM     14  C   UNL A   1      43.904  38.282  31.188  1.00  0.00     0.075 C 
ATOM     15  C   UNL A   1      42.601  36.768  26.622  1.00  0.00     0.026 A 
ATOM     16  C   UNL A   1      42.219  36.117  29.359  1.00  0.00     0.010 A 
ATOM     17  C   UNL A   1      41.575  35.911  27.030  1.00  0.00     0.002 A 
ATOM     18  C   UNL A   1      41.397  35.574  28.372  1.00  0.00     0.001 A 
BRANCH   6  19
ATOM     19  C   UNL A   1      44.807  41.435  28.045  1.00  0.00    -0.019 A 
ATOM     20  C   UNL A   1      45.100  43.378  25.975  1.00  0.00     0.037 A 
ATOM     21  C   UNL A   1      44.173  42.338  25.883  1.00  0.00     0.026 A 
ATOM     22  C   UNL A   1      45.763  43.512  27.197  1.00  0.00     0.026 A 
ATOM     23  C   UNL A   1      44.016  41.391  26.900  1.00  0.00     0.008 A 
ATOM     24  C   UNL A   1      45.617  42.566  28.215  1.00  0.00     0.008 A 
BRANCH  20  25
ATOM     25  N   UNL A   1      45.401  44.209  24.906  1.00  0.00    -0.372 N 
BRANCH  25  26
ATOM     26  C   UNL A   1      46.692  44.010  24.228  1.00  0.00     0.113 C 
ATOM     27  C   UNL A   1      47.636  45.190  24.404  1.00  0.00     0.027 C 
ENDBRANCH  25  26
BRANCH  25  28
ATOM     28  C   UNL A   1      44.386  45.021  24.237  1.00  0.00     0.113 C 
ATOM     29  C   UNL A   1      43.964  44.469  22.881  1.00  0.00     0.027 C 
ENDBRANCH  25  28
ENDBRANCH  20  25
ENDBRANCH   6  19
BRANCH   8  30
ATOM     30  C   UNL A   1      42.882  40.998  30.259  1.00  0.00     0.221 C 
ATOM     31  C   UNL A   1      42.392  42.073  31.187  1.00  0.00     0.114 C 
ATOM     32  O   UNL A   1      42.065  40.499  29.482  1.00  0.00    -0.275 OA
ENDBRANCH   8  30
ENDBRANCH   3   5
ENDBRANCH   2   3
ENDBRANCH   1   2
BRANCH   1  33
ATOM     33  C   UNL A   1      48.133  38.614  29.057  1.00  0.00     0.275 C 
BRANCH  33  34
ATOM     34  O   UNL A   1      47.467  37.344  28.999  1.00  0.00    -0.458 OA
BRANCH  34  35
ATOM     35  C   UNL A   1      47.349  36.756  27.791  1.00  0.00     0.338 C 
ATOM     36  O   UNL A   1      47.874  37.081  26.737  1.00  0.00    -0.246 OA
BRANCH  35  37
ATOM     37  C   UNL A   1      46.567  35.536  28.028  1.00  0.00     0.060 A 
ATOM     38  C   UNL A   1      45.738  35.079  26.995  1.00  0.00     0.016 A 
ATOM     39  C   UNL A   1      46.716  34.803  29.200  1.00  0.00     0.016 A 
ATOM     40  C   UNL A   1      45.100  33.853  27.094  1.00  0.00     0.010 A 
ATOM     41  C   UNL A   1      46.101  33.553  29.286  1.00  0.00     0.010 A 
ATOM     42  C   UNL A   1      45.318  33.061  28.223  1.00  0.00    -0.014 A 
BRANCH  42  43
ATOM     43  C   UNL A   1      44.783  31.685  28.273  1.00  0.00     0.031 A 
ATOM     44  C   UNL A   1      45.500  30.586  27.559  1.00  0.00     0.074 A 
ATOM     45  C   UNL A   1      43.616  31.459  28.907  1.00  0.00     0.049 A 
ATOM     46  N   UNL A   1      45.102  29.368  27.314  1.00  0.00    -0.248 NA
ATOM     47  C   UNL A   1      46.843  30.903  27.044  1.00  0.00     0.031 C 
ATOM     48  C   UNL A   1      42.851  32.461  29.654  1.00  0.00     0.029 A 
ATOM     49  N   UNL A   1      42.849  30.325  28.991  1.00  0.00    -0.354 N 
ATOM     50  C   UNL A   1      46.118  28.785  26.570  1.00  0.00     0.074 A 
ATOM     51  C   UNL A   1      47.159  29.779  26.416  1.00  0.00     0.031 C 
ATOM     52  C   UNL A   1      41.710  31.907  30.091  1.00  0.00     0.029 A 
ATOM     53  C   UNL A   1      41.637  30.533  29.609  1.00  0.00     0.049 A 
ATOM     54  H   UNL A   1      43.137  29.450  28.644  1.00  0.00     0.167 HD
ATOM     55  C   UNL A   1      46.171  27.531  26.065  1.00  0.00     0.034 A 
ATOM     56  C   UNL A   1      40.568  29.723  29.724  1.00  0.00     0.034 A 
ATOM     57  C   UNL A   1      45.136  26.550  26.252  1.00  0.00     0.049 A 
ATOM     58  C   UNL A   1      40.642  28.345  29.125  1.00  0.00     0.074 A 
ATOM     59  C   UNL A   1      45.105  25.237  25.817  1.00  0.00     0.029 A 
ATOM     60  N   UNL A   1      43.944  26.777  26.924  1.00  0.00    -0.354 N 
ATOM     61  N   UNL A   1      41.639  27.774  28.493  1.00  0.00    -0.248 NA
ATOM     62  C   UNL A   1      39.453  27.494  29.267  1.00  0.00     0.031 C 
ATOM     63  C   UNL A   1      43.885  24.677  26.210  1.00  0.00     0.029 A 
ATOM     64  C   UNL A   1      43.163  25.635  26.906  1.00  0.00     0.049 A 
ATOM     65  H   UNL A   1      43.690  27.627  27.351  1.00  0.00     0.167 HD
ATOM     66  C   UNL A   1      41.208  26.493  28.177  1.00  0.00     0.074 A 
ATOM     67  C   UNL A   1      39.868  26.361  28.715  1.00  0.00     0.031 C 
ATOM     68  C   UNL A   1      41.850  25.517  27.488  1.00  0.00     0.034 A 
BRANCH  55  69
ATOM     69  C   UNL A   1      47.392  27.152  25.274  1.00  0.00     0.023 A 
ATOM     70  C   UNL A   1      48.383  26.342  25.862  1.00  0.00     0.012 A 
ATOM     71  C   UNL A   1      47.540  27.567  23.936  1.00  0.00     0.148 A 
ATOM     72  C   UNL A   1      49.516  25.972  25.140  1.00  0.00     0.002 A 
ATOM     73  C   UNL A   1      48.655  27.163  23.210  1.00  0.00     0.091 A 
ATOM     74  F   UNL A   1      46.599  28.362  23.405  1.00  0.00    -0.205 F 
ATOM     75  C   UNL A   1      49.647  26.374  23.813  1.00  0.00     0.022 A 
BRANCH  73  76
ATOM     76  S   UNL A   1      48.881  27.576  21.477  1.00  0.00     0.127 S 
ATOM     77  O   UNL A   1      49.438  28.926  21.565  1.00  0.00    -0.237 OA
ATOM     78  O   UNL A   1      49.831  26.553  21.037  1.00  0.00    -0.237 OA
ATOM     79  O   UNL A   1      47.563  27.482  20.867  1.00  0.00    -0.744 OA
ENDBRANCH  73  76
ENDBRANCH  55  69
BRANCH  56  80
ATOM     80  C   UNL A   1      39.347  30.193  30.438  1.00  0.00     0.023 A 
ATOM     81  C   UNL A   1      39.283  30.086  31.840  1.00  0.00     0.012 A 
ATOM     82  C   UNL A   1      38.270  30.782  29.746  1.00  0.00     0.148 A 
ATOM     83  C   UNL A   1      38.160  30.535  32.538  1.00  0.00     0.002 A 
ATOM     84  C   UNL A   1      37.179  31.278  30.451  1.00  0.00     0.091 A 
ATOM     85  F   UNL A   1      38.337  30.856  28.409  1.00  0.00    -0.205 F 
ATOM     86  C   UNL A   1      37.115  31.142  31.845  1.00  0.00     0.022 A 
BRANCH  84  87
ATOM     87  S   UNL A   1      35.856  32.195  29.651  1.00  0.00     0.127 S 
ATOM     88  O   UNL A   1      35.463  31.282  28.582  1.00  0.00    -0.237 OA
ATOM     89  O   UNL A   1      34.881  32.332  30.734  1.00  0.00    -0.237 OA
ATOM     90  O   UNL A   1      36.456  33.453  29.227  1.00  0.00    -0.744 OA
ENDBRANCH  84  87
ENDBRANCH  56  80
BRANCH  68  91
ATOM     91  C   UNL A   1      41.118  24.218  27.289  1.00  0.00     0.023 A 
ATOM     92  C   UNL A   1      41.600  23.048  27.908  1.00  0.00     0.012 A 
ATOM     93  C   UNL A   1      39.918  24.171  26.552  1.00  0.00     0.148 A 
ATOM     94  C   UNL A   1      40.913  21.842  27.773  1.00  0.00     0.002 A 
ATOM     95  C   UNL A   1      39.216  22.976  26.461  1.00  0.00     0.091 A 
ATOM     96  F   UNL A   1      39.490  25.292  25.954  1.00  0.00    -0.205 F 
ATOM     97  C   UNL A   1      39.716  21.809  27.061  1.00  0.00     0.022 A 
BRANCH  95  98
ATOM     98  S   UNL A   1      37.621  22.863  25.642  1.00  0.00     0.127 S 
ATOM     99  O   UNL A   1      37.369  21.424  25.677  1.00  0.00    -0.237 OA
ATOM    100  O   UNL A   1      36.761  23.655  26.522  1.00  0.00    -0.237 OA
ATOM    101  O   UNL A   1      37.812  23.434  24.315  1.00  0.00    -0.744 OA
ENDBRANCH  95  98
ENDBRANCH  68  91
ENDBRANCH  42  43
ENDBRANCH  35  37
ENDBRANCH  34  35
ENDBRANCH  33  34
ENDBRANCH   1  33
TORSDOF 19
ENDMDL
MODEL 3
REMARK VINA RESULT:     -10.7      5.813     12.674
REMARK SMILES CCN(CC)c1ccc([C@@H]2c3[nH]c4ccccc4c3C[C@@H](C(=O)OCCOC(=O)c3ccc(-c4c5nc(c(-c6cccc(S(=O)(=O)[O-])c6F)c6ccc([nH]6)c(-c6cccc(S(=O)(=O)[O-])c6F)c6nc(c(-c7cccc(S(=O)(=O)[O-])c7F)c7ccc4[nH]7)C=C6)C=C5)cc3)N2C(C)=O)cc1
REMARK SMILES IDX 25 1 24 2 22 3 23 4 21 5 10 6 11 7 93 8 12 9 19 10 13 11
REMARK SMILES IDX 18 13 20 14 14 15 17 16 15 17 16 18 9 19 6 20 7 21 98 22
REMARK SMILES IDX 8 23 97 24 3 25 2 26 1 27 4 28 5 29 94 30 95 31 96 32 26 33
REMARK SMILES IDX 27 34 28 35 29 36 30 37 31 38 92 39 32 40 91 41 33 42 34 43
REMARK SMILES IDX 35 44 85 45 36 46 90 47 84 48 86 49 37 50 89 51 83 52 82 53
REMARK SMILES IDX 38 55 70 56 50 57 69 58 51 59 54 60 68 61 87 62 52 63 53 64
REMARK SMILES IDX 67 66 88 67 55 68 39 69 40 70 48 71 41 72 43 73 49 74 42 75
REMARK SMILES IDX 44 76 45 77 46 78 47 79 71 80 72 81 80 82 73 83 75 84 81 85
REMARK SMILES IDX 74 86 76 87 77 88 78 89 79 90 56 91 57 92 65 93 58 94 60 95
REMARK SMILES IDX 66 96 59 97 61 98 62 99 63 100 64 101
REMARK H PARENT 12 12 86 54 54 65
REMARK Flexibility Score: inf
ROOT
ATOM      1  C   UNL A   1      35.459  34.583  33.997  1.00  0.00     0.274 C 
ENDROOT
BRANCH   1   2
ATOM      2  O   UNL A   1      36.728  35.163  33.637  1.00  0.00    -0.461 OA
BRANCH   2   3
ATOM      3  C   UNL A   1      37.849  34.416  33.529  1.00  0.00     0.329 C 
ATOM      4  O   UNL A   1      38.439  34.223  32.473  1.00  0.00    -0.250 OA
BRANCH   3   5
ATOM      5  C   UNL A   1      38.123  33.591  34.829  1.00  0.00     0.200 C 
ATOM      6  C   UNL A   1      40.453  32.808  34.288  1.00  0.00     0.163 C 
ATOM      7  C   UNL A   1      40.888  34.053  35.030  1.00  0.00     0.047 A 
ATOM      8  N   UNL A   1      39.165  32.493  34.932  1.00  0.00    -0.316 N 
ATOM      9  N   UNL A   1      42.161  34.521  35.197  1.00  0.00    -0.356 N 
ATOM     10  C   UNL A   1      40.048  34.879  35.779  1.00  0.00    -0.014 A 
ATOM     11  C   UNL A   1      42.191  35.227  36.383  1.00  0.00     0.046 A 
ATOM     12  H   UNL A   1      42.919  34.380  34.584  1.00  0.00     0.166 HD
ATOM     13  C   UNL A   1      40.874  35.556  36.703  1.00  0.00     0.003 A 
ATOM     14  C   UNL A   1      38.550  34.713  35.824  1.00  0.00     0.075 C 
ATOM     15  C   UNL A   1      43.261  35.532  37.225  1.00  0.00     0.026 A 
ATOM     16  C   UNL A   1      40.601  36.279  37.875  1.00  0.00     0.010 A 
ATOM     17  C   UNL A   1      42.955  36.154  38.440  1.00  0.00     0.002 A 
ATOM     18  C   UNL A   1      41.652  36.539  38.754  1.00  0.00     0.001 A 
BRANCH   6  19
ATOM     19  C   UNL A   1      41.391  31.632  34.069  1.00  0.00    -0.019 A 
ATOM     20  C   UNL A   1      43.130  29.553  33.176  1.00  0.00     0.037 A 
ATOM     21  C   UNL A   1      43.585  30.599  33.982  1.00  0.00     0.026 A 
ATOM     22  C   UNL A   1      41.752  29.491  32.959  1.00  0.00     0.026 A 
ATOM     23  C   UNL A   1      42.734  31.613  34.434  1.00  0.00     0.008 A 
ATOM     24  C   UNL A   1      40.896  30.504  33.401  1.00  0.00     0.008 A 
BRANCH  20  25
ATOM     25  N   UNL A   1      43.989  28.650  32.567  1.00  0.00    -0.372 N 
BRANCH  25  26
ATOM     26  C   UNL A   1      43.903  27.241  32.978  1.00  0.00     0.113 C 
ATOM     27  C   UNL A   1      43.850  27.071  34.490  1.00  0.00     0.027 C 
ENDBRANCH  25  26
BRANCH  25  28
ATOM     28  C   UNL A   1      44.718  28.969  31.341  1.00  0.00     0.113 C 
ATOM     29  C   UNL A   1      45.902  28.045  31.081  1.00  0.00     0.027 C 
ENDBRANCH  25  28
ENDBRANCH  20  25
ENDBRANCH   6  19
BRANCH   8  30
ATOM     30  C   UNL A   1      39.276  31.771  36.145  1.00  0.00     0.221 C 
ATOM     31  C   UNL A   1      38.346  30.612  36.367  1.00  0.00     0.114 C 
ATOM     32  O   UNL A   1      40.058  32.057  37.054  1.00  0.00    -0.275 OA
ENDBRANCH   8  30
ENDBRANCH   3   5
ENDBRANCH   2   3
ENDBRANCH   1   2
BRANCH   1  33
ATOM     33  C   UNL A   1      34.725  34.286  32.685  1.00  0.00     0.275 C 
BRANCH  33  34
ATOM     34  O   UNL A   1      34.932  32.891  32.418  1.00  0.00    -0.458 OA
BRANCH  34  35
ATOM     35  C   UNL A   1      34.938  32.496  31.129  1.00  0.00     0.338 C 
ATOM     36  O   UNL A   1      34.023  32.544  30.319  1.00  0.00    -0.246 OA
BRANCH  35  37
ATOM     37  C   UNL A   1      36.330  32.130  30.841  1.00  0.00     0.060 A 
ATOM     38  C   UNL A   1      36.954  31.208  31.692  1.00  0.00     0.016 A 
ATOM     39  C   UNL A   1      36.979  32.607  29.708  1.00  0.00     0.016 A 
ATOM     40  C   UNL A   1      38.207  30.702  31.385  1.00  0.00     0.010 A 
ATOM     41  C   UNL A   1      38.226  32.072  29.380  1.00  0.00     0.010 A 
ATOM     42  C   UNL A   1      38.828  31.097  30.198  1.00  0.00    -0.014 A 
BRANCH  42  43
ATOM     43  C   UNL A   1      40.084  30.445  29.772  1.00  0.00     0.031 A 
ATOM     44  C   UNL A   1      41.359  31.225  29.769  1.00  0.00     0.074 A 
ATOM     45  C   UNL A   1      40.044  29.174  29.328  1.00  0.00     0.049 A 
ATOM     46  N   UNL A   1      42.514  30.909  29.253  1.00  0.00    -0.248 NA
ATOM     47  C   UNL A   1      41.325  32.541  30.428  1.00  0.00     0.031 C 
ATOM     48  C   UNL A   1      38.853  28.320  29.313  1.00  0.00     0.029 A 
ATOM     49  N   UNL A   1      41.020  28.392  28.766  1.00  0.00    -0.354 N 
ATOM     50  C   UNL A   1      43.335  32.005  29.475  1.00  0.00     0.074 A 
ATOM     51  C   UNL A   1      42.549  32.991  30.185  1.00  0.00     0.031 C 
ATOM     52  C   UNL A   1      39.160  27.146  28.740  1.00  0.00     0.029 A 
ATOM     53  C   UNL A   1      40.548  27.187  28.297  1.00  0.00     0.049 A 
ATOM     54  H   UNL A   1      41.964  28.665  28.703  1.00  0.00     0.167 HD
ATOM     55  C   UNL A   1      44.629  32.167  29.114  1.00  0.00     0.034 A 
ATOM     56  C   UNL A   1      41.154  26.246  27.548  1.00  0.00     0.034 A 
ATOM     57  C   UNL A   1      45.400  31.164  28.431  1.00  0.00     0.049 A 
ATOM     58  C   UNL A   1      42.583  26.467  27.135  1.00  0.00     0.074 A 
ATOM     59  C   UNL A   1      46.730  31.209  28.053  1.00  0.00     0.029 A 
ATOM     60  N   UNL A   1      44.907  29.936  28.014  1.00  0.00    -0.354 N 
ATOM     61  N   UNL A   1      43.377  27.472  27.417  1.00  0.00    -0.248 NA
ATOM     62  C   UNL A   1      43.207  25.420  26.313  1.00  0.00     0.031 C 
ATOM     63  C   UNL A   1      47.035  30.014  27.392  1.00  0.00     0.029 A 
ATOM     64  C   UNL A   1      45.900  29.218  27.373  1.00  0.00     0.049 A 
ATOM     65  H   UNL A   1      43.985  29.621  28.155  1.00  0.00     0.167 HD
ATOM     66  C   UNL A   1      44.597  27.174  26.827  1.00  0.00     0.074 A 
ATOM     67  C   UNL A   1      44.447  25.878  26.194  1.00  0.00     0.031 C 
ATOM     68  C   UNL A   1      45.735  27.910  26.790  1.00  0.00     0.034 A 
BRANCH  55  69
ATOM     69  C   UNL A   1      45.289  33.472  29.464  1.00  0.00     0.023 A 
ATOM     70  C   UNL A   1      45.892  33.634  30.727  1.00  0.00     0.012 A 
ATOM     71  C   UNL A   1      45.344  34.524  28.529  1.00  0.00     0.148 A 
ATOM     72  C   UNL A   1      46.518  34.833  31.065  1.00  0.00     0.002 A 
ATOM     73  C   UNL A   1      46.002  35.703  28.859  1.00  0.00     0.091 A 
ATOM     74  F   UNL A   1      44.738  34.359  27.344  1.00  0.00    -0.205 F 
ATOM     75  C   UNL A   1      46.581  35.863  30.129  1.00  0.00     0.022 A 
BRANCH  73  76
ATOM     76  S   UNL A   1      46.193  37.062  27.699  1.00  0.00     0.127 S 
ATOM     77  O   UNL A   1      45.125  37.965  28.125  1.00  0.00    -0.237 OA
ATOM     78  O   UNL A   1      47.546  37.534  27.997  1.00  0.00    -0.237 OA
ATOM     79  O   UNL A   1      46.031  36.482  26.374  1.00  0.00    -0.744 OA
ENDBRANCH  73  76
ENDBRANCH  55  69
BRANCH  56  80
ATOM     80  C   UNL A   1      40.413  25.015  27.150  1.00  0.00     0.023 A 
ATOM     81  C   UNL A   1      39.189  25.138  26.467  1.00  0.00     0.012 A 
ATOM     82  C   UNL A   1      40.930  23.729  27.408  1.00  0.00     0.148 A 
ATOM     83  C   UNL A   1      38.482  24.003  26.065  1.00  0.00     0.002 A 
ATOM     84  C   UNL A   1      40.248  22.604  26.956  1.00  0.00     0.091 A 
ATOM     85  F   UNL A   1      42.085  23.630  28.080  1.00  0.00    -0.205 F 
ATOM     86  C   UNL A   1      39.016  22.738  26.298  1.00  0.00     0.022 A 
BRANCH  84  87
ATOM     87  S   UNL A   1      40.933  20.948  27.094  1.00  0.00     0.127 S 
ATOM     88  O   UNL A   1      42.269  21.130  26.536  1.00  0.00    -0.237 OA
ATOM     89  O   UNL A   1      40.894  20.720  28.539  1.00  0.00    -0.237 OA
ATOM     90  O   UNL A   1      40.035  20.091  26.331  1.00  0.00    -0.744 OA
ENDBRANCH  84  87
ENDBRANCH  56  80
BRANCH  68  91
ATOM     91  C   UNL A   1      46.911  27.325  26.055  1.00  0.00     0.023 A 
ATOM     92  C   UNL A   1      47.706  26.347  26.684  1.00  0.00     0.012 A 
ATOM     93  C   UNL A   1      47.184  27.691  24.723  1.00  0.00     0.148 A 
ATOM     94  C   UNL A   1      48.773  25.761  26.006  1.00  0.00     0.002 A 
ATOM     95  C   UNL A   1      48.220  27.069  24.039  1.00  0.00     0.091 A 
ATOM     96  F   UNL A   1      46.428  28.640  24.152  1.00  0.00    -0.205 F 
ATOM     97  C   UNL A   1      49.023  26.112  24.681  1.00  0.00     0.022 A 
BRANCH  95  98
ATOM     98  S   UNL A   1      48.554  27.394  22.304  1.00  0.00     0.127 S 
ATOM     99  O   UNL A   1      49.712  28.282  22.384  1.00  0.00    -0.237 OA
ATOM    100  O   UNL A   1      48.845  26.056  21.787  1.00  0.00    -0.237 OA
ATOM    101  O   UNL A   1      47.340  27.994  21.769  1.00  0.00    -0.744 OA
ENDBRANCH  95  98
ENDBRANCH  68  91
ENDBRANCH  42  43
ENDBRANCH  35  37
ENDBRANCH  34  35
ENDBRANCH  33  34
ENDBRANCH   1  33
TORSDOF 19
ENDMDL
