MODEL 1
REMARK VINA RESULT:     -12.6      0.000      0.000
REMARK SMILES O=C(CNC(=O)[C@@H](CC1=c2ccccc2=NC1)N1C(=O)N=C2C=CC=C[C@@H]2C1=O)OCCOC(=O)c1ccc(-c2c3nc(c(-c4cccc(S(=O)(=O)[O-])c4F)c4ccc([nH]4)c(-c4cccc(S(=O)(=O)[O-])c4F)c4nc(c(-c5cccc(S(=O)(=O)[O-])c5F)c5ccc2[nH]5)C=C4)C=C3)cc1
REMARK SMILES IDX 31 1 30 2 2 3 1 4 3 5 4 6 5 7 6 9 7 10 8 11 9 12 10 13 17 14
REMARK SMILES IDX 11 15 15 16 16 17 12 18 14 19 13 20 18 21 19 22 28 23 21 24
REMARK SMILES IDX 20 25 27 26 29 27 22 28 26 29 23 30 25 31 24 32 32 33 33 34
REMARK SMILES IDX 34 35 35 36 36 37 37 38 98 39 38 40 97 41 39 42 40 43 41 44
REMARK SMILES IDX 91 45 42 46 96 47 90 48 92 49 43 50 95 51 89 52 88 53 44 55
REMARK SMILES IDX 76 56 56 57 75 58 57 59 60 60 74 61 93 62 58 63 59 64 73 66
REMARK SMILES IDX 94 67 61 68 45 69 46 70 54 71 47 72 49 73 55 74 48 75 50 76
REMARK SMILES IDX 51 77 52 78 53 79 77 80 78 81 86 82 79 83 81 84 87 85 80 86
REMARK SMILES IDX 82 87 83 88 84 89 85 90 62 91 63 92 71 93 64 94 66 95 72 96
REMARK SMILES IDX 65 97 67 98 68 99 69 100 70 101
REMARK H PARENT 4 8 92 54 60 65
REMARK Flexibility Score: inf
ROOT
ATOM      1  C   UNL A   1      42.069  35.015  33.404  1.00  0.00     0.274 C 
ENDROOT
BRANCH   1   2
ATOM      2  O   UNL A   1      42.704  34.830  31.894  1.00  0.00    -0.461 OA
BRANCH   2   3
ATOM      3  C   UNL A   1      43.348  35.321  30.737  1.00  0.00     0.325 C 
ATOM      4  O   UNL A   1      43.437  36.551  30.619  1.00  0.00    -0.250 OA
BRANCH   3   5
ATOM      5  C   UNL A   1      43.708  34.440  29.402  1.00  0.00     0.238 C 
BRANCH   5   6
ATOM      6  N   UNL A   1      42.913  34.683  28.172  1.00  0.00    -0.343 N 
ATOM      7  C   UNL A   1      43.221  35.154  26.903  1.00  0.00     0.244 C 
ATOM      8  H   UNL A   1      41.959  34.463  28.279  1.00  0.00     0.164 HD
ATOM      9  O   UNL A   1      42.277  35.345  26.128  1.00  0.00    -0.273 OA
BRANCH   7  10
ATOM     10  C   UNL A   1      44.719  35.378  26.427  1.00  0.00     0.188 C 
BRANCH  10  11
ATOM     11  C   UNL A   1      44.921  37.135  26.873  1.00  0.00     0.069 C 
BRANCH  11  12
ATOM     12  C   UNL A   1      44.583  38.980  26.664  1.00  0.00    -0.037 C 
ATOM     13  C   UNL A   1      43.519  39.894  26.794  1.00  0.00     0.001 A 
ATOM     14  C   UNL A   1      45.734  39.935  26.316  1.00  0.00     0.174 C 
ATOM     15  C   UNL A   1      42.097  39.967  27.233  1.00  0.00     0.010 A 
ATOM     16  C   UNL A   1      43.899  40.948  25.824  1.00  0.00     0.065 A 
ATOM     17  N   UNL A   1      45.158  41.090  25.585  1.00  0.00    -0.280 NA
ATOM     18  C   UNL A   1      41.156  40.578  26.488  1.00  0.00     0.001 A 
ATOM     19  C   UNL A   1      42.807  41.566  25.014  1.00  0.00     0.028 A 
ATOM     20  C   UNL A   1      41.524  41.277  25.283  1.00  0.00     0.002 A 
ENDBRANCH  11  12
ENDBRANCH  10  11
BRANCH  10  21
ATOM     21  N   UNL A   1      45.709  34.150  26.671  1.00  0.00    -0.249 N 
ATOM     22  C   UNL A   1      45.410  33.099  25.830  1.00  0.00     0.351 C 
ATOM     23  C   UNL A   1      46.773  34.041  27.787  1.00  0.00     0.244 C 
ATOM     24  N   UNL A   1      46.095  32.005  26.115  1.00  0.00    -0.197 NA
ATOM     25  O   UNL A   1      44.555  33.042  24.964  1.00  0.00    -0.246 OA
ATOM     26  C   UNL A   1      47.243  32.362  28.494  1.00  0.00     0.151 C 
ATOM     27  O   UNL A   1      47.327  35.055  28.239  1.00  0.00    -0.273 OA
ATOM     28  C   UNL A   1      45.803  31.712  27.328  1.00  0.00     0.062 C 
ATOM     29  C   UNL A   1      47.188  31.295  30.300  1.00  0.00    -0.007 C 
ATOM     30  C   UNL A   1      44.622  30.367  28.048  1.00  0.00     0.025 C 
ATOM     31  C   UNL A   1      46.093  30.152  30.568  1.00  0.00    -0.003 C 
ATOM     32  C   UNL A   1      44.823  29.686  29.353  1.00  0.00     0.002 C 
ENDBRANCH  10  21
ENDBRANCH   7  10
ENDBRANCH   5   6
ENDBRANCH   3   5
ENDBRANCH   2   3
ENDBRANCH   1   2
BRANCH   1  33
ATOM     33  C   UNL A   1      40.352  34.954  34.118  1.00  0.00     0.275 C 
BRANCH  33  34
ATOM     34  O   UNL A   1      39.610  35.704  35.561  1.00  0.00    -0.458 OA
BRANCH  34  35
ATOM     35  C   UNL A   1      39.122  35.326  36.902  1.00  0.00     0.338 C 
ATOM     36  O   UNL A   1      39.495  35.887  37.934  1.00  0.00    -0.246 OA
BRANCH  35  37
ATOM     37  C   UNL A   1      38.465  34.170  37.627  1.00  0.00     0.060 A 
ATOM     38  C   UNL A   1      39.461  33.376  38.000  1.00  0.00     0.016 A 
ATOM     39  C   UNL A   1      37.372  33.517  36.876  1.00  0.00     0.016 A 
ATOM     40  C   UNL A   1      39.669  32.460  36.987  1.00  0.00     0.010 A 
ATOM     41  C   UNL A   1      37.565  32.497  35.858  1.00  0.00     0.010 A 
ATOM     42  C   UNL A   1      38.850  31.859  35.597  1.00  0.00    -0.014 A 
BRANCH  42  43
ATOM     43  C   UNL A   1      39.729  30.448  34.268  1.00  0.00     0.031 A 
ATOM     44  C   UNL A   1      41.376  29.663  34.180  1.00  0.00     0.074 A 
ATOM     45  C   UNL A   1      39.152  29.534  33.195  1.00  0.00     0.049 A 
ATOM     46  N   UNL A   1      41.908  29.008  33.147  1.00  0.00    -0.248 NA
ATOM     47  C   UNL A   1      42.360  29.581  35.329  1.00  0.00     0.031 C 
ATOM     48  C   UNL A   1      37.676  29.157  32.953  1.00  0.00     0.029 A 
ATOM     49  N   UNL A   1      39.570  29.484  31.849  1.00  0.00    -0.354 N 
ATOM     50  C   UNL A   1      43.112  28.428  33.589  1.00  0.00     0.074 A 
ATOM     51  C   UNL A   1      43.395  28.918  34.888  1.00  0.00     0.031 C 
ATOM     52  C   UNL A   1      37.320  29.486  31.703  1.00  0.00     0.029 A 
ATOM     53  C   UNL A   1      38.523  29.656  30.932  1.00  0.00     0.049 A 
ATOM     54  H   UNL A   1      40.507  29.343  31.579  1.00  0.00     0.167 HD
ATOM     55  C   UNL A   1      43.917  27.476  33.067  1.00  0.00     0.034 A 
ATOM     56  C   UNL A   1      38.445  29.811  29.592  1.00  0.00     0.034 A 
ATOM     57  C   UNL A   1      43.792  26.969  31.752  1.00  0.00     0.049 A 
ATOM     58  C   UNL A   1      39.518  29.082  28.866  1.00  0.00     0.074 A 
ATOM     59  C   UNL A   1      44.631  26.097  31.093  1.00  0.00     0.029 A 
ATOM     60  N   UNL A   1      42.787  27.339  30.881  1.00  0.00    -0.354 N 
ATOM     61  N   UNL A   1      40.603  28.568  29.380  1.00  0.00    -0.248 NA
ATOM     62  C   UNL A   1      39.279  28.740  27.459  1.00  0.00     0.031 C 
ATOM     63  C   UNL A   1      44.173  25.996  29.781  1.00  0.00     0.029 A 
ATOM     64  C   UNL A   1      43.027  26.766  29.652  1.00  0.00     0.049 A 
ATOM     65  H   UNL A   1      42.022  27.918  31.103  1.00  0.00     0.167 HD
ATOM     66  C   UNL A   1      41.132  27.760  28.400  1.00  0.00     0.074 A 
ATOM     67  C   UNL A   1      40.277  27.892  27.235  1.00  0.00     0.031 C 
ATOM     68  C   UNL A   1      42.207  26.951  28.491  1.00  0.00     0.034 A 
BRANCH  55  69
ATOM     69  C   UNL A   1      45.014  26.943  33.970  1.00  0.00     0.023 A 
ATOM     70  C   UNL A   1      46.343  27.394  33.788  1.00  0.00     0.012 A 
ATOM     71  C   UNL A   1      44.758  25.904  34.883  1.00  0.00     0.148 A 
ATOM     72  C   UNL A   1      47.399  26.794  34.477  1.00  0.00     0.002 A 
ATOM     73  C   UNL A   1      45.812  25.326  35.581  1.00  0.00     0.091 A 
ATOM     74  F   UNL A   1      43.498  25.461  35.000  1.00  0.00    -0.205 F 
ATOM     75  C   UNL A   1      47.133  25.762  35.374  1.00  0.00     0.022 A 
BRANCH  73  76
ATOM     76  S   UNL A   1      45.581  23.968  36.731  1.00  0.00     0.127 S 
ATOM     77  O   UNL A   1      45.227  22.869  35.832  1.00  0.00    -0.237 OA
ATOM     78  O   UNL A   1      46.907  23.857  37.339  1.00  0.00    -0.237 OA
ATOM     79  O   UNL A   1      44.518  24.380  37.638  1.00  0.00    -0.744 OA
ENDBRANCH  73  76
ENDBRANCH  55  69
BRANCH  56  80
ATOM     80  C   UNL A   1      37.182  30.272  28.919  1.00  0.00     0.023 A 
ATOM     81  C   UNL A   1      36.438  29.413  28.083  1.00  0.00     0.012 A 
ATOM     82  C   UNL A   1      36.655  31.553  29.205  1.00  0.00     0.148 A 
ATOM     83  C   UNL A   1      35.190  29.799  27.578  1.00  0.00     0.002 A 
ATOM     84  C   UNL A   1      35.415  31.938  28.687  1.00  0.00     0.091 A 
ATOM     85  F   UNL A   1      37.369  32.367  29.994  1.00  0.00    -0.205 F 
ATOM     86  C   UNL A   1      34.677  31.056  27.884  1.00  0.00     0.022 A 
BRANCH  84  87
ATOM     87  S   UNL A   1      34.657  33.538  29.017  1.00  0.00     0.127 S 
ATOM     88  O   UNL A   1      34.291  33.412  30.427  1.00  0.00    -0.237 OA
ATOM     89  O   UNL A   1      35.765  34.456  28.752  1.00  0.00    -0.237 OA
ATOM     90  O   UNL A   1      33.537  33.645  28.094  1.00  0.00    -0.744 OA
ENDBRANCH  84  87
ENDBRANCH  56  80
BRANCH  68  91
ATOM     91  C   UNL A   1      42.615  26.219  27.266  1.00  0.00     0.023 A 
ATOM     92  C   UNL A   1      43.474  26.863  26.360  1.00  0.00     0.012 A 
ATOM     93  C   UNL A   1      42.289  24.862  27.110  1.00  0.00     0.148 A 
ATOM     94  C   UNL A   1      44.013  26.156  25.295  1.00  0.00     0.002 A 
ATOM     95  C   UNL A   1      42.862  24.154  26.069  1.00  0.00     0.091 A 
ATOM     96  F   UNL A   1      41.468  24.292  28.002  1.00  0.00    -0.205 F 
ATOM     97  C   UNL A   1      43.721  24.799  25.161  1.00  0.00     0.022 A 
BRANCH  95  98
ATOM     98  S   UNL A   1      42.608  22.394  25.860  1.00  0.00     0.127 S 
ATOM     99  O   UNL A   1      41.152  22.322  25.741  1.00  0.00    -0.237 OA
ATOM    100  O   UNL A   1      43.338  22.124  24.622  1.00  0.00    -0.237 OA
ATOM    101  O   UNL A   1      43.164  21.756  27.046  1.00  0.00    -0.744 OA
ENDBRANCH  95  98
ENDBRANCH  68  91
ENDBRANCH  42  43
ENDBRANCH  35  37
ENDBRANCH  34  35
ENDBRANCH  33  34
ENDBRANCH   1  33
TORSDOF 19
ENDMDL
MODEL 2
REMARK VINA RESULT:     -12.4      7.034     14.661
REMARK SMILES O=C(CNC(=O)[C@@H](CC1=c2ccccc2=NC1)N1C(=O)N=C2C=CC=C[C@@H]2C1=O)OCCOC(=O)c1ccc(-c2c3nc(c(-c4cccc(S(=O)(=O)[O-])c4F)c4ccc([nH]4)c(-c4cccc(S(=O)(=O)[O-])c4F)c4nc(c(-c5cccc(S(=O)(=O)[O-])c5F)c5ccc2[nH]5)C=C4)C=C3)cc1
REMARK SMILES IDX 31 1 30 2 2 3 1 4 3 5 4 6 5 7 6 9 7 10 8 11 9 12 10 13 17 14
REMARK SMILES IDX 11 15 15 16 16 17 12 18 14 19 13 20 18 21 19 22 28 23 21 24
REMARK SMILES IDX 20 25 27 26 29 27 22 28 26 29 23 30 25 31 24 32 32 33 33 34
REMARK SMILES IDX 34 35 35 36 36 37 37 38 98 39 38 40 97 41 39 42 40 43 41 44
REMARK SMILES IDX 91 45 42 46 96 47 90 48 92 49 43 50 95 51 89 52 88 53 44 55
REMARK SMILES IDX 76 56 56 57 75 58 57 59 60 60 74 61 93 62 58 63 59 64 73 66
REMARK SMILES IDX 94 67 61 68 45 69 46 70 54 71 47 72 49 73 55 74 48 75 50 76
REMARK SMILES IDX 51 77 52 78 53 79 77 80 78 81 86 82 79 83 81 84 87 85 80 86
REMARK SMILES IDX 82 87 83 88 84 89 85 90 62 91 63 92 71 93 64 94 66 95 72 96
REMARK SMILES IDX 65 97 67 98 68 99 69 100 70 101
REMARK H PARENT 4 8 92 54 60 65
REMARK Flexibility Score: inf
ROOT
ATOM      1  C   UNL A   1      40.123  22.766  26.999  1.00  0.00     0.274 C 
ENDROOT
BRANCH   1   2
ATOM      2  O   UNL A   1      38.679  22.351  26.320  1.00  0.00    -0.461 OA
BRANCH   2   3
ATOM      3  C   UNL A   1      37.458  22.666  25.684  1.00  0.00     0.325 C 
ATOM      4  O   UNL A   1      37.169  23.866  25.577  1.00  0.00    -0.250 OA
BRANCH   3   5
ATOM      5  C   UNL A   1      36.254  21.601  25.357  1.00  0.00     0.238 C 
BRANCH   5   6
ATOM      6  N   UNL A   1      35.206  21.396  26.389  1.00  0.00    -0.343 N 
ATOM      7  C   UNL A   1      33.931  21.908  26.582  1.00  0.00     0.244 C 
ATOM      8  H   UNL A   1      35.475  20.758  27.089  1.00  0.00     0.164 HD
ATOM      9  O   UNL A   1      33.354  21.604  27.632  1.00  0.00    -0.273 OA
BRANCH   7  10
ATOM     10  C   UNL A   1      33.201  22.791  25.483  1.00  0.00     0.188 C 
BRANCH  10  11
ATOM     11  C   UNL A   1      32.548  21.465  24.413  1.00  0.00     0.069 C 
BRANCH  11  12
ATOM     12  C   UNL A   1      32.449  19.681  23.804  1.00  0.00    -0.037 C 
ATOM     13  C   UNL A   1      32.536  18.371  24.312  1.00  0.00     0.001 A 
ATOM     14  C   UNL A   1      32.101  19.392  22.336  1.00  0.00     0.174 C 
ATOM     15  C   UNL A   1      32.675  17.630  25.598  1.00  0.00     0.010 A 
ATOM     16  C   UNL A   1      33.020  17.615  23.133  1.00  0.00     0.065 A 
ATOM     17  N   UNL A   1      32.716  18.092  21.974  1.00  0.00    -0.280 NA
ATOM     18  C   UNL A   1      33.566  16.632  25.747  1.00  0.00     0.001 A 
ATOM     19  C   UNL A   1      34.026  16.537  23.369  1.00  0.00     0.028 A 
ATOM     20  C   UNL A   1      34.345  16.178  24.624  1.00  0.00     0.002 A 
ENDBRANCH  11  12
ENDBRANCH  10  11
BRANCH  10  21
ATOM     21  N   UNL A   1      32.477  24.106  26.024  1.00  0.00    -0.249 N 
ATOM     22  C   UNL A   1      31.171  23.841  26.378  1.00  0.00     0.351 C 
ATOM     23  C   UNL A   1      33.062  25.536  26.026  1.00  0.00     0.244 C 
ATOM     24  N   UNL A   1      30.488  24.936  26.670  1.00  0.00    -0.197 NA
ATOM     25  O   UNL A   1      30.580  22.776  26.353  1.00  0.00    -0.246 OA
ATOM     26  C   UNL A   1      31.929  27.030  25.867  1.00  0.00     0.151 C 
ATOM     27  O   UNL A   1      34.285  25.723  26.125  1.00  0.00    -0.273 OA
ATOM     28  C   UNL A   1      30.534  25.671  25.620  1.00  0.00     0.062 C 
ATOM     29  C   UNL A   1      31.546  28.639  24.576  1.00  0.00    -0.007 C 
ATOM     30  C   UNL A   1      29.210  26.001  24.257  1.00  0.00     0.025 C 
ATOM     31  C   UNL A   1      30.280  28.640  23.587  1.00  0.00    -0.003 C 
ATOM     32  C   UNL A   1      29.085  27.273  23.499  1.00  0.00     0.002 C 
ENDBRANCH  10  21
ENDBRANCH   7  10
ENDBRANCH   5   6
ENDBRANCH   3   5
ENDBRANCH   2   3
ENDBRANCH   1   2
BRANCH   1  33
ATOM     33  C   UNL A   1      41.171  24.303  27.006  1.00  0.00     0.275 C 
BRANCH  33  34
ATOM     34  O   UNL A   1      40.847  25.992  27.494  1.00  0.00    -0.458 OA
BRANCH  34  35
ATOM     35  C   UNL A   1      40.880  27.355  26.927  1.00  0.00     0.338 C 
ATOM     36  O   UNL A   1      39.883  28.076  26.856  1.00  0.00    -0.246 OA
BRANCH  35  37
ATOM     37  C   UNL A   1      41.721  28.223  26.014  1.00  0.00     0.060 A 
ATOM     38  C   UNL A   1      42.648  27.415  25.515  1.00  0.00     0.016 A 
ATOM     39  C   UNL A   1      42.221  29.466  26.638  1.00  0.00     0.016 A 
ATOM     40  C   UNL A   1      43.741  27.462  26.358  1.00  0.00     0.010 A 
ATOM     41  C   UNL A   1      43.412  29.550  27.469  1.00  0.00     0.010 A 
ATOM     42  C   UNL A   1      44.360  28.453  27.622  1.00  0.00    -0.014 A 
BRANCH  42  43
ATOM     43  C   UNL A   1      46.134  27.971  28.695  1.00  0.00     0.031 A 
ATOM     44  C   UNL A   1      47.874  27.721  28.197  1.00  0.00     0.074 A 
ATOM     45  C   UNL A   1      46.476  27.951  30.180  1.00  0.00     0.049 A 
ATOM     46  N   UNL A   1      48.847  27.150  28.909  1.00  0.00    -0.248 NA
ATOM     47  C   UNL A   1      48.483  28.213  26.900  1.00  0.00     0.031 C 
ATOM     48  C   UNL A   1      45.685  28.567  31.351  1.00  0.00     0.029 A 
ATOM     49  N   UNL A   1      47.007  26.850  30.884  1.00  0.00    -0.354 N 
ATOM     50  C   UNL A   1      50.050  27.335  28.204  1.00  0.00     0.074 A 
ATOM     51  C   UNL A   1      49.745  27.876  26.930  1.00  0.00     0.031 C 
ATOM     52  C   UNL A   1      45.383  27.617  32.247  1.00  0.00     0.029 A 
ATOM     53  C   UNL A   1      46.258  26.498  32.015  1.00  0.00     0.049 A 
ATOM     54  H   UNL A   1      47.823  26.373  30.606  1.00  0.00     0.167 HD
ATOM     55  C   UNL A   1      51.349  27.197  28.552  1.00  0.00     0.034 A 
ATOM     56  C   UNL A   1      46.288  25.475  32.899  1.00  0.00     0.034 A 
ATOM     57  C   UNL A   1      51.783  26.592  29.756  1.00  0.00     0.049 A 
ATOM     58  C   UNL A   1      47.661  24.958  33.131  1.00  0.00     0.074 A 
ATOM     59  C   UNL A   1      53.073  26.297  30.142  1.00  0.00     0.029 A 
ATOM     60  N   UNL A   1      50.927  26.144  30.740  1.00  0.00    -0.354 N 
ATOM     61  N   UNL A   1      48.724  25.203  32.413  1.00  0.00    -0.248 NA
ATOM     62  C   UNL A   1      47.915  24.237  34.384  1.00  0.00     0.031 C 
ATOM     63  C   UNL A   1      52.993  25.589  31.340  1.00  0.00     0.029 A 
ATOM     64  C   UNL A   1      51.659  25.497  31.710  1.00  0.00     0.049 A 
ATOM     65  H   UNL A   1      49.949  26.266  30.747  1.00  0.00     0.167 HD
ATOM     66  C   UNL A   1      49.789  24.759  33.162  1.00  0.00     0.074 A 
ATOM     67  C   UNL A   1      49.243  24.178  34.373  1.00  0.00     0.031 C 
ATOM     68  C   UNL A   1      51.103  24.874  32.875  1.00  0.00     0.034 A 
BRANCH  55  69
ATOM     69  C   UNL A   1      52.377  27.727  27.571  1.00  0.00     0.023 A 
ATOM     70  C   UNL A   1      52.778  29.082  27.651  1.00  0.00     0.012 A 
ATOM     71  C   UNL A   1      52.826  26.938  26.496  1.00  0.00     0.148 A 
ATOM     72  C   UNL A   1      53.582  29.646  26.658  1.00  0.00     0.002 A 
ATOM     73  C   UNL A   1      53.643  27.502  25.523  1.00  0.00     0.091 A 
ATOM     74  F   UNL A   1      52.392  25.673  26.416  1.00  0.00    -0.205 F 
ATOM     75  C   UNL A   1      54.015  28.856  25.597  1.00  0.00     0.022 A 
BRANCH  73  76
ATOM     76  S   UNL A   1      54.226  26.580  24.098  1.00  0.00     0.127 S 
ATOM     77  O   UNL A   1      52.975  26.280  23.402  1.00  0.00    -0.237 OA
ATOM     78  O   UNL A   1      55.077  27.564  23.428  1.00  0.00    -0.237 OA
ATOM     79  O   UNL A   1      54.924  25.416  24.625  1.00  0.00    -0.744 OA
ENDBRANCH  73  76
ENDBRANCH  55  69
BRANCH  56  80
ATOM     80  C   UNL A   1      45.153  25.216  33.851  1.00  0.00     0.023 A 
ATOM     81  C   UNL A   1      44.231  24.172  33.629  1.00  0.00     0.012 A 
ATOM     82  C   UNL A   1      45.057  25.953  35.055  1.00  0.00     0.148 A 
ATOM     83  C   UNL A   1      43.267  23.843  34.591  1.00  0.00     0.002 A 
ATOM     84  C   UNL A   1      44.084  25.628  36.005  1.00  0.00     0.091 A 
ATOM     85  F   UNL A   1      45.931  26.947  35.257  1.00  0.00    -0.205 F 
ATOM     86  C   UNL A   1      43.198  24.565  35.778  1.00  0.00     0.022 A 
BRANCH  84  87
ATOM     87  S   UNL A   1      43.903  26.495  37.573  1.00  0.00     0.127 S 
ATOM     88  O   UNL A   1      42.679  25.898  38.107  1.00  0.00    -0.237 OA
ATOM     89  O   UNL A   1      45.128  26.107  38.274  1.00  0.00    -0.237 OA
ATOM     90  O   UNL A   1      43.808  27.908  37.239  1.00  0.00    -0.744 OA
ENDBRANCH  84  87
ENDBRANCH  56  80
BRANCH  68  91
ATOM     91  C   UNL A   1      52.064  24.258  33.823  1.00  0.00     0.023 A 
ATOM     92  C   UNL A   1      52.440  24.993  34.960  1.00  0.00     0.012 A 
ATOM     93  C   UNL A   1      52.445  22.915  33.674  1.00  0.00     0.148 A 
ATOM     94  C   UNL A   1      53.198  24.390  35.953  1.00  0.00     0.002 A 
ATOM     95  C   UNL A   1      53.166  22.310  34.688  1.00  0.00     0.091 A 
ATOM     96  F   UNL A   1      52.058  22.256  32.573  1.00  0.00    -0.205 F 
ATOM     97  C   UNL A   1      53.544  23.046  35.825  1.00  0.00     0.022 A 
BRANCH  95  98
ATOM     98  S   UNL A   1      53.592  20.571  34.648  1.00  0.00     0.127 S 
ATOM     99  O   UNL A   1      52.369  19.960  35.166  1.00  0.00    -0.237 OA
ATOM    100  O   UNL A   1      53.833  20.348  33.223  1.00  0.00    -0.237 OA
ATOM    101  O   UNL A   1      54.766  20.418  35.496  1.00  0.00    -0.744 OA
ENDBRANCH  95  98
ENDBRANCH  68  91
ENDBRANCH  42  43
ENDBRANCH  35  37
ENDBRANCH  34  35
ENDBRANCH  33  34
ENDBRANCH   1  33
TORSDOF 19
ENDMDL
MODEL 3
REMARK VINA RESULT:     -12.2      4.047     11.177
REMARK SMILES O=C(CNC(=O)[C@@H](CC1=c2ccccc2=NC1)N1C(=O)N=C2C=CC=C[C@@H]2C1=O)OCCOC(=O)c1ccc(-c2c3nc(c(-c4cccc(S(=O)(=O)[O-])c4F)c4ccc([nH]4)c(-c4cccc(S(=O)(=O)[O-])c4F)c4nc(c(-c5cccc(S(=O)(=O)[O-])c5F)c5ccc2[nH]5)C=C4)C=C3)cc1
REMARK SMILES IDX 31 1 30 2 2 3 1 4 3 5 4 6 5 7 6 9 7 10 8 11 9 12 10 13 17 14
REMARK SMILES IDX 11 15 15 16 16 17 12 18 14 19 13 20 18 21 19 22 28 23 21 24
REMARK SMILES IDX 20 25 27 26 29 27 22 28 26 29 23 30 25 31 24 32 32 33 33 34
REMARK SMILES IDX 34 35 35 36 36 37 37 38 98 39 38 40 97 41 39 42 40 43 41 44
REMARK SMILES IDX 91 45 42 46 96 47 90 48 92 49 43 50 95 51 89 52 88 53 44 55
REMARK SMILES IDX 76 56 56 57 75 58 57 59 60 60 74 61 93 62 58 63 59 64 73 66
REMARK SMILES IDX 94 67 61 68 45 69 46 70 54 71 47 72 49 73 55 74 48 75 50 76
REMARK SMILES IDX 51 77 52 78 53 79 77 80 78 81 86 82 79 83 81 84 87 85 80 86
REMARK SMILES IDX 82 87 83 88 84 89 85 90 62 91 63 92 71 93 64 94 66 95 72 96
REMARK SMILES IDX 65 97 67 98 68 99 69 100 70 101
REMARK H PARENT 4 8 92 54 60 65
REMARK Flexibility Score: inf
ROOT
ATOM      1  C   UNL A   1      44.302  23.657  32.331  1.00  0.00     0.274 C 
ENDROOT
BRANCH   1   2
ATOM      2  O   UNL A   1      44.201  23.285  30.728  1.00  0.00    -0.461 OA
BRANCH   2   3
ATOM      3  C   UNL A   1      43.534  23.282  29.483  1.00  0.00     0.325 C 
ATOM      4  O   UNL A   1      42.340  22.953  29.482  1.00  0.00    -0.250 OA
BRANCH   3   5
ATOM      5  C   UNL A   1      44.261  23.367  28.015  1.00  0.00     0.238 C 
BRANCH   5   6
ATOM      6  N   UNL A   1      45.689  23.769  27.967  1.00  0.00    -0.343 N 
ATOM      7  C   UNL A   1      46.578  24.049  26.939  1.00  0.00     0.244 C 
ATOM      8  H   UNL A   1      46.095  23.856  28.861  1.00  0.00     0.164 HD
ATOM      9  O   UNL A   1      47.756  24.250  27.251  1.00  0.00    -0.273 OA
BRANCH   7  10
ATOM     10  C   UNL A   1      46.105  24.177  25.429  1.00  0.00     0.188 C 
BRANCH  10  11
ATOM     11  C   UNL A   1      45.814  22.416  25.051  1.00  0.00     0.069 C 
BRANCH  11  12
ATOM     12  C   UNL A   1      44.740  20.868  24.936  1.00  0.00    -0.037 C 
ATOM     13  C   UNL A   1      43.492  20.396  25.388  1.00  0.00     0.001 A 
ATOM     14  C   UNL A   1      45.185  19.690  24.058  1.00  0.00     0.174 C 
ATOM     15  C   UNL A   1      42.281  20.844  26.132  1.00  0.00     0.010 A 
ATOM     16  C   UNL A   1      43.716  18.933  25.438  1.00  0.00     0.065 A 
ATOM     17  N   UNL A   1      44.599  18.453  24.630  1.00  0.00    -0.280 NA
ATOM     18  C   UNL A   1      41.747  20.106  27.125  1.00  0.00     0.001 A 
ATOM     19  C   UNL A   1      43.115  18.181  26.580  1.00  0.00     0.028 A 
ATOM     20  C   UNL A   1      42.277  18.801  27.426  1.00  0.00     0.002 A 
ENDBRANCH  11  12
ENDBRANCH  10  11
BRANCH  10  21
ATOM     21  N   UNL A   1      45.200  25.449  25.095  1.00  0.00    -0.249 N 
ATOM     22  C   UNL A   1      45.976  26.573  24.912  1.00  0.00     0.351 C 
ATOM     23  C   UNL A   1      43.656  25.502  25.116  1.00  0.00     0.244 C 
ATOM     24  N   UNL A   1      45.257  27.678  24.803  1.00  0.00    -0.197 NA
ATOM     25  O   UNL A   1      47.190  26.669  24.942  1.00  0.00    -0.246 OA
ATOM     26  C   UNL A   1      42.763  27.101  25.546  1.00  0.00     0.151 C 
ATOM     27  O   UNL A   1      42.981  24.492  24.858  1.00  0.00    -0.273 OA
ATOM     28  C   UNL A   1      44.578  27.766  25.886  1.00  0.00     0.062 C 
ATOM     29  C   UNL A   1      41.467  27.891  26.994  1.00  0.00    -0.007 C 
ATOM     30  C   UNL A   1      44.836  28.874  27.445  1.00  0.00     0.025 C 
ATOM     31  C   UNL A   1      41.996  28.872  28.150  1.00  0.00    -0.003 C 
ATOM     32  C   UNL A   1      43.735  29.380  28.305  1.00  0.00     0.002 C 
ENDBRANCH  10  21
ENDBRANCH   7  10
ENDBRANCH   5   6
ENDBRANCH   3   5
ENDBRANCH   2   3
ENDBRANCH   1   2
BRANCH   1  33
ATOM     33  C   UNL A   1      43.531  22.977  33.882  1.00  0.00     0.275 C 
BRANCH  33  34
ATOM     34  O   UNL A   1      43.548  23.519  35.585  1.00  0.00    -0.458 OA
BRANCH  34  35
ATOM     35  C   UNL A   1      44.488  24.068  36.584  1.00  0.00     0.338 C 
ATOM     36  O   UNL A   1      44.116  24.651  37.605  1.00  0.00    -0.246 OA
BRANCH  35  37
ATOM     37  C   UNL A   1      45.933  24.502  36.718  1.00  0.00     0.060 A 
ATOM     38  C   UNL A   1      45.888  25.807  36.957  1.00  0.00     0.016 A 
ATOM     39  C   UNL A   1      46.805  24.084  35.601  1.00  0.00     0.016 A 
ATOM     40  C   UNL A   1      45.937  26.457  35.740  1.00  0.00     0.010 A 
ATOM     41  C   UNL A   1      46.927  24.795  34.339  1.00  0.00     0.010 A 
ATOM     42  C   UNL A   1      46.348  26.113  34.104  1.00  0.00    -0.014 A 
BRANCH  42  43
ATOM     43  C   UNL A   1      46.129  27.541  32.540  1.00  0.00     0.031 A 
ATOM     44  C   UNL A   1      47.310  28.361  31.414  1.00  0.00     0.074 A 
ATOM     45  C   UNL A   1      44.919  28.070  31.780  1.00  0.00     0.049 A 
ATOM     46  N   UNL A   1      47.098  29.442  30.663  1.00  0.00    -0.248 NA
ATOM     47  C   UNL A   1      48.709  27.862  31.112  1.00  0.00     0.031 C 
ATOM     48  C   UNL A   1      43.490  27.492  31.737  1.00  0.00     0.029 A 
ATOM     49  N   UNL A   1      44.566  29.429  31.645  1.00  0.00    -0.354 N 
ATOM     50  C   UNL A   1      48.221  29.606  29.830  1.00  0.00     0.074 A 
ATOM     51  C   UNL A   1      49.220  28.689  30.240  1.00  0.00     0.031 C 
ATOM     52  C   UNL A   1      42.611  28.420  32.141  1.00  0.00     0.029 A 
ATOM     53  C   UNL A   1      43.252  29.705  32.047  1.00  0.00     0.049 A 
ATOM     54  H   UNL A   1      45.183  30.116  31.304  1.00  0.00     0.167 HD
ATOM     55  C   UNL A   1      48.444  30.355  28.728  1.00  0.00     0.034 A 
ATOM     56  C   UNL A   1      42.524  30.832  32.222  1.00  0.00     0.034 A 
ATOM     57  C   UNL A   1      47.565  31.364  28.267  1.00  0.00     0.049 A 
ATOM     58  C   UNL A   1      42.908  31.914  31.279  1.00  0.00     0.074 A 
ATOM     59  C   UNL A   1      47.761  32.256  27.235  1.00  0.00     0.029 A 
ATOM     60  N   UNL A   1      46.347  31.644  28.852  1.00  0.00    -0.354 N 
ATOM     61  N   UNL A   1      43.982  31.964  30.537  1.00  0.00    -0.248 NA
ATOM     62  C   UNL A   1      41.918  32.962  31.004  1.00  0.00     0.031 C 
ATOM     63  C   UNL A   1      46.682  33.139  27.243  1.00  0.00     0.029 A 
ATOM     64  C   UNL A   1      45.805  32.756  28.247  1.00  0.00     0.049 A 
ATOM     65  H   UNL A   1      45.932  31.132  29.583  1.00  0.00     0.167 HD
ATOM     66  C   UNL A   1      43.765  32.983  29.638  1.00  0.00     0.074 A 
ATOM     67  C   UNL A   1      42.476  33.564  29.959  1.00  0.00     0.031 C 
ATOM     68  C   UNL A   1      44.557  33.358  28.612  1.00  0.00     0.034 A 
BRANCH  55  69
ATOM     69  C   UNL A   1      49.724  30.076  27.963  1.00  0.00     0.023 A 
ATOM     70  C   UNL A   1      50.863  30.881  28.199  1.00  0.00     0.012 A 
ATOM     71  C   UNL A   1      49.753  29.130  26.923  1.00  0.00     0.148 A 
ATOM     72  C   UNL A   1      51.995  30.769  27.389  1.00  0.00     0.002 A 
ATOM     73  C   UNL A   1      50.892  29.008  26.135  1.00  0.00     0.091 A 
ATOM     74  F   UNL A   1      48.645  28.414  26.687  1.00  0.00    -0.205 F 
ATOM     75  C   UNL A   1      52.010  29.832  26.359  1.00  0.00     0.022 A 
BRANCH  73  76
ATOM     76  S   UNL A   1      50.999  27.858  24.761  1.00  0.00     0.127 S 
ATOM     77  O   UNL A   1      52.339  28.136  24.241  1.00  0.00    -0.237 OA
ATOM     78  O   UNL A   1      50.862  26.567  25.435  1.00  0.00    -0.237 OA
ATOM     79  O   UNL A   1      49.911  28.203  23.857  1.00  0.00    -0.744 OA
ENDBRANCH  73  76
ENDBRANCH  55  69
BRANCH  56  80
ATOM     80  C   UNL A   1      41.210  30.822  32.952  1.00  0.00     0.023 A 
ATOM     81  C   UNL A   1      41.123  31.174  34.314  1.00  0.00     0.012 A 
ATOM     82  C   UNL A   1      40.011  30.564  32.247  1.00  0.00     0.148 A 
ATOM     83  C   UNL A   1      39.881  31.306  34.949  1.00  0.00     0.002 A 
ATOM     84  C   UNL A   1      38.775  30.683  32.889  1.00  0.00     0.091 A 
ATOM     85  F   UNL A   1      40.100  30.223  30.954  1.00  0.00    -0.205 F 
ATOM     86  C   UNL A   1      38.710  31.067  34.237  1.00  0.00     0.022 A 
BRANCH  84  87
ATOM     87  S   UNL A   1      37.199  30.397  32.066  1.00  0.00     0.127 S 
ATOM     88  O   UNL A   1      37.033  28.953  32.226  1.00  0.00    -0.237 OA
ATOM     89  O   UNL A   1      36.288  31.211  32.872  1.00  0.00    -0.237 OA
ATOM     90  O   UNL A   1      37.378  30.851  30.695  1.00  0.00    -0.744 OA
ENDBRANCH  84  87
ENDBRANCH  56  80
BRANCH  68  91
ATOM     91  C   UNL A   1      44.126  34.533  27.813  1.00  0.00     0.023 A 
ATOM     92  C   UNL A   1      43.294  34.314  26.703  1.00  0.00     0.012 A 
ATOM     93  C   UNL A   1      44.403  35.834  28.261  1.00  0.00     0.148 A 
ATOM     94  C   UNL A   1      42.732  35.393  26.036  1.00  0.00     0.002 A 
ATOM     95  C   UNL A   1      43.807  36.902  27.616  1.00  0.00     0.091 A 
ATOM     96  F   UNL A   1      45.201  35.991  29.327  1.00  0.00    -0.205 F 
ATOM     97  C   UNL A   1      42.975  36.684  26.504  1.00  0.00     0.022 A 
BRANCH  95  98
ATOM     98  S   UNL A   1      43.998  38.589  28.188  1.00  0.00     0.127 S 
ATOM     99  O   UNL A   1      45.451  38.745  28.155  1.00  0.00    -0.237 OA
ATOM    100  O   UNL A   1      43.276  39.343  27.164  1.00  0.00    -0.237 OA
ATOM    101  O   UNL A   1      43.401  38.640  29.516  1.00  0.00    -0.744 OA
ENDBRANCH  95  98
ENDBRANCH  68  91
ENDBRANCH  42  43
ENDBRANCH  35  37
ENDBRANCH  34  35
ENDBRANCH  33  34
ENDBRANCH   1  33
TORSDOF 19
ENDMDL
