MODEL 1
REMARK VINA RESULT:     -11.9      0.000      0.000
REMARK SMILES CCCc1cc(S(F)(F)(F)(F)F)cc2c1O[C@@H](C(F)(F)F)C(C(=O)OCCOC(=O)c1ccc(-c3c4nc(c(-c5cccc(S(=O)(=O)[O-])c5F)c5ccc([nH]5)c(-c5cccc(S(=O)(=O)[O-])c5F)c5nc(c(-c6cccc(S(=O)(=O)[O-])c6F)c6ccc3[nH]6)C=C5)C=C4)cc1)=C2
REMARK SMILES IDX 27 1 26 2 25 3 23 4 24 5 22 6 4 7 5 8 15 9 6 10 14 11 16 12
REMARK SMILES IDX 13 13 94 14 17 15 3 16 2 17 1 18 7 19 8 20 9 21 10 22 11 23
REMARK SMILES IDX 12 24 18 25 19 26 20 27 21 28 28 29 29 30 30 31 31 32 32 33
REMARK SMILES IDX 93 34 33 35 92 36 34 37 35 38 36 39 86 40 37 41 91 42 85 43
REMARK SMILES IDX 87 44 38 45 90 46 84 47 83 48 39 50 71 51 51 52 70 53 52 54
REMARK SMILES IDX 55 55 69 56 88 57 53 58 54 59 68 61 89 62 56 63 40 64 41 65
REMARK SMILES IDX 49 66 42 67 44 68 50 69 43 70 45 71 46 72 47 73 48 74 72 75
REMARK SMILES IDX 73 76 81 77 74 78 76 79 82 80 75 81 77 82 78 83 79 84 80 85
REMARK SMILES IDX 57 86 58 87 66 88 59 89 61 90 67 91 60 92 62 93 63 94 64 95
REMARK SMILES IDX 65 96
REMARK H PARENT 87 49 55 60
REMARK Flexibility Score: inf
ROOT
ATOM      1  C   UNL A   1      32.328  30.228  26.932  1.00  0.00     0.275 C 
ENDROOT
BRANCH   1   2
ATOM      2  C   UNL A   1      31.757  30.084  25.530  1.00  0.00     0.275 C 
BRANCH   2   3
ATOM      3  O   UNL A   1      31.577  28.706  25.233  1.00  0.00    -0.459 OA
BRANCH   3   4
ATOM      4  C   UNL A   1      32.133  28.158  24.047  1.00  0.00     0.338 C 
ATOM      5  O   UNL A   1      32.295  28.892  23.023  1.00  0.00    -0.246 OA
BRANCH   4   6
ATOM      6  C   UNL A   1      32.535  26.693  24.003  1.00  0.00     0.087 C 
ATOM      7  C   UNL A   1      33.366  22.611  24.312  1.00  0.00    -0.004 A 
ATOM      8  C   UNL A   1      34.656  22.188  24.580  1.00  0.00     0.032 A 
ATOM      9  C   UNL A   1      33.111  23.960  24.269  1.00  0.00     0.131 A 
ATOM     10  C   UNL A   1      35.662  23.091  24.803  1.00  0.00     0.108 A 
ATOM     11  C   UNL A   1      34.105  24.900  24.471  1.00  0.00     0.019 A 
ATOM     12  O   UNL A   1      31.807  24.364  24.115  1.00  0.00    -0.475 OA
ATOM     13  C   UNL A   1      35.388  24.441  24.742  1.00  0.00     0.036 A 
ATOM     14  C   UNL A   1      33.726  26.303  24.443  1.00  0.00     0.027 C 
ATOM     15  C   UNL A   1      31.581  25.640  23.453  1.00  0.00     0.316 C 
BRANCH   7  16
ATOM     16  C   UNL A   1      32.341  21.536  23.993  1.00  0.00     0.039 C 
BRANCH  16  17
ATOM     17  C   UNL A   1      32.816  20.202  24.547  1.00  0.00     0.001 C 
ATOM     18  C   UNL A   1      32.435  19.090  23.584  1.00  0.00     0.004 C 
ENDBRANCH  16  17
ENDBRANCH   7  16
BRANCH  10  19
ATOM     19  S   UNL A   1      37.338  22.515  25.175  1.00  0.00     0.310 S 
ATOM     20  F   UNL A   1      36.731  21.356  26.073  1.00  0.00    -0.094 F 
ATOM     21  F   UNL A   1      37.245  23.450  26.441  1.00  0.00    -0.094 F 
ATOM     22  F   UNL A   1      38.749  22.026  25.605  1.00  0.00    -0.094 F 
ATOM     23  F   UNL A   1      37.352  21.482  23.981  1.00  0.00    -0.094 F 
ATOM     24  F   UNL A   1      35.858  22.919  24.789  1.00  0.00    -0.094 F 
ENDBRANCH  10  19
BRANCH  15  25
ATOM     25  C   UNL A   1      30.151  26.085  23.708  1.00  0.00     0.430 C 
ATOM     26  F   UNL A   1      30.008  26.405  24.992  1.00  0.00    -0.167 F 
ATOM     27  F   UNL A   1      29.875  27.145  22.954  1.00  0.00    -0.167 F 
ATOM     28  F   UNL A   1      29.318  25.094  23.403  1.00  0.00    -0.167 F 
ENDBRANCH  15  25
ENDBRANCH   4   6
ENDBRANCH   3   4
ENDBRANCH   2   3
ENDBRANCH   1   2
BRANCH   1  29
ATOM     29  O   UNL A   1      33.716  29.931  26.912  1.00  0.00    -0.458 OA
BRANCH  29  30
ATOM     30  C   UNL A   1      34.635  30.787  27.575  1.00  0.00     0.338 C 
ATOM     31  O   UNL A   1      34.351  32.014  27.746  1.00  0.00    -0.246 OA
BRANCH  30  32
ATOM     32  C   UNL A   1      35.958  30.235  28.080  1.00  0.00     0.060 A 
ATOM     33  C   UNL A   1      37.088  30.330  27.283  1.00  0.00     0.016 A 
ATOM     34  C   UNL A   1      36.008  29.672  29.282  1.00  0.00     0.016 A 
ATOM     35  C   UNL A   1      38.171  29.537  27.728  1.00  0.00     0.010 A 
ATOM     36  C   UNL A   1      37.148  29.030  29.706  1.00  0.00     0.010 A 
ATOM     37  C   UNL A   1      38.282  29.034  28.944  1.00  0.00    -0.014 A 
BRANCH  37  38
ATOM     38  C   UNL A   1      39.600  28.488  29.468  1.00  0.00     0.031 A 
ATOM     39  C   UNL A   1      40.049  27.255  28.992  1.00  0.00     0.074 A 
ATOM     40  C   UNL A   1      40.285  29.256  30.394  1.00  0.00     0.049 A 
ATOM     41  N   UNL A   1      41.187  26.630  29.298  1.00  0.00    -0.248 NA
ATOM     42  C   UNL A   1      39.306  26.422  28.033  1.00  0.00     0.031 C 
ATOM     43  C   UNL A   1      39.843  30.504  30.873  1.00  0.00     0.029 A 
ATOM     44  N   UNL A   1      41.484  28.969  31.009  1.00  0.00    -0.354 N 
ATOM     45  C   UNL A   1      41.276  25.479  28.626  1.00  0.00     0.074 A 
ATOM     46  C   UNL A   1      40.065  25.326  27.809  1.00  0.00     0.031 C 
ATOM     47  C   UNL A   1      40.756  30.958  31.772  1.00  0.00     0.029 A 
ATOM     48  C   UNL A   1      41.784  30.001  31.869  1.00  0.00     0.049 A 
ATOM     49  H   UNL A   1      42.032  28.165  30.858  1.00  0.00     0.167 HD
ATOM     50  C   UNL A   1      42.319  24.553  28.663  1.00  0.00     0.034 A 
ATOM     51  C   UNL A   1      42.886  30.119  32.701  1.00  0.00     0.034 A 
ATOM     52  C   UNL A   1      43.442  24.692  29.463  1.00  0.00     0.049 A 
ATOM     53  C   UNL A   1      43.903  29.165  32.782  1.00  0.00     0.074 A 
ATOM     54  C   UNL A   1      44.507  23.772  29.507  1.00  0.00     0.029 A 
ATOM     55  N   UNL A   1      43.731  25.713  30.343  1.00  0.00    -0.354 N 
ATOM     56  N   UNL A   1      44.010  28.034  32.082  1.00  0.00    -0.248 NA
ATOM     57  C   UNL A   1      45.058  29.263  33.683  1.00  0.00     0.031 C 
ATOM     58  C   UNL A   1      45.421  24.227  30.406  1.00  0.00     0.029 A 
ATOM     59  C   UNL A   1      44.941  25.437  30.940  1.00  0.00     0.049 A 
ATOM     60  H   UNL A   1      43.169  26.504  30.514  1.00  0.00     0.167 HD
ATOM     61  C   UNL A   1      45.128  27.389  32.420  1.00  0.00     0.074 A 
ATOM     62  C   UNL A   1      45.815  28.167  33.460  1.00  0.00     0.031 C 
ATOM     63  C   UNL A   1      45.606  26.185  31.899  1.00  0.00     0.034 A 
BRANCH  50  64
ATOM     64  C   UNL A   1      42.219  23.324  27.776  1.00  0.00     0.023 A 
ATOM     65  C   UNL A   1      41.240  22.378  28.029  1.00  0.00     0.012 A 
ATOM     66  C   UNL A   1      43.069  23.181  26.766  1.00  0.00     0.148 A 
ATOM     67  C   UNL A   1      41.420  21.163  27.327  1.00  0.00     0.002 A 
ATOM     68  C   UNL A   1      43.099  22.018  26.035  1.00  0.00     0.091 A 
ATOM     69  F   UNL A   1      43.898  24.175  26.457  1.00  0.00    -0.205 F 
ATOM     70  C   UNL A   1      42.198  21.016  26.270  1.00  0.00     0.022 A 
BRANCH  68  71
ATOM     71  S   UNL A   1      44.350  21.807  24.743  1.00  0.00     0.127 S 
ATOM     72  O   UNL A   1      44.311  20.368  24.227  1.00  0.00    -0.237 OA
ATOM     73  O   UNL A   1      44.060  22.772  23.591  1.00  0.00    -0.237 OA
ATOM     74  O   UNL A   1      45.898  22.139  25.390  1.00  0.00    -0.744 OA
ENDBRANCH  68  71
ENDBRANCH  50  64
BRANCH  51  75
ATOM     75  C   UNL A   1      42.994  31.358  33.576  1.00  0.00     0.023 A 
ATOM     76  C   UNL A   1      43.673  32.468  33.104  1.00  0.00     0.012 A 
ATOM     77  C   UNL A   1      42.444  31.350  34.784  1.00  0.00     0.148 A 
ATOM     78  C   UNL A   1      43.969  33.427  34.102  1.00  0.00     0.002 A 
ATOM     79  C   UNL A   1      42.663  32.385  35.661  1.00  0.00     0.091 A 
ATOM     80  F   UNL A   1      41.672  30.330  35.150  1.00  0.00    -0.205 F 
ATOM     81  C   UNL A   1      43.375  33.489  35.280  1.00  0.00     0.022 A 
BRANCH  79  82
ATOM     82  S   UNL A   1      42.000  32.287  37.342  1.00  0.00     0.127 S 
ATOM     83  O   UNL A   1      42.231  33.619  38.058  1.00  0.00    -0.237 OA
ATOM     84  O   UNL A   1      40.499  31.993  37.282  1.00  0.00    -0.237 OA
ATOM     85  O   UNL A   1      42.793  31.036  38.196  1.00  0.00    -0.744 OA
ENDBRANCH  79  82
ENDBRANCH  51  75
BRANCH  63  86
ATOM     86  C   UNL A   1      46.936  25.661  32.417  1.00  0.00     0.023 A 
ATOM     87  C   UNL A   1      46.965  24.896  33.570  1.00  0.00     0.012 A 
ATOM     88  C   UNL A   1      48.049  25.947  31.750  1.00  0.00     0.148 A 
ATOM     89  C   UNL A   1      48.263  24.716  34.106  1.00  0.00     0.002 A 
ATOM     90  C   UNL A   1      49.278  25.621  32.271  1.00  0.00     0.091 A 
ATOM     91  F   UNL A   1      47.973  26.554  30.569  1.00  0.00    -0.205 F 
ATOM     92  C   UNL A   1      49.384  24.916  33.438  1.00  0.00     0.022 A 
BRANCH  90  93
ATOM     93  S   UNL A   1      50.779  26.131  31.398  1.00  0.00     0.127 S 
ATOM     94  O   UNL A   1      50.796  25.503  30.002  1.00  0.00    -0.237 OA
ATOM     95  O   UNL A   1      50.802  27.656  31.271  1.00  0.00    -0.237 OA
ATOM     96  O   UNL A   1      52.153  25.611  32.273  1.00  0.00    -0.744 OA
ENDBRANCH  90  93
ENDBRANCH  63  86
ENDBRANCH  37  38
ENDBRANCH  30  32
ENDBRANCH  29  30
ENDBRANCH   1  29
TORSDOF 18
ENDMDL
MODEL 2
REMARK VINA RESULT:     -11.9      4.291      9.291
REMARK SMILES CCCc1cc(S(F)(F)(F)(F)F)cc2c1O[C@@H](C(F)(F)F)C(C(=O)OCCOC(=O)c1ccc(-c3c4nc(c(-c5cccc(S(=O)(=O)[O-])c5F)c5ccc([nH]5)c(-c5cccc(S(=O)(=O)[O-])c5F)c5nc(c(-c6cccc(S(=O)(=O)[O-])c6F)c6ccc3[nH]6)C=C5)C=C4)cc1)=C2
REMARK SMILES IDX 27 1 26 2 25 3 23 4 24 5 22 6 4 7 5 8 15 9 6 10 14 11 16 12
REMARK SMILES IDX 13 13 94 14 17 15 3 16 2 17 1 18 7 19 8 20 9 21 10 22 11 23
REMARK SMILES IDX 12 24 18 25 19 26 20 27 21 28 28 29 29 30 30 31 31 32 32 33
REMARK SMILES IDX 93 34 33 35 92 36 34 37 35 38 36 39 86 40 37 41 91 42 85 43
REMARK SMILES IDX 87 44 38 45 90 46 84 47 83 48 39 50 71 51 51 52 70 53 52 54
REMARK SMILES IDX 55 55 69 56 88 57 53 58 54 59 68 61 89 62 56 63 40 64 41 65
REMARK SMILES IDX 49 66 42 67 44 68 50 69 43 70 45 71 46 72 47 73 48 74 72 75
REMARK SMILES IDX 73 76 81 77 74 78 76 79 82 80 75 81 77 82 78 83 79 84 80 85
REMARK SMILES IDX 57 86 58 87 66 88 59 89 61 90 67 91 60 92 62 93 63 94 64 95
REMARK SMILES IDX 65 96
REMARK H PARENT 87 49 55 60
REMARK Flexibility Score: inf
ROOT
ATOM      1  C   UNL A   1      36.968  20.234  24.959  1.00  0.00     0.275 C 
ENDROOT
BRANCH   1   2
ATOM      2  C   UNL A   1      35.455  20.358  24.878  1.00  0.00     0.275 C 
BRANCH   2   3
ATOM      3  O   UNL A   1      35.112  21.644  24.383  1.00  0.00    -0.459 OA
BRANCH   3   4
ATOM      4  C   UNL A   1      33.748  21.999  24.213  1.00  0.00     0.338 C 
ATOM      5  O   UNL A   1      32.926  21.154  23.740  1.00  0.00    -0.246 OA
BRANCH   4   6
ATOM      6  C   UNL A   1      33.271  23.390  24.599  1.00  0.00     0.087 C 
ATOM      7  C   UNL A   1      31.543  26.981  25.850  1.00  0.00    -0.004 A 
ATOM      8  C   UNL A   1      31.120  27.907  24.913  1.00  0.00     0.032 A 
ATOM      9  C   UNL A   1      32.058  25.786  25.411  1.00  0.00     0.131 A 
ATOM     10  C   UNL A   1      31.207  27.641  23.572  1.00  0.00     0.108 A 
ATOM     11  C   UNL A   1      32.178  25.491  24.065  1.00  0.00     0.019 A 
ATOM     12  O   UNL A   1      32.368  24.834  26.350  1.00  0.00    -0.475 OA
ATOM     13  C   UNL A   1      31.740  26.441  23.150  1.00  0.00     0.036 A 
ATOM     14  C   UNL A   1      32.700  24.185  23.702  1.00  0.00     0.027 C 
ATOM     15  C   UNL A   1      33.437  23.902  26.024  1.00  0.00     0.316 C 
BRANCH   7  16
ATOM     16  C   UNL A   1      31.487  27.403  27.309  1.00  0.00     0.039 C 
BRANCH  16  17
ATOM     17  C   UNL A   1      32.209  28.729  27.481  1.00  0.00     0.001 C 
ATOM     18  C   UNL A   1      33.691  28.538  27.205  1.00  0.00     0.004 C 
ENDBRANCH  16  17
ENDBRANCH   7  16
BRANCH  10  19
ATOM     19  S   UNL A   1      30.626  28.857  22.363  1.00  0.00     0.310 S 
ATOM     20  F   UNL A   1      30.344  29.881  23.541  1.00  0.00    -0.094 F 
ATOM     21  F   UNL A   1      29.193  28.259  22.633  1.00  0.00    -0.094 F 
ATOM     22  F   UNL A   1      30.032  29.911  21.386  1.00  0.00    -0.094 F 
ATOM     23  F   UNL A   1      32.047  29.531  22.215  1.00  0.00    -0.094 F 
ATOM     24  F   UNL A   1      31.225  27.865  23.439  1.00  0.00    -0.094 F 
ENDBRANCH  10  19
BRANCH  15  25
ATOM     25  C   UNL A   1      33.380  22.725  26.984  1.00  0.00     0.430 C 
ATOM     26  F   UNL A   1      32.680  21.737  26.434  1.00  0.00    -0.167 F 
ATOM     27  F   UNL A   1      34.615  22.303  27.242  1.00  0.00    -0.167 F 
ATOM     28  F   UNL A   1      32.795  23.106  28.117  1.00  0.00    -0.167 F 
ENDBRANCH  15  25
ENDBRANCH   4   6
ENDBRANCH   3   4
ENDBRANCH   2   3
ENDBRANCH   1   2
BRANCH   1  29
ATOM     29  O   UNL A   1      37.492  21.308  25.725  1.00  0.00    -0.458 OA
BRANCH  29  30
ATOM     30  C   UNL A   1      38.873  21.337  26.056  1.00  0.00     0.338 C 
ATOM     31  O   UNL A   1      39.561  20.270  26.005  1.00  0.00    -0.246 OA
BRANCH  30  32
ATOM     32  C   UNL A   1      39.527  22.645  26.470  1.00  0.00     0.060 A 
ATOM     33  C   UNL A   1      40.659  22.621  27.269  1.00  0.00     0.016 A 
ATOM     34  C   UNL A   1      39.000  23.792  26.056  1.00  0.00     0.016 A 
ATOM     35  C   UNL A   1      40.999  23.879  27.819  1.00  0.00     0.010 A 
ATOM     36  C   UNL A   1      39.473  24.991  26.534  1.00  0.00     0.010 A 
ATOM     37  C   UNL A   1      40.551  25.038  27.371  1.00  0.00    -0.014 A 
BRANCH  37  38
ATOM     38  C   UNL A   1      41.201  26.354  27.768  1.00  0.00     0.031 A 
ATOM     39  C   UNL A   1      40.444  27.284  28.484  1.00  0.00     0.074 A 
ATOM     40  C   UNL A   1      42.519  26.553  27.395  1.00  0.00     0.049 A 
ATOM     41  N   UNL A   1      40.841  28.468  28.952  1.00  0.00    -0.248 NA
ATOM     42  C   UNL A   1      39.034  27.089  28.852  1.00  0.00     0.031 C 
ATOM     43  C   UNL A   1      43.291  25.617  26.680  1.00  0.00     0.029 A 
ATOM     44  N   UNL A   1      43.308  27.656  27.633  1.00  0.00    -0.354 N 
ATOM     45  C   UNL A   1      39.840  29.065  29.604  1.00  0.00     0.074 A 
ATOM     46  C   UNL A   1      38.662  28.190  29.544  1.00  0.00     0.031 C 
ATOM     47  C   UNL A   1      44.524  26.152  26.481  1.00  0.00     0.029 A 
ATOM     48  C   UNL A   1      44.544  27.431  27.068  1.00  0.00     0.049 A 
ATOM     49  H   UNL A   1      43.036  28.465  28.124  1.00  0.00     0.167 HD
ATOM     50  C   UNL A   1      39.865  30.303  30.247  1.00  0.00     0.034 A 
ATOM     51  C   UNL A   1      45.638  28.282  27.053  1.00  0.00     0.034 A 
ATOM     52  C   UNL A   1      40.972  31.136  30.269  1.00  0.00     0.049 A 
ATOM     53  C   UNL A   1      45.645  29.547  27.647  1.00  0.00     0.074 A 
ATOM     54  C   UNL A   1      41.017  32.384  30.919  1.00  0.00     0.029 A 
ATOM     55  N   UNL A   1      42.201  30.922  29.682  1.00  0.00    -0.354 N 
ATOM     56  N   UNL A   1      44.657  30.125  28.331  1.00  0.00    -0.248 NA
ATOM     57  C   UNL A   1      46.786  30.470  27.609  1.00  0.00     0.031 C 
ATOM     58  C   UNL A   1      42.251  32.919  30.720  1.00  0.00     0.029 A 
ATOM     59  C   UNL A   1      42.997  32.015  29.941  1.00  0.00     0.049 A 
ATOM     60  H   UNL A   1      42.464  30.125  29.167  1.00  0.00     0.167 HD
ATOM     61  C   UNL A   1      45.041  31.329  28.763  1.00  0.00     0.074 A 
ATOM     62  C   UNL A   1      46.414  31.571  28.299  1.00  0.00     0.031 C 
ATOM     63  C   UNL A   1      44.303  32.232  29.530  1.00  0.00     0.034 A 
BRANCH  50  64
ATOM     64  C   UNL A   1      38.607  30.765  30.963  1.00  0.00     0.023 A 
ATOM     65  C   UNL A   1      38.414  30.424  32.291  1.00  0.00     0.012 A 
ATOM     66  C   UNL A   1      37.716  31.496  30.304  1.00  0.00     0.148 A 
ATOM     67  C   UNL A   1      37.101  30.663  32.761  1.00  0.00     0.002 A 
ATOM     68  C   UNL A   1      36.505  31.807  30.876  1.00  0.00     0.091 A 
ATOM     69  F   UNL A   1      37.998  31.934  29.080  1.00  0.00    -0.205 F 
ATOM     70  C   UNL A   1      36.225  31.451  32.165  1.00  0.00     0.022 A 
BRANCH  68  71
ATOM     71  S   UNL A   1      35.265  32.702  29.907  1.00  0.00     0.127 S 
ATOM     72  O   UNL A   1      34.658  31.762  28.864  1.00  0.00    -0.237 OA
ATOM     73  O   UNL A   1      34.162  33.213  30.838  1.00  0.00    -0.237 OA
ATOM     74  O   UNL A   1      36.005  34.027  29.119  1.00  0.00    -0.744 OA
ENDBRANCH  68  71
ENDBRANCH  50  64
BRANCH  51  75
ATOM     75  C   UNL A   1      46.902  27.813  26.351  1.00  0.00     0.023 A 
ATOM     76  C   UNL A   1      47.033  28.002  24.985  1.00  0.00     0.012 A 
ATOM     77  C   UNL A   1      47.856  27.221  27.058  1.00  0.00     0.148 A 
ATOM     78  C   UNL A   1      48.091  27.267  24.403  1.00  0.00     0.002 A 
ATOM     79  C   UNL A   1      48.933  26.639  26.433  1.00  0.00     0.091 A 
ATOM     80  F   UNL A   1      47.769  27.188  28.385  1.00  0.00    -0.205 F 
ATOM     81  C   UNL A   1      49.096  26.737  25.079  1.00  0.00     0.022 A 
BRANCH  79  82
ATOM     82  S   UNL A   1      50.154  25.734  27.415  1.00  0.00     0.127 S 
ATOM     83  O   UNL A   1      49.649  24.312  27.670  1.00  0.00    -0.237 OA
ATOM     84  O   UNL A   1      51.480  25.676  26.654  1.00  0.00    -0.237 OA
ATOM     85  O   UNL A   1      50.388  26.532  28.909  1.00  0.00    -0.744 OA
ENDBRANCH  79  82
ENDBRANCH  51  75
BRANCH  63  86
ATOM     86  C   UNL A   1      44.972  33.535  29.937  1.00  0.00     0.023 A 
ATOM     87  C   UNL A   1      45.719  33.584  31.103  1.00  0.00     0.012 A 
ATOM     88  C   UNL A   1      44.830  34.607  29.165  1.00  0.00     0.148 A 
ATOM     89  C   UNL A   1      46.043  34.896  31.523  1.00  0.00     0.002 A 
ATOM     90  C   UNL A   1      45.291  35.833  29.579  1.00  0.00     0.091 A 
ATOM     91  F   UNL A   1      44.235  34.491  27.981  1.00  0.00    -0.205 F 
ATOM     92  C   UNL A   1      45.985  35.965  30.750  1.00  0.00     0.022 A 
BRANCH  90  93
ATOM     93  S   UNL A   1      44.973  37.295  28.561  1.00  0.00     0.127 S 
ATOM     94  O   UNL A   1      43.463  37.474  28.383  1.00  0.00    -0.237 OA
ATOM     95  O   UNL A   1      45.556  38.532  29.247  1.00  0.00    -0.237 OA
ATOM     96  O   UNL A   1      45.707  37.094  27.029  1.00  0.00    -0.744 OA
ENDBRANCH  90  93
ENDBRANCH  63  86
ENDBRANCH  37  38
ENDBRANCH  30  32
ENDBRANCH  29  30
ENDBRANCH   1  29
TORSDOF 18
ENDMDL
MODEL 3
REMARK VINA RESULT:     -11.9      3.860      8.165
REMARK SMILES CCCc1cc(S(F)(F)(F)(F)F)cc2c1O[C@@H](C(F)(F)F)C(C(=O)OCCOC(=O)c1ccc(-c3c4nc(c(-c5cccc(S(=O)(=O)[O-])c5F)c5ccc([nH]5)c(-c5cccc(S(=O)(=O)[O-])c5F)c5nc(c(-c6cccc(S(=O)(=O)[O-])c6F)c6ccc3[nH]6)C=C5)C=C4)cc1)=C2
REMARK SMILES IDX 27 1 26 2 25 3 23 4 24 5 22 6 4 7 5 8 15 9 6 10 14 11 16 12
REMARK SMILES IDX 13 13 94 14 17 15 3 16 2 17 1 18 7 19 8 20 9 21 10 22 11 23
REMARK SMILES IDX 12 24 18 25 19 26 20 27 21 28 28 29 29 30 30 31 31 32 32 33
REMARK SMILES IDX 93 34 33 35 92 36 34 37 35 38 36 39 86 40 37 41 91 42 85 43
REMARK SMILES IDX 87 44 38 45 90 46 84 47 83 48 39 50 71 51 51 52 70 53 52 54
REMARK SMILES IDX 55 55 69 56 88 57 53 58 54 59 68 61 89 62 56 63 40 64 41 65
REMARK SMILES IDX 49 66 42 67 44 68 50 69 43 70 45 71 46 72 47 73 48 74 72 75
REMARK SMILES IDX 73 76 81 77 74 78 76 79 82 80 75 81 77 82 78 83 79 84 80 85
REMARK SMILES IDX 57 86 58 87 66 88 59 89 61 90 67 91 60 92 62 93 63 94 64 95
REMARK SMILES IDX 65 96
REMARK H PARENT 87 49 55 60
REMARK Flexibility Score: inf
ROOT
ATOM      1  C   UNL A   1      36.768  21.920  26.066  1.00  0.00     0.275 C 
ENDROOT
BRANCH   1   2
ATOM      2  C   UNL A   1      36.419  20.984  24.920  1.00  0.00     0.275 C 
BRANCH   2   3
ATOM      3  O   UNL A   1      35.208  21.411  24.312  1.00  0.00    -0.459 OA
BRANCH   3   4
ATOM      4  C   UNL A   1      35.139  22.684  23.687  1.00  0.00     0.338 C 
ATOM      5  O   UNL A   1      35.937  22.971  22.741  1.00  0.00    -0.246 OA
BRANCH   4   6
ATOM      6  C   UNL A   1      34.108  23.702  24.147  1.00  0.00     0.087 C 
ATOM      7  C   UNL A   1      31.235  26.633  24.921  1.00  0.00    -0.004 A 
ATOM      8  C   UNL A   1      31.580  27.766  25.637  1.00  0.00     0.032 A 
ATOM      9  C   UNL A   1      32.212  25.711  24.635  1.00  0.00     0.131 A 
ATOM     10  C   UNL A   1      32.869  27.972  26.050  1.00  0.00     0.108 A 
ATOM     11  C   UNL A   1      33.520  25.877  25.052  1.00  0.00     0.019 A 
ATOM     12  O   UNL A   1      31.880  24.650  23.829  1.00  0.00    -0.475 OA
ATOM     13  C   UNL A   1      33.833  27.028  25.765  1.00  0.00     0.036 A 
ATOM     14  C   UNL A   1      34.487  24.863  24.666  1.00  0.00     0.027 C 
ATOM     15  C   UNL A   1      32.618  23.411  24.024  1.00  0.00     0.316 C 
BRANCH   7  16
ATOM     16  C   UNL A   1      29.764  26.453  24.582  1.00  0.00     0.039 C 
BRANCH  16  17
ATOM     17  C   UNL A   1      29.455  27.164  23.275  1.00  0.00     0.001 C 
ATOM     18  C   UNL A   1      28.161  27.948  23.419  1.00  0.00     0.004 C 
ENDBRANCH  16  17
ENDBRANCH   7  16
BRANCH  10  19
ATOM     19  S   UNL A   1      33.304  29.472  26.965  1.00  0.00     0.310 S 
ATOM     20  F   UNL A   1      34.841  29.170  26.713  1.00  0.00    -0.094 F 
ATOM     21  F   UNL A   1      33.397  28.530  28.225  1.00  0.00    -0.094 F 
ATOM     22  F   UNL A   1      33.747  30.697  27.815  1.00  0.00    -0.094 F 
ATOM     23  F   UNL A   1      33.343  30.369  25.666  1.00  0.00    -0.094 F 
ATOM     24  F   UNL A   1      32.964  28.215  26.069  1.00  0.00    -0.094 F 
ENDBRANCH  10  19
BRANCH  15  25
ATOM     25  C   UNL A   1      32.388  22.502  22.828  1.00  0.00     0.430 C 
ATOM     26  F   UNL A   1      31.099  22.521  22.498  1.00  0.00    -0.167 F 
ATOM     27  F   UNL A   1      33.115  22.928  21.799  1.00  0.00    -0.167 F 
ATOM     28  F   UNL A   1      32.747  21.259  23.141  1.00  0.00    -0.167 F 
ENDBRANCH  15  25
ENDBRANCH   4   6
ENDBRANCH   3   4
ENDBRANCH   2   3
ENDBRANCH   1   2
BRANCH   1  29
ATOM     29  O   UNL A   1      37.831  22.775  25.673  1.00  0.00    -0.458 OA
BRANCH  29  30
ATOM     30  C   UNL A   1      39.009  22.852  26.463  1.00  0.00     0.338 C 
ATOM     31  O   UNL A   1      39.671  21.799  26.721  1.00  0.00    -0.246 OA
BRANCH  30  32
ATOM     32  C   UNL A   1      39.477  24.196  26.999  1.00  0.00     0.060 A 
ATOM     33  C   UNL A   1      39.280  24.505  28.335  1.00  0.00     0.016 A 
ATOM     34  C   UNL A   1      40.070  25.051  26.173  1.00  0.00     0.016 A 
ATOM     35  C   UNL A   1      39.489  25.869  28.644  1.00  0.00     0.010 A 
ATOM     36  C   UNL A   1      40.368  26.328  26.586  1.00  0.00     0.010 A 
ATOM     37  C   UNL A   1      40.147  26.719  27.876  1.00  0.00    -0.014 A 
BRANCH  37  38
ATOM     38  C   UNL A   1      40.630  28.062  28.400  1.00  0.00     0.031 A 
ATOM     39  C   UNL A   1      41.989  28.221  28.679  1.00  0.00     0.074 A 
ATOM     40  C   UNL A   1      39.684  29.059  28.567  1.00  0.00     0.049 A 
ATOM     41  N   UNL A   1      42.608  29.322  29.106  1.00  0.00    -0.248 NA
ATOM     42  C   UNL A   1      42.989  27.153  28.534  1.00  0.00     0.031 C 
ATOM     43  C   UNL A   1      38.314  28.909  28.280  1.00  0.00     0.029 A 
ATOM     44  N   UNL A   1      39.881  30.342  29.028  1.00  0.00    -0.354 N 
ATOM     45  C   UNL A   1      43.916  29.092  29.241  1.00  0.00     0.074 A 
ATOM     46  C   UNL A   1      44.180  27.692  28.881  1.00  0.00     0.031 C 
ATOM     47  C   UNL A   1      37.691  30.081  28.575  1.00  0.00     0.029 A 
ATOM     48  C   UNL A   1      38.662  30.982  29.050  1.00  0.00     0.049 A 
ATOM     49  H   UNL A   1      40.744  30.734  29.296  1.00  0.00     0.167 HD
ATOM     50  C   UNL A   1      44.900  29.994  29.649  1.00  0.00     0.034 A 
ATOM     51  C   UNL A   1      38.391  32.278  29.460  1.00  0.00     0.034 A 
ATOM     52  C   UNL A   1      44.636  31.304  30.017  1.00  0.00     0.049 A 
ATOM     53  C   UNL A   1      39.367  33.165  29.923  1.00  0.00     0.074 A 
ATOM     54  C   UNL A   1      45.616  32.230  30.423  1.00  0.00     0.029 A 
ATOM     55  N   UNL A   1      43.413  31.938  30.063  1.00  0.00    -0.354 N 
ATOM     56  N   UNL A   1      40.679  32.946  30.021  1.00  0.00    -0.248 NA
ATOM     57  C   UNL A   1      39.088  34.529  30.391  1.00  0.00     0.031 C 
ATOM     58  C   UNL A   1      44.993  33.402  30.718  1.00  0.00     0.029 A 
ATOM     59  C   UNL A   1      43.613  33.227  30.502  1.00  0.00     0.049 A 
ATOM     60  H   UNL A   1      42.546  31.538  29.822  1.00  0.00     0.167 HD
ATOM     61  C   UNL A   1      41.293  34.035  30.488  1.00  0.00     0.074 A 
ATOM     62  C   UNL A   1      40.277  35.067  30.740  1.00  0.00     0.031 C 
ATOM     63  C   UNL A   1      42.659  34.212  30.711  1.00  0.00     0.034 A 
BRANCH  50  64
ATOM     64  C   UNL A   1      46.341  29.515  29.690  1.00  0.00     0.023 A 
ATOM     65  C   UNL A   1      46.853  28.993  30.866  1.00  0.00     0.012 A 
ATOM     66  C   UNL A   1      47.084  29.598  28.593  1.00  0.00     0.148 A 
ATOM     67  C   UNL A   1      48.260  28.846  30.865  1.00  0.00     0.002 A 
ATOM     68  C   UNL A   1      48.427  29.309  28.634  1.00  0.00     0.091 A 
ATOM     69  F   UNL A   1      46.524  29.962  27.443  1.00  0.00    -0.205 F 
ATOM     70  C   UNL A   1      49.012  28.844  29.780  1.00  0.00     0.022 A 
BRANCH  68  71
ATOM     71  S   UNL A   1      49.437  29.548  27.151  1.00  0.00     0.127 S 
ATOM     72  O   UNL A   1      49.434  31.028  26.765  1.00  0.00    -0.237 OA
ATOM     73  O   UNL A   1      50.872  29.096  27.432  1.00  0.00    -0.237 OA
ATOM     74  O   UNL A   1      48.789  28.623  25.866  1.00  0.00    -0.744 OA
ENDBRANCH  68  71
ENDBRANCH  50  64
BRANCH  51  75
ATOM     75  C   UNL A   1      36.952  32.763  29.402  1.00  0.00     0.023 A 
ATOM     76  C   UNL A   1      36.351  32.968  28.172  1.00  0.00     0.012 A 
ATOM     77  C   UNL A   1      36.298  32.992  30.535  1.00  0.00     0.148 A 
ATOM     78  C   UNL A   1      35.140  33.698  28.239  1.00  0.00     0.002 A 
ATOM     79  C   UNL A   1      35.058  33.585  30.520  1.00  0.00     0.091 A 
ATOM     80  F   UNL A   1      36.847  32.643  31.695  1.00  0.00    -0.205 F 
ATOM     81  C   UNL A   1      34.429  33.869  29.339  1.00  0.00     0.022 A 
BRANCH  79  82
ATOM     82  S   UNL A   1      34.245  33.993  32.084  1.00  0.00     0.127 S 
ATOM     83  O   UNL A   1      32.994  34.828  31.805  1.00  0.00    -0.237 OA
ATOM     84  O   UNL A   1      33.849  32.704  32.806  1.00  0.00    -0.237 OA
ATOM     85  O   UNL A   1      35.320  34.889  33.068  1.00  0.00    -0.744 OA
ENDBRANCH  79  82
ENDBRANCH  51  75
BRANCH  63  86
ATOM     86  C   UNL A   1      43.131  35.567  31.215  1.00  0.00     0.023 A 
ATOM     87  C   UNL A   1      43.544  36.527  30.306  1.00  0.00     0.012 A 
ATOM     88  C   UNL A   1      43.138  35.806  32.521  1.00  0.00     0.148 A 
ATOM     89  C   UNL A   1      44.224  37.619  30.894  1.00  0.00     0.002 A 
ATOM     90  C   UNL A   1      43.700  36.958  33.018  1.00  0.00     0.091 A 
ATOM     91  F   UNL A   1      42.597  34.923  33.356  1.00  0.00    -0.205 F 
ATOM     92  C   UNL A   1      44.181  37.924  32.178  1.00  0.00     0.022 A 
BRANCH  90  93
ATOM     93  S   UNL A   1      43.803  37.199  34.808  1.00  0.00     0.127 S 
ATOM     94  O   UNL A   1      44.454  38.553  35.104  1.00  0.00    -0.237 OA
ATOM     95  O   UNL A   1      42.396  37.168  35.409  1.00  0.00    -0.237 OA
ATOM     96  O   UNL A   1      44.746  35.951  35.499  1.00  0.00    -0.744 OA
ENDBRANCH  90  93
ENDBRANCH  63  86
ENDBRANCH  37  38
ENDBRANCH  30  32
ENDBRANCH  29  30
ENDBRANCH   1  29
TORSDOF 18
ENDMDL
