MODEL 1
REMARK VINA RESULT:     -11.2      0.000      0.000
REMARK SMILES O=C(OCCOC(=O)[C@H]1C=C[C@@H](NC(=O)[C@@H]2CSC[NH2+]2)C1)c1ccc(-c2c3nc(c(-c4cccc(S(=O)(=O)[O-])c4F)c4ccc([nH]4)c(-c4cccc(S(=O)(=O)[O-])c4F)c4nc(c(-c5cccc(S(=O)(=O)[O-])c5F)c5ccc2[nH]5)C=C4)C=C3)cc1
REMARK SMILES IDX 4 1 3 2 2 3 1 4 22 5 23 6 84 7 24 8 83 9 25 10 26 11 27 12
REMARK SMILES IDX 77 13 28 14 82 15 76 16 78 17 29 18 81 19 75 20 74 21 30 23
REMARK SMILES IDX 62 24 42 25 61 26 43 27 46 28 60 29 79 30 44 31 45 32 59 34
REMARK SMILES IDX 80 35 47 36 31 37 32 38 40 39 33 40 35 41 41 42 34 43 36 44
REMARK SMILES IDX 37 45 38 46 39 47 63 48 64 49 72 50 65 51 67 52 73 53 66 54
REMARK SMILES IDX 68 55 69 56 70 57 71 58 48 59 49 60 57 61 50 62 52 63 58 64
REMARK SMILES IDX 51 65 53 66 54 67 55 68 56 69 5 70 6 71 7 72 8 73 9 74 10 75
REMARK SMILES IDX 21 76 11 77 12 78 13 79 14 80 15 82 16 83 17 84 20 85 18 86
REMARK SMILES IDX 19 87
REMARK H PARENT 78 22 46 33 13 81 20 88 20 89
REMARK Flexibility Score: inf
ROOT
ATOM      1  C   UNL A   1      36.843  20.222  25.002  1.00  0.00     0.275 C 
ENDROOT
BRANCH   1   2
ATOM      2  O   UNL A   1      37.820  21.261  25.156  1.00  0.00    -0.458 OA
BRANCH   2   3
ATOM      3  C   UNL A   1      38.902  21.311  25.967  1.00  0.00     0.338 C 
ATOM      4  O   UNL A   1      39.399  20.242  26.320  1.00  0.00    -0.246 OA
BRANCH   3   5
ATOM      5  C   UNL A   1      39.455  22.572  26.573  1.00  0.00     0.060 A 
ATOM      6  C   UNL A   1      40.441  22.676  27.558  1.00  0.00     0.016 A 
ATOM      7  C   UNL A   1      38.987  23.771  26.005  1.00  0.00     0.016 A 
ATOM      8  C   UNL A   1      41.033  23.903  27.877  1.00  0.00     0.010 A 
ATOM      9  C   UNL A   1      39.614  24.988  26.274  1.00  0.00     0.010 A 
ATOM     10  C   UNL A   1      40.653  25.062  27.210  1.00  0.00    -0.014 A 
BRANCH  10  11
ATOM     11  C   UNL A   1      41.221  26.377  27.593  1.00  0.00     0.031 A 
ATOM     12  C   UNL A   1      42.666  26.621  27.264  1.00  0.00     0.074 A 
ATOM     13  C   UNL A   1      40.483  27.320  28.214  1.00  0.00     0.049 A 
ATOM     14  N   UNL A   1      43.405  27.663  27.526  1.00  0.00    -0.248 NA
ATOM     15  C   UNL A   1      43.372  25.550  26.535  1.00  0.00     0.031 C 
ATOM     16  C   UNL A   1      39.054  27.228  28.522  1.00  0.00     0.029 A 
ATOM     17  N   UNL A   1      40.843  28.542  28.729  1.00  0.00    -0.354 N 
ATOM     18  C   UNL A   1      44.653  27.371  26.993  1.00  0.00     0.074 A 
ATOM     19  C   UNL A   1      44.604  26.022  26.484  1.00  0.00     0.031 C 
ATOM     20  C   UNL A   1      38.678  28.313  29.227  1.00  0.00     0.029 A 
ATOM     21  C   UNL A   1      39.837  29.169  29.432  1.00  0.00     0.049 A 
ATOM     22  H   UNL A   1      41.737  28.933  28.606  1.00  0.00     0.167 HD
ATOM     23  C   UNL A   1      45.726  28.181  26.868  1.00  0.00     0.034 A 
ATOM     24  C   UNL A   1      39.856  30.304  30.160  1.00  0.00     0.034 A 
ATOM     25  C   UNL A   1      45.753  29.529  27.350  1.00  0.00     0.049 A 
ATOM     26  C   UNL A   1      41.106  31.143  30.114  1.00  0.00     0.074 A 
ATOM     27  C   UNL A   1      46.759  30.466  27.238  1.00  0.00     0.029 A 
ATOM     28  N   UNL A   1      44.716  30.124  28.056  1.00  0.00    -0.354 N 
ATOM     29  N   UNL A   1      42.237  30.901  29.494  1.00  0.00    -0.248 NA
ATOM     30  C   UNL A   1      41.049  32.450  30.782  1.00  0.00     0.031 C 
ATOM     31  C   UNL A   1      46.346  31.621  27.909  1.00  0.00     0.029 A 
ATOM     32  C   UNL A   1      45.065  31.415  28.401  1.00  0.00     0.049 A 
ATOM     33  H   UNL A   1      43.861  29.692  28.276  1.00  0.00     0.167 HD
ATOM     34  C   UNL A   1      42.997  32.055  29.630  1.00  0.00     0.074 A 
ATOM     35  C   UNL A   1      42.204  32.986  30.410  1.00  0.00     0.031 C 
ATOM     36  C   UNL A   1      44.230  32.331  29.138  1.00  0.00     0.034 A 
BRANCH  23  37
ATOM     37  C   UNL A   1      46.916  27.616  26.147  1.00  0.00     0.023 A 
ATOM     38  C   UNL A   1      46.982  27.693  24.738  1.00  0.00     0.012 A 
ATOM     39  C   UNL A   1      47.943  26.966  26.852  1.00  0.00     0.148 A 
ATOM     40  C   UNL A   1      48.019  27.078  24.040  1.00  0.00     0.002 A 
ATOM     41  C   UNL A   1      48.999  26.397  26.153  1.00  0.00     0.091 A 
ATOM     42  F   UNL A   1      47.847  26.883  28.186  1.00  0.00    -0.205 F 
ATOM     43  C   UNL A   1      49.029  26.435  24.748  1.00  0.00     0.022 A 
BRANCH  41  44
ATOM     44  S   UNL A   1      50.380  25.594  26.970  1.00  0.00     0.127 S 
ATOM     45  O   UNL A   1      50.824  26.639  27.892  1.00  0.00    -0.237 OA
ATOM     46  O   UNL A   1      49.728  24.451  27.610  1.00  0.00    -0.237 OA
ATOM     47  O   UNL A   1      51.327  25.250  25.920  1.00  0.00    -0.744 OA
ENDBRANCH  41  44
ENDBRANCH  23  37
BRANCH  24  48
ATOM     48  C   UNL A   1      38.647  30.798  30.887  1.00  0.00     0.023 A 
ATOM     49  C   UNL A   1      38.492  30.460  32.246  1.00  0.00     0.012 A 
ATOM     50  C   UNL A   1      37.623  31.522  30.236  1.00  0.00     0.148 A 
ATOM     51  C   UNL A   1      37.336  30.817  32.943  1.00  0.00     0.002 A 
ATOM     52  C   UNL A   1      36.476  31.891  30.943  1.00  0.00     0.091 A 
ATOM     53  F   UNL A   1      37.778  31.805  28.935  1.00  0.00    -0.205 F 
ATOM     54  C   UNL A   1      36.334  31.532  32.293  1.00  0.00     0.022 A 
BRANCH  52  55
ATOM     55  S   UNL A   1      35.069  32.732  30.196  1.00  0.00     0.127 S 
ATOM     56  O   UNL A   1      34.125  32.801  31.315  1.00  0.00    -0.237 OA
ATOM     57  O   UNL A   1      35.629  34.030  29.821  1.00  0.00    -0.237 OA
ATOM     58  O   UNL A   1      34.621  31.883  29.104  1.00  0.00    -0.744 OA
ENDBRANCH  52  55
ENDBRANCH  24  48
BRANCH  36  59
ATOM     59  C   UNL A   1      44.777  33.713  29.362  1.00  0.00     0.023 A 
ATOM     60  C   UNL A   1      45.512  34.003  30.526  1.00  0.00     0.012 A 
ATOM     61  C   UNL A   1      44.649  34.689  28.355  1.00  0.00     0.148 A 
ATOM     62  C   UNL A   1      46.094  35.258  30.695  1.00  0.00     0.002 A 
ATOM     63  C   UNL A   1      45.281  35.915  28.503  1.00  0.00     0.091 A 
ATOM     64  F   UNL A   1      43.925  34.394  27.265  1.00  0.00    -0.205 F 
ATOM     65  C   UNL A   1      45.993  36.206  29.677  1.00  0.00     0.022 A 
BRANCH  63  66
ATOM     66  S   UNL A   1      45.308  37.143  27.194  1.00  0.00     0.127 S 
ATOM     67  O   UNL A   1      46.044  38.236  27.825  1.00  0.00    -0.237 OA
ATOM     68  O   UNL A   1      46.037  36.447  26.133  1.00  0.00    -0.237 OA
ATOM     69  O   UNL A   1      43.914  37.430  26.879  1.00  0.00    -0.744 OA
ENDBRANCH  63  66
ENDBRANCH  36  59
ENDBRANCH  10  11
ENDBRANCH   3   5
ENDBRANCH   2   3
ENDBRANCH   1   2
BRANCH   1  70
ATOM     70  C   UNL A   1      35.388  20.704  25.055  1.00  0.00     0.274 C 
BRANCH  70  71
ATOM     71  O   UNL A   1      34.417  19.641  25.002  1.00  0.00    -0.462 OA
BRANCH  71  72
ATOM     72  C   UNL A   1      33.140  20.034  24.738  1.00  0.00     0.312 C 
ATOM     73  O   UNL A   1      32.172  19.279  24.753  1.00  0.00    -0.252 OA
BRANCH  72  74
ATOM     74  C   UNL A   1      33.003  21.508  24.380  1.00  0.00     0.124 C 
ATOM     75  C   UNL A   1      32.396  21.845  23.051  1.00  0.00    -0.014 C 
ATOM     76  C   UNL A   1      32.093  22.289  25.323  1.00  0.00     0.048 C 
ATOM     77  C   UNL A   1      31.584  22.911  23.125  1.00  0.00    -0.006 C 
ATOM     78  C   UNL A   1      31.714  23.504  24.475  1.00  0.00     0.106 C 
BRANCH  78  79
ATOM     79  N   UNL A   1      30.547  24.159  24.949  1.00  0.00    -0.345 N 
ATOM     80  C   UNL A   1      30.414  25.514  25.135  1.00  0.00     0.279 C 
ATOM     81  H   UNL A   1      29.769  23.597  25.162  1.00  0.00     0.164 HD
ATOM     82  O   UNL A   1      29.697  25.869  26.064  1.00  0.00    -0.268 OA
BRANCH  80  83
ATOM     83  C   UNL A   1      31.195  26.446  24.173  1.00  0.00     0.283 C 
ATOM     84  C   UNL A   1      31.568  27.779  24.833  1.00  0.00     0.150 C 
ATOM     85  N   UNL A   1      30.470  26.703  22.920  1.00  0.00    -0.327 N 
ATOM     86  S   UNL A   1      30.654  29.067  23.962  1.00  0.00    -0.096 SA
ATOM     87  C   UNL A   1      29.595  27.844  23.146  1.00  0.00     0.333 C 
ATOM     88  H   UNL A   1      29.915  25.886  22.664  1.00  0.00     0.347 HD
ATOM     89  H   UNL A   1      31.123  26.896  22.160  1.00  0.00     0.347 HD
ENDBRANCH  80  83
ENDBRANCH  78  79
ENDBRANCH  72  74
ENDBRANCH  71  72
ENDBRANCH  70  71
ENDBRANCH   1  70
TORSDOF 16
ENDMDL
MODEL 2
REMARK VINA RESULT:     -11.1      5.455     10.538
REMARK SMILES O=C(OCCOC(=O)[C@H]1C=C[C@@H](NC(=O)[C@@H]2CSC[NH2+]2)C1)c1ccc(-c2c3nc(c(-c4cccc(S(=O)(=O)[O-])c4F)c4ccc([nH]4)c(-c4cccc(S(=O)(=O)[O-])c4F)c4nc(c(-c5cccc(S(=O)(=O)[O-])c5F)c5ccc2[nH]5)C=C4)C=C3)cc1
REMARK SMILES IDX 4 1 3 2 2 3 1 4 22 5 23 6 84 7 24 8 83 9 25 10 26 11 27 12
REMARK SMILES IDX 77 13 28 14 82 15 76 16 78 17 29 18 81 19 75 20 74 21 30 23
REMARK SMILES IDX 62 24 42 25 61 26 43 27 46 28 60 29 79 30 44 31 45 32 59 34
REMARK SMILES IDX 80 35 47 36 31 37 32 38 40 39 33 40 35 41 41 42 34 43 36 44
REMARK SMILES IDX 37 45 38 46 39 47 63 48 64 49 72 50 65 51 67 52 73 53 66 54
REMARK SMILES IDX 68 55 69 56 70 57 71 58 48 59 49 60 57 61 50 62 52 63 58 64
REMARK SMILES IDX 51 65 53 66 54 67 55 68 56 69 5 70 6 71 7 72 8 73 9 74 10 75
REMARK SMILES IDX 21 76 11 77 12 78 13 79 14 80 15 82 16 83 17 84 20 85 18 86
REMARK SMILES IDX 19 87
REMARK H PARENT 78 22 46 33 13 81 20 88 20 89
REMARK Flexibility Score: inf
ROOT
ATOM      1  C   UNL A   1      31.341  31.048  25.781  1.00  0.00     0.275 C 
ENDROOT
BRANCH   1   2
ATOM      2  O   UNL A   1      32.688  30.896  26.250  1.00  0.00    -0.458 OA
BRANCH   2   3
ATOM      3  C   UNL A   1      33.355  31.600  27.194  1.00  0.00     0.338 C 
ATOM      4  O   UNL A   1      32.880  32.682  27.538  1.00  0.00    -0.246 OA
BRANCH   3   5
ATOM      5  C   UNL A   1      34.701  31.219  27.747  1.00  0.00     0.060 A 
ATOM      6  C   UNL A   1      35.782  32.069  28.002  1.00  0.00     0.016 A 
ATOM      7  C   UNL A   1      34.835  29.875  28.138  1.00  0.00     0.016 A 
ATOM      8  C   UNL A   1      36.898  31.638  28.729  1.00  0.00     0.010 A 
ATOM      9  C   UNL A   1      35.917  29.455  28.913  1.00  0.00     0.010 A 
ATOM     10  C   UNL A   1      36.957  30.340  29.224  1.00  0.00    -0.014 A 
BRANCH  10  11
ATOM     11  C   UNL A   1      38.166  29.853  29.930  1.00  0.00     0.031 A 
ATOM     12  C   UNL A   1      38.455  30.442  31.281  1.00  0.00     0.074 A 
ATOM     13  C   UNL A   1      38.981  28.924  29.390  1.00  0.00     0.049 A 
ATOM     14  N   UNL A   1      39.461  30.217  32.079  1.00  0.00    -0.248 NA
ATOM     15  C   UNL A   1      37.473  31.410  31.807  1.00  0.00     0.031 C 
ATOM     16  C   UNL A   1      38.769  28.227  28.120  1.00  0.00     0.029 A 
ATOM     17  N   UNL A   1      40.181  28.421  29.834  1.00  0.00    -0.354 N 
ATOM     18  C   UNL A   1      39.230  31.011  33.194  1.00  0.00     0.074 A 
ATOM     19  C   UNL A   1      38.048  31.795  32.933  1.00  0.00     0.031 C 
ATOM     20  C   UNL A   1      39.831  27.441  27.858  1.00  0.00     0.029 A 
ATOM     21  C   UNL A   1      40.803  27.586  28.931  1.00  0.00     0.049 A 
ATOM     22  H   UNL A   1      40.561  28.638  30.715  1.00  0.00     0.167 HD
ATOM     23  C   UNL A   1      39.898  31.030  34.367  1.00  0.00     0.034 A 
ATOM     24  C   UNL A   1      42.022  27.011  28.969  1.00  0.00     0.034 A 
ATOM     25  C   UNL A   1      41.053  30.224  34.626  1.00  0.00     0.049 A 
ATOM     26  C   UNL A   1      42.817  27.142  30.242  1.00  0.00     0.074 A 
ATOM     27  C   UNL A   1      41.787  30.115  35.790  1.00  0.00     0.029 A 
ATOM     28  N   UNL A   1      41.651  29.394  33.688  1.00  0.00    -0.354 N 
ATOM     29  N   UNL A   1      42.515  27.799  31.337  1.00  0.00    -0.248 NA
ATOM     30  C   UNL A   1      44.068  26.376  30.322  1.00  0.00     0.031 C 
ATOM     31  C   UNL A   1      42.853  29.244  35.545  1.00  0.00     0.029 A 
ATOM     32  C   UNL A   1      42.757  28.780  34.241  1.00  0.00     0.049 A 
ATOM     33  H   UNL A   1      41.334  29.263  32.766  1.00  0.00     0.167 HD
ATOM     34  C   UNL A   1      43.496  27.465  32.262  1.00  0.00     0.074 A 
ATOM     35  C   UNL A   1      44.411  26.563  31.590  1.00  0.00     0.031 C 
ATOM     36  C   UNL A   1      43.618  27.849  33.556  1.00  0.00     0.034 A 
BRANCH  23  37
ATOM     37  C   UNL A   1      39.349  31.925  35.441  1.00  0.00     0.023 A 
ATOM     38  C   UNL A   1      39.686  33.297  35.447  1.00  0.00     0.012 A 
ATOM     39  C   UNL A   1      38.547  31.405  36.471  1.00  0.00     0.148 A 
ATOM     40  C   UNL A   1      39.282  34.123  36.493  1.00  0.00     0.002 A 
ATOM     41  C   UNL A   1      38.107  32.245  37.485  1.00  0.00     0.091 A 
ATOM     42  F   UNL A   1      38.262  30.096  36.458  1.00  0.00    -0.205 F 
ATOM     43  C   UNL A   1      38.489  33.598  37.509  1.00  0.00     0.022 A 
BRANCH  41  44
ATOM     44  S   UNL A   1      37.036  31.684  38.810  1.00  0.00     0.127 S 
ATOM     45  O   UNL A   1      37.900  31.850  39.978  1.00  0.00    -0.237 OA
ATOM     46  O   UNL A   1      35.929  32.637  38.728  1.00  0.00    -0.237 OA
ATOM     47  O   UNL A   1      36.684  30.308  38.489  1.00  0.00    -0.744 OA
ENDBRANCH  41  44
ENDBRANCH  23  37
BRANCH  24  48
ATOM     48  C   UNL A   1      42.531  26.157  27.853  1.00  0.00     0.023 A 
ATOM     49  C   UNL A   1      43.334  26.753  26.860  1.00  0.00     0.012 A 
ATOM     50  C   UNL A   1      42.166  24.798  27.720  1.00  0.00     0.148 A 
ATOM     51  C   UNL A   1      43.754  26.021  25.747  1.00  0.00     0.002 A 
ATOM     52  C   UNL A   1      42.603  24.067  26.613  1.00  0.00     0.091 A 
ATOM     53  F   UNL A   1      41.375  24.262  28.659  1.00  0.00    -0.205 F 
ATOM     54  C   UNL A   1      43.392  24.682  25.627  1.00  0.00     0.022 A 
BRANCH  52  55
ATOM     55  S   UNL A   1      42.126  22.360  26.292  1.00  0.00     0.127 S 
ATOM     56  O   UNL A   1      42.869  22.061  25.064  1.00  0.00    -0.237 OA
ATOM     57  O   UNL A   1      42.634  21.654  27.469  1.00  0.00    -0.237 OA
ATOM     58  O   UNL A   1      40.683  22.367  26.116  1.00  0.00    -0.744 OA
ENDBRANCH  52  55
ENDBRANCH  24  48
BRANCH  36  59
ATOM     59  C   UNL A   1      44.739  27.249  34.358  1.00  0.00     0.023 A 
ATOM     60  C   UNL A   1      45.993  27.885  34.408  1.00  0.00     0.012 A 
ATOM     61  C   UNL A   1      44.501  26.109  35.151  1.00  0.00     0.148 A 
ATOM     62  C   UNL A   1      47.006  27.377  35.220  1.00  0.00     0.002 A 
ATOM     63  C   UNL A   1      45.493  25.647  36.002  1.00  0.00     0.091 A 
ATOM     64  F   UNL A   1      43.303  25.512  35.068  1.00  0.00    -0.205 F 
ATOM     65  C   UNL A   1      46.750  26.271  36.029  1.00  0.00     0.022 A 
BRANCH  63  66
ATOM     66  S   UNL A   1      45.209  24.309  37.166  1.00  0.00     0.127 S 
ATOM     67  O   UNL A   1      44.146  24.862  38.003  1.00  0.00    -0.237 OA
ATOM     68  O   UNL A   1      44.788  23.219  36.285  1.00  0.00    -0.237 OA
ATOM     69  O   UNL A   1      46.481  24.082  37.840  1.00  0.00    -0.744 OA
ENDBRANCH  63  66
ENDBRANCH  36  59
ENDBRANCH  10  11
ENDBRANCH   3   5
ENDBRANCH   2   3
ENDBRANCH   1   2
BRANCH   1  70
ATOM     70  C   UNL A   1      30.780  29.823  25.049  1.00  0.00     0.274 C 
BRANCH  70  71
ATOM     71  O   UNL A   1      30.271  30.110  23.732  1.00  0.00    -0.462 OA
BRANCH  71  72
ATOM     72  C   UNL A   1      30.095  29.025  22.928  1.00  0.00     0.312 C 
ATOM     73  O   UNL A   1      29.569  29.069  21.819  1.00  0.00    -0.252 OA
BRANCH  72  74
ATOM     74  C   UNL A   1      30.581  27.716  23.534  1.00  0.00     0.124 C 
ATOM     75  C   UNL A   1      29.556  26.651  23.796  1.00  0.00    -0.014 C 
ATOM     76  C   UNL A   1      31.569  26.958  22.654  1.00  0.00     0.048 C 
ATOM     77  C   UNL A   1      30.020  25.426  23.508  1.00  0.00    -0.006 C 
ATOM     78  C   UNL A   1      31.464  25.533  23.200  1.00  0.00     0.106 C 
BRANCH  78  79
ATOM     79  N   UNL A   1      31.949  24.560  22.287  1.00  0.00    -0.345 N 
ATOM     80  C   UNL A   1      32.899  23.608  22.567  1.00  0.00     0.279 C 
ATOM     81  H   UNL A   1      31.574  24.568  21.378  1.00  0.00     0.164 HD
ATOM     82  O   UNL A   1      33.643  23.293  21.645  1.00  0.00    -0.268 OA
BRANCH  80  83
ATOM     83  C   UNL A   1      32.946  23.052  24.013  1.00  0.00     0.283 C 
ATOM     84  C   UNL A   1      34.333  22.510  24.382  1.00  0.00     0.150 C 
ATOM     85  N   UNL A   1      31.933  22.013  24.254  1.00  0.00    -0.327 N 
ATOM     86  S   UNL A   1      34.154  20.731  24.619  1.00  0.00    -0.096 SA
ATOM     87  C   UNL A   1      32.510  20.737  23.858  1.00  0.00     0.333 C 
ATOM     88  H   UNL A   1      31.099  22.205  23.699  1.00  0.00     0.347 HD
ATOM     89  H   UNL A   1      31.664  21.996  25.238  1.00  0.00     0.347 HD
ENDBRANCH  80  83
ENDBRANCH  78  79
ENDBRANCH  72  74
ENDBRANCH  71  72
ENDBRANCH  70  71
ENDBRANCH   1  70
TORSDOF 16
ENDMDL
MODEL 3
REMARK VINA RESULT:     -11.0      5.473     10.348
REMARK SMILES O=C(OCCOC(=O)[C@H]1C=C[C@@H](NC(=O)[C@@H]2CSC[NH2+]2)C1)c1ccc(-c2c3nc(c(-c4cccc(S(=O)(=O)[O-])c4F)c4ccc([nH]4)c(-c4cccc(S(=O)(=O)[O-])c4F)c4nc(c(-c5cccc(S(=O)(=O)[O-])c5F)c5ccc2[nH]5)C=C4)C=C3)cc1
REMARK SMILES IDX 4 1 3 2 2 3 1 4 22 5 23 6 84 7 24 8 83 9 25 10 26 11 27 12
REMARK SMILES IDX 77 13 28 14 82 15 76 16 78 17 29 18 81 19 75 20 74 21 30 23
REMARK SMILES IDX 62 24 42 25 61 26 43 27 46 28 60 29 79 30 44 31 45 32 59 34
REMARK SMILES IDX 80 35 47 36 31 37 32 38 40 39 33 40 35 41 41 42 34 43 36 44
REMARK SMILES IDX 37 45 38 46 39 47 63 48 64 49 72 50 65 51 67 52 73 53 66 54
REMARK SMILES IDX 68 55 69 56 70 57 71 58 48 59 49 60 57 61 50 62 52 63 58 64
REMARK SMILES IDX 51 65 53 66 54 67 55 68 56 69 5 70 6 71 7 72 8 73 9 74 10 75
REMARK SMILES IDX 21 76 11 77 12 78 13 79 14 80 15 82 16 83 17 84 20 85 18 86
REMARK SMILES IDX 19 87
REMARK H PARENT 78 22 46 33 13 81 20 88 20 89
REMARK Flexibility Score: inf
ROOT
ATOM      1  C   UNL A   1      32.830  30.251  26.496  1.00  0.00     0.275 C 
ENDROOT
BRANCH   1   2
ATOM      2  O   UNL A   1      32.742  31.494  27.206  1.00  0.00    -0.458 OA
BRANCH   2   3
ATOM      3  C   UNL A   1      33.728  32.254  27.737  1.00  0.00     0.338 C 
ATOM      4  O   UNL A   1      33.562  33.473  27.752  1.00  0.00    -0.246 OA
BRANCH   3   5
ATOM      5  C   UNL A   1      35.063  31.724  28.185  1.00  0.00     0.060 A 
ATOM      6  C   UNL A   1      36.289  32.397  28.165  1.00  0.00     0.016 A 
ATOM      7  C   UNL A   1      35.040  30.449  28.776  1.00  0.00     0.016 A 
ATOM      8  C   UNL A   1      37.416  31.885  28.817  1.00  0.00     0.010 A 
ATOM      9  C   UNL A   1      36.143  29.960  29.478  1.00  0.00     0.010 A 
ATOM     10  C   UNL A   1      37.343  30.683  29.511  1.00  0.00    -0.014 A 
BRANCH  10  11
ATOM     11  C   UNL A   1      38.550  30.097  30.141  1.00  0.00     0.031 A 
ATOM     12  C   UNL A   1      38.951  30.634  31.485  1.00  0.00     0.074 A 
ATOM     13  C   UNL A   1      39.268  29.125  29.541  1.00  0.00     0.049 A 
ATOM     14  N   UNL A   1      39.980  30.321  32.223  1.00  0.00    -0.248 NA
ATOM     15  C   UNL A   1      38.069  31.655  32.083  1.00  0.00     0.031 C 
ATOM     16  C   UNL A   1      38.940  28.474  28.271  1.00  0.00     0.029 A 
ATOM     17  N   UNL A   1      40.451  28.531  29.909  1.00  0.00    -0.354 N 
ATOM     18  C   UNL A   1      39.864  31.103  33.364  1.00  0.00     0.074 A 
ATOM     19  C   UNL A   1      38.729  31.974  33.182  1.00  0.00     0.031 C 
ATOM     20  C   UNL A   1      39.928  27.622  27.937  1.00  0.00     0.029 A 
ATOM     21  C   UNL A   1      40.964  27.675  28.958  1.00  0.00     0.049 A 
ATOM     22  H   UNL A   1      40.891  28.700  30.772  1.00  0.00     0.167 HD
ATOM     23  C   UNL A   1      40.593  31.049  34.499  1.00  0.00     0.034 A 
ATOM     24  C   UNL A   1      42.139  27.015  28.919  1.00  0.00     0.034 A 
ATOM     25  C   UNL A   1      41.700  30.159  34.680  1.00  0.00     0.049 A 
ATOM     26  C   UNL A   1      43.007  27.061  30.149  1.00  0.00     0.074 A 
ATOM     27  C   UNL A   1      42.485  29.973  35.800  1.00  0.00     0.029 A 
ATOM     28  N   UNL A   1      42.187  29.311  33.695  1.00  0.00    -0.354 N 
ATOM     29  N   UNL A   1      42.811  27.713  31.271  1.00  0.00    -0.248 NA
ATOM     30  C   UNL A   1      44.204  26.209  30.146  1.00  0.00     0.031 C 
ATOM     31  C   UNL A   1      43.472  29.036  35.481  1.00  0.00     0.029 A 
ATOM     32  C   UNL A   1      43.274  28.609  34.176  1.00  0.00     0.049 A 
ATOM     33  H   UNL A   1      41.814  29.223  32.789  1.00  0.00     0.167 HD
ATOM     34  C   UNL A   1      43.813  27.291  32.134  1.00  0.00     0.074 A 
ATOM     35  C   UNL A   1      44.626  26.343  31.397  1.00  0.00     0.031 C 
ATOM     36  C   UNL A   1      44.031  27.636  33.427  1.00  0.00     0.034 A 
BRANCH  23  37
ATOM     37  C   UNL A   1      40.167  31.956  35.618  1.00  0.00     0.023 A 
ATOM     38  C   UNL A   1      40.918  33.117  35.902  1.00  0.00     0.012 A 
ATOM     39  C   UNL A   1      39.058  31.636  36.420  1.00  0.00     0.148 A 
ATOM     40  C   UNL A   1      40.609  33.913  37.004  1.00  0.00     0.002 A 
ATOM     41  C   UNL A   1      38.726  32.460  37.488  1.00  0.00     0.091 A 
ATOM     42  F   UNL A   1      38.375  30.516  36.148  1.00  0.00    -0.205 F 
ATOM     43  C   UNL A   1      39.511  33.586  37.792  1.00  0.00     0.022 A 
BRANCH  41  44
ATOM     44  S   UNL A   1      37.298  32.162  38.532  1.00  0.00     0.127 S 
ATOM     45  O   UNL A   1      36.262  32.928  37.840  1.00  0.00    -0.237 OA
ATOM     46  O   UNL A   1      37.152  30.709  38.436  1.00  0.00    -0.237 OA
ATOM     47  O   UNL A   1      37.656  32.655  39.855  1.00  0.00    -0.744 OA
ENDBRANCH  41  44
ENDBRANCH  23  37
BRANCH  24  48
ATOM     48  C   UNL A   1      42.526  26.154  27.760  1.00  0.00     0.023 A 
ATOM     49  C   UNL A   1      43.238  26.738  26.694  1.00  0.00     0.012 A 
ATOM     50  C   UNL A   1      42.133  24.800  27.666  1.00  0.00     0.148 A 
ATOM     51  C   UNL A   1      43.539  25.999  25.547  1.00  0.00     0.002 A 
ATOM     52  C   UNL A   1      42.451  24.062  26.524  1.00  0.00     0.091 A 
ATOM     53  F   UNL A   1      41.429  24.275  28.679  1.00  0.00    -0.205 F 
ATOM     54  C   UNL A   1      43.149  24.666  25.466  1.00  0.00     0.022 A 
BRANCH  52  55
ATOM     55  S   UNL A   1      41.923  22.361  26.254  1.00  0.00     0.127 S 
ATOM     56  O   UNL A   1      42.525  22.058  24.952  1.00  0.00    -0.237 OA
ATOM     57  O   UNL A   1      42.547  21.647  27.368  1.00  0.00    -0.237 OA
ATOM     58  O   UNL A   1      40.469  22.384  26.236  1.00  0.00    -0.744 OA
ENDBRANCH  52  55
ENDBRANCH  24  48
BRANCH  36  59
ATOM     59  C   UNL A   1      45.146  26.942  34.156  1.00  0.00     0.023 A 
ATOM     60  C   UNL A   1      46.438  27.498  34.169  1.00  0.00     0.012 A 
ATOM     61  C   UNL A   1      44.874  25.789  34.920  1.00  0.00     0.148 A 
ATOM     62  C   UNL A   1      47.453  26.902  34.916  1.00  0.00     0.002 A 
ATOM     63  C   UNL A   1      45.873  25.238  35.708  1.00  0.00     0.091 A 
ATOM     64  F   UNL A   1      43.640  25.268  34.873  1.00  0.00    -0.205 F 
ATOM     65  C   UNL A   1      47.166  25.784  35.697  1.00  0.00     0.022 A 
BRANCH  63  66
ATOM     66  S   UNL A   1      45.559  23.877  36.838  1.00  0.00     0.127 S 
ATOM     67  O   UNL A   1      44.949  22.888  35.951  1.00  0.00    -0.237 OA
ATOM     68  O   UNL A   1      46.908  23.539  37.294  1.00  0.00    -0.237 OA
ATOM     69  O   UNL A   1      44.686  24.407  37.877  1.00  0.00    -0.744 OA
ENDBRANCH  63  66
ENDBRANCH  36  59
ENDBRANCH  10  11
ENDBRANCH   3   5
ENDBRANCH   2   3
ENDBRANCH   1   2
BRANCH   1  70
ATOM     70  C   UNL A   1      32.216  29.054  27.230  1.00  0.00     0.274 C 
BRANCH  70  71
ATOM     71  O   UNL A   1      32.839  27.792  26.918  1.00  0.00    -0.462 OA
BRANCH  71  72
ATOM     72  C   UNL A   1      32.010  26.850  26.390  1.00  0.00     0.312 C 
ATOM     73  O   UNL A   1      31.552  25.904  27.025  1.00  0.00    -0.252 OA
BRANCH  72  74
ATOM     74  C   UNL A   1      31.714  27.041  24.909  1.00  0.00     0.124 C 
ATOM     75  C   UNL A   1      31.362  25.822  24.110  1.00  0.00    -0.014 C 
ATOM     76  C   UNL A   1      30.506  27.930  24.632  1.00  0.00     0.048 C 
ATOM     77  C   UNL A   1      30.390  26.069  23.218  1.00  0.00    -0.006 C 
ATOM     78  C   UNL A   1      30.126  27.525  23.207  1.00  0.00     0.106 C 
BRANCH  78  79
ATOM     79  N   UNL A   1      28.792  27.883  22.874  1.00  0.00    -0.345 N 
ATOM     80  C   UNL A   1      28.260  29.146  22.966  1.00  0.00     0.279 C 
ATOM     81  H   UNL A   1      28.200  27.167  22.551  1.00  0.00     0.164 HD
ATOM     82  O   UNL A   1      27.072  29.217  23.263  1.00  0.00    -0.268 OA
BRANCH  80  83
ATOM     83  C   UNL A   1      29.212  30.342  22.708  1.00  0.00     0.283 C 
ATOM     84  C   UNL A   1      28.753  31.615  23.428  1.00  0.00     0.150 C 
ATOM     85  N   UNL A   1      29.393  30.624  21.277  1.00  0.00    -0.327 N 
ATOM     86  S   UNL A   1      28.302  32.805  22.149  1.00  0.00    -0.096 SA
ATOM     87  C   UNL A   1      28.324  31.524  20.869  1.00  0.00     0.333 C 
ATOM     88  H   UNL A   1      29.340  29.757  20.741  1.00  0.00     0.347 HD
ATOM     89  H   UNL A   1      30.305  31.048  21.106  1.00  0.00     0.347 HD
ENDBRANCH  80  83
ENDBRANCH  78  79
ENDBRANCH  72  74
ENDBRANCH  71  72
ENDBRANCH  70  71
ENDBRANCH   1  70
TORSDOF 16
ENDMDL
