MODEL 1
REMARK VINA RESULT:     -11.5      0.000      0.000
REMARK SMILES COc1ccc(/C=C/c2nc(C(=O)OCCOC(=O)c3ccc(-c4c5nc(c(-c6cccc(S(=O)(=O)[O-])c6F)c6ccc([nH]6)c(-c6cccc(S(=O)(=O)[O-])c6F)c6nc(c(-c7cccc(S(=O)(=O)[O-])c7F)c7ccc4[nH]7)C=C6)C=C5)cc3)ccc2C#N)cc1F
REMARK SMILES IDX 15 1 14 2 12 3 13 4 11 5 9 6 10 7 85 8 84 9 83 10 8 11 7 12
REMARK SMILES IDX 6 13 3 14 4 15 89 16 5 17 88 18 90 19 2 20 1 21 86 22 87 23
REMARK SMILES IDX 16 24 17 25 18 26 19 27 20 28 21 29 82 30 22 31 81 32 23 33
REMARK SMILES IDX 24 34 25 35 75 36 26 37 80 38 74 39 76 40 27 41 79 42 73 43
REMARK SMILES IDX 72 44 28 46 60 47 40 48 59 49 41 50 44 51 58 52 77 53 42 54
REMARK SMILES IDX 43 55 57 57 78 58 45 59 29 60 30 61 38 62 31 63 33 64 39 65
REMARK SMILES IDX 32 66 34 67 35 68 36 69 37 70 61 71 62 72 70 73 63 74 65 75
REMARK SMILES IDX 71 76 64 77 66 78 67 79 68 80 69 81 46 82 47 83 55 84 48 85
REMARK SMILES IDX 50 86 56 87 49 88 51 89 52 90 53 91 54 92
REMARK H PARENT 76 45 44 56
REMARK Flexibility Score: inf
ROOT
ATOM      1  C   UNL A   1      32.107  30.712  26.961  1.00  0.00     0.275 C 
ENDROOT
BRANCH   1   2
ATOM      2  O   UNL A   1      31.668  29.963  25.807  1.00  0.00    -0.457 OA
BRANCH   2   3
ATOM      3  C   UNL A   1      31.661  28.610  25.951  1.00  0.00     0.357 C 
ATOM      4  O   UNL A   1      31.361  28.006  26.968  1.00  0.00    -0.244 OA
BRANCH   3   5
ATOM      5  C   UNL A   1      31.983  27.935  24.649  1.00  0.00     0.149 A 
ATOM      6  C   UNL A   1      32.305  25.885  23.560  1.00  0.00     0.082 A 
ATOM      7  N   UNL A   1      32.087  26.577  24.701  1.00  0.00    -0.240 NA
ATOM      8  C   UNL A   1      32.503  26.528  22.342  1.00  0.00     0.078 A 
ATOM      9  C   UNL A   1      32.433  27.930  22.311  1.00  0.00     0.024 A 
ATOM     10  C   UNL A   1      32.152  28.647  23.474  1.00  0.00     0.037 A 
BRANCH   6  11
ATOM     11  C   UNL A   1      32.253  24.423  23.725  1.00  0.00     0.030 C 
ATOM     12  C   UNL A   1      33.349  23.696  23.991  1.00  0.00     0.010 C 
BRANCH  12  13
ATOM     13  C   UNL A   1      33.451  22.233  24.159  1.00  0.00    -0.022 A 
ATOM     14  C   UNL A   1      33.850  19.462  24.563  1.00  0.00     0.154 A 
ATOM     15  C   UNL A   1      32.623  19.937  24.101  1.00  0.00     0.050 A 
ATOM     16  C   UNL A   1      34.883  20.367  24.784  1.00  0.00     0.165 A 
ATOM     17  C   UNL A   1      32.419  21.315  23.911  1.00  0.00     0.012 A 
ATOM     18  C   UNL A   1      34.688  21.732  24.592  1.00  0.00     0.051 A 
ATOM     19  F   UNL A   1      36.101  19.951  25.164  1.00  0.00    -0.203 F 
BRANCH  14  20
ATOM     20  O   UNL A   1      33.984  18.107  24.704  1.00  0.00    -0.494 OA
ATOM     21  C   UNL A   1      33.547  17.386  23.551  1.00  0.00     0.278 C 
ENDBRANCH  14  20
ENDBRANCH  12  13
ENDBRANCH   6  11
BRANCH   8  22
ATOM     22  C   UNL A   1      32.773  25.811  21.132  1.00  0.00     0.101 C 
ATOM     23  N   UNL A   1      32.961  25.270  20.125  1.00  0.00    -0.192 NA
ENDBRANCH   8  22
ENDBRANCH   3   5
ENDBRANCH   2   3
ENDBRANCH   1   2
BRANCH   1  24
ATOM     24  C   UNL A   1      31.722  32.192  26.858  1.00  0.00     0.275 C 
BRANCH  24  25
ATOM     25  O   UNL A   1      32.875  33.045  26.742  1.00  0.00    -0.458 OA
BRANCH  25  26
ATOM     26  C   UNL A   1      33.239  33.671  27.886  1.00  0.00     0.338 C 
ATOM     27  O   UNL A   1      32.589  34.493  28.512  1.00  0.00    -0.246 OA
BRANCH  26  28
ATOM     28  C   UNL A   1      34.503  33.113  28.387  1.00  0.00     0.060 A 
ATOM     29  C   UNL A   1      34.413  32.067  29.298  1.00  0.00     0.016 A 
ATOM     30  C   UNL A   1      35.744  33.661  28.075  1.00  0.00     0.016 A 
ATOM     31  C   UNL A   1      35.534  31.604  29.966  1.00  0.00     0.010 A 
ATOM     32  C   UNL A   1      36.893  33.136  28.688  1.00  0.00     0.010 A 
ATOM     33  C   UNL A   1      36.794  32.111  29.649  1.00  0.00    -0.014 A 
BRANCH  33  34
ATOM     34  C   UNL A   1      37.991  31.513  30.292  1.00  0.00     0.031 A 
ATOM     35  C   UNL A   1      38.799  30.464  29.585  1.00  0.00     0.074 A 
ATOM     36  C   UNL A   1      38.351  31.933  31.524  1.00  0.00     0.049 A 
ATOM     37  N   UNL A   1      39.802  29.760  30.040  1.00  0.00    -0.248 NA
ATOM     38  C   UNL A   1      38.444  30.167  28.186  1.00  0.00     0.031 C 
ATOM     39  C   UNL A   1      37.663  32.972  32.296  1.00  0.00     0.029 A 
ATOM     40  N   UNL A   1      39.370  31.531  32.351  1.00  0.00    -0.354 N 
ATOM     41  C   UNL A   1      40.160  28.897  29.012  1.00  0.00     0.074 A 
ATOM     42  C   UNL A   1      39.281  29.179  27.897  1.00  0.00     0.031 C 
ATOM     43  C   UNL A   1      38.273  33.123  33.478  1.00  0.00     0.029 A 
ATOM     44  C   UNL A   1      39.338  32.135  33.588  1.00  0.00     0.049 A 
ATOM     45  H   UNL A   1      40.057  30.877  32.086  1.00  0.00     0.167 HD
ATOM     46  C   UNL A   1      41.132  27.956  29.009  1.00  0.00     0.034 A 
ATOM     47  C   UNL A   1      40.040  31.886  34.709  1.00  0.00     0.034 A 
ATOM     48  C   UNL A   1      42.017  27.708  30.116  1.00  0.00     0.049 A 
ATOM     49  C   UNL A   1      41.091  30.816  34.681  1.00  0.00     0.074 A 
ATOM     50  C   UNL A   1      43.056  26.796  30.191  1.00  0.00     0.029 A 
ATOM     51  N   UNL A   1      41.969  28.359  31.339  1.00  0.00    -0.354 N 
ATOM     52  N   UNL A   1      41.446  30.040  33.686  1.00  0.00    -0.248 NA
ATOM     53  C   UNL A   1      41.859  30.602  35.914  1.00  0.00     0.031 C 
ATOM     54  C   UNL A   1      43.602  26.859  31.473  1.00  0.00     0.029 A 
ATOM     55  C   UNL A   1      42.952  27.861  32.176  1.00  0.00     0.049 A 
ATOM     56  H   UNL A   1      41.330  29.069  31.576  1.00  0.00     0.167 HD
ATOM     57  C   UNL A   1      42.508  29.280  34.157  1.00  0.00     0.074 A 
ATOM     58  C   UNL A   1      42.744  29.694  35.524  1.00  0.00     0.031 C 
ATOM     59  C   UNL A   1      43.217  28.321  33.514  1.00  0.00     0.034 A 
BRANCH  46  60
ATOM     60  C   UNL A   1      41.316  27.105  27.780  1.00  0.00     0.023 A 
ATOM     61  C   UNL A   1      42.060  27.592  26.689  1.00  0.00     0.012 A 
ATOM     62  C   UNL A   1      40.886  25.762  27.783  1.00  0.00     0.148 A 
ATOM     63  C   UNL A   1      42.375  26.754  25.618  1.00  0.00     0.002 A 
ATOM     64  C   UNL A   1      41.247  24.920  26.738  1.00  0.00     0.091 A 
ATOM     65  F   UNL A   1      40.163  25.327  28.825  1.00  0.00    -0.205 F 
ATOM     66  C   UNL A   1      41.985  25.416  25.652  1.00  0.00     0.022 A 
BRANCH  64  67
ATOM     67  S   UNL A   1      40.879  23.162  26.736  1.00  0.00     0.127 S 
ATOM     68  O   UNL A   1      41.754  22.678  25.669  1.00  0.00    -0.237 OA
ATOM     69  O   UNL A   1      41.283  22.764  28.084  1.00  0.00    -0.237 OA
ATOM     70  O   UNL A   1      39.453  23.045  26.462  1.00  0.00    -0.744 OA
ENDBRANCH  64  67
ENDBRANCH  46  60
BRANCH  47  71
ATOM     71  C   UNL A   1      39.759  32.665  35.949  1.00  0.00     0.023 A 
ATOM     72  C   UNL A   1      40.410  33.892  36.170  1.00  0.00     0.012 A 
ATOM     73  C   UNL A   1      38.818  32.207  36.894  1.00  0.00     0.148 A 
ATOM     74  C   UNL A   1      40.153  34.635  37.323  1.00  0.00     0.002 A 
ATOM     75  C   UNL A   1      38.517  32.982  38.005  1.00  0.00     0.091 A 
ATOM     76  F   UNL A   1      38.220  31.027  36.674  1.00  0.00    -0.205 F 
ATOM     77  C   UNL A   1      39.197  34.187  38.233  1.00  0.00     0.022 A 
BRANCH  75  78
ATOM     78  S   UNL A   1      37.199  32.555  39.149  1.00  0.00     0.127 S 
ATOM     79  O   UNL A   1      36.012  32.738  38.317  1.00  0.00    -0.237 OA
ATOM     80  O   UNL A   1      37.518  31.164  39.469  1.00  0.00    -0.237 OA
ATOM     81  O   UNL A   1      37.333  33.477  40.268  1.00  0.00    -0.744 OA
ENDBRANCH  75  78
ENDBRANCH  47  71
BRANCH  59  82
ATOM     82  C   UNL A   1      44.379  27.697  34.241  1.00  0.00     0.023 A 
ATOM     83  C   UNL A   1      45.659  28.280  34.176  1.00  0.00     0.012 A 
ATOM     84  C   UNL A   1      44.168  26.578  35.071  1.00  0.00     0.148 A 
ATOM     85  C   UNL A   1      46.718  27.737  34.902  1.00  0.00     0.002 A 
ATOM     86  C   UNL A   1      45.212  26.083  35.839  1.00  0.00     0.091 A 
ATOM     87  F   UNL A   1      42.945  26.027  35.102  1.00  0.00    -0.205 F 
ATOM     88  C   UNL A   1      46.492  26.651  35.744  1.00  0.00     0.022 A 
BRANCH  86  89
ATOM     89  S   UNL A   1      44.984  24.762  37.034  1.00  0.00     0.127 S 
ATOM     90  O   UNL A   1      43.938  25.315  37.893  1.00  0.00    -0.237 OA
ATOM     91  O   UNL A   1      44.554  23.650  36.186  1.00  0.00    -0.237 OA
ATOM     92  O   UNL A   1      46.278  24.570  37.676  1.00  0.00    -0.744 OA
ENDBRANCH  86  89
ENDBRANCH  59  82
ENDBRANCH  33  34
ENDBRANCH  26  28
ENDBRANCH  25  26
ENDBRANCH  24  25
ENDBRANCH   1  24
TORSDOF 18
ENDMDL
MODEL 2
REMARK VINA RESULT:     -11.3      5.615     10.823
REMARK SMILES COc1ccc(/C=C/c2nc(C(=O)OCCOC(=O)c3ccc(-c4c5nc(c(-c6cccc(S(=O)(=O)[O-])c6F)c6ccc([nH]6)c(-c6cccc(S(=O)(=O)[O-])c6F)c6nc(c(-c7cccc(S(=O)(=O)[O-])c7F)c7ccc4[nH]7)C=C6)C=C5)cc3)ccc2C#N)cc1F
REMARK SMILES IDX 15 1 14 2 12 3 13 4 11 5 9 6 10 7 85 8 84 9 83 10 8 11 7 12
REMARK SMILES IDX 6 13 3 14 4 15 89 16 5 17 88 18 90 19 2 20 1 21 86 22 87 23
REMARK SMILES IDX 16 24 17 25 18 26 19 27 20 28 21 29 82 30 22 31 81 32 23 33
REMARK SMILES IDX 24 34 25 35 75 36 26 37 80 38 74 39 76 40 27 41 79 42 73 43
REMARK SMILES IDX 72 44 28 46 60 47 40 48 59 49 41 50 44 51 58 52 77 53 42 54
REMARK SMILES IDX 43 55 57 57 78 58 45 59 29 60 30 61 38 62 31 63 33 64 39 65
REMARK SMILES IDX 32 66 34 67 35 68 36 69 37 70 61 71 62 72 70 73 63 74 65 75
REMARK SMILES IDX 71 76 64 77 66 78 67 79 68 80 69 81 46 82 47 83 55 84 48 85
REMARK SMILES IDX 50 86 56 87 49 88 51 89 52 90 53 91 54 92
REMARK H PARENT 76 45 44 56
REMARK Flexibility Score: inf
ROOT
ATOM      1  C   UNL A   1      41.925  19.350  26.550  1.00  0.00     0.275 C 
ENDROOT
BRANCH   1   2
ATOM      2  O   UNL A   1      42.551  19.715  25.300  1.00  0.00    -0.457 OA
BRANCH   2   3
ATOM      3  C   UNL A   1      43.911  19.736  25.306  1.00  0.00     0.357 C 
ATOM      4  O   UNL A   1      44.635  18.754  25.355  1.00  0.00    -0.244 OA
BRANCH   3   5
ATOM      5  C   UNL A   1      44.423  21.138  25.148  1.00  0.00     0.149 A 
ATOM      6  C   UNL A   1      44.991  23.127  26.249  1.00  0.00     0.082 A 
ATOM      7  N   UNL A   1      44.475  21.877  26.292  1.00  0.00    -0.240 NA
ATOM      8  C   UNL A   1      45.400  23.709  25.053  1.00  0.00     0.078 A 
ATOM      9  C   UNL A   1      45.302  22.950  23.877  1.00  0.00     0.024 A 
ATOM     10  C   UNL A   1      44.825  21.640  23.922  1.00  0.00     0.037 A 
BRANCH   6  11
ATOM     11  C   UNL A   1      45.125  23.766  27.570  1.00  0.00     0.030 C 
ATOM     12  C   UNL A   1      44.407  23.366  28.631  1.00  0.00     0.010 C 
BRANCH  12  13
ATOM     13  C   UNL A   1      44.421  23.922  29.998  1.00  0.00    -0.022 A 
ATOM     14  C   UNL A   1      44.381  24.787  32.691  1.00  0.00     0.154 A 
ATOM     15  C   UNL A   1      44.817  25.645  31.681  1.00  0.00     0.050 A 
ATOM     16  C   UNL A   1      43.932  23.516  32.348  1.00  0.00     0.165 A 
ATOM     17  C   UNL A   1      44.848  25.213  30.344  1.00  0.00     0.012 A 
ATOM     18  C   UNL A   1      43.956  23.085  31.024  1.00  0.00     0.051 A 
ATOM     19  F   UNL A   1      43.442  22.679  33.274  1.00  0.00    -0.203 F 
BRANCH  14  20
ATOM     20  O   UNL A   1      44.357  25.283  33.966  1.00  0.00    -0.494 OA
ATOM     21  C   UNL A   1      45.659  25.386  34.543  1.00  0.00     0.278 C 
ENDBRANCH  14  20
ENDBRANCH  12  13
ENDBRANCH   6  11
BRANCH   8  22
ATOM     22  C   UNL A   1      45.911  25.045  24.987  1.00  0.00     0.101 C 
ATOM     23  N   UNL A   1      46.272  26.144  24.932  1.00  0.00    -0.192 NA
ENDBRANCH   8  22
ENDBRANCH   3   5
ENDBRANCH   2   3
ENDBRANCH   1   2
BRANCH   1  24
ATOM     24  C   UNL A   1      40.732  20.257  26.874  1.00  0.00     0.275 C 
BRANCH  24  25
ATOM     25  O   UNL A   1      41.018  21.643  26.607  1.00  0.00    -0.458 OA
BRANCH  25  26
ATOM     26  C   UNL A   1      39.929  22.439  26.505  1.00  0.00     0.338 C 
ATOM     27  O   UNL A   1      38.806  22.109  26.158  1.00  0.00    -0.246 OA
BRANCH  26  28
ATOM     28  C   UNL A   1      40.234  23.781  27.022  1.00  0.00     0.060 A 
ATOM     29  C   UNL A   1      40.093  24.844  26.138  1.00  0.00     0.016 A 
ATOM     30  C   UNL A   1      40.755  23.998  28.295  1.00  0.00     0.016 A 
ATOM     31  C   UNL A   1      40.534  26.113  26.471  1.00  0.00     0.010 A 
ATOM     32  C   UNL A   1      41.125  25.300  28.666  1.00  0.00     0.010 A 
ATOM     33  C   UNL A   1      41.029  26.366  27.751  1.00  0.00    -0.014 A 
BRANCH  33  34
ATOM     34  C   UNL A   1      41.381  27.760  28.122  1.00  0.00     0.031 A 
ATOM     35  C   UNL A   1      42.805  28.230  28.076  1.00  0.00     0.074 A 
ATOM     36  C   UNL A   1      40.397  28.606  28.494  1.00  0.00     0.049 A 
ATOM     37  N   UNL A   1      43.302  29.373  28.471  1.00  0.00    -0.248 NA
ATOM     38  C   UNL A   1      43.804  27.306  27.513  1.00  0.00     0.031 C 
ATOM     39  C   UNL A   1      38.970  28.272  28.543  1.00  0.00     0.029 A 
ATOM     40  N   UNL A   1      40.442  29.912  28.917  1.00  0.00    -0.354 N 
ATOM     41  C   UNL A   1      44.672  29.287  28.261  1.00  0.00     0.074 A 
ATOM     42  C   UNL A   1      44.931  27.986  27.683  1.00  0.00     0.031 C 
ATOM     43  C   UNL A   1      38.280  29.337  28.973  1.00  0.00     0.029 A 
ATOM     44  C   UNL A   1      39.217  30.398  29.314  1.00  0.00     0.049 A 
ATOM     45  H   UNL A   1      41.268  30.447  28.934  1.00  0.00     0.167 HD
ATOM     46  C   UNL A   1      45.621  30.213  28.533  1.00  0.00     0.034 A 
ATOM     47  C   UNL A   1      38.884  31.543  29.939  1.00  0.00     0.034 A 
ATOM     48  C   UNL A   1      45.343  31.514  29.081  1.00  0.00     0.049 A 
ATOM     49  C   UNL A   1      39.964  32.536  30.252  1.00  0.00     0.074 A 
ATOM     50  C   UNL A   1      46.240  32.532  29.359  1.00  0.00     0.029 A 
ATOM     51  N   UNL A   1      44.088  31.978  29.443  1.00  0.00    -0.354 N 
ATOM     52  N   UNL A   1      41.249  32.456  30.007  1.00  0.00    -0.248 NA
ATOM     53  C   UNL A   1      39.553  33.787  30.902  1.00  0.00     0.031 C 
ATOM     54  C   UNL A   1      45.535  33.590  29.935  1.00  0.00     0.029 A 
ATOM     55  C   UNL A   1      44.189  33.261  29.951  1.00  0.00     0.049 A 
ATOM     56  H   UNL A   1      43.250  31.469  29.353  1.00  0.00     0.167 HD
ATOM     57  C   UNL A   1      41.792  33.663  30.428  1.00  0.00     0.074 A 
ATOM     58  C   UNL A   1      40.695  34.459  30.936  1.00  0.00     0.031 C 
ATOM     59  C   UNL A   1      43.084  34.068  30.399  1.00  0.00     0.034 A 
BRANCH  46  60
ATOM     60  C   UNL A   1      47.062  29.880  28.252  1.00  0.00     0.023 A 
ATOM     61  C   UNL A   1      47.685  30.368  27.087  1.00  0.00     0.012 A 
ATOM     62  C   UNL A   1      47.837  29.221  29.229  1.00  0.00     0.148 A 
ATOM     63  C   UNL A   1      49.059  30.206  26.900  1.00  0.00     0.002 A 
ATOM     64  C   UNL A   1      49.211  29.109  29.059  1.00  0.00     0.091 A 
ATOM     65  F   UNL A   1      47.218  28.750  30.321  1.00  0.00    -0.205 F 
ATOM     66  C   UNL A   1      49.822  29.595  27.892  1.00  0.00     0.022 A 
BRANCH  64  67
ATOM     67  S   UNL A   1      50.293  28.428  30.321  1.00  0.00     0.127 S 
ATOM     68  O   UNL A   1      49.880  27.025  30.338  1.00  0.00    -0.237 OA
ATOM     69  O   UNL A   1      51.618  28.666  29.748  1.00  0.00    -0.237 OA
ATOM     70  O   UNL A   1      50.009  29.168  31.542  1.00  0.00    -0.744 OA
ENDBRANCH  64  67
ENDBRANCH  46  60
BRANCH  47  71
ATOM     71  C   UNL A   1      37.463  31.798  30.313  1.00  0.00     0.023 A 
ATOM     72  C   UNL A   1      36.967  31.333  31.545  1.00  0.00     0.012 A 
ATOM     73  C   UNL A   1      36.612  32.534  29.463  1.00  0.00     0.148 A 
ATOM     74  C   UNL A   1      35.641  31.570  31.911  1.00  0.00     0.002 A 
ATOM     75  C   UNL A   1      35.314  32.824  29.863  1.00  0.00     0.091 A 
ATOM     76  F   UNL A   1      37.097  32.955  28.287  1.00  0.00    -0.205 F 
ATOM     77  C   UNL A   1      34.820  32.325  31.077  1.00  0.00     0.022 A 
BRANCH  75  78
ATOM     78  S   UNL A   1      34.237  33.911  28.923  1.00  0.00     0.127 S 
ATOM     79  O   UNL A   1      33.669  32.990  27.940  1.00  0.00    -0.237 OA
ATOM     80  O   UNL A   1      33.301  34.369  29.950  1.00  0.00    -0.237 OA
ATOM     81  O   UNL A   1      35.099  34.954  28.385  1.00  0.00    -0.744 OA
ENDBRANCH  75  78
ENDBRANCH  47  71
BRANCH  59  82
ATOM     82  C   UNL A   1      43.394  35.470  30.854  1.00  0.00     0.023 A 
ATOM     83  C   UNL A   1      43.790  35.720  32.181  1.00  0.00     0.012 A 
ATOM     84  C   UNL A   1      43.383  36.527  29.922  1.00  0.00     0.148 A 
ATOM     85  C   UNL A   1      44.140  37.009  32.582  1.00  0.00     0.002 A 
ATOM     86  C   UNL A   1      43.793  37.794  30.313  1.00  0.00     0.091 A 
ATOM     87  F   UNL A   1      42.983  36.270  28.668  1.00  0.00    -0.205 F 
ATOM     88  C   UNL A   1      44.157  38.040  31.647  1.00  0.00     0.022 A 
BRANCH  86  89
ATOM     89  S   UNL A   1      43.956  39.154  29.151  1.00  0.00     0.127 S 
ATOM     90  O   UNL A   1      42.571  39.603  29.024  1.00  0.00    -0.237 OA
ATOM     91  O   UNL A   1      44.832  40.074  29.876  1.00  0.00    -0.237 OA
ATOM     92  O   UNL A   1      44.540  38.585  27.943  1.00  0.00    -0.744 OA
ENDBRANCH  86  89
ENDBRANCH  59  82
ENDBRANCH  33  34
ENDBRANCH  26  28
ENDBRANCH  25  26
ENDBRANCH  24  25
ENDBRANCH   1  24
TORSDOF 18
ENDMDL
MODEL 3
REMARK VINA RESULT:     -11.2      5.558     10.999
REMARK SMILES COc1ccc(/C=C/c2nc(C(=O)OCCOC(=O)c3ccc(-c4c5nc(c(-c6cccc(S(=O)(=O)[O-])c6F)c6ccc([nH]6)c(-c6cccc(S(=O)(=O)[O-])c6F)c6nc(c(-c7cccc(S(=O)(=O)[O-])c7F)c7ccc4[nH]7)C=C6)C=C5)cc3)ccc2C#N)cc1F
REMARK SMILES IDX 15 1 14 2 12 3 13 4 11 5 9 6 10 7 85 8 84 9 83 10 8 11 7 12
REMARK SMILES IDX 6 13 3 14 4 15 89 16 5 17 88 18 90 19 2 20 1 21 86 22 87 23
REMARK SMILES IDX 16 24 17 25 18 26 19 27 20 28 21 29 82 30 22 31 81 32 23 33
REMARK SMILES IDX 24 34 25 35 75 36 26 37 80 38 74 39 76 40 27 41 79 42 73 43
REMARK SMILES IDX 72 44 28 46 60 47 40 48 59 49 41 50 44 51 58 52 77 53 42 54
REMARK SMILES IDX 43 55 57 57 78 58 45 59 29 60 30 61 38 62 31 63 33 64 39 65
REMARK SMILES IDX 32 66 34 67 35 68 36 69 37 70 61 71 62 72 70 73 63 74 65 75
REMARK SMILES IDX 71 76 64 77 66 78 67 79 68 80 69 81 46 82 47 83 55 84 48 85
REMARK SMILES IDX 50 86 56 87 49 88 51 89 52 90 53 91 54 92
REMARK H PARENT 76 45 44 56
REMARK Flexibility Score: inf
ROOT
ATOM      1  C   UNL A   1      37.774  21.380  24.972  1.00  0.00     0.275 C 
ENDROOT
BRANCH   1   2
ATOM      2  O   UNL A   1      36.459  21.216  24.398  1.00  0.00    -0.457 OA
BRANCH   2   3
ATOM      3  C   UNL A   1      35.826  22.365  24.037  1.00  0.00     0.357 C 
ATOM      4  O   UNL A   1      36.192  23.131  23.161  1.00  0.00    -0.244 OA
BRANCH   3   5
ATOM      5  C   UNL A   1      34.545  22.530  24.803  1.00  0.00     0.149 A 
ATOM      6  C   UNL A   1      32.560  23.757  25.014  1.00  0.00     0.082 A 
ATOM      7  N   UNL A   1      33.764  23.580  24.423  1.00  0.00    -0.240 NA
ATOM      8  C   UNL A   1      32.129  22.940  26.055  1.00  0.00     0.078 A 
ATOM      9  C   UNL A   1      32.962  21.887  26.463  1.00  0.00     0.024 A 
ATOM     10  C   UNL A   1      34.180  21.663  25.819  1.00  0.00     0.037 A 
BRANCH   6  11
ATOM     11  C   UNL A   1      31.753  24.835  24.418  1.00  0.00     0.030 C 
ATOM     12  C   UNL A   1      31.884  26.116  24.797  1.00  0.00     0.010 C 
BRANCH  12  13
ATOM     13  C   UNL A   1      31.134  27.289  24.307  1.00  0.00    -0.022 A 
ATOM     14  C   UNL A   1      29.822  29.663  23.502  1.00  0.00     0.154 A 
ATOM     15  C   UNL A   1      29.493  28.442  22.914  1.00  0.00     0.050 A 
ATOM     16  C   UNL A   1      30.776  29.688  24.515  1.00  0.00     0.165 A 
ATOM     17  C   UNL A   1      30.152  27.263  23.305  1.00  0.00     0.012 A 
ATOM     18  C   UNL A   1      31.428  28.522  24.909  1.00  0.00     0.051 A 
ATOM     19  F   UNL A   1      31.078  30.827  25.156  1.00  0.00    -0.203 F 
BRANCH  14  20
ATOM     20  O   UNL A   1      29.125  30.765  23.088  1.00  0.00    -0.494 OA
ATOM     21  C   UNL A   1      28.885  30.770  21.681  1.00  0.00     0.278 C 
ENDBRANCH  14  20
ENDBRANCH  12  13
ENDBRANCH   6  11
BRANCH   8  22
ATOM     22  C   UNL A   1      30.874  23.140  26.715  1.00  0.00     0.101 C 
ATOM     23  N   UNL A   1      29.865  23.357  27.241  1.00  0.00    -0.192 NA
ENDBRANCH   8  22
ENDBRANCH   3   5
ENDBRANCH   2   3
ENDBRANCH   1   2
BRANCH   1  24
ATOM     24  C   UNL A   1      38.459  20.031  25.218  1.00  0.00     0.275 C 
BRANCH  24  25
ATOM     25  O   UNL A   1      39.242  20.033  26.427  1.00  0.00    -0.458 OA
BRANCH  25  26
ATOM     26  C   UNL A   1      40.568  20.229  26.246  1.00  0.00     0.338 C 
ATOM     27  O   UNL A   1      41.343  19.501  25.645  1.00  0.00    -0.246 OA
BRANCH  26  28
ATOM     28  C   UNL A   1      40.959  21.549  26.758  1.00  0.00     0.060 A 
ATOM     29  C   UNL A   1      40.992  22.596  25.844  1.00  0.00     0.016 A 
ATOM     30  C   UNL A   1      41.396  21.753  28.064  1.00  0.00     0.016 A 
ATOM     31  C   UNL A   1      41.525  23.827  26.186  1.00  0.00     0.010 A 
ATOM     32  C   UNL A   1      41.858  23.024  28.437  1.00  0.00     0.010 A 
ATOM     33  C   UNL A   1      41.939  24.068  27.496  1.00  0.00    -0.014 A 
BRANCH  33  34
ATOM     34  C   UNL A   1      42.393  25.433  27.866  1.00  0.00     0.031 A 
ATOM     35  C   UNL A   1      41.455  26.402  28.523  1.00  0.00     0.074 A 
ATOM     36  C   UNL A   1      43.670  25.788  27.610  1.00  0.00     0.049 A 
ATOM     37  N   UNL A   1      41.651  27.662  28.810  1.00  0.00    -0.248 NA
ATOM     38  C   UNL A   1      40.128  25.898  28.915  1.00  0.00     0.031 C 
ATOM     39  C   UNL A   1      44.684  24.918  27.006  1.00  0.00     0.029 A 
ATOM     40  N   UNL A   1      44.332  26.975  27.808  1.00  0.00    -0.354 N 
ATOM     41  C   UNL A   1      40.460  28.118  29.360  1.00  0.00     0.074 A 
ATOM     42  C   UNL A   1      39.548  26.995  29.387  1.00  0.00     0.031 C 
ATOM     43  C   UNL A   1      45.832  25.597  26.879  1.00  0.00     0.029 A 
ATOM     44  C   UNL A   1      45.615  26.972  27.309  1.00  0.00     0.049 A 
ATOM     45  H   UNL A   1      43.930  27.750  28.262  1.00  0.00     0.167 HD
ATOM     46  C   UNL A   1      40.161  29.364  29.794  1.00  0.00     0.034 A 
ATOM     47  C   UNL A   1      46.503  27.972  27.154  1.00  0.00     0.034 A 
ATOM     48  C   UNL A   1      41.089  30.464  29.788  1.00  0.00     0.049 A 
ATOM     49  C   UNL A   1      46.130  29.348  27.620  1.00  0.00     0.074 A 
ATOM     50  C   UNL A   1      40.885  31.756  30.241  1.00  0.00     0.029 A 
ATOM     51  N   UNL A   1      42.385  30.413  29.300  1.00  0.00    -0.354 N 
ATOM     52  N   UNL A   1      45.014  29.751  28.178  1.00  0.00    -0.248 NA
ATOM     53  C   UNL A   1      47.140  30.403  27.465  1.00  0.00     0.031 C 
ATOM     54  C   UNL A   1      42.038  32.498  29.982  1.00  0.00     0.029 A 
ATOM     55  C   UNL A   1      42.987  31.652  29.432  1.00  0.00     0.049 A 
ATOM     56  H   UNL A   1      42.813  29.614  28.916  1.00  0.00     0.167 HD
ATOM     57  C   UNL A   1      45.205  31.092  28.483  1.00  0.00     0.074 A 
ATOM     58  C   UNL A   1      46.547  31.431  28.056  1.00  0.00     0.031 C 
ATOM     59  C   UNL A   1      44.343  31.963  29.059  1.00  0.00     0.034 A 
BRANCH  46  60
ATOM     60  C   UNL A   1      38.778  29.637  30.323  1.00  0.00     0.023 A 
ATOM     61  C   UNL A   1      38.454  29.317  31.655  1.00  0.00     0.012 A 
ATOM     62  C   UNL A   1      37.855  30.362  29.540  1.00  0.00     0.148 A 
ATOM     63  C   UNL A   1      37.234  29.716  32.202  1.00  0.00     0.002 A 
ATOM     64  C   UNL A   1      36.664  30.799  30.106  1.00  0.00     0.091 A 
ATOM     65  F   UNL A   1      38.178  30.639  28.269  1.00  0.00    -0.205 F 
ATOM     66  C   UNL A   1      36.349  30.471  31.435  1.00  0.00     0.022 A 
BRANCH  64  67
ATOM     67  S   UNL A   1      35.506  31.859  29.234  1.00  0.00     0.127 S 
ATOM     68  O   UNL A   1      36.379  32.941  28.780  1.00  0.00    -0.237 OA
ATOM     69  O   UNL A   1      35.025  30.977  28.171  1.00  0.00    -0.237 OA
ATOM     70  O   UNL A   1      34.498  32.251  30.209  1.00  0.00    -0.744 OA
ENDBRANCH  64  67
ENDBRANCH  46  60
BRANCH  47  71
ATOM     71  C   UNL A   1      47.825  27.699  26.520  1.00  0.00     0.023 A 
ATOM     72  C   UNL A   1      48.942  27.407  27.324  1.00  0.00     0.012 A 
ATOM     73  C   UNL A   1      47.968  27.695  25.118  1.00  0.00     0.148 A 
ATOM     74  C   UNL A   1      50.184  27.144  26.745  1.00  0.00     0.002 A 
ATOM     75  C   UNL A   1      49.190  27.366  24.546  1.00  0.00     0.091 A 
ATOM     76  F   UNL A   1      46.897  27.991  24.368  1.00  0.00    -0.205 F 
ATOM     77  C   UNL A   1      50.305  27.110  25.358  1.00  0.00     0.022 A 
BRANCH  75  78
ATOM     78  S   UNL A   1      49.399  27.156  22.774  1.00  0.00     0.127 S 
ATOM     79  O   UNL A   1      48.516  26.024  22.502  1.00  0.00    -0.237 OA
ATOM     80  O   UNL A   1      48.927  28.442  22.261  1.00  0.00    -0.237 OA
ATOM     81  O   UNL A   1      50.820  26.912  22.570  1.00  0.00    -0.744 OA
ENDBRANCH  75  78
ENDBRANCH  47  71
BRANCH  59  82
ATOM     82  C   UNL A   1      44.835  33.357  29.348  1.00  0.00     0.023 A 
ATOM     83  C   UNL A   1      45.464  33.653  30.571  1.00  0.00     0.012 A 
ATOM     84  C   UNL A   1      44.754  34.350  28.350  1.00  0.00     0.148 A 
ATOM     85  C   UNL A   1      45.978  34.928  30.809  1.00  0.00     0.002 A 
ATOM     86  C   UNL A   1      45.323  35.596  28.571  1.00  0.00     0.091 A 
ATOM     87  F   UNL A   1      44.132  34.051  27.201  1.00  0.00    -0.205 F 
ATOM     88  C   UNL A   1      45.922  35.892  29.806  1.00  0.00     0.022 A 
BRANCH  86  89
ATOM     89  S   UNL A   1      45.398  36.858  27.296  1.00  0.00     0.127 S 
ATOM     90  O   UNL A   1      46.122  36.163  26.232  1.00  0.00    -0.237 OA
ATOM     91  O   UNL A   1      43.983  37.097  27.015  1.00  0.00    -0.237 OA
ATOM     92  O   UNL A   1      46.099  37.990  27.888  1.00  0.00    -0.744 OA
ENDBRANCH  86  89
ENDBRANCH  59  82
ENDBRANCH  33  34
ENDBRANCH  26  28
ENDBRANCH  25  26
ENDBRANCH  24  25
ENDBRANCH   1  24
TORSDOF 18
ENDMDL
