MODEL 1
REMARK VINA RESULT:     -11.2      0.000      0.000
REMARK SMILES COc1ccc(OCC(=O)N/N=C(/C)C(=O)OCCOC(=O)c2ccc(-c3c4nc(c(-c5cccc(S(=O)(=O)[O-])c5F)c5ccc([nH]5)c(-c5cccc(S(=O)(=O)[O-])c5F)c5nc(c(-c6cccc(S(=O)(=O)[O-])c6F)c6ccc3[nH]6)C=C5)C=C4)cc2)cc1
REMARK SMILES IDX 18 1 17 2 15 3 16 4 13 5 12 6 14 7 11 8 9 9 10 10 8 12 7 13
REMARK SMILES IDX 6 14 3 15 4 16 87 17 5 18 86 19 2 20 1 21 19 22 20 23 21 24
REMARK SMILES IDX 22 25 23 26 24 27 85 28 25 29 84 30 26 31 27 32 28 33 78 34
REMARK SMILES IDX 29 35 83 36 77 37 79 38 30 39 82 40 76 41 75 42 31 44 63 45
REMARK SMILES IDX 43 46 62 47 44 48 47 49 61 50 80 51 45 52 46 53 60 55 81 56
REMARK SMILES IDX 48 57 32 58 33 59 41 60 34 61 36 62 42 63 35 64 37 65 38 66
REMARK SMILES IDX 39 67 40 68 64 69 65 70 73 71 66 72 68 73 74 74 67 75 69 76
REMARK SMILES IDX 70 77 71 78 72 79 49 80 50 81 58 82 51 83 53 84 59 85 52 86
REMARK SMILES IDX 54 87 55 88 56 89 57 90
REMARK H PARENT 11 11 79 43 47 54
REMARK Flexibility Score: inf
ROOT
ATOM      1  C   UNL A   1      35.233  20.698  24.948  1.00  0.00     0.275 C 
ENDROOT
BRANCH   1   2
ATOM      2  O   UNL A   1      34.815  22.055  24.655  1.00  0.00    -0.458 OA
BRANCH   2   3
ATOM      3  C   UNL A   1      34.533  22.974  25.593  1.00  0.00     0.354 C 
ATOM      4  O   UNL A   1      35.051  24.052  25.813  1.00  0.00    -0.245 OA
BRANCH   3   5
ATOM      5  C   UNL A   1      33.315  22.500  26.337  1.00  0.00     0.142 C 
ATOM      6  N   UNL A   1      32.077  22.513  25.939  1.00  0.00    -0.170 NA
ATOM      7  C   UNL A   1      33.615  21.906  27.688  1.00  0.00     0.077 C 
BRANCH   6   8
ATOM      8  N   UNL A   1      31.692  22.832  24.673  1.00  0.00    -0.244 N 
ATOM      9  C   UNL A   1      30.977  23.906  24.205  1.00  0.00     0.277 C 
ATOM     10  O   UNL A   1      30.328  23.753  23.165  1.00  0.00    -0.269 OA
ATOM     11  H   UNL A   1      31.972  22.189  23.982  1.00  0.00     0.193 HD
BRANCH   9  12
ATOM     12  C   UNL A   1      31.043  25.271  24.871  1.00  0.00     0.331 C 
BRANCH  12  13
ATOM     13  O   UNL A   1      32.304  25.906  24.976  1.00  0.00    -0.484 OA
BRANCH  13  14
ATOM     14  C   UNL A   1      32.202  27.163  25.509  1.00  0.00     0.120 A 
ATOM     15  C   UNL A   1      32.287  29.745  26.542  1.00  0.00     0.119 A 
ATOM     16  C   UNL A   1      32.702  29.502  25.231  1.00  0.00     0.050 A 
ATOM     17  C   UNL A   1      31.736  28.713  27.300  1.00  0.00     0.050 A 
ATOM     18  C   UNL A   1      32.661  28.208  24.714  1.00  0.00     0.050 A 
ATOM     19  C   UNL A   1      31.685  27.421  26.780  1.00  0.00     0.050 A 
BRANCH  15  20
ATOM     20  O   UNL A   1      32.438  31.026  26.997  1.00  0.00    -0.497 OA
ATOM     21  C   UNL A   1      31.380  31.896  26.584  1.00  0.00     0.278 C 
ENDBRANCH  15  20
ENDBRANCH  13  14
ENDBRANCH  12  13
ENDBRANCH   9  12
ENDBRANCH   6   8
ENDBRANCH   3   5
ENDBRANCH   2   3
ENDBRANCH   1   2
BRANCH   1  22
ATOM     22  C   UNL A   1      36.726  20.375  24.964  1.00  0.00     0.275 C 
BRANCH  22  23
ATOM     23  O   UNL A   1      37.457  21.508  25.453  1.00  0.00    -0.458 OA
BRANCH  23  24
ATOM     24  C   UNL A   1      38.714  21.219  25.865  1.00  0.00     0.338 C 
ATOM     25  O   UNL A   1      39.307  20.161  25.745  1.00  0.00    -0.246 OA
BRANCH  24  26
ATOM     26  C   UNL A   1      39.283  22.427  26.477  1.00  0.00     0.060 A 
ATOM     27  C   UNL A   1      38.753  23.682  26.156  1.00  0.00     0.016 A 
ATOM     28  C   UNL A   1      40.392  22.311  27.315  1.00  0.00     0.016 A 
ATOM     29  C   UNL A   1      39.352  24.837  26.663  1.00  0.00     0.010 A 
ATOM     30  C   UNL A   1      40.994  23.467  27.812  1.00  0.00     0.010 A 
ATOM     31  C   UNL A   1      40.495  24.735  27.466  1.00  0.00    -0.014 A 
BRANCH  31  32
ATOM     32  C   UNL A   1      41.298  25.935  27.802  1.00  0.00     0.031 A 
ATOM     33  C   UNL A   1      40.638  27.042  28.578  1.00  0.00     0.074 A 
ATOM     34  C   UNL A   1      42.562  26.077  27.365  1.00  0.00     0.049 A 
ATOM     35  N   UNL A   1      41.109  28.213  28.912  1.00  0.00    -0.248 NA
ATOM     36  C   UNL A   1      39.261  26.790  29.034  1.00  0.00     0.031 C 
ATOM     37  C   UNL A   1      43.313  25.074  26.619  1.00  0.00     0.029 A 
ATOM     38  N   UNL A   1      43.422  27.143  27.463  1.00  0.00    -0.354 N 
ATOM     39  C   UNL A   1      40.084  28.847  29.602  1.00  0.00     0.074 A 
ATOM     40  C   UNL A   1      38.964  27.931  29.636  1.00  0.00     0.031 C 
ATOM     41  C   UNL A   1      44.518  25.579  26.301  1.00  0.00     0.029 A 
ATOM     42  C   UNL A   1      44.609  26.952  26.796  1.00  0.00     0.049 A 
ATOM     43  H   UNL A   1      43.210  27.964  27.962  1.00  0.00     0.167 HD
ATOM     44  C   UNL A   1      40.075  30.077  30.166  1.00  0.00     0.034 A 
ATOM     45  C   UNL A   1      45.641  27.796  26.595  1.00  0.00     0.034 A 
ATOM     46  C   UNL A   1      41.176  30.997  30.119  1.00  0.00     0.049 A 
ATOM     47  C   UNL A   1      45.578  29.187  27.174  1.00  0.00     0.074 A 
ATOM     48  C   UNL A   1      41.269  32.260  30.675  1.00  0.00     0.029 A 
ATOM     49  N   UNL A   1      42.371  30.760  29.457  1.00  0.00    -0.354 N 
ATOM     50  N   UNL A   1      44.655  29.728  27.932  1.00  0.00    -0.248 NA
ATOM     51  C   UNL A   1      46.712  30.079  26.885  1.00  0.00     0.031 C 
ATOM     52  C   UNL A   1      42.516  32.796  30.333  1.00  0.00     0.029 A 
ATOM     53  C   UNL A   1      43.203  31.860  29.575  1.00  0.00     0.049 A 
ATOM     54  H   UNL A   1      42.595  29.932  28.976  1.00  0.00     0.167 HD
ATOM     55  C   UNL A   1      45.111  31.006  28.241  1.00  0.00     0.074 A 
ATOM     56  C   UNL A   1      46.400  31.156  27.597  1.00  0.00     0.031 C 
ATOM     57  C   UNL A   1      44.511  31.973  28.979  1.00  0.00     0.034 A 
BRANCH  44  58
ATOM     58  C   UNL A   1      38.825  30.475  30.901  1.00  0.00     0.023 A 
ATOM     59  C   UNL A   1      38.679  30.113  32.255  1.00  0.00     0.012 A 
ATOM     60  C   UNL A   1      37.800  31.195  30.261  1.00  0.00     0.148 A 
ATOM     61  C   UNL A   1      37.514  30.430  32.952  1.00  0.00     0.002 A 
ATOM     62  C   UNL A   1      36.654  31.535  30.972  1.00  0.00     0.091 A 
ATOM     63  F   UNL A   1      37.940  31.499  28.963  1.00  0.00    -0.205 F 
ATOM     64  C   UNL A   1      36.505  31.148  32.314  1.00  0.00     0.022 A 
BRANCH  62  65
ATOM     65  S   UNL A   1      35.333  32.501  30.232  1.00  0.00     0.127 S 
ATOM     66  O   UNL A   1      36.033  33.728  29.861  1.00  0.00    -0.237 OA
ATOM     67  O   UNL A   1      34.925  31.667  29.101  1.00  0.00    -0.237 OA
ATOM     68  O   UNL A   1      34.321  32.634  31.272  1.00  0.00    -0.744 OA
ENDBRANCH  62  65
ENDBRANCH  44  58
BRANCH  45  69
ATOM     69  C   UNL A   1      46.850  27.333  25.856  1.00  0.00     0.023 A 
ATOM     70  C   UNL A   1      47.757  26.473  26.505  1.00  0.00     0.012 A 
ATOM     71  C   UNL A   1      47.094  27.707  24.519  1.00  0.00     0.148 A 
ATOM     72  C   UNL A   1      48.897  26.012  25.847  1.00  0.00     0.002 A 
ATOM     73  C   UNL A   1      48.205  27.202  23.853  1.00  0.00     0.091 A 
ATOM     74  F   UNL A   1      46.226  28.538  23.924  1.00  0.00    -0.205 F 
ATOM     75  C   UNL A   1      49.116  26.369  24.519  1.00  0.00     0.022 A 
BRANCH  73  76
ATOM     76  S   UNL A   1      48.509  27.500  22.107  1.00  0.00     0.127 S 
ATOM     77  O   UNL A   1      47.233  28.061  21.671  1.00  0.00    -0.237 OA
ATOM     78  O   UNL A   1      49.618  28.453  22.158  1.00  0.00    -0.237 OA
ATOM     79  O   UNL A   1      48.853  26.204  21.535  1.00  0.00    -0.744 OA
ENDBRANCH  73  76
ENDBRANCH  45  69
BRANCH  57  80
ATOM     80  C   UNL A   1      45.242  33.277  29.160  1.00  0.00     0.023 A 
ATOM     81  C   UNL A   1      46.125  33.432  30.246  1.00  0.00     0.012 A 
ATOM     82  C   UNL A   1      45.132  34.307  28.205  1.00  0.00     0.148 A 
ATOM     83  C   UNL A   1      46.872  34.601  30.390  1.00  0.00     0.002 A 
ATOM     84  C   UNL A   1      45.911  35.452  28.333  1.00  0.00     0.091 A 
ATOM     85  F   UNL A   1      44.269  34.150  27.190  1.00  0.00    -0.205 F 
ATOM     86  C   UNL A   1      46.776  35.604  29.428  1.00  0.00     0.022 A 
BRANCH  84  87
ATOM     87  S   UNL A   1      45.916  36.747  27.087  1.00  0.00     0.127 S 
ATOM     88  O   UNL A   1      46.427  36.036  25.918  1.00  0.00    -0.237 OA
ATOM     89  O   UNL A   1      44.502  37.115  27.007  1.00  0.00    -0.237 OA
ATOM     90  O   UNL A   1      46.779  37.798  27.612  1.00  0.00    -0.744 OA
ENDBRANCH  84  87
ENDBRANCH  57  80
ENDBRANCH  31  32
ENDBRANCH  24  26
ENDBRANCH  23  24
ENDBRANCH  22  23
ENDBRANCH   1  22
TORSDOF 19
ENDMDL
MODEL 2
REMARK VINA RESULT:     -11.0      5.201     10.488
REMARK SMILES COc1ccc(OCC(=O)N/N=C(/C)C(=O)OCCOC(=O)c2ccc(-c3c4nc(c(-c5cccc(S(=O)(=O)[O-])c5F)c5ccc([nH]5)c(-c5cccc(S(=O)(=O)[O-])c5F)c5nc(c(-c6cccc(S(=O)(=O)[O-])c6F)c6ccc3[nH]6)C=C5)C=C4)cc2)cc1
REMARK SMILES IDX 18 1 17 2 15 3 16 4 13 5 12 6 14 7 11 8 9 9 10 10 8 12 7 13
REMARK SMILES IDX 6 14 3 15 4 16 87 17 5 18 86 19 2 20 1 21 19 22 20 23 21 24
REMARK SMILES IDX 22 25 23 26 24 27 85 28 25 29 84 30 26 31 27 32 28 33 78 34
REMARK SMILES IDX 29 35 83 36 77 37 79 38 30 39 82 40 76 41 75 42 31 44 63 45
REMARK SMILES IDX 43 46 62 47 44 48 47 49 61 50 80 51 45 52 46 53 60 55 81 56
REMARK SMILES IDX 48 57 32 58 33 59 41 60 34 61 36 62 42 63 35 64 37 65 38 66
REMARK SMILES IDX 39 67 40 68 64 69 65 70 73 71 66 72 68 73 74 74 67 75 69 76
REMARK SMILES IDX 70 77 71 78 72 79 49 80 50 81 58 82 51 83 53 84 59 85 52 86
REMARK SMILES IDX 54 87 55 88 56 89 57 90
REMARK H PARENT 11 11 79 43 47 54
REMARK Flexibility Score: inf
ROOT
ATOM      1  C   UNL A   1      31.472  29.090  24.827  1.00  0.00     0.275 C 
ENDROOT
BRANCH   1   2
ATOM      2  O   UNL A   1      31.346  27.731  25.316  1.00  0.00    -0.458 OA
BRANCH   2   3
ATOM      3  C   UNL A   1      31.920  26.666  24.732  1.00  0.00     0.354 C 
ATOM      4  O   UNL A   1      33.069  26.496  24.371  1.00  0.00    -0.245 OA
BRANCH   3   5
ATOM      5  C   UNL A   1      30.889  25.573  24.675  1.00  0.00     0.142 C 
ATOM      6  N   UNL A   1      30.749  24.650  23.770  1.00  0.00    -0.170 NA
ATOM      7  C   UNL A   1      29.948  25.556  25.851  1.00  0.00     0.077 C 
BRANCH   6   8
ATOM      8  N   UNL A   1      31.645  24.428  22.769  1.00  0.00    -0.244 N 
ATOM      9  C   UNL A   1      32.841  23.755  22.779  1.00  0.00     0.277 C 
ATOM     10  O   UNL A   1      33.695  24.092  21.951  1.00  0.00    -0.269 OA
ATOM     11  H   UNL A   1      31.394  24.813  21.898  1.00  0.00     0.193 HD
BRANCH   9  12
ATOM     12  C   UNL A   1      33.092  22.571  23.698  1.00  0.00     0.331 C 
BRANCH  12  13
ATOM     13  O   UNL A   1      31.982  21.800  24.119  1.00  0.00    -0.484 OA
BRANCH  13  14
ATOM     14  C   UNL A   1      32.211  20.457  23.987  1.00  0.00     0.120 A 
ATOM     15  C   UNL A   1      32.941  17.776  23.849  1.00  0.00     0.119 A 
ATOM     16  C   UNL A   1      32.892  18.425  25.084  1.00  0.00     0.050 A 
ATOM     17  C   UNL A   1      32.528  18.442  22.696  1.00  0.00     0.050 A 
ATOM     18  C   UNL A   1      32.527  19.768  25.153  1.00  0.00     0.050 A 
ATOM     19  C   UNL A   1      32.154  19.783  22.766  1.00  0.00     0.050 A 
BRANCH  15  20
ATOM     20  O   UNL A   1      33.387  16.483  23.861  1.00  0.00    -0.497 OA
ATOM     21  C   UNL A   1      34.567  16.303  24.651  1.00  0.00     0.278 C 
ENDBRANCH  15  20
ENDBRANCH  13  14
ENDBRANCH  12  13
ENDBRANCH   9  12
ENDBRANCH   6   8
ENDBRANCH   3   5
ENDBRANCH   2   3
ENDBRANCH   1   2
BRANCH   1  22
ATOM     22  C   UNL A   1      32.621  29.954  25.345  1.00  0.00     0.275 C 
BRANCH  22  23
ATOM     23  O   UNL A   1      32.448  30.193  26.748  1.00  0.00    -0.458 OA
BRANCH  23  24
ATOM     24  C   UNL A   1      33.037  31.329  27.192  1.00  0.00     0.338 C 
ATOM     25  O   UNL A   1      32.556  32.449  27.219  1.00  0.00    -0.246 OA
BRANCH  24  26
ATOM     26  C   UNL A   1      34.379  30.987  27.680  1.00  0.00     0.060 A 
ATOM     27  C   UNL A   1      34.683  29.660  28.003  1.00  0.00     0.016 A 
ATOM     28  C   UNL A   1      35.312  32.004  27.881  1.00  0.00     0.016 A 
ATOM     29  C   UNL A   1      35.927  29.348  28.555  1.00  0.00     0.010 A 
ATOM     30  C   UNL A   1      36.551  31.692  28.441  1.00  0.00     0.010 A 
ATOM     31  C   UNL A   1      36.854  30.368  28.806  1.00  0.00    -0.014 A 
BRANCH  31  32
ATOM     32  C   UNL A   1      38.066  30.111  29.620  1.00  0.00     0.031 A 
ATOM     33  C   UNL A   1      39.095  29.154  29.085  1.00  0.00     0.074 A 
ATOM     34  C   UNL A   1      38.218  30.653  30.841  1.00  0.00     0.049 A 
ATOM     35  N   UNL A   1      40.186  28.710  29.650  1.00  0.00    -0.248 NA
ATOM     36  C   UNL A   1      38.857  28.627  27.731  1.00  0.00     0.031 C 
ATOM     37  C   UNL A   1      37.300  31.602  31.462  1.00  0.00     0.029 A 
ATOM     38  N   UNL A   1      39.191  30.452  31.789  1.00  0.00    -0.354 N 
ATOM     39  C   UNL A   1      40.757  27.840  28.731  1.00  0.00     0.074 A 
ATOM     40  C   UNL A   1      39.891  27.815  27.573  1.00  0.00     0.031 C 
ATOM     41  C   UNL A   1      37.738  31.884  32.702  1.00  0.00     0.029 A 
ATOM     42  C   UNL A   1      38.951  31.112  32.970  1.00  0.00     0.049 A 
ATOM     43  H   UNL A   1      39.984  29.889  31.637  1.00  0.00     0.167 HD
ATOM     44  C   UNL A   1      41.905  27.130  28.835  1.00  0.00     0.034 A 
ATOM     45  C   UNL A   1      39.624  31.081  34.138  1.00  0.00     0.034 A 
ATOM     46  C   UNL A   1      42.759  27.137  29.989  1.00  0.00     0.049 A 
ATOM     47  C   UNL A   1      40.862  30.227  34.253  1.00  0.00     0.074 A 
ATOM     48  C   UNL A   1      43.952  26.464  30.183  1.00  0.00     0.029 A 
ATOM     49  N   UNL A   1      42.498  27.837  31.157  1.00  0.00    -0.354 N 
ATOM     50  N   UNL A   1      41.460  29.508  33.334  1.00  0.00    -0.248 NA
ATOM     51  C   UNL A   1      41.529  30.197  35.563  1.00  0.00     0.031 C 
ATOM     52  C   UNL A   1      44.404  26.743  31.479  1.00  0.00     0.029 A 
ATOM     53  C   UNL A   1      43.498  27.600  32.084  1.00  0.00     0.049 A 
ATOM     54  H   UNL A   1      41.717  28.418  31.304  1.00  0.00     0.167 HD
ATOM     55  C   UNL A   1      42.591  28.972  33.941  1.00  0.00     0.074 A 
ATOM     56  C   UNL A   1      42.601  29.457  35.306  1.00  0.00     0.031 C 
ATOM     57  C   UNL A   1      43.527  28.139  33.421  1.00  0.00     0.034 A 
BRANCH  44  58
ATOM     58  C   UNL A   1      42.300  26.304  27.643  1.00  0.00     0.023 A 
ATOM     59  C   UNL A   1      43.017  26.911  26.592  1.00  0.00     0.012 A 
ATOM     60  C   UNL A   1      41.962  24.941  27.554  1.00  0.00     0.148 A 
ATOM     61  C   UNL A   1      43.361  26.183  25.455  1.00  0.00     0.002 A 
ATOM     62  C   UNL A   1      42.335  24.214  26.430  1.00  0.00     0.091 A 
ATOM     63  F   UNL A   1      41.248  24.390  28.546  1.00  0.00    -0.205 F 
ATOM     64  C   UNL A   1      43.028  24.832  25.376  1.00  0.00     0.022 A 
BRANCH  62  65
ATOM     65  S   UNL A   1      41.985  22.458  26.279  1.00  0.00     0.127 S 
ATOM     66  O   UNL A   1      42.653  22.128  25.022  1.00  0.00    -0.237 OA
ATOM     67  O   UNL A   1      42.626  21.903  27.472  1.00  0.00    -0.237 OA
ATOM     68  O   UNL A   1      40.532  22.352  26.276  1.00  0.00    -0.744 OA
ENDBRANCH  62  65
ENDBRANCH  44  58
BRANCH  45  69
ATOM     69  C   UNL A   1      39.174  31.928  35.280  1.00  0.00     0.023 A 
ATOM     70  C   UNL A   1      38.249  31.397  36.198  1.00  0.00     0.012 A 
ATOM     71  C   UNL A   1      39.672  33.231  35.480  1.00  0.00     0.148 A 
ATOM     72  C   UNL A   1      37.807  32.155  37.284  1.00  0.00     0.002 A 
ATOM     73  C   UNL A   1      39.268  33.961  36.592  1.00  0.00     0.091 A 
ATOM     74  F   UNL A   1      40.541  33.723  34.586  1.00  0.00    -0.205 F 
ATOM     75  C   UNL A   1      38.324  33.432  37.485  1.00  0.00     0.022 A 
BRANCH  73  76
ATOM     76  S   UNL A   1      39.966  35.563  37.009  1.00  0.00     0.127 S 
ATOM     77  O   UNL A   1      39.267  35.881  38.253  1.00  0.00    -0.237 OA
ATOM     78  O   UNL A   1      41.384  35.239  37.163  1.00  0.00    -0.237 OA
ATOM     79  O   UNL A   1      39.665  36.435  35.882  1.00  0.00    -0.744 OA
ENDBRANCH  73  76
ENDBRANCH  45  69
BRANCH  57  80
ATOM     80  C   UNL A   1      44.664  27.714  34.313  1.00  0.00     0.023 A 
ATOM     81  C   UNL A   1      45.828  28.505  34.379  1.00  0.00     0.012 A 
ATOM     82  C   UNL A   1      44.543  26.591  35.154  1.00  0.00     0.148 A 
ATOM     83  C   UNL A   1      46.861  28.174  35.256  1.00  0.00     0.002 A 
ATOM     84  C   UNL A   1      45.559  26.290  36.054  1.00  0.00     0.091 A 
ATOM     85  F   UNL A   1      43.437  25.836  35.060  1.00  0.00    -0.205 F 
ATOM     86  C   UNL A   1      46.721  27.076  36.102  1.00  0.00     0.022 A 
BRANCH  84  87
ATOM     87  S   UNL A   1      45.416  24.951  37.244  1.00  0.00     0.127 S 
ATOM     88  O   UNL A   1      44.041  25.112  37.712  1.00  0.00    -0.237 OA
ATOM     89  O   UNL A   1      45.643  23.766  36.416  1.00  0.00    -0.237 OA
ATOM     90  O   UNL A   1      46.452  25.193  38.240  1.00  0.00    -0.744 OA
ENDBRANCH  84  87
ENDBRANCH  57  80
ENDBRANCH  31  32
ENDBRANCH  24  26
ENDBRANCH  23  24
ENDBRANCH  22  23
ENDBRANCH   1  22
TORSDOF 19
ENDMDL
MODEL 3
REMARK VINA RESULT:     -10.9      5.208     10.474
REMARK SMILES COc1ccc(OCC(=O)N/N=C(/C)C(=O)OCCOC(=O)c2ccc(-c3c4nc(c(-c5cccc(S(=O)(=O)[O-])c5F)c5ccc([nH]5)c(-c5cccc(S(=O)(=O)[O-])c5F)c5nc(c(-c6cccc(S(=O)(=O)[O-])c6F)c6ccc3[nH]6)C=C5)C=C4)cc2)cc1
REMARK SMILES IDX 18 1 17 2 15 3 16 4 13 5 12 6 14 7 11 8 9 9 10 10 8 12 7 13
REMARK SMILES IDX 6 14 3 15 4 16 87 17 5 18 86 19 2 20 1 21 19 22 20 23 21 24
REMARK SMILES IDX 22 25 23 26 24 27 85 28 25 29 84 30 26 31 27 32 28 33 78 34
REMARK SMILES IDX 29 35 83 36 77 37 79 38 30 39 82 40 76 41 75 42 31 44 63 45
REMARK SMILES IDX 43 46 62 47 44 48 47 49 61 50 80 51 45 52 46 53 60 55 81 56
REMARK SMILES IDX 48 57 32 58 33 59 41 60 34 61 36 62 42 63 35 64 37 65 38 66
REMARK SMILES IDX 39 67 40 68 64 69 65 70 73 71 66 72 68 73 74 74 67 75 69 76
REMARK SMILES IDX 70 77 71 78 72 79 49 80 50 81 58 82 51 83 53 84 59 85 52 86
REMARK SMILES IDX 54 87 55 88 56 89 57 90
REMARK H PARENT 11 11 79 43 47 54
REMARK Flexibility Score: inf
ROOT
ATOM      1  C   UNL A   1      31.829  28.629  27.068  1.00  0.00     0.275 C 
ENDROOT
BRANCH   1   2
ATOM      2  O   UNL A   1      31.874  27.879  25.828  1.00  0.00    -0.458 OA
BRANCH   2   3
ATOM      3  C   UNL A   1      33.008  27.448  25.251  1.00  0.00     0.354 C 
ATOM      4  O   UNL A   1      33.972  26.890  25.739  1.00  0.00    -0.245 OA
BRANCH   3   5
ATOM      5  C   UNL A   1      32.873  27.672  23.770  1.00  0.00     0.142 C 
ATOM      6  N   UNL A   1      32.146  27.006  22.922  1.00  0.00    -0.170 NA
ATOM      7  C   UNL A   1      33.661  28.847  23.254  1.00  0.00     0.077 C 
BRANCH   6   8
ATOM      8  N   UNL A   1      31.239  26.057  23.283  1.00  0.00    -0.244 N 
ATOM      9  C   UNL A   1      31.333  24.688  23.273  1.00  0.00     0.277 C 
ATOM     10  O   UNL A   1      30.286  24.042  23.153  1.00  0.00    -0.269 OA
ATOM     11  H   UNL A   1      30.377  26.410  23.602  1.00  0.00     0.193 HD
BRANCH   9  12
ATOM     12  C   UNL A   1      32.653  23.968  23.500  1.00  0.00     0.331 C 
BRANCH  12  13
ATOM     13  O   UNL A   1      33.155  23.886  24.822  1.00  0.00    -0.484 OA
BRANCH  13  14
ATOM     14  C   UNL A   1      34.359  23.239  24.873  1.00  0.00     0.120 A 
ATOM     15  C   UNL A   1      36.698  21.770  25.211  1.00  0.00     0.119 A 
ATOM     16  C   UNL A   1      35.487  21.114  24.983  1.00  0.00     0.050 A 
ATOM     17  C   UNL A   1      36.754  23.162  25.168  1.00  0.00     0.050 A 
ATOM     18  C   UNL A   1      34.315  21.849  24.815  1.00  0.00     0.050 A 
ATOM     19  C   UNL A   1      35.584  23.899  24.991  1.00  0.00     0.050 A 
BRANCH  15  20
ATOM     20  O   UNL A   1      37.785  20.972  25.446  1.00  0.00    -0.497 OA
ATOM     21  C   UNL A   1      37.778  19.771  24.669  1.00  0.00     0.278 C 
ENDBRANCH  15  20
ENDBRANCH  13  14
ENDBRANCH  12  13
ENDBRANCH   9  12
ENDBRANCH   6   8
ENDBRANCH   3   5
ENDBRANCH   2   3
ENDBRANCH   1   2
BRANCH   1  22
ATOM     22  C   UNL A   1      31.783  30.156  27.003  1.00  0.00     0.275 C 
BRANCH  22  23
ATOM     23  O   UNL A   1      33.048  30.655  26.549  1.00  0.00    -0.458 OA
BRANCH  23  24
ATOM     24  C   UNL A   1      33.561  31.644  27.319  1.00  0.00     0.338 C 
ATOM     25  O   UNL A   1      33.033  32.704  27.610  1.00  0.00    -0.246 OA
BRANCH  24  26
ATOM     26  C   UNL A   1      34.885  31.218  27.788  1.00  0.00     0.060 A 
ATOM     27  C   UNL A   1      35.118  29.868  28.075  1.00  0.00     0.016 A 
ATOM     28  C   UNL A   1      35.873  32.177  28.010  1.00  0.00     0.016 A 
ATOM     29  C   UNL A   1      36.346  29.475  28.610  1.00  0.00     0.010 A 
ATOM     30  C   UNL A   1      37.096  31.783  28.554  1.00  0.00     0.010 A 
ATOM     31  C   UNL A   1      37.328  30.436  28.883  1.00  0.00    -0.014 A 
BRANCH  31  32
ATOM     32  C   UNL A   1      38.528  30.092  29.682  1.00  0.00     0.031 A 
ATOM     33  C   UNL A   1      39.487  29.074  29.128  1.00  0.00     0.074 A 
ATOM     34  C   UNL A   1      38.727  30.611  30.906  1.00  0.00     0.049 A 
ATOM     35  N   UNL A   1      40.552  28.554  29.678  1.00  0.00    -0.248 NA
ATOM     36  C   UNL A   1      39.201  28.576  27.772  1.00  0.00     0.031 C 
ATOM     37  C   UNL A   1      37.881  31.613  31.544  1.00  0.00     0.029 A 
ATOM     38  N   UNL A   1      39.695  30.338  31.841  1.00  0.00    -0.354 N 
ATOM     39  C   UNL A   1      41.055  27.656  28.746  1.00  0.00     0.074 A 
ATOM     40  C   UNL A   1      40.178  27.699  27.597  1.00  0.00     0.031 C 
ATOM     41  C   UNL A   1      38.348  31.854  32.782  1.00  0.00     0.029 A 
ATOM     42  C   UNL A   1      39.510  31.002  33.031  1.00  0.00     0.049 A 
ATOM     43  H   UNL A   1      40.447  29.726  31.677  1.00  0.00     0.167 HD
ATOM     44  C   UNL A   1      42.155  26.872  28.832  1.00  0.00     0.034 A 
ATOM     45  C   UNL A   1      40.190  30.916  34.192  1.00  0.00     0.034 A 
ATOM     46  C   UNL A   1      43.018  26.812  29.978  1.00  0.00     0.049 A 
ATOM     47  C   UNL A   1      41.370  29.981  34.286  1.00  0.00     0.074 A 
ATOM     48  C   UNL A   1      44.166  26.060  30.154  1.00  0.00     0.029 A 
ATOM     49  N   UNL A   1      42.815  27.517  31.154  1.00  0.00    -0.354 N 
ATOM     50  N   UNL A   1      41.911  29.233  33.355  1.00  0.00    -0.248 NA
ATOM     51  C   UNL A   1      42.047  29.895  35.590  1.00  0.00     0.031 C 
ATOM     52  C   UNL A   1      44.648  26.297  31.447  1.00  0.00     0.029 A 
ATOM     53  C   UNL A   1      43.806  27.206  32.069  1.00  0.00     0.049 A 
ATOM     54  H   UNL A   1      42.076  28.146  31.314  1.00  0.00     0.167 HD
ATOM     55  C   UNL A   1      43.010  28.618  33.946  1.00  0.00     0.074 A 
ATOM     56  C   UNL A   1      43.066  29.089  35.315  1.00  0.00     0.031 C 
ATOM     57  C   UNL A   1      43.884  27.730  33.410  1.00  0.00     0.034 A 
BRANCH  44  58
ATOM     58  C   UNL A   1      42.483  26.032  27.629  1.00  0.00     0.023 A 
ATOM     59  C   UNL A   1      43.169  26.619  26.547  1.00  0.00     0.012 A 
ATOM     60  C   UNL A   1      42.112  24.677  27.561  1.00  0.00     0.148 A 
ATOM     61  C   UNL A   1      43.450  25.879  25.400  1.00  0.00     0.002 A 
ATOM     62  C   UNL A   1      42.423  23.937  26.427  1.00  0.00     0.091 A 
ATOM     63  F   UNL A   1      41.427  24.145  28.584  1.00  0.00    -0.205 F 
ATOM     64  C   UNL A   1      43.085  24.536  25.342  1.00  0.00     0.022 A 
BRANCH  62  65
ATOM     65  S   UNL A   1      42.029  22.189  26.299  1.00  0.00     0.127 S 
ATOM     66  O   UNL A   1      40.570  22.216  26.235  1.00  0.00    -0.237 OA
ATOM     67  O   UNL A   1      42.686  21.806  25.048  1.00  0.00    -0.237 OA
ATOM     68  O   UNL A   1      42.604  21.574  27.488  1.00  0.00    -0.744 OA
ENDBRANCH  62  65
ENDBRANCH  44  58
BRANCH  45  69
ATOM     69  C   UNL A   1      39.809  31.780  35.345  1.00  0.00     0.023 A 
ATOM     70  C   UNL A   1      40.352  33.076  35.433  1.00  0.00     0.012 A 
ATOM     71  C   UNL A   1      38.900  31.347  36.331  1.00  0.00     0.148 A 
ATOM     72  C   UNL A   1      40.016  33.919  36.494  1.00  0.00     0.002 A 
ATOM     73  C   UNL A   1      38.529  32.210  37.356  1.00  0.00     0.091 A 
ATOM     74  F   UNL A   1      38.406  30.104  36.237  1.00  0.00    -0.205 F 
ATOM     75  C   UNL A   1      39.098  33.489  37.449  1.00  0.00     0.022 A 
BRANCH  73  76
ATOM     76  S   UNL A   1      37.264  31.799  38.563  1.00  0.00     0.127 S 
ATOM     77  O   UNL A   1      36.177  32.695  38.176  1.00  0.00    -0.237 OA
ATOM     78  O   UNL A   1      37.029  30.384  38.278  1.00  0.00    -0.237 OA
ATOM     79  O   UNL A   1      37.858  32.061  39.868  1.00  0.00    -0.744 OA
ENDBRANCH  73  76
ENDBRANCH  45  69
BRANCH  57  80
ATOM     80  C   UNL A   1      44.999  27.222  34.286  1.00  0.00     0.023 A 
ATOM     81  C   UNL A   1      46.214  27.934  34.346  1.00  0.00     0.012 A 
ATOM     82  C   UNL A   1      44.812  26.103  35.121  1.00  0.00     0.148 A 
ATOM     83  C   UNL A   1      47.231  27.527  35.209  1.00  0.00     0.002 A 
ATOM     84  C   UNL A   1      45.814  25.729  36.008  1.00  0.00     0.091 A 
ATOM     85  F   UNL A   1      43.657  25.425  35.033  1.00  0.00    -0.205 F 
ATOM     86  C   UNL A   1      47.027  26.434  36.049  1.00  0.00     0.022 A 
BRANCH  84  87
ATOM     87  S   UNL A   1      45.594  24.393  37.189  1.00  0.00     0.127 S 
ATOM     88  O   UNL A   1      44.440  24.858  37.956  1.00  0.00    -0.237 OA
ATOM     89  O   UNL A   1      45.327  23.245  36.323  1.00  0.00    -0.237 OA
ATOM     90  O   UNL A   1      46.847  24.307  37.928  1.00  0.00    -0.744 OA
ENDBRANCH  84  87
ENDBRANCH  57  80
ENDBRANCH  31  32
ENDBRANCH  24  26
ENDBRANCH  23  24
ENDBRANCH  22  23
ENDBRANCH   1  22
TORSDOF 19
ENDMDL
