MODEL 1
REMARK VINA RESULT:     -13.3      0.000      0.000
REMARK SMILES Cc1ccc(S(=O)(=O)n2cc(C(=O)C(=O)N[C@@H](Cc3c[nH]c4ccccc34)C(=O)OCCOC(=O)c3ccc(-c4c5nc(c(-c6cccc(S(=O)(=O)[O-])c6F)c6ccc([nH]6)c(-c6cccc(S(=O)(=O)[O-])c6F)c6nc(c(-c7cccc(S(=O)(=O)[O-])c7F)c7ccc4[nH]7)C=C6)C=C5)cc3)c3ccccc32)cc1
REMARK SMILES IDX 31 1 30 2 28 3 29 4 17 5 16 6 14 7 15 8 12 10 13 11 11 12
REMARK SMILES IDX 9 13 10 14 104 15 99 16 103 17 100 18 102 19 101 20 6 21
REMARK SMILES IDX 7 22 8 23 5 24 1 25 2 26 3 27 106 28 4 29 105 30 18 31 19 32
REMARK SMILES IDX 20 33 27 34 21 35 22 36 26 37 23 39 25 40 24 41 32 42 33 43
REMARK SMILES IDX 34 44 35 45 36 46 37 47 98 48 38 49 97 50 39 51 40 52 41 53
REMARK SMILES IDX 91 54 42 55 96 56 90 57 92 58 43 59 95 60 89 61 88 62 44 64
REMARK SMILES IDX 76 65 56 66 75 67 57 68 60 69 74 70 93 71 58 72 59 73 73 75
REMARK SMILES IDX 94 76 61 77 45 78 46 79 54 80 47 81 49 82 55 83 48 84 50 85
REMARK SMILES IDX 51 86 52 87 53 88 77 89 78 90 86 91 79 92 81 93 87 94 80 95
REMARK SMILES IDX 82 96 83 97 84 98 85 99 62 100 63 101 71 102 64 103 66 104
REMARK SMILES IDX 72 105 65 106 67 107 68 108 69 109 70 110
REMARK H PARENT 16 9 21 38 92 63 60 74
REMARK Flexibility Score: inf
ROOT
ATOM      1  C   UNL A   1      40.488  19.933  25.748  1.00  0.00     0.274 C 
ENDROOT
BRANCH   1   2
ATOM      2  O   UNL A   1      39.111  20.106  26.092  1.00  0.00    -0.461 OA
BRANCH   2   3
ATOM      3  C   UNL A   1      38.637  21.366  25.832  1.00  0.00     0.329 C 
ATOM      4  O   UNL A   1      39.319  22.371  25.978  1.00  0.00    -0.250 OA
BRANCH   3   5
ATOM      5  C   UNL A   1      37.227  21.343  25.208  1.00  0.00     0.197 C 
BRANCH   5   6
ATOM      6  N   UNL A   1      37.143  22.218  23.998  1.00  0.00    -0.335 N 
ATOM      7  C   UNL A   1      36.535  23.457  23.800  1.00  0.00     0.293 C 
ATOM      8  O   UNL A   1      36.665  24.046  22.730  1.00  0.00    -0.265 OA
ATOM      9  H   UNL A   1      37.598  21.857  23.202  1.00  0.00     0.164 HD
BRANCH   7  10
ATOM     10  C   UNL A   1      35.655  24.071  24.894  1.00  0.00     0.252 C 
ATOM     11  O   UNL A   1      36.163  24.100  26.015  1.00  0.00    -0.283 OA
BRANCH  10  12
ATOM     12  C   UNL A   1      34.244  24.504  24.766  1.00  0.00     0.054 A 
ATOM     13  N   UNL A   1      32.020  24.608  25.051  1.00  0.00    -0.240 N 
ATOM     14  C   UNL A   1      33.033  23.867  24.432  1.00  0.00     0.117 A 
ATOM     15  C   UNL A   1      32.615  25.672  25.737  1.00  0.00     0.065 A 
ATOM     16  C   UNL A   1      33.857  25.823  25.148  1.00  0.00     0.012 A 
ATOM     17  C   UNL A   1      32.069  26.659  26.584  1.00  0.00     0.028 A 
ATOM     18  C   UNL A   1      34.467  27.086  25.200  1.00  0.00     0.011 A 
ATOM     19  C   UNL A   1      32.651  27.919  26.565  1.00  0.00     0.002 A 
ATOM     20  C   UNL A   1      33.806  28.146  25.834  1.00  0.00     0.001 A 
BRANCH  13  21
ATOM     21  S   UNL A   1      30.437  25.047  24.548  1.00  0.00     0.268 S 
ATOM     22  O   UNL A   1      29.683  25.024  25.793  1.00  0.00    -0.201 OA
ATOM     23  O   UNL A   1      30.196  24.057  23.500  1.00  0.00    -0.201 OA
BRANCH  21  24
ATOM     24  C   UNL A   1      29.805  26.459  23.739  1.00  0.00     0.088 A 
ATOM     25  C   UNL A   1      29.446  30.396  22.016  1.00  0.00     0.044 C 
ATOM     26  C   UNL A   1      29.516  28.997  22.553  1.00  0.00    -0.051 A 
ATOM     27  C   UNL A   1      30.766  28.405  22.576  1.00  0.00     0.005 A 
ATOM     28  C   UNL A   1      28.407  28.291  23.081  1.00  0.00     0.005 A 
ATOM     29  C   UNL A   1      30.894  27.156  23.143  1.00  0.00     0.022 A 
ATOM     30  C   UNL A   1      28.543  27.013  23.689  1.00  0.00     0.022 A 
ENDBRANCH  21  24
ENDBRANCH  13  21
ENDBRANCH  10  12
ENDBRANCH   7  10
ENDBRANCH   5   6
BRANCH   5  31
ATOM     31  C   UNL A   1      36.777  19.873  24.984  1.00  0.00     0.074 C 
BRANCH  31  32
ATOM     32  C   UNL A   1      35.280  19.725  24.943  1.00  0.00    -0.020 A 
ATOM     33  C   UNL A   1      34.349  20.623  25.429  1.00  0.00     0.087 A 
ATOM     34  C   UNL A   1      34.557  18.551  24.604  1.00  0.00     0.003 A 
ATOM     35  N   UNL A   1      33.117  20.031  25.447  1.00  0.00    -0.361 N 
ATOM     36  C   UNL A   1      33.247  18.720  25.058  1.00  0.00     0.046 A 
ATOM     37  C   UNL A   1      34.937  17.315  24.058  1.00  0.00     0.010 A 
ATOM     38  H   UNL A   1      32.275  20.472  25.698  1.00  0.00     0.166 HD
ATOM     39  C   UNL A   1      32.321  17.677  25.083  1.00  0.00     0.026 A 
ATOM     40  C   UNL A   1      34.025  16.261  24.072  1.00  0.00     0.001 A 
ATOM     41  C   UNL A   1      32.747  16.435  24.603  1.00  0.00     0.002 A 
ENDBRANCH  31  32
ENDBRANCH   5  31
ENDBRANCH   3   5
ENDBRANCH   2   3
ENDBRANCH   1   2
BRANCH   1  42
ATOM     42  C   UNL A   1      41.397  20.014  26.979  1.00  0.00     0.275 C 
BRANCH  42  43
ATOM     43  O   UNL A   1      42.587  20.860  27.014  1.00  0.00    -0.458 OA
BRANCH  43  44
ATOM     44  C   UNL A   1      42.884  21.859  26.135  1.00  0.00     0.338 C 
ATOM     45  O   UNL A   1      43.168  21.641  24.976  1.00  0.00    -0.246 OA
BRANCH  44  46
ATOM     46  C   UNL A   1      42.939  23.211  26.749  1.00  0.00     0.060 A 
ATOM     47  C   UNL A   1      43.256  24.345  25.979  1.00  0.00     0.016 A 
ATOM     48  C   UNL A   1      42.496  23.357  28.053  1.00  0.00     0.016 A 
ATOM     49  C   UNL A   1      42.950  25.634  26.453  1.00  0.00     0.010 A 
ATOM     50  C   UNL A   1      42.068  24.596  28.454  1.00  0.00     0.010 A 
ATOM     51  C   UNL A   1      42.296  25.754  27.676  1.00  0.00    -0.014 A 
BRANCH  51  52
ATOM     52  C   UNL A   1      41.941  26.976  28.409  1.00  0.00     0.031 A 
ATOM     53  C   UNL A   1      40.768  27.838  28.101  1.00  0.00     0.074 A 
ATOM     54  C   UNL A   1      42.619  27.043  29.574  1.00  0.00     0.049 A 
ATOM     55  N   UNL A   1      39.827  28.142  28.945  1.00  0.00    -0.248 NA
ATOM     56  C   UNL A   1      40.594  28.458  26.781  1.00  0.00     0.031 C 
ATOM     57  C   UNL A   1      42.355  27.761  30.799  1.00  0.00     0.029 A 
ATOM     58  N   UNL A   1      43.840  26.441  29.832  1.00  0.00    -0.354 N 
ATOM     59  C   UNL A   1      39.004  29.097  28.345  1.00  0.00     0.074 A 
ATOM     60  C   UNL A   1      39.486  29.191  26.967  1.00  0.00     0.031 C 
ATOM     61  C   UNL A   1      43.489  27.794  31.531  1.00  0.00     0.029 A 
ATOM     62  C   UNL A   1      44.557  27.218  30.715  1.00  0.00     0.049 A 
ATOM     63  H   UNL A   1      44.148  25.590  29.444  1.00  0.00     0.167 HD
ATOM     64  C   UNL A   1      38.703  30.261  28.995  1.00  0.00     0.034 A 
ATOM     65  C   UNL A   1      45.637  27.892  30.207  1.00  0.00     0.034 A 
ATOM     66  C   UNL A   1      39.731  30.635  29.941  1.00  0.00     0.049 A 
ATOM     67  C   UNL A   1      45.342  29.372  30.179  1.00  0.00     0.074 A 
ATOM     68  C   UNL A   1      39.956  30.329  31.268  1.00  0.00     0.029 A 
ATOM     69  N   UNL A   1      40.842  31.314  29.476  1.00  0.00    -0.354 N 
ATOM     70  N   UNL A   1      44.150  29.879  30.006  1.00  0.00    -0.248 NA
ATOM     71  C   UNL A   1      46.350  30.377  30.486  1.00  0.00     0.031 C 
ATOM     72  C   UNL A   1      41.270  30.759  31.580  1.00  0.00     0.029 A 
ATOM     73  C   UNL A   1      41.820  31.347  30.450  1.00  0.00     0.049 A 
ATOM     74  H   UNL A   1      40.925  31.714  28.581  1.00  0.00     0.167 HD
ATOM     75  C   UNL A   1      44.198  31.223  30.241  1.00  0.00     0.074 A 
ATOM     76  C   UNL A   1      45.598  31.489  30.528  1.00  0.00     0.031 C 
ATOM     77  C   UNL A   1      43.087  32.019  30.220  1.00  0.00     0.034 A 
BRANCH  64  78
ATOM     78  C   UNL A   1      37.283  30.803  29.053  1.00  0.00     0.023 A 
ATOM     79  C   UNL A   1      36.417  30.435  27.995  1.00  0.00     0.012 A 
ATOM     80  C   UNL A   1      36.760  31.691  30.025  1.00  0.00     0.148 A 
ATOM     81  C   UNL A   1      35.132  30.966  27.851  1.00  0.00     0.002 A 
ATOM     82  C   UNL A   1      35.461  32.210  29.888  1.00  0.00     0.091 A 
ATOM     83  F   UNL A   1      37.530  32.046  31.063  1.00  0.00    -0.205 F 
ATOM     84  C   UNL A   1      34.656  31.860  28.794  1.00  0.00     0.022 A 
BRANCH  82  85
ATOM     85  S   UNL A   1      34.714  33.371  31.049  1.00  0.00     0.127 S 
ATOM     86  O   UNL A   1      34.179  32.476  32.076  1.00  0.00    -0.237 OA
ATOM     87  O   UNL A   1      35.859  34.171  31.484  1.00  0.00    -0.237 OA
ATOM     88  O   UNL A   1      33.705  34.104  30.294  1.00  0.00    -0.744 OA
ENDBRANCH  82  85
ENDBRANCH  64  78
BRANCH  65  89
ATOM     89  C   UNL A   1      46.360  27.116  29.130  1.00  0.00     0.023 A 
ATOM     90  C   UNL A   1      46.625  25.746  29.408  1.00  0.00     0.012 A 
ATOM     91  C   UNL A   1      46.453  27.548  27.796  1.00  0.00     0.148 A 
ATOM     92  C   UNL A   1      46.790  24.810  28.385  1.00  0.00     0.002 A 
ATOM     93  C   UNL A   1      46.662  26.610  26.781  1.00  0.00     0.091 A 
ATOM     94  F   UNL A   1      46.297  28.850  27.519  1.00  0.00    -0.205 F 
ATOM     95  C   UNL A   1      46.776  25.239  27.068  1.00  0.00     0.022 A 
BRANCH  93  96
ATOM     96  S   UNL A   1      46.671  27.089  25.049  1.00  0.00     0.127 S 
ATOM     97  O   UNL A   1      46.853  25.802  24.385  1.00  0.00    -0.237 OA
ATOM     98  O   UNL A   1      45.341  27.675  24.894  1.00  0.00    -0.237 OA
ATOM     99  O   UNL A   1      47.760  28.048  24.932  1.00  0.00    -0.744 OA
ENDBRANCH  93  96
ENDBRANCH  65  89
BRANCH  77 100
ATOM    100  C   UNL A   1      43.130  33.521  30.052  1.00  0.00     0.023 A 
ATOM    101  C   UNL A   1      43.133  34.377  31.171  1.00  0.00     0.012 A 
ATOM    102  C   UNL A   1      43.351  34.124  28.788  1.00  0.00     0.148 A 
ATOM    103  C   UNL A   1      43.245  35.761  31.048  1.00  0.00     0.002 A 
ATOM    104  C   UNL A   1      43.586  35.492  28.685  1.00  0.00     0.091 A 
ATOM    105  F   UNL A   1      43.331  33.379  27.674  1.00  0.00    -0.205 F 
ATOM    106  C   UNL A   1      43.491  36.319  29.805  1.00  0.00     0.022 A 
BRANCH 104 107
ATOM    107  S   UNL A   1      44.192  36.221  27.157  1.00  0.00     0.127 S 
ATOM    108  O   UNL A   1      44.623  37.543  27.604  1.00  0.00    -0.237 OA
ATOM    109  O   UNL A   1      45.281  35.314  26.791  1.00  0.00    -0.237 OA
ATOM    110  O   UNL A   1      43.057  36.187  26.244  1.00  0.00    -0.744 OA
ENDBRANCH 104 107
ENDBRANCH  77 100
ENDBRANCH  51  52
ENDBRANCH  44  46
ENDBRANCH  43  44
ENDBRANCH  42  43
ENDBRANCH   1  42
TORSDOF 21
ENDMDL
MODEL 2
REMARK VINA RESULT:     -11.6      5.955     10.045
REMARK SMILES Cc1ccc(S(=O)(=O)n2cc(C(=O)C(=O)N[C@@H](Cc3c[nH]c4ccccc34)C(=O)OCCOC(=O)c3ccc(-c4c5nc(c(-c6cccc(S(=O)(=O)[O-])c6F)c6ccc([nH]6)c(-c6cccc(S(=O)(=O)[O-])c6F)c6nc(c(-c7cccc(S(=O)(=O)[O-])c7F)c7ccc4[nH]7)C=C6)C=C5)cc3)c3ccccc32)cc1
REMARK SMILES IDX 31 1 30 2 28 3 29 4 17 5 16 6 14 7 15 8 12 10 13 11 11 12
REMARK SMILES IDX 9 13 10 14 104 15 99 16 103 17 100 18 102 19 101 20 6 21
REMARK SMILES IDX 7 22 8 23 5 24 1 25 2 26 3 27 106 28 4 29 105 30 18 31 19 32
REMARK SMILES IDX 20 33 27 34 21 35 22 36 26 37 23 39 25 40 24 41 32 42 33 43
REMARK SMILES IDX 34 44 35 45 36 46 37 47 98 48 38 49 97 50 39 51 40 52 41 53
REMARK SMILES IDX 91 54 42 55 96 56 90 57 92 58 43 59 95 60 89 61 88 62 44 64
REMARK SMILES IDX 76 65 56 66 75 67 57 68 60 69 74 70 93 71 58 72 59 73 73 75
REMARK SMILES IDX 94 76 61 77 45 78 46 79 54 80 47 81 49 82 55 83 48 84 50 85
REMARK SMILES IDX 51 86 52 87 53 88 77 89 78 90 86 91 79 92 81 93 87 94 80 95
REMARK SMILES IDX 82 96 83 97 84 98 85 99 62 100 63 101 71 102 64 103 66 104
REMARK SMILES IDX 72 105 65 106 67 107 68 108 69 109 70 110
REMARK H PARENT 16 9 21 38 92 63 60 74
REMARK Flexibility Score: inf
ROOT
ATOM      1  C   UNL A   1      48.956  29.858  27.671  1.00  0.00     0.274 C 
ENDROOT
BRANCH   1   2
ATOM      2  O   UNL A   1      49.291  28.503  27.986  1.00  0.00    -0.461 OA
BRANCH   2   3
ATOM      3  C   UNL A   1      49.742  27.788  26.908  1.00  0.00     0.329 C 
ATOM      4  O   UNL A   1      50.830  27.993  26.386  1.00  0.00    -0.250 OA
BRANCH   3   5
ATOM      5  C   UNL A   1      48.796  26.627  26.538  1.00  0.00     0.197 C 
BRANCH   5   6
ATOM      6  N   UNL A   1      48.847  26.316  25.076  1.00  0.00    -0.335 N 
ATOM      7  C   UNL A   1      48.042  26.736  24.019  1.00  0.00     0.293 C 
ATOM      8  O   UNL A   1      48.321  26.419  22.865  1.00  0.00    -0.265 OA
ATOM      9  H   UNL A   1      49.577  25.708  24.815  1.00  0.00     0.164 HD
BRANCH   7  10
ATOM     10  C   UNL A   1      46.772  27.550  24.288  1.00  0.00     0.252 C 
ATOM     11  O   UNL A   1      46.692  28.609  23.665  1.00  0.00    -0.283 OA
BRANCH  10  12
ATOM     12  C   UNL A   1      45.721  27.260  25.290  1.00  0.00     0.054 A 
ATOM     13  N   UNL A   1      43.808  27.383  26.458  1.00  0.00    -0.240 N 
ATOM     14  C   UNL A   1      45.044  28.013  26.268  1.00  0.00     0.117 A 
ATOM     15  C   UNL A   1      43.751  26.270  25.612  1.00  0.00     0.065 A 
ATOM     16  C   UNL A   1      45.071  25.990  25.307  1.00  0.00     0.012 A 
ATOM     17  C   UNL A   1      42.716  25.352  25.346  1.00  0.00     0.028 A 
ATOM     18  C   UNL A   1      45.406  24.673  24.958  1.00  0.00     0.011 A 
ATOM     19  C   UNL A   1      43.073  24.038  25.069  1.00  0.00     0.002 A 
ATOM     20  C   UNL A   1      44.408  23.690  24.934  1.00  0.00     0.001 A 
BRANCH  13  21
ATOM     21  S   UNL A   1      42.857  27.102  27.860  1.00  0.00     0.268 S 
ATOM     22  O   UNL A   1      43.541  27.885  28.879  1.00  0.00    -0.201 OA
ATOM     23  O   UNL A   1      42.855  25.641  27.904  1.00  0.00    -0.201 OA
BRANCH  21  24
ATOM     24  C   UNL A   1      41.172  27.387  28.220  1.00  0.00     0.088 A 
ATOM     25  C   UNL A   1      37.361  29.318  28.804  1.00  0.00     0.044 C 
ATOM     26  C   UNL A   1      38.643  28.574  28.575  1.00  0.00    -0.051 A 
ATOM     27  C   UNL A   1      39.510  29.107  27.638  1.00  0.00     0.005 A 
ATOM     28  C   UNL A   1      39.031  27.418  29.296  1.00  0.00     0.005 A 
ATOM     29  C   UNL A   1      40.738  28.509  27.458  1.00  0.00     0.022 A 
ATOM     30  C   UNL A   1      40.308  26.815  29.130  1.00  0.00     0.022 A 
ENDBRANCH  21  24
ENDBRANCH  13  21
ENDBRANCH  10  12
ENDBRANCH   7  10
ENDBRANCH   5   6
BRANCH   5  31
ATOM     31  C   UNL A   1      49.061  25.417  27.475  1.00  0.00     0.074 C 
BRANCH  31  32
ATOM     32  C   UNL A   1      48.240  25.468  28.735  1.00  0.00    -0.020 A 
ATOM     33  C   UNL A   1      46.880  25.691  28.823  1.00  0.00     0.087 A 
ATOM     34  C   UNL A   1      48.736  25.519  30.065  1.00  0.00     0.003 A 
ATOM     35  N   UNL A   1      46.544  25.924  30.127  1.00  0.00    -0.361 N 
ATOM     36  C   UNL A   1      47.690  25.942  30.886  1.00  0.00     0.046 A 
ATOM     37  C   UNL A   1      50.017  25.357  30.616  1.00  0.00     0.010 A 
ATOM     38  H   UNL A   1      45.631  26.058  30.468  1.00  0.00     0.166 HD
ATOM     39  C   UNL A   1      47.882  26.307  32.218  1.00  0.00     0.026 A 
ATOM     40  C   UNL A   1      50.228  25.715  31.947  1.00  0.00     0.001 A 
ATOM     41  C   UNL A   1      49.181  26.208  32.724  1.00  0.00     0.002 A 
ENDBRANCH  31  32
ENDBRANCH   5  31
ENDBRANCH   3   5
ENDBRANCH   2   3
ENDBRANCH   1   2
BRANCH   1  42
ATOM     42  C   UNL A   1      47.550  29.971  27.073  1.00  0.00     0.275 C 
BRANCH  42  43
ATOM     43  O   UNL A   1      47.061  31.205  26.463  1.00  0.00    -0.458 OA
BRANCH  43  44
ATOM     44  C   UNL A   1      46.699  32.337  27.130  1.00  0.00     0.338 C 
ATOM     45  O   UNL A   1      47.474  33.247  27.335  1.00  0.00    -0.246 OA
BRANCH  44  46
ATOM     46  C   UNL A   1      45.316  32.305  27.674  1.00  0.00     0.060 A 
ATOM     47  C   UNL A   1      44.351  31.426  27.152  1.00  0.00     0.016 A 
ATOM     48  C   UNL A   1      45.049  33.029  28.825  1.00  0.00     0.016 A 
ATOM     49  C   UNL A   1      43.187  31.130  27.886  1.00  0.00     0.010 A 
ATOM     50  C   UNL A   1      43.991  32.635  29.603  1.00  0.00     0.010 A 
ATOM     51  C   UNL A   1      43.037  31.695  29.150  1.00  0.00    -0.014 A 
BRANCH  51  52
ATOM     52  C   UNL A   1      41.894  31.599  30.065  1.00  0.00     0.031 A 
ATOM     53  C   UNL A   1      40.691  32.473  30.013  1.00  0.00     0.074 A 
ATOM     54  C   UNL A   1      41.929  30.434  30.746  1.00  0.00     0.049 A 
ATOM     55  N   UNL A   1      39.469  32.048  29.888  1.00  0.00    -0.248 NA
ATOM     56  C   UNL A   1      40.795  33.933  30.135  1.00  0.00     0.031 C 
ATOM     57  C   UNL A   1      40.895  29.680  31.416  1.00  0.00     0.029 A 
ATOM     58  N   UNL A   1      43.070  29.696  31.022  1.00  0.00    -0.354 N 
ATOM     59  C   UNL A   1      38.616  33.142  30.051  1.00  0.00     0.074 A 
ATOM     60  C   UNL A   1      39.505  34.301  30.119  1.00  0.00     0.031 C 
ATOM     61  C   UNL A   1      41.480  28.787  32.243  1.00  0.00     0.029 A 
ATOM     62  C   UNL A   1      42.918  29.052  32.230  1.00  0.00     0.049 A 
ATOM     63  H   UNL A   1      43.865  29.639  30.444  1.00  0.00     0.167 HD
ATOM     64  C   UNL A   1      37.575  33.085  30.935  1.00  0.00     0.034 A 
ATOM     65  C   UNL A   1      43.659  29.529  33.280  1.00  0.00     0.034 A 
ATOM     66  C   UNL A   1      37.831  32.157  32.015  1.00  0.00     0.049 A 
ATOM     67  C   UNL A   1      42.748  30.200  34.279  1.00  0.00     0.074 A 
ATOM     68  C   UNL A   1      37.618  30.803  32.173  1.00  0.00     0.029 A 
ATOM     69  N   UNL A   1      38.578  32.591  33.095  1.00  0.00    -0.354 N 
ATOM     70  N   UNL A   1      41.642  30.818  33.962  1.00  0.00    -0.248 NA
ATOM     71  C   UNL A   1      42.951  30.094  35.717  1.00  0.00     0.031 C 
ATOM     72  C   UNL A   1      38.329  30.401  33.332  1.00  0.00     0.029 A 
ATOM     73  C   UNL A   1      38.942  31.517  33.882  1.00  0.00     0.049 A 
ATOM     74  H   UNL A   1      38.815  33.529  33.277  1.00  0.00     0.167 HD
ATOM     75  C   UNL A   1      40.958  31.125  35.104  1.00  0.00     0.074 A 
ATOM     76  C   UNL A   1      41.823  30.661  36.177  1.00  0.00     0.031 C 
ATOM     77  C   UNL A   1      39.720  31.703  35.095  1.00  0.00     0.034 A 
BRANCH  64  78
ATOM     78  C   UNL A   1      36.180  33.562  30.563  1.00  0.00     0.023 A 
ATOM     79  C   UNL A   1      35.686  33.163  29.297  1.00  0.00     0.012 A 
ATOM     80  C   UNL A   1      35.352  34.420  31.328  1.00  0.00     0.148 A 
ATOM     81  C   UNL A   1      34.481  33.636  28.772  1.00  0.00     0.002 A 
ATOM     82  C   UNL A   1      34.130  34.880  30.806  1.00  0.00     0.091 A 
ATOM     83  F   UNL A   1      35.760  34.802  32.546  1.00  0.00    -0.205 F 
ATOM     84  C   UNL A   1      33.705  34.502  29.524  1.00  0.00     0.022 A 
BRANCH  82  85
ATOM     85  S   UNL A   1      33.020  35.999  31.682  1.00  0.00     0.127 S 
ATOM     86  O   UNL A   1      32.661  36.957  30.634  1.00  0.00    -0.237 OA
ATOM     87  O   UNL A   1      31.928  35.115  32.089  1.00  0.00    -0.237 OA
ATOM     88  O   UNL A   1      33.796  36.561  32.780  1.00  0.00    -0.744 OA
ENDBRANCH  82  85
ENDBRANCH  64  78
BRANCH  65  89
ATOM     89  C   UNL A   1      45.024  30.024  32.859  1.00  0.00     0.023 A 
ATOM     90  C   UNL A   1      45.749  29.193  31.960  1.00  0.00     0.012 A 
ATOM     91  C   UNL A   1      45.439  31.359  33.003  1.00  0.00     0.148 A 
ATOM     92  C   UNL A   1      46.722  29.712  31.105  1.00  0.00     0.002 A 
ATOM     93  C   UNL A   1      46.446  31.861  32.172  1.00  0.00     0.091 A 
ATOM     94  F   UNL A   1      44.832  32.138  33.908  1.00  0.00    -0.205 F 
ATOM     95  C   UNL A   1      47.048  31.056  31.190  1.00  0.00     0.022 A 
BRANCH  93  96
ATOM     96  S   UNL A   1      46.936  33.588  32.232  1.00  0.00     0.127 S 
ATOM     97  O   UNL A   1      47.681  33.643  33.487  1.00  0.00    -0.237 OA
ATOM     98  O   UNL A   1      47.756  33.709  31.028  1.00  0.00    -0.237 OA
ATOM     99  O   UNL A   1      45.687  34.334  32.177  1.00  0.00    -0.744 OA
ENDBRANCH  93  96
ENDBRANCH  65  89
BRANCH  77 100
ATOM    100  C   UNL A   1      39.121  32.432  36.276  1.00  0.00     0.023 A 
ATOM    101  C   UNL A   1      38.204  31.794  37.134  1.00  0.00     0.012 A 
ATOM    102  C   UNL A   1      39.586  33.710  36.677  1.00  0.00     0.148 A 
ATOM    103  C   UNL A   1      37.692  32.417  38.271  1.00  0.00     0.002 A 
ATOM    104  C   UNL A   1      39.165  34.275  37.878  1.00  0.00     0.091 A 
ATOM    105  F   UNL A   1      40.437  34.392  35.898  1.00  0.00    -0.205 F 
ATOM    106  C   UNL A   1      38.187  33.652  38.655  1.00  0.00     0.022 A 
BRANCH 104 107
ATOM    107  S   UNL A   1      39.982  35.722  38.564  1.00  0.00     0.127 S 
ATOM    108  O   UNL A   1      39.735  36.725  37.532  1.00  0.00    -0.237 OA
ATOM    109  O   UNL A   1      39.242  35.934  39.810  1.00  0.00    -0.237 OA
ATOM    110  O   UNL A   1      41.369  35.320  38.756  1.00  0.00    -0.744 OA
ENDBRANCH 104 107
ENDBRANCH  77 100
ENDBRANCH  51  52
ENDBRANCH  44  46
ENDBRANCH  43  44
ENDBRANCH  42  43
ENDBRANCH   1  42
TORSDOF 21
ENDMDL
MODEL 3
REMARK VINA RESULT:     -11.5      5.725     10.473
REMARK SMILES Cc1ccc(S(=O)(=O)n2cc(C(=O)C(=O)N[C@@H](Cc3c[nH]c4ccccc34)C(=O)OCCOC(=O)c3ccc(-c4c5nc(c(-c6cccc(S(=O)(=O)[O-])c6F)c6ccc([nH]6)c(-c6cccc(S(=O)(=O)[O-])c6F)c6nc(c(-c7cccc(S(=O)(=O)[O-])c7F)c7ccc4[nH]7)C=C6)C=C5)cc3)c3ccccc32)cc1
REMARK SMILES IDX 31 1 30 2 28 3 29 4 17 5 16 6 14 7 15 8 12 10 13 11 11 12
REMARK SMILES IDX 9 13 10 14 104 15 99 16 103 17 100 18 102 19 101 20 6 21
REMARK SMILES IDX 7 22 8 23 5 24 1 25 2 26 3 27 106 28 4 29 105 30 18 31 19 32
REMARK SMILES IDX 20 33 27 34 21 35 22 36 26 37 23 39 25 40 24 41 32 42 33 43
REMARK SMILES IDX 34 44 35 45 36 46 37 47 98 48 38 49 97 50 39 51 40 52 41 53
REMARK SMILES IDX 91 54 42 55 96 56 90 57 92 58 43 59 95 60 89 61 88 62 44 64
REMARK SMILES IDX 76 65 56 66 75 67 57 68 60 69 74 70 93 71 58 72 59 73 73 75
REMARK SMILES IDX 94 76 61 77 45 78 46 79 54 80 47 81 49 82 55 83 48 84 50 85
REMARK SMILES IDX 51 86 52 87 53 88 77 89 78 90 86 91 79 92 81 93 87 94 80 95
REMARK SMILES IDX 82 96 83 97 84 98 85 99 62 100 63 101 71 102 64 103 66 104
REMARK SMILES IDX 72 105 65 106 67 107 68 108 69 109 70 110
REMARK H PARENT 16 9 21 38 92 63 60 74
REMARK Flexibility Score: inf
ROOT
ATOM      1  C   UNL A   1      49.461  30.259  27.119  1.00  0.00     0.274 C 
ENDROOT
BRANCH   1   2
ATOM      2  O   UNL A   1      50.028  29.632  25.965  1.00  0.00    -0.461 OA
BRANCH   2   3
ATOM      3  C   UNL A   1      50.337  28.311  26.158  1.00  0.00     0.329 C 
ATOM      4  O   UNL A   1      50.843  27.895  27.191  1.00  0.00    -0.250 OA
BRANCH   3   5
ATOM      5  C   UNL A   1      49.843  27.419  24.999  1.00  0.00     0.197 C 
BRANCH   5   6
ATOM      6  N   UNL A   1      48.605  27.971  24.367  1.00  0.00    -0.335 N 
ATOM      7  C   UNL A   1      47.314  27.453  24.270  1.00  0.00     0.293 C 
ATOM      8  O   UNL A   1      46.414  28.126  23.772  1.00  0.00    -0.265 OA
ATOM      9  H   UNL A   1      48.722  28.853  23.945  1.00  0.00     0.164 HD
BRANCH   7  10
ATOM     10  C   UNL A   1      47.015  26.024  24.734  1.00  0.00     0.252 C 
ATOM     11  O   UNL A   1      47.877  25.194  24.446  1.00  0.00    -0.283 OA
BRANCH  10  12
ATOM     12  C   UNL A   1      45.770  25.533  25.366  1.00  0.00     0.054 A 
ATOM     13  N   UNL A   1      44.257  24.155  26.289  1.00  0.00    -0.240 N 
ATOM     14  C   UNL A   1      44.833  24.524  25.068  1.00  0.00     0.117 A 
ATOM     15  C   UNL A   1      44.834  24.933  27.297  1.00  0.00     0.065 A 
ATOM     16  C   UNL A   1      45.360  26.030  26.639  1.00  0.00     0.012 A 
ATOM     17  C   UNL A   1      44.680  24.910  28.698  1.00  0.00     0.028 A 
ATOM     18  C   UNL A   1      45.509  27.226  27.358  1.00  0.00     0.011 A 
ATOM     19  C   UNL A   1      44.765  26.119  29.377  1.00  0.00     0.002 A 
ATOM     20  C   UNL A   1      45.120  27.277  28.703  1.00  0.00     0.001 A 
BRANCH  13  21
ATOM     21  S   UNL A   1      42.652  23.725  26.726  1.00  0.00     0.268 S 
ATOM     22  O   UNL A   1      42.852  22.819  27.848  1.00  0.00    -0.201 OA
ATOM     23  O   UNL A   1      42.136  23.242  25.447  1.00  0.00    -0.201 OA
BRANCH  21  24
ATOM     24  C   UNL A   1      41.274  24.670  27.235  1.00  0.00     0.088 A 
ATOM     25  C   UNL A   1      38.750  27.975  28.378  1.00  0.00     0.044 C 
ATOM     26  C   UNL A   1      39.557  26.786  27.946  1.00  0.00    -0.051 A 
ATOM     27  C   UNL A   1      40.592  27.029  27.061  1.00  0.00     0.005 A 
ATOM     28  C   UNL A   1      39.359  25.471  28.432  1.00  0.00     0.005 A 
ATOM     29  C   UNL A   1      41.416  25.985  26.705  1.00  0.00     0.022 A 
ATOM     30  C   UNL A   1      40.224  24.397  28.086  1.00  0.00     0.022 A 
ENDBRANCH  21  24
ENDBRANCH  13  21
ENDBRANCH  10  12
ENDBRANCH   7  10
ENDBRANCH   5   6
BRANCH   5  31
ATOM     31  C   UNL A   1      51.013  27.142  24.016  1.00  0.00     0.074 C 
BRANCH  31  32
ATOM     32  C   UNL A   1      50.737  27.654  22.628  1.00  0.00    -0.020 A 
ATOM     33  C   UNL A   1      50.174  26.943  21.586  1.00  0.00     0.087 A 
ATOM     34  C   UNL A   1      51.202  28.874  22.070  1.00  0.00     0.003 A 
ATOM     35  N   UNL A   1      50.323  27.651  20.426  1.00  0.00    -0.361 N 
ATOM     36  C   UNL A   1      51.059  28.782  20.685  1.00  0.00     0.046 A 
ATOM     37  C   UNL A   1      51.841  29.996  22.619  1.00  0.00     0.010 A 
ATOM     38  H   UNL A   1      49.962  27.392  19.547  1.00  0.00     0.166 HD
ATOM     39  C   UNL A   1      51.613  29.716  19.809  1.00  0.00     0.026 A 
ATOM     40  C   UNL A   1      52.400  30.941  21.761  1.00  0.00     0.001 A 
ATOM     41  C   UNL A   1      52.310  30.786  20.378  1.00  0.00     0.002 A 
ENDBRANCH  31  32
ENDBRANCH   5  31
ENDBRANCH   3   5
ENDBRANCH   2   3
ENDBRANCH   1   2
BRANCH   1  42
ATOM     42  C   UNL A   1      48.071  29.703  27.444  1.00  0.00     0.275 C 
BRANCH  42  43
ATOM     43  O   UNL A   1      46.907  30.568  27.615  1.00  0.00    -0.458 OA
BRANCH  43  44
ATOM     44  C   UNL A   1      45.896  30.735  26.715  1.00  0.00     0.338 C 
ATOM     45  O   UNL A   1      46.096  30.826  25.523  1.00  0.00    -0.246 OA
BRANCH  44  46
ATOM     46  C   UNL A   1      44.556  30.908  27.333  1.00  0.00     0.060 A 
ATOM     47  C   UNL A   1      43.465  30.114  26.937  1.00  0.00     0.016 A 
ATOM     48  C   UNL A   1      44.445  31.743  28.434  1.00  0.00     0.016 A 
ATOM     49  C   UNL A   1      42.324  30.014  27.754  1.00  0.00     0.010 A 
ATOM     50  C   UNL A   1      43.400  31.537  29.297  1.00  0.00     0.010 A 
ATOM     51  C   UNL A   1      42.319  30.685  28.974  1.00  0.00    -0.014 A 
BRANCH  51  52
ATOM     52  C   UNL A   1      41.232  30.795  29.954  1.00  0.00     0.031 A 
ATOM     53  C   UNL A   1      40.143  31.808  29.902  1.00  0.00     0.074 A 
ATOM     54  C   UNL A   1      41.167  29.683  30.716  1.00  0.00     0.049 A 
ATOM     55  N   UNL A   1      38.873  31.533  29.874  1.00  0.00    -0.248 NA
ATOM     56  C   UNL A   1      40.431  33.249  29.910  1.00  0.00     0.031 C 
ATOM     57  C   UNL A   1      40.092  29.112  31.493  1.00  0.00     0.029 A 
ATOM     58  N   UNL A   1      42.224  28.827  30.983  1.00  0.00    -0.354 N 
ATOM     59  C   UNL A   1      38.171  32.734  30.001  1.00  0.00     0.074 A 
ATOM     60  C   UNL A   1      39.197  33.774  29.936  1.00  0.00     0.031 C 
ATOM     61  C   UNL A   1      40.615  28.209  32.351  1.00  0.00     0.029 A 
ATOM     62  C   UNL A   1      42.071  28.289  32.242  1.00  0.00     0.049 A 
ATOM     63  H   UNL A   1      42.969  28.633  30.369  1.00  0.00     0.167 HD
ATOM     64  C   UNL A   1      37.188  32.867  30.941  1.00  0.00     0.034 A 
ATOM     65  C   UNL A   1      42.928  28.738  33.213  1.00  0.00     0.034 A 
ATOM     66  C   UNL A   1      37.396  31.989  32.071  1.00  0.00     0.049 A 
ATOM     67  C   UNL A   1      42.170  29.583  34.207  1.00  0.00     0.074 A 
ATOM     68  C   UNL A   1      37.031  30.685  32.340  1.00  0.00     0.029 A 
ATOM     69  N   UNL A   1      38.255  32.396  33.075  1.00  0.00    -0.354 N 
ATOM     70  N   UNL A   1      41.129  30.313  33.906  1.00  0.00    -0.248 NA
ATOM     71  C   UNL A   1      42.447  29.549  35.636  1.00  0.00     0.031 C 
ATOM     72  C   UNL A   1      37.757  30.275  33.485  1.00  0.00     0.029 A 
ATOM     73  C   UNL A   1      38.535  31.340  33.918  1.00  0.00     0.049 A 
ATOM     74  H   UNL A   1      38.617  33.306  33.174  1.00  0.00     0.167 HD
ATOM     75  C   UNL A   1      40.560  30.778  35.056  1.00  0.00     0.074 A 
ATOM     76  C   UNL A   1      41.428  30.282  36.113  1.00  0.00     0.031 C 
ATOM     77  C   UNL A   1      39.404  31.506  35.071  1.00  0.00     0.034 A 
BRANCH  64  78
ATOM     78  C   UNL A   1      35.841  33.490  30.610  1.00  0.00     0.023 A 
ATOM     79  C   UNL A   1      35.338  33.266  29.305  1.00  0.00     0.012 A 
ATOM     80  C   UNL A   1      35.070  34.326  31.455  1.00  0.00     0.148 A 
ATOM     81  C   UNL A   1      34.183  33.887  28.823  1.00  0.00     0.002 A 
ATOM     82  C   UNL A   1      33.897  34.934  30.974  1.00  0.00     0.091 A 
ATOM     83  F   UNL A   1      35.486  34.544  32.710  1.00  0.00    -0.205 F 
ATOM     84  C   UNL A   1      33.465  34.728  29.656  1.00  0.00     0.022 A 
BRANCH  82  85
ATOM     85  S   UNL A   1      32.863  36.040  31.955  1.00  0.00     0.127 S 
ATOM     86  O   UNL A   1      33.803  36.517  32.971  1.00  0.00    -0.237 OA
ATOM     87  O   UNL A   1      32.463  37.055  30.980  1.00  0.00    -0.237 OA
ATOM     88  O   UNL A   1      31.772  35.222  32.470  1.00  0.00    -0.744 OA
ENDBRANCH  82  85
ENDBRANCH  64  78
BRANCH  65  89
ATOM     89  C   UNL A   1      44.314  29.029  32.684  1.00  0.00     0.023 A 
ATOM     90  C   UNL A   1      44.697  30.398  32.633  1.00  0.00     0.012 A 
ATOM     91  C   UNL A   1      45.326  28.057  32.591  1.00  0.00     0.148 A 
ATOM     92  C   UNL A   1      46.038  30.785  32.678  1.00  0.00     0.002 A 
ATOM     93  C   UNL A   1      46.666  28.455  32.593  1.00  0.00     0.091 A 
ATOM     94  F   UNL A   1      44.984  26.762  32.545  1.00  0.00    -0.205 F 
ATOM     95  C   UNL A   1      47.023  29.811  32.690  1.00  0.00     0.022 A 
BRANCH  93  96
ATOM     96  S   UNL A   1      48.000  27.252  32.594  1.00  0.00     0.127 S 
ATOM     97  O   UNL A   1      49.178  28.114  32.555  1.00  0.00    -0.237 OA
ATOM     98  O   UNL A   1      47.785  26.569  33.868  1.00  0.00    -0.237 OA
ATOM     99  O   UNL A   1      47.757  26.420  31.425  1.00  0.00    -0.744 OA
ENDBRANCH  93  96
ENDBRANCH  65  89
BRANCH  77 100
ATOM    100  C   UNL A   1      38.973  32.381  36.225  1.00  0.00     0.023 A 
ATOM    101  C   UNL A   1      38.304  31.837  37.339  1.00  0.00     0.012 A 
ATOM    102  C   UNL A   1      39.377  33.737  36.325  1.00  0.00     0.148 A 
ATOM    103  C   UNL A   1      37.960  32.607  38.450  1.00  0.00     0.002 A 
ATOM    104  C   UNL A   1      39.140  34.466  37.487  1.00  0.00     0.091 A 
ATOM    105  F   UNL A   1      39.992  34.333  35.294  1.00  0.00    -0.205 F 
ATOM    106  C   UNL A   1      38.395  33.918  38.533  1.00  0.00     0.022 A 
BRANCH 104 107
ATOM    107  S   UNL A   1      39.925  36.059  37.765  1.00  0.00     0.127 S 
ATOM    108  O   UNL A   1      39.706  36.730  36.486  1.00  0.00    -0.237 OA
ATOM    109  O   UNL A   1      39.145  36.599  38.880  1.00  0.00    -0.237 OA
ATOM    110  O   UNL A   1      41.308  35.747  38.101  1.00  0.00    -0.744 OA
ENDBRANCH 104 107
ENDBRANCH  77 100
ENDBRANCH  51  52
ENDBRANCH  44  46
ENDBRANCH  43  44
ENDBRANCH  42  43
ENDBRANCH   1  42
TORSDOF 21
ENDMDL
