MODEL 1
REMARK VINA RESULT:     -12.4      0.000      0.000
REMARK SMILES C[NH2+][C@]1(C(=O)OCCOC(=O)c2ccc(-c3c4nc(c(-c5cccc(S(=O)(=O)[O-])c5F)c5ccc([nH]5)c(-c5cccc(S(=O)(=O)[O-])c5F)c5nc(c(-c6cccc(S(=O)(=O)[O-])c6F)c6ccc3[nH]6)C=C5)C=C4)cc2)CC[C@@H](OCCCc2ccccc2)C1
REMARK SMILES IDX 7 1 6 2 4 3 5 4 3 5 75 6 88 7 76 8 77 9 2 10 1 11 78 14
REMARK SMILES IDX 79 15 80 16 81 17 82 18 83 19 87 20 84 21 86 22 85 23 8 24
REMARK SMILES IDX 9 25 10 26 11 27 12 28 13 29 74 30 14 31 73 32 15 33 16 34
REMARK SMILES IDX 17 35 67 36 18 37 72 38 66 39 68 40 19 41 71 42 65 43 64 44
REMARK SMILES IDX 20 46 52 47 32 48 51 49 33 50 36 51 50 52 69 53 34 54 35 55
REMARK SMILES IDX 49 57 70 58 37 59 21 60 22 61 30 62 23 63 25 64 31 65 24 66
REMARK SMILES IDX 26 67 27 68 28 69 29 70 53 71 54 72 62 73 55 74 57 75 63 76
REMARK SMILES IDX 56 77 58 78 59 79 60 80 61 81 38 82 39 83 47 84 40 85 42 86
REMARK SMILES IDX 48 87 41 88 43 89 44 90 45 91 46 92
REMARK H PARENT 2 12 2 13 68 45 36 56
REMARK Flexibility Score: inf
ROOT
ATOM      1  C   UNL A   1      32.966  29.371  24.778  1.00  0.00     0.274 C 
ENDROOT
BRANCH   1   2
ATOM      2  O   UNL A   1      32.628  28.304  23.432  1.00  0.00    -0.457 OA
BRANCH   2   3
ATOM      3  C   UNL A   1      33.207  26.997  22.204  1.00  0.00     0.368 C 
ATOM      4  O   UNL A   1      34.140  27.151  21.343  1.00  0.00    -0.245 OA
BRANCH   3   5
ATOM      5  C   UNL A   1      32.723  25.289  22.170  1.00  0.00     0.196 C 
ATOM      6  C   UNL A   1      33.191  23.978  22.880  1.00  0.00     0.084 C 
ATOM      7  C   UNL A   1      31.232  25.396  22.667  1.00  0.00     0.113 C 
ATOM      8  C   UNL A   1      31.942  23.240  23.355  1.00  0.00     0.039 C 
ATOM      9  C   UNL A   1      31.017  24.369  23.767  1.00  0.00     0.125 C 
BRANCH   5  10
ATOM     10  N   UNL A   1      32.698  24.747  20.742  1.00  0.00    -0.334 N 
ATOM     11  C   UNL A   1      31.999  25.489  19.722  1.00  0.00     0.331 C 
ATOM     12  H   UNL A   1      33.667  24.662  20.437  1.00  0.00     0.347 HD
ATOM     13  H   UNL A   1      32.167  23.879  20.819  1.00  0.00     0.347 HD
ENDBRANCH   5  10
BRANCH   9  14
ATOM     14  O   UNL A   1      31.403  24.662  25.105  1.00  0.00    -0.378 OA
BRANCH  14  15
ATOM     15  C   UNL A   1      30.588  24.315  26.204  1.00  0.00     0.161 C 
BRANCH  15  16
ATOM     16  C   UNL A   1      30.961  22.892  26.642  1.00  0.00     0.033 C 
BRANCH  16  17
ATOM     17  C   UNL A   1      32.277  22.688  27.441  1.00  0.00     0.038 C 
BRANCH  17  18
ATOM     18  C   UNL A   1      33.542  22.449  26.636  1.00  0.00    -0.048 A 
ATOM     19  C   UNL A   1      34.544  23.897  26.295  1.00  0.00     0.004 A 
ATOM     20  C   UNL A   1      34.050  20.810  26.012  1.00  0.00     0.004 A 
ATOM     21  C   UNL A   1      36.027  23.793  25.324  1.00  0.00     0.000 A 
ATOM     22  C   UNL A   1      35.489  20.694  24.895  1.00  0.00     0.000 A 
ATOM     23  C   UNL A   1      36.490  22.211  24.571  1.00  0.00     0.000 A 
ENDBRANCH  17  18
ENDBRANCH  16  17
ENDBRANCH  15  16
ENDBRANCH  14  15
ENDBRANCH   9  14
ENDBRANCH   3   5
ENDBRANCH   2   3
ENDBRANCH   1   2
BRANCH   1  24
ATOM     24  C   UNL A   1      31.784  29.829  25.806  1.00  0.00     0.275 C 
BRANCH  24  25
ATOM     25  O   UNL A   1      32.175  30.323  27.155  1.00  0.00    -0.458 OA
BRANCH  25  26
ATOM     26  C   UNL A   1      32.972  31.437  27.272  1.00  0.00     0.338 C 
ATOM     27  O   UNL A   1      32.544  32.579  27.168  1.00  0.00    -0.246 OA
BRANCH  26  28
ATOM     28  C   UNL A   1      34.423  31.180  27.697  1.00  0.00     0.060 A 
ATOM     29  C   UNL A   1      34.916  29.929  28.050  1.00  0.00     0.016 A 
ATOM     30  C   UNL A   1      35.296  32.241  27.962  1.00  0.00     0.016 A 
ATOM     31  C   UNL A   1      36.122  29.728  28.738  1.00  0.00     0.010 A 
ATOM     32  C   UNL A   1      36.586  32.025  28.537  1.00  0.00     0.010 A 
ATOM     33  C   UNL A   1      37.020  30.756  28.970  1.00  0.00    -0.014 A 
BRANCH  33  34
ATOM     34  C   UNL A   1      38.337  30.489  29.664  1.00  0.00     0.031 A 
ATOM     35  C   UNL A   1      39.365  29.577  29.027  1.00  0.00     0.074 A 
ATOM     36  C   UNL A   1      38.669  31.044  30.858  1.00  0.00     0.049 A 
ATOM     37  N   UNL A   1      40.368  28.938  29.579  1.00  0.00    -0.248 NA
ATOM     38  C   UNL A   1      39.239  29.345  27.580  1.00  0.00     0.031 C 
ATOM     39  C   UNL A   1      37.889  32.034  31.607  1.00  0.00     0.029 A 
ATOM     40  N   UNL A   1      39.764  30.828  31.680  1.00  0.00    -0.354 N 
ATOM     41  C   UNL A   1      40.909  28.134  28.580  1.00  0.00     0.074 A 
ATOM     42  C   UNL A   1      40.151  28.403  27.376  1.00  0.00     0.031 C 
ATOM     43  C   UNL A   1      38.522  32.347  32.744  1.00  0.00     0.029 A 
ATOM     44  C   UNL A   1      39.676  31.476  32.896  1.00  0.00     0.049 A 
ATOM     45  H   UNL A   1      40.531  30.268  31.420  1.00  0.00     0.167 HD
ATOM     46  C   UNL A   1      41.931  27.245  28.661  1.00  0.00     0.034 A 
ATOM     47  C   UNL A   1      40.358  31.332  34.051  1.00  0.00     0.034 A 
ATOM     48  C   UNL A   1      42.755  27.054  29.828  1.00  0.00     0.049 A 
ATOM     49  C   UNL A   1      41.455  30.310  34.143  1.00  0.00     0.074 A 
ATOM     50  C   UNL A   1      43.833  26.197  29.990  1.00  0.00     0.029 A 
ATOM     51  N   UNL A   1      42.614  27.737  31.025  1.00  0.00    -0.354 N 
ATOM     52  N   UNL A   1      41.917  29.513  33.214  1.00  0.00    -0.248 NA
ATOM     53  C   UNL A   1      42.123  30.166  35.446  1.00  0.00     0.031 C 
ATOM     54  C   UNL A   1      44.319  26.338  31.293  1.00  0.00     0.029 A 
ATOM     55  C   UNL A   1      43.575  27.315  31.931  1.00  0.00     0.049 A 
ATOM     56  H   UNL A   1      41.930  28.421  31.207  1.00  0.00     0.167 HD
ATOM     57  C   UNL A   1      42.948  28.794  33.807  1.00  0.00     0.074 A 
ATOM     58  C   UNL A   1      43.058  29.267  35.172  1.00  0.00     0.031 C 
ATOM     59  C   UNL A   1      43.722  27.819  33.272  1.00  0.00     0.034 A 
BRANCH  46  60
ATOM     60  C   UNL A   1      42.218  26.377  27.458  1.00  0.00     0.023 A 
ATOM     61  C   UNL A   1      42.976  26.871  26.380  1.00  0.00     0.012 A 
ATOM     62  C   UNL A   1      41.793  25.031  27.442  1.00  0.00     0.148 A 
ATOM     63  C   UNL A   1      43.275  26.052  25.289  1.00  0.00     0.002 A 
ATOM     64  C   UNL A   1      42.137  24.208  26.376  1.00  0.00     0.091 A 
ATOM     65  F   UNL A   1      41.063  24.579  28.472  1.00  0.00    -0.205 F 
ATOM     66  C   UNL A   1      42.866  24.720  25.293  1.00  0.00     0.022 A 
BRANCH  64  67
ATOM     67  S   UNL A   1      41.736  22.456  26.333  1.00  0.00     0.127 S 
ATOM     68  O   UNL A   1      42.447  22.020  25.131  1.00  0.00    -0.237 OA
ATOM     69  O   UNL A   1      42.314  21.977  27.589  1.00  0.00    -0.237 OA
ATOM     70  O   UNL A   1      40.284  22.376  26.262  1.00  0.00    -0.744 OA
ENDBRANCH  64  67
ENDBRANCH  46  60
BRANCH  47  71
ATOM     71  C   UNL A   1      39.975  32.139  35.252  1.00  0.00     0.023 A 
ATOM     72  C   UNL A   1      40.476  33.446  35.406  1.00  0.00     0.012 A 
ATOM     73  C   UNL A   1      39.095  31.626  36.227  1.00  0.00     0.148 A 
ATOM     74  C   UNL A   1      40.121  34.219  36.514  1.00  0.00     0.002 A 
ATOM     75  C   UNL A   1      38.686  32.426  37.287  1.00  0.00     0.091 A 
ATOM     76  F   UNL A   1      38.654  30.368  36.086  1.00  0.00    -0.205 F 
ATOM     77  C   UNL A   1      39.213  33.716  37.444  1.00  0.00     0.022 A 
BRANCH  75  78
ATOM     78  S   UNL A   1      37.403  31.918  38.438  1.00  0.00     0.127 S 
ATOM     79  O   UNL A   1      38.036  32.177  39.727  1.00  0.00    -0.237 OA
ATOM     80  O   UNL A   1      36.312  32.831  38.092  1.00  0.00    -0.237 OA
ATOM     81  O   UNL A   1      37.132  30.520  38.133  1.00  0.00    -0.744 OA
ENDBRANCH  75  78
ENDBRANCH  47  71
BRANCH  59  82
ATOM     82  C   UNL A   1      44.805  27.231  34.138  1.00  0.00     0.023 A 
ATOM     83  C   UNL A   1      46.053  27.875  34.249  1.00  0.00     0.012 A 
ATOM     84  C   UNL A   1      44.565  26.058  34.882  1.00  0.00     0.148 A 
ATOM     85  C   UNL A   1      47.058  27.342  35.056  1.00  0.00     0.002 A 
ATOM     86  C   UNL A   1      45.552  25.561  35.724  1.00  0.00     0.091 A 
ATOM     87  F   UNL A   1      43.378  25.449  34.749  1.00  0.00    -0.205 F 
ATOM     88  C   UNL A   1      46.804  26.193  35.802  1.00  0.00     0.022 A 
BRANCH  86  89
ATOM     89  S   UNL A   1      45.284  24.141  36.791  1.00  0.00     0.127 S 
ATOM     90  O   UNL A   1      46.613  23.951  37.371  1.00  0.00    -0.237 OA
ATOM     91  O   UNL A   1      44.277  24.642  37.726  1.00  0.00    -0.237 OA
ATOM     92  O   UNL A   1      44.824  23.066  35.923  1.00  0.00    -0.744 OA
ENDBRANCH  86  89
ENDBRANCH  59  82
ENDBRANCH  33  34
ENDBRANCH  26  28
ENDBRANCH  25  26
ENDBRANCH  24  25
ENDBRANCH   1  24
TORSDOF 20
ENDMDL
MODEL 2
REMARK VINA RESULT:     -11.8      1.915      2.747
REMARK SMILES C[NH2+][C@]1(C(=O)OCCOC(=O)c2ccc(-c3c4nc(c(-c5cccc(S(=O)(=O)[O-])c5F)c5ccc([nH]5)c(-c5cccc(S(=O)(=O)[O-])c5F)c5nc(c(-c6cccc(S(=O)(=O)[O-])c6F)c6ccc3[nH]6)C=C5)C=C4)cc2)CC[C@@H](OCCCc2ccccc2)C1
REMARK SMILES IDX 7 1 6 2 4 3 5 4 3 5 75 6 88 7 76 8 77 9 2 10 1 11 78 14
REMARK SMILES IDX 79 15 80 16 81 17 82 18 83 19 87 20 84 21 86 22 85 23 8 24
REMARK SMILES IDX 9 25 10 26 11 27 12 28 13 29 74 30 14 31 73 32 15 33 16 34
REMARK SMILES IDX 17 35 67 36 18 37 72 38 66 39 68 40 19 41 71 42 65 43 64 44
REMARK SMILES IDX 20 46 52 47 32 48 51 49 33 50 36 51 50 52 69 53 34 54 35 55
REMARK SMILES IDX 49 57 70 58 37 59 21 60 22 61 30 62 23 63 25 64 31 65 24 66
REMARK SMILES IDX 26 67 27 68 28 69 29 70 53 71 54 72 62 73 55 74 57 75 63 76
REMARK SMILES IDX 56 77 58 78 59 79 60 80 61 81 38 82 39 83 47 84 40 85 42 86
REMARK SMILES IDX 48 87 41 88 43 89 44 90 45 91 46 92
REMARK H PARENT 2 12 2 13 68 45 36 56
REMARK Flexibility Score: inf
ROOT
ATOM      1  C   UNL A   1      32.623  28.849  23.261  1.00  0.00     0.274 C 
ENDROOT
BRANCH   1   2
ATOM      2  O   UNL A   1      32.139  27.169  23.181  1.00  0.00    -0.457 OA
BRANCH   2   3
ATOM      3  C   UNL A   1      31.153  25.723  23.880  1.00  0.00     0.368 C 
ATOM      4  O   UNL A   1      30.446  24.908  23.193  1.00  0.00    -0.245 OA
BRANCH   3   5
ATOM      5  C   UNL A   1      31.203  25.115  25.547  1.00  0.00     0.196 C 
ATOM      6  C   UNL A   1      30.650  23.861  26.299  1.00  0.00     0.084 C 
ATOM      7  C   UNL A   1      32.755  24.939  25.750  1.00  0.00     0.113 C 
ATOM      8  C   UNL A   1      31.775  23.317  27.176  1.00  0.00     0.039 C 
ATOM      9  C   UNL A   1      33.011  23.557  26.331  1.00  0.00     0.125 C 
BRANCH   5  10
ATOM     10  N   UNL A   1      30.723  26.173  26.539  1.00  0.00    -0.334 N 
ATOM     11  C   UNL A   1      31.661  27.152  27.029  1.00  0.00     0.331 C 
ATOM     12  H   UNL A   1      29.966  26.685  26.085  1.00  0.00     0.347 HD
ATOM     13  H   UNL A   1      30.475  25.635  27.369  1.00  0.00     0.347 HD
ENDBRANCH   5  10
BRANCH   9  14
ATOM     14  O   UNL A   1      33.072  22.422  25.476  1.00  0.00    -0.378 OA
BRANCH  14  15
ATOM     15  C   UNL A   1      33.990  22.348  24.407  1.00  0.00     0.161 C 
BRANCH  15  16
ATOM     16  C   UNL A   1      33.194  22.167  23.107  1.00  0.00     0.033 C 
BRANCH  16  17
ATOM     17  C   UNL A   1      32.065  21.101  23.078  1.00  0.00     0.038 C 
BRANCH  17  18
ATOM     18  C   UNL A   1      32.439  19.689  23.488  1.00  0.00    -0.048 A 
ATOM     19  C   UNL A   1      32.402  19.344  25.248  1.00  0.00     0.004 A 
ATOM     20  C   UNL A   1      32.924  18.385  22.304  1.00  0.00     0.004 A 
ATOM     21  C   UNL A   1      32.862  17.754  25.893  1.00  0.00     0.000 A 
ATOM     22  C   UNL A   1      33.536  16.790  22.944  1.00  0.00     0.000 A 
ATOM     23  C   UNL A   1      33.481  16.479  24.763  1.00  0.00     0.000 A 
ENDBRANCH  17  18
ENDBRANCH  16  17
ENDBRANCH  15  16
ENDBRANCH  14  15
ENDBRANCH   9  14
ENDBRANCH   3   5
ENDBRANCH   2   3
ENDBRANCH   1   2
BRANCH   1  24
ATOM     24  C   UNL A   1      33.328  29.459  24.601  1.00  0.00     0.275 C 
BRANCH  24  25
ATOM     25  O   UNL A   1      32.582  30.479  25.389  1.00  0.00    -0.458 OA
BRANCH  25  26
ATOM     26  C   UNL A   1      32.761  30.559  26.750  1.00  0.00     0.338 C 
ATOM     27  O   UNL A   1      31.832  30.558  27.547  1.00  0.00    -0.246 OA
BRANCH  26  28
ATOM     28  C   UNL A   1      34.213  30.493  27.239  1.00  0.00     0.060 A 
ATOM     29  C   UNL A   1      34.888  29.307  27.502  1.00  0.00     0.016 A 
ATOM     30  C   UNL A   1      34.887  31.646  27.656  1.00  0.00     0.016 A 
ATOM     31  C   UNL A   1      36.078  29.230  28.243  1.00  0.00     0.010 A 
ATOM     32  C   UNL A   1      36.167  31.580  28.288  1.00  0.00     0.010 A 
ATOM     33  C   UNL A   1      36.783  30.358  28.626  1.00  0.00    -0.014 A 
BRANCH  33  34
ATOM     34  C   UNL A   1      38.092  30.234  29.374  1.00  0.00     0.031 A 
ATOM     35  C   UNL A   1      39.227  29.414  28.794  1.00  0.00     0.074 A 
ATOM     36  C   UNL A   1      38.323  30.841  30.566  1.00  0.00     0.049 A 
ATOM     37  N   UNL A   1      40.265  28.887  29.396  1.00  0.00    -0.248 NA
ATOM     38  C   UNL A   1      39.180  29.145  27.349  1.00  0.00     0.031 C 
ATOM     39  C   UNL A   1      37.423  31.764  31.264  1.00  0.00     0.029 A 
ATOM     40  N   UNL A   1      39.402  30.748  31.431  1.00  0.00    -0.354 N 
ATOM     41  C   UNL A   1      40.919  28.121  28.435  1.00  0.00     0.074 A 
ATOM     42  C   UNL A   1      40.185  28.292  27.199  1.00  0.00     0.031 C 
ATOM     43  C   UNL A   1      37.979  32.158  32.416  1.00  0.00     0.029 A 
ATOM     44  C   UNL A   1      39.205  31.407  32.629  1.00  0.00     0.049 A 
ATOM     45  H   UNL A   1      40.229  30.261  31.212  1.00  0.00     0.167 HD
ATOM     46  C   UNL A   1      42.019  27.338  28.573  1.00  0.00     0.034 A 
ATOM     47  C   UNL A   1      39.854  31.352  33.811  1.00  0.00     0.034 A 
ATOM     48  C   UNL A   1      42.812  27.250  29.773  1.00  0.00     0.049 A 
ATOM     49  C   UNL A   1      41.039  30.443  33.965  1.00  0.00     0.074 A 
ATOM     50  C   UNL A   1      43.961  26.505  29.993  1.00  0.00     0.029 A 
ATOM     51  N   UNL A   1      42.560  27.938  30.949  1.00  0.00    -0.354 N 
ATOM     52  N   UNL A   1      41.612  29.678  33.071  1.00  0.00    -0.248 NA
ATOM     53  C   UNL A   1      41.669  30.389  35.294  1.00  0.00     0.031 C 
ATOM     54  C   UNL A   1      44.381  26.717  31.309  1.00  0.00     0.029 A 
ATOM     55  C   UNL A   1      43.522  27.629  31.898  1.00  0.00     0.049 A 
ATOM     56  H   UNL A   1      41.806  28.555  31.091  1.00  0.00     0.167 HD
ATOM     57  C   UNL A   1      42.684  29.074  33.717  1.00  0.00     0.074 A 
ATOM     58  C   UNL A   1      42.695  29.580  35.073  1.00  0.00     0.031 C 
ATOM     59  C   UNL A   1      43.568  28.169  33.232  1.00  0.00     0.034 A 
BRANCH  46  60
ATOM     60  C   UNL A   1      42.434  26.479  27.401  1.00  0.00     0.023 A 
ATOM     61  C   UNL A   1      43.292  26.987  26.407  1.00  0.00     0.012 A 
ATOM     62  C   UNL A   1      42.026  25.129  27.336  1.00  0.00     0.148 A 
ATOM     63  C   UNL A   1      43.707  26.177  25.348  1.00  0.00     0.002 A 
ATOM     64  C   UNL A   1      42.484  24.315  26.306  1.00  0.00     0.091 A 
ATOM     65  F   UNL A   1      41.201  24.665  28.285  1.00  0.00    -0.205 F 
ATOM     66  C   UNL A   1      43.313  24.842  25.304  1.00  0.00     0.022 A 
BRANCH  64  67
ATOM     67  S   UNL A   1      42.107  22.561  26.214  1.00  0.00     0.127 S 
ATOM     68  O   UNL A   1      42.811  22.171  24.992  1.00  0.00    -0.237 OA
ATOM     69  O   UNL A   1      42.705  22.052  27.449  1.00  0.00    -0.237 OA
ATOM     70  O   UNL A   1      40.655  22.462  26.156  1.00  0.00    -0.744 OA
ENDBRANCH  64  67
ENDBRANCH  46  60
BRANCH  47  71
ATOM     71  C   UNL A   1      39.349  32.140  34.979  1.00  0.00     0.023 A 
ATOM     72  C   UNL A   1      38.439  31.554  35.878  1.00  0.00     0.012 A 
ATOM     73  C   UNL A   1      39.791  33.459  35.215  1.00  0.00     0.148 A 
ATOM     74  C   UNL A   1      37.966  32.271  36.981  1.00  0.00     0.002 A 
ATOM     75  C   UNL A   1      39.376  34.138  36.354  1.00  0.00     0.091 A 
ATOM     76  F   UNL A   1      40.631  34.016  34.332  1.00  0.00    -0.205 F 
ATOM     77  C   UNL A   1      38.448  33.554  37.228  1.00  0.00     0.022 A 
BRANCH  75  78
ATOM     78  S   UNL A   1      40.066  35.727  36.832  1.00  0.00     0.127 S 
ATOM     79  O   UNL A   1      39.411  35.965  38.115  1.00  0.00    -0.237 OA
ATOM     80  O   UNL A   1      41.495  35.420  36.917  1.00  0.00    -0.237 OA
ATOM     81  O   UNL A   1      39.715  36.647  35.760  1.00  0.00    -0.744 OA
ENDBRANCH  75  78
ENDBRANCH  47  71
BRANCH  59  82
ATOM     82  C   UNL A   1      44.670  27.706  34.149  1.00  0.00     0.023 A 
ATOM     83  C   UNL A   1      45.858  28.454  34.266  1.00  0.00     0.012 A 
ATOM     84  C   UNL A   1      44.504  26.547  34.934  1.00  0.00     0.148 A 
ATOM     85  C   UNL A   1      46.878  28.036  35.121  1.00  0.00     0.002 A 
ATOM     86  C   UNL A   1      45.502  26.166  35.822  1.00  0.00     0.091 A 
ATOM     87  F   UNL A   1      43.374  25.838  34.796  1.00  0.00    -0.205 F 
ATOM     88  C   UNL A   1      46.697  26.900  35.906  1.00  0.00     0.022 A 
BRANCH  86  89
ATOM     89  S   UNL A   1      45.318  24.772  36.939  1.00  0.00     0.127 S 
ATOM     90  O   UNL A   1      44.269  25.247  37.839  1.00  0.00    -0.237 OA
ATOM     91  O   UNL A   1      44.905  23.701  36.032  1.00  0.00    -0.237 OA
ATOM     92  O   UNL A   1      46.624  24.573  37.554  1.00  0.00    -0.744 OA
ENDBRANCH  86  89
ENDBRANCH  59  82
ENDBRANCH  33  34
ENDBRANCH  26  28
ENDBRANCH  25  26
ENDBRANCH  24  25
ENDBRANCH   1  24
TORSDOF 20
ENDMDL
MODEL 3
REMARK VINA RESULT:     -11.3      1.464      7.778
REMARK SMILES C[NH2+][C@]1(C(=O)OCCOC(=O)c2ccc(-c3c4nc(c(-c5cccc(S(=O)(=O)[O-])c5F)c5ccc([nH]5)c(-c5cccc(S(=O)(=O)[O-])c5F)c5nc(c(-c6cccc(S(=O)(=O)[O-])c6F)c6ccc3[nH]6)C=C5)C=C4)cc2)CC[C@@H](OCCCc2ccccc2)C1
REMARK SMILES IDX 7 1 6 2 4 3 5 4 3 5 75 6 88 7 76 8 77 9 2 10 1 11 78 14
REMARK SMILES IDX 79 15 80 16 81 17 82 18 83 19 87 20 84 21 86 22 85 23 8 24
REMARK SMILES IDX 9 25 10 26 11 27 12 28 13 29 74 30 14 31 73 32 15 33 16 34
REMARK SMILES IDX 17 35 67 36 18 37 72 38 66 39 68 40 19 41 71 42 65 43 64 44
REMARK SMILES IDX 20 46 52 47 32 48 51 49 33 50 36 51 50 52 69 53 34 54 35 55
REMARK SMILES IDX 49 57 70 58 37 59 21 60 22 61 30 62 23 63 25 64 31 65 24 66
REMARK SMILES IDX 26 67 27 68 28 69 29 70 53 71 54 72 62 73 55 74 57 75 63 76
REMARK SMILES IDX 56 77 58 78 59 79 60 80 61 81 38 82 39 83 47 84 40 85 42 86
REMARK SMILES IDX 48 87 41 88 43 89 44 90 45 91 46 92
REMARK H PARENT 2 12 2 13 68 45 36 56
REMARK Flexibility Score: inf
ROOT
ATOM      1  C   UNL A   1      31.567  31.423  26.828  1.00  0.00     0.274 C 
ENDROOT
BRANCH   1   2
ATOM      2  O   UNL A   1      31.734  30.402  25.415  1.00  0.00    -0.457 OA
BRANCH   2   3
ATOM      3  C   UNL A   1      32.658  29.051  24.482  1.00  0.00     0.368 C 
ATOM      4  O   UNL A   1      33.709  28.452  24.894  1.00  0.00    -0.245 OA
BRANCH   3   5
ATOM      5  C   UNL A   1      32.122  28.233  22.999  1.00  0.00     0.196 C 
ATOM      6  C   UNL A   1      32.751  27.219  21.990  1.00  0.00     0.084 C 
ATOM      7  C   UNL A   1      30.895  27.409  23.545  1.00  0.00     0.113 C 
ATOM      8  C   UNL A   1      31.710  26.136  21.716  1.00  0.00     0.039 C 
ATOM      9  C   UNL A   1      31.027  25.973  23.060  1.00  0.00     0.125 C 
BRANCH   5  10
ATOM     10  N   UNL A   1      31.590  29.233  21.975  1.00  0.00    -0.334 N 
ATOM     11  C   UNL A   1      30.192  29.584  21.997  1.00  0.00     0.331 C 
ATOM     12  H   UNL A   1      32.117  30.098  22.100  1.00  0.00     0.347 HD
ATOM     13  H   UNL A   1      31.707  28.753  21.082  1.00  0.00     0.347 HD
ENDBRANCH   5  10
BRANCH   9  14
ATOM     14  O   UNL A   1      31.858  25.055  23.761  1.00  0.00    -0.378 OA
BRANCH  14  15
ATOM     15  C   UNL A   1      31.330  23.897  24.371  1.00  0.00     0.161 C 
BRANCH  15  16
ATOM     16  C   UNL A   1      31.483  22.729  23.388  1.00  0.00     0.033 C 
BRANCH  16  17
ATOM     17  C   UNL A   1      32.323  21.500  23.829  1.00  0.00     0.038 C 
BRANCH  17  18
ATOM     18  C   UNL A   1      33.823  21.698  23.953  1.00  0.00    -0.048 A 
ATOM     19  C   UNL A   1      34.672  20.593  25.082  1.00  0.00     0.004 A 
ATOM     20  C   UNL A   1      34.753  22.982  23.046  1.00  0.00     0.004 A 
ATOM     21  C   UNL A   1      36.418  20.729  25.378  1.00  0.00     0.000 A 
ATOM     22  C   UNL A   1      36.518  23.238  23.434  1.00  0.00     0.000 A 
ATOM     23  C   UNL A   1      37.351  22.077  24.604  1.00  0.00     0.000 A 
ENDBRANCH  17  18
ENDBRANCH  16  17
ENDBRANCH  15  16
ENDBRANCH  14  15
ENDBRANCH   9  14
ENDBRANCH   3   5
ENDBRANCH   2   3
ENDBRANCH   1   2
BRANCH   1  24
ATOM     24  C   UNL A   1      31.369  33.036  26.682  1.00  0.00     0.275 C 
BRANCH  24  25
ATOM     25  O   UNL A   1      32.568  33.909  26.813  1.00  0.00    -0.458 OA
BRANCH  25  26
ATOM     26  C   UNL A   1      33.087  34.178  28.058  1.00  0.00     0.338 C 
ATOM     27  O   UNL A   1      32.568  34.959  28.844  1.00  0.00    -0.246 OA
BRANCH  26  28
ATOM     28  C   UNL A   1      34.287  33.321  28.482  1.00  0.00     0.060 A 
ATOM     29  C   UNL A   1      34.216  31.953  28.717  1.00  0.00     0.016 A 
ATOM     30  C   UNL A   1      35.495  33.912  28.866  1.00  0.00     0.016 A 
ATOM     31  C   UNL A   1      35.199  31.224  29.404  1.00  0.00     0.010 A 
ATOM     32  C   UNL A   1      36.555  33.145  29.440  1.00  0.00     0.010 A 
ATOM     33  C   UNL A   1      36.419  31.779  29.753  1.00  0.00    -0.014 A 
BRANCH  33  34
ATOM     34  C   UNL A   1      37.477  30.944  30.442  1.00  0.00     0.031 A 
ATOM     35  C   UNL A   1      37.770  31.147  31.914  1.00  0.00     0.074 A 
ATOM     36  C   UNL A   1      38.197  29.987  29.801  1.00  0.00     0.049 A 
ATOM     37  N   UNL A   1      38.836  30.820  32.604  1.00  0.00    -0.248 NA
ATOM     38  C   UNL A   1      36.730  31.814  32.711  1.00  0.00     0.031 C 
ATOM     39  C   UNL A   1      38.017  29.542  28.416  1.00  0.00     0.029 A 
ATOM     40  N   UNL A   1      39.264  29.219  30.237  1.00  0.00    -0.354 N 
ATOM     41  C   UNL A   1      38.650  31.354  33.876  1.00  0.00     0.074 A 
ATOM     42  C   UNL A   1      37.346  31.984  33.874  1.00  0.00     0.031 C 
ATOM     43  C   UNL A   1      38.910  28.588  28.125  1.00  0.00     0.029 A 
ATOM     44  C   UNL A   1      39.833  28.452  29.239  1.00  0.00     0.049 A 
ATOM     45  H   UNL A   1      39.585  29.220  31.168  1.00  0.00     0.167 HD
ATOM     46  C   UNL A   1      39.491  31.333  34.940  1.00  0.00     0.034 A 
ATOM     47  C   UNL A   1      41.008  27.792  29.162  1.00  0.00     0.034 A 
ATOM     48  C   UNL A   1      40.741  30.616  34.979  1.00  0.00     0.049 A 
ATOM     49  C   UNL A   1      41.952  27.819  30.330  1.00  0.00     0.074 A 
ATOM     50  C   UNL A   1      41.642  30.514  36.027  1.00  0.00     0.029 A 
ATOM     51  N   UNL A   1      41.260  29.862  33.939  1.00  0.00    -0.354 N 
ATOM     52  N   UNL A   1      41.795  28.376  31.503  1.00  0.00    -0.248 NA
ATOM     53  C   UNL A   1      43.239  27.125  30.161  1.00  0.00     0.031 C 
ATOM     54  C   UNL A   1      42.720  29.728  35.608  1.00  0.00     0.029 A 
ATOM     55  C   UNL A   1      42.471  29.302  34.316  1.00  0.00     0.049 A 
ATOM     56  H   UNL A   1      40.832  29.742  33.060  1.00  0.00     0.167 HD
ATOM     57  C   UNL A   1      42.946  28.078  32.223  1.00  0.00     0.074 A 
ATOM     58  C   UNL A   1      43.783  27.270  31.361  1.00  0.00     0.031 C 
ATOM     59  C   UNL A   1      43.283  28.455  33.480  1.00  0.00     0.034 A 
BRANCH  46  60
ATOM     60  C   UNL A   1      39.110  32.132  36.165  1.00  0.00     0.023 A 
ATOM     61  C   UNL A   1      39.495  33.480  36.292  1.00  0.00     0.012 A 
ATOM     62  C   UNL A   1      38.295  31.551  37.161  1.00  0.00     0.148 A 
ATOM     63  C   UNL A   1      39.105  34.227  37.406  1.00  0.00     0.002 A 
ATOM     64  C   UNL A   1      37.869  32.315  38.241  1.00  0.00     0.091 A 
ATOM     65  F   UNL A   1      37.947  30.263  37.031  1.00  0.00    -0.205 F 
ATOM     66  C   UNL A   1      38.285  33.649  38.373  1.00  0.00     0.022 A 
BRANCH  64  67
ATOM     67  S   UNL A   1      36.738  31.687  39.489  1.00  0.00     0.127 S 
ATOM     68  O   UNL A   1      37.097  32.503  40.649  1.00  0.00    -0.237 OA
ATOM     69  O   UNL A   1      35.433  32.000  38.906  1.00  0.00    -0.237 OA
ATOM     70  O   UNL A   1      37.023  30.265  39.614  1.00  0.00    -0.744 OA
ENDBRANCH  64  67
ENDBRANCH  46  60
BRANCH  47  71
ATOM     71  C   UNL A   1      41.394  27.098  27.894  1.00  0.00     0.023 A 
ATOM     72  C   UNL A   1      41.888  27.847  26.808  1.00  0.00     0.012 A 
ATOM     73  C   UNL A   1      41.300  25.696  27.770  1.00  0.00     0.148 A 
ATOM     74  C   UNL A   1      42.265  27.215  25.621  1.00  0.00     0.002 A 
ATOM     75  C   UNL A   1      41.747  25.067  26.614  1.00  0.00     0.091 A 
ATOM     76  F   UNL A   1      40.795  25.000  28.798  1.00  0.00    -0.205 F 
ATOM     77  C   UNL A   1      42.211  25.826  25.530  1.00  0.00     0.022 A 
BRANCH  75  78
ATOM     78  S   UNL A   1      41.861  23.279  26.475  1.00  0.00     0.127 S 
ATOM     79  O   UNL A   1      40.459  22.881  26.557  1.00  0.00    -0.237 OA
ATOM     80  O   UNL A   1      42.471  23.120  25.153  1.00  0.00    -0.237 OA
ATOM     81  O   UNL A   1      42.709  22.852  27.579  1.00  0.00    -0.744 OA
ENDBRANCH  75  78
ENDBRANCH  47  71
BRANCH  59  82
ATOM     82  C   UNL A   1      44.588  27.949  34.036  1.00  0.00     0.023 A 
ATOM     83  C   UNL A   1      45.764  28.711  33.891  1.00  0.00     0.012 A 
ATOM     84  C   UNL A   1      44.637  26.733  34.747  1.00  0.00     0.148 A 
ATOM     85  C   UNL A   1      46.975  28.253  34.411  1.00  0.00     0.002 A 
ATOM     86  C   UNL A   1      45.835  26.308  35.308  1.00  0.00     0.091 A 
ATOM     87  F   UNL A   1      43.512  26.012  34.858  1.00  0.00    -0.205 F 
ATOM     88  C   UNL A   1      47.009  27.059  35.128  1.00  0.00     0.022 A 
BRANCH  86  89
ATOM     89  S   UNL A   1      45.956  24.833  36.324  1.00  0.00     0.127 S 
ATOM     90  O   UNL A   1      44.709  24.893  37.085  1.00  0.00    -0.237 OA
ATOM     91  O   UNL A   1      46.007  23.769  35.321  1.00  0.00    -0.237 OA
ATOM     92  O   UNL A   1      47.173  24.983  37.110  1.00  0.00    -0.744 OA
ENDBRANCH  86  89
ENDBRANCH  59  82
ENDBRANCH  33  34
ENDBRANCH  26  28
ENDBRANCH  25  26
ENDBRANCH  24  25
ENDBRANCH   1  24
TORSDOF 20
ENDMDL
