MODEL 1
REMARK VINA RESULT:     -11.2      0.000      0.000
REMARK SMILES CC(C)Cc1ccc([C@H](C)C(=O)OCCOC(=O)c2ccc(-c3c4nc(c(-c5cccc(S(=O)(=O)[O-])c5F)c5ccc([nH]5)c(-c5cccc(S(=O)(=O)[O-])c5F)c5nc(c(-c6cccc(S(=O)(=O)[O-])c6F)c6ccc3[nH]6)C=C5)C=C4)cc2)cc1
REMARK SMILES IDX 14 1 13 2 11 3 12 4 9 5 10 6 8 7 5 8 6 9 83 10 7 11 82 12
REMARK SMILES IDX 4 13 2 14 1 15 3 16 15 17 16 18 17 19 18 20 19 21 20 22
REMARK SMILES IDX 81 23 21 24 80 25 22 26 23 27 24 28 74 29 25 30 79 31 73 32
REMARK SMILES IDX 75 33 26 34 78 35 72 36 71 37 27 39 59 40 39 41 58 42 40 43
REMARK SMILES IDX 43 44 57 45 76 46 41 47 42 48 56 50 77 51 44 52 28 53 29 54
REMARK SMILES IDX 37 55 30 56 32 57 38 58 31 59 33 60 34 61 35 62 36 63 60 64
REMARK SMILES IDX 61 65 69 66 62 67 64 68 70 69 63 70 65 71 66 72 67 73 68 74
REMARK SMILES IDX 45 75 46 76 54 77 47 78 49 79 55 80 48 81 50 82 51 83 52 84
REMARK SMILES IDX 53 85
REMARK H PARENT 75 38 43 49
REMARK Flexibility Score: inf
ROOT
ATOM      1  C   UNL A   1      31.534  28.167  27.324  1.00  0.00     0.274 C 
ENDROOT
BRANCH   1   2
ATOM      2  O   UNL A   1      31.869  27.196  26.316  1.00  0.00    -0.462 OA
BRANCH   2   3
ATOM      3  C   UNL A   1      30.819  26.493  25.809  1.00  0.00     0.313 C 
ATOM      4  O   UNL A   1      29.965  25.939  26.494  1.00  0.00    -0.252 OA
BRANCH   3   5
ATOM      5  C   UNL A   1      30.830  26.410  24.280  1.00  0.00     0.126 C 
ATOM      6  C   UNL A   1      30.480  25.023  23.743  1.00  0.00     0.025 C 
BRANCH   5   7
ATOM      7  C   UNL A   1      30.034  27.568  23.708  1.00  0.00    -0.034 A 
ATOM      8  C   UNL A   1      28.588  29.885  23.030  1.00  0.00    -0.048 A 
ATOM      9  C   UNL A   1      29.975  29.945  23.182  1.00  0.00     0.004 A 
ATOM     10  C   UNL A   1      27.944  28.644  23.129  1.00  0.00     0.004 A 
ATOM     11  C   UNL A   1      30.690  28.797  23.516  1.00  0.00     0.005 A 
ATOM     12  C   UNL A   1      28.657  27.498  23.476  1.00  0.00     0.005 A 
BRANCH   8  13
ATOM     13  C   UNL A   1      27.784  31.150  22.862  1.00  0.00     0.038 C 
BRANCH  13  14
ATOM     14  C   UNL A   1      28.571  32.248  22.112  1.00  0.00    -0.013 C 
ATOM     15  C   UNL A   1      27.871  32.687  20.822  1.00  0.00     0.008 C 
ATOM     16  C   UNL A   1      28.785  33.455  23.024  1.00  0.00     0.008 C 
ENDBRANCH  13  14
ENDBRANCH   8  13
ENDBRANCH   5   7
ENDBRANCH   3   5
ENDBRANCH   2   3
ENDBRANCH   1   2
BRANCH   1  17
ATOM     17  C   UNL A   1      31.570  29.599  26.783  1.00  0.00     0.275 C 
BRANCH  17  18
ATOM     18  O   UNL A   1      32.902  30.010  26.428  1.00  0.00    -0.458 OA
BRANCH  18  19
ATOM     19  C   UNL A   1      33.349  31.116  27.067  1.00  0.00     0.338 C 
ATOM     20  O   UNL A   1      32.737  32.152  27.267  1.00  0.00    -0.246 OA
BRANCH  19  21
ATOM     21  C   UNL A   1      34.687  30.865  27.621  1.00  0.00     0.060 A 
ATOM     22  C   UNL A   1      35.032  29.549  27.934  1.00  0.00     0.016 A 
ATOM     23  C   UNL A   1      35.547  31.916  27.933  1.00  0.00     0.016 A 
ATOM     24  C   UNL A   1      36.234  29.270  28.575  1.00  0.00     0.010 A 
ATOM     25  C   UNL A   1      36.762  31.636  28.567  1.00  0.00     0.010 A 
ATOM     26  C   UNL A   1      37.103  30.314  28.908  1.00  0.00    -0.014 A 
BRANCH  26  27
ATOM     27  C   UNL A   1      38.348  30.020  29.652  1.00  0.00     0.031 A 
ATOM     28  C   UNL A   1      39.352  29.062  29.079  1.00  0.00     0.074 A 
ATOM     29  C   UNL A   1      38.570  30.608  30.841  1.00  0.00     0.049 A 
ATOM     30  N   UNL A   1      40.457  28.609  29.612  1.00  0.00    -0.248 NA
ATOM     31  C   UNL A   1      39.076  28.540  27.731  1.00  0.00     0.031 C 
ATOM     32  C   UNL A   1      37.669  31.564  31.489  1.00  0.00     0.029 A 
ATOM     33  N   UNL A   1      39.608  30.471  31.728  1.00  0.00    -0.354 N 
ATOM     34  C   UNL A   1      40.981  27.712  28.690  1.00  0.00     0.074 A 
ATOM     35  C   UNL A   1      40.077  27.689  27.560  1.00  0.00     0.031 C 
ATOM     36  C   UNL A   1      38.184  31.910  32.679  1.00  0.00     0.029 A 
ATOM     37  C   UNL A   1      39.426  31.175  32.894  1.00  0.00     0.049 A 
ATOM     38  H   UNL A   1      40.404  29.922  31.545  1.00  0.00     0.167 HD
ATOM     39  C   UNL A   1      42.120  26.984  28.774  1.00  0.00     0.034 A 
ATOM     40  C   UNL A   1      40.165  31.201  34.021  1.00  0.00     0.034 A 
ATOM     41  C   UNL A   1      43.039  27.049  29.879  1.00  0.00     0.049 A 
ATOM     42  C   UNL A   1      41.427  30.386  34.087  1.00  0.00     0.074 A 
ATOM     43  C   UNL A   1      44.247  26.394  30.032  1.00  0.00     0.029 A 
ATOM     44  N   UNL A   1      42.850  27.815  31.019  1.00  0.00    -0.354 N 
ATOM     45  N   UNL A   1      41.961  29.619  33.167  1.00  0.00    -0.248 NA
ATOM     46  C   UNL A   1      42.201  30.458  35.334  1.00  0.00     0.031 C 
ATOM     47  C   UNL A   1      44.785  26.755  31.272  1.00  0.00     0.029 A 
ATOM     48  C   UNL A   1      43.916  27.642  31.887  1.00  0.00     0.049 A 
ATOM     49  H   UNL A   1      42.073  28.396  31.188  1.00  0.00     0.167 HD
ATOM     50  C   UNL A   1      43.142  29.133  33.714  1.00  0.00     0.074 A 
ATOM     51  C   UNL A   1      43.259  29.713  35.036  1.00  0.00     0.031 C 
ATOM     52  C   UNL A   1      44.039  28.269  33.179  1.00  0.00     0.034 A 
BRANCH  39  53
ATOM     53  C   UNL A   1      42.449  26.074  27.622  1.00  0.00     0.023 A 
ATOM     54  C   UNL A   1      43.281  26.537  26.584  1.00  0.00     0.012 A 
ATOM     55  C   UNL A   1      41.970  24.750  27.587  1.00  0.00     0.148 A 
ATOM     56  C   UNL A   1      43.610  25.706  25.513  1.00  0.00     0.002 A 
ATOM     57  C   UNL A   1      42.332  23.915  26.535  1.00  0.00     0.091 A 
ATOM     58  F   UNL A   1      41.155  24.336  28.568  1.00  0.00    -0.205 F 
ATOM     59  C   UNL A   1      43.145  24.394  25.495  1.00  0.00     0.022 A 
BRANCH  57  60
ATOM     60  S   UNL A   1      41.830  22.192  26.466  1.00  0.00     0.127 S 
ATOM     61  O   UNL A   1      42.563  21.716  25.295  1.00  0.00    -0.237 OA
ATOM     62  O   UNL A   1      42.319  21.671  27.743  1.00  0.00    -0.237 OA
ATOM     63  O   UNL A   1      40.380  22.208  26.340  1.00  0.00    -0.744 OA
ENDBRANCH  57  60
ENDBRANCH  39  53
BRANCH  40  64
ATOM     64  C   UNL A   1      39.733  32.058  35.160  1.00  0.00     0.023 A 
ATOM     65  C   UNL A   1      40.047  33.430  35.149  1.00  0.00     0.012 A 
ATOM     66  C   UNL A   1      38.964  31.537  36.218  1.00  0.00     0.148 A 
ATOM     67  C   UNL A   1      39.613  34.266  36.178  1.00  0.00     0.002 A 
ATOM     68  C   UNL A   1      38.489  32.385  37.212  1.00  0.00     0.091 A 
ATOM     69  F   UNL A   1      38.695  30.223  36.223  1.00  0.00    -0.205 F 
ATOM     70  C   UNL A   1      38.823  33.747  37.202  1.00  0.00     0.022 A 
BRANCH  68  71
ATOM     71  S   UNL A   1      37.354  31.824  38.488  1.00  0.00     0.127 S 
ATOM     72  O   UNL A   1      36.214  32.713  38.286  1.00  0.00    -0.237 OA
ATOM     73  O   UNL A   1      37.125  30.431  38.103  1.00  0.00    -0.237 OA
ATOM     74  O   UNL A   1      38.072  31.984  39.746  1.00  0.00    -0.744 OA
ENDBRANCH  68  71
ENDBRANCH  40  64
BRANCH  52  75
ATOM     75  C   UNL A   1      45.235  27.901  34.016  1.00  0.00     0.023 A 
ATOM     76  C   UNL A   1      45.168  26.777  34.863  1.00  0.00     0.012 A 
ATOM     77  C   UNL A   1      46.444  28.615  33.908  1.00  0.00     0.148 A 
ATOM     78  C   UNL A   1      46.278  26.383  35.608  1.00  0.00     0.002 A 
ATOM     79  C   UNL A   1      47.559  28.193  34.623  1.00  0.00     0.091 A 
ATOM     80  F   UNL A   1      46.482  29.695  33.114  1.00  0.00    -0.205 F 
ATOM     81  C   UNL A   1      47.476  27.083  35.479  1.00  0.00     0.022 A 
BRANCH  79  82
ATOM     82  S   UNL A   1      49.162  28.985  34.445  1.00  0.00     0.127 S 
ATOM     83  O   UNL A   1      49.622  29.042  35.831  1.00  0.00    -0.237 OA
ATOM     84  O   UNL A   1      49.890  28.040  33.598  1.00  0.00    -0.237 OA
ATOM     85  O   UNL A   1      48.899  30.273  33.816  1.00  0.00    -0.744 OA
ENDBRANCH  79  82
ENDBRANCH  52  75
ENDBRANCH  26  27
ENDBRANCH  19  21
ENDBRANCH  18  19
ENDBRANCH  17  18
ENDBRANCH   1  17
TORSDOF 17
ENDMDL
MODEL 2
REMARK VINA RESULT:     -11.1      4.890      7.406
REMARK SMILES CC(C)Cc1ccc([C@H](C)C(=O)OCCOC(=O)c2ccc(-c3c4nc(c(-c5cccc(S(=O)(=O)[O-])c5F)c5ccc([nH]5)c(-c5cccc(S(=O)(=O)[O-])c5F)c5nc(c(-c6cccc(S(=O)(=O)[O-])c6F)c6ccc3[nH]6)C=C5)C=C4)cc2)cc1
REMARK SMILES IDX 14 1 13 2 11 3 12 4 9 5 10 6 8 7 5 8 6 9 83 10 7 11 82 12
REMARK SMILES IDX 4 13 2 14 1 15 3 16 15 17 16 18 17 19 18 20 19 21 20 22
REMARK SMILES IDX 81 23 21 24 80 25 22 26 23 27 24 28 74 29 25 30 79 31 73 32
REMARK SMILES IDX 75 33 26 34 78 35 72 36 71 37 27 39 59 40 39 41 58 42 40 43
REMARK SMILES IDX 43 44 57 45 76 46 41 47 42 48 56 50 77 51 44 52 28 53 29 54
REMARK SMILES IDX 37 55 30 56 32 57 38 58 31 59 33 60 34 61 35 62 36 63 60 64
REMARK SMILES IDX 61 65 69 66 62 67 64 68 70 69 63 70 65 71 66 72 67 73 68 74
REMARK SMILES IDX 45 75 46 76 54 77 47 78 49 79 55 80 48 81 50 82 51 83 52 84
REMARK SMILES IDX 53 85
REMARK H PARENT 75 38 43 49
REMARK Flexibility Score: inf
ROOT
ATOM      1  C   UNL A   1      36.033  19.964  24.979  1.00  0.00     0.274 C 
ENDROOT
BRANCH   1   2
ATOM      2  O   UNL A   1      35.636  21.342  24.855  1.00  0.00    -0.462 OA
BRANCH   2   3
ATOM      3  C   UNL A   1      34.492  21.681  25.511  1.00  0.00     0.313 C 
ATOM      4  O   UNL A   1      34.248  21.380  26.675  1.00  0.00    -0.252 OA
BRANCH   3   5
ATOM      5  C   UNL A   1      33.494  22.440  24.630  1.00  0.00     0.126 C 
ATOM      6  C   UNL A   1      32.360  21.564  24.102  1.00  0.00     0.025 C 
BRANCH   5   7
ATOM      7  C   UNL A   1      33.079  23.720  25.330  1.00  0.00    -0.034 A 
ATOM      8  C   UNL A   1      32.036  26.141  26.314  1.00  0.00    -0.048 A 
ATOM      9  C   UNL A   1      31.299  24.961  26.436  1.00  0.00     0.004 A 
ATOM     10  C   UNL A   1      33.330  26.086  25.781  1.00  0.00     0.004 A 
ATOM     11  C   UNL A   1      31.818  23.763  25.950  1.00  0.00     0.005 A 
ATOM     12  C   UNL A   1      33.844  24.889  25.282  1.00  0.00     0.005 A 
BRANCH   8  13
ATOM     13  C   UNL A   1      31.408  27.469  26.656  1.00  0.00     0.038 C 
BRANCH  13  14
ATOM     14  C   UNL A   1      32.185  28.658  26.050  1.00  0.00    -0.013 C 
ATOM     15  C   UNL A   1      31.439  29.303  24.876  1.00  0.00     0.008 C 
ATOM     16  C   UNL A   1      32.465  29.706  27.126  1.00  0.00     0.008 C 
ENDBRANCH  13  14
ENDBRANCH   8  13
ENDBRANCH   5   7
ENDBRANCH   3   5
ENDBRANCH   2   3
ENDBRANCH   1   2
BRANCH   1  17
ATOM     17  C   UNL A   1      37.556  19.801  25.003  1.00  0.00     0.275 C 
BRANCH  17  18
ATOM     18  O   UNL A   1      38.225  21.016  25.382  1.00  0.00    -0.458 OA
BRANCH  18  19
ATOM     19  C   UNL A   1      39.338  20.847  26.134  1.00  0.00     0.338 C 
ATOM     20  O   UNL A   1      39.945  19.808  26.331  1.00  0.00    -0.246 OA
BRANCH  19  21
ATOM     21  C   UNL A   1      39.820  22.150  26.611  1.00  0.00     0.060 A 
ATOM     22  C   UNL A   1      39.204  23.301  26.115  1.00  0.00     0.016 A 
ATOM     23  C   UNL A   1      40.932  22.246  27.446  1.00  0.00     0.016 A 
ATOM     24  C   UNL A   1      39.700  24.559  26.437  1.00  0.00     0.010 A 
ATOM     25  C   UNL A   1      41.424  23.511  27.780  1.00  0.00     0.010 A 
ATOM     26  C   UNL A   1      40.823  24.673  27.263  1.00  0.00    -0.014 A 
BRANCH  26  27
ATOM     27  C   UNL A   1      41.389  26.011  27.545  1.00  0.00     0.031 A 
ATOM     28  C   UNL A   1      42.792  26.335  27.117  1.00  0.00     0.074 A 
ATOM     29  C   UNL A   1      40.646  26.928  28.190  1.00  0.00     0.049 A 
ATOM     30  N   UNL A   1      43.496  27.412  27.345  1.00  0.00    -0.248 NA
ATOM     31  C   UNL A   1      43.498  25.309  26.332  1.00  0.00     0.031 C 
ATOM     32  C   UNL A   1      39.268  26.728  28.643  1.00  0.00     0.029 A 
ATOM     33  N   UNL A   1      40.952  28.202  28.599  1.00  0.00    -0.354 N 
ATOM     34  C   UNL A   1      44.742  27.176  26.779  1.00  0.00     0.074 A 
ATOM     35  C   UNL A   1      44.697  25.855  26.190  1.00  0.00     0.031 C 
ATOM     36  C   UNL A   1      38.855  27.832  29.286  1.00  0.00     0.029 A 
ATOM     37  C   UNL A   1      39.948  28.799  29.323  1.00  0.00     0.049 A 
ATOM     38  H   UNL A   1      41.807  28.644  28.392  1.00  0.00     0.167 HD
ATOM     39  C   UNL A   1      45.821  27.994  26.744  1.00  0.00     0.034 A 
ATOM     40  C   UNL A   1      39.923  29.981  29.970  1.00  0.00     0.034 A 
ATOM     41  C   UNL A   1      45.843  29.324  27.289  1.00  0.00     0.049 A 
ATOM     42  C   UNL A   1      41.134  30.871  29.911  1.00  0.00     0.074 A 
ATOM     43  C   UNL A   1      46.869  30.251  27.254  1.00  0.00     0.029 A 
ATOM     44  N   UNL A   1      44.789  29.918  27.968  1.00  0.00    -0.354 N 
ATOM     45  N   UNL A   1      42.271  30.676  29.288  1.00  0.00    -0.248 NA
ATOM     46  C   UNL A   1      41.051  32.154  30.623  1.00  0.00     0.031 C 
ATOM     47  C   UNL A   1      46.440  31.403  27.923  1.00  0.00     0.029 A 
ATOM     48  C   UNL A   1      45.143  31.196  28.366  1.00  0.00     0.049 A 
ATOM     49  H   UNL A   1      43.919  29.493  28.142  1.00  0.00     0.167 HD
ATOM     50  C   UNL A   1      43.031  31.816  29.513  1.00  0.00     0.074 A 
ATOM     51  C   UNL A   1      42.216  32.710  30.311  1.00  0.00     0.031 C 
ATOM     52  C   UNL A   1      44.298  32.091  29.115  1.00  0.00     0.034 A 
BRANCH  39  53
ATOM     53  C   UNL A   1      47.061  27.477  26.067  1.00  0.00     0.023 A 
ATOM     54  C   UNL A   1      47.267  27.740  24.698  1.00  0.00     0.012 A 
ATOM     55  C   UNL A   1      48.040  26.770  26.791  1.00  0.00     0.148 A 
ATOM     56  C   UNL A   1      48.416  27.283  24.053  1.00  0.00     0.002 A 
ATOM     57  C   UNL A   1      49.200  26.348  26.149  1.00  0.00     0.091 A 
ATOM     58  F   UNL A   1      47.813  26.502  28.085  1.00  0.00    -0.205 F 
ATOM     59  C   UNL A   1      49.386  26.597  24.780  1.00  0.00     0.022 A 
BRANCH  57  60
ATOM     60  S   UNL A   1      50.528  25.516  27.026  1.00  0.00     0.127 S 
ATOM     61  O   UNL A   1      50.937  26.539  27.986  1.00  0.00    -0.237 OA
ATOM     62  O   UNL A   1      49.842  24.367  27.618  1.00  0.00    -0.237 OA
ATOM     63  O   UNL A   1      51.514  25.169  26.013  1.00  0.00    -0.744 OA
ENDBRANCH  57  60
ENDBRANCH  39  53
BRANCH  40  64
ATOM     64  C   UNL A   1      38.691  30.392  30.697  1.00  0.00     0.023 A 
ATOM     65  C   UNL A   1      38.570  30.104  32.069  1.00  0.00     0.012 A 
ATOM     66  C   UNL A   1      37.669  31.118  30.054  1.00  0.00     0.148 A 
ATOM     67  C   UNL A   1      37.448  30.520  32.786  1.00  0.00     0.002 A 
ATOM     68  C   UNL A   1      36.580  31.577  30.786  1.00  0.00     0.091 A 
ATOM     69  F   UNL A   1      37.792  31.363  28.741  1.00  0.00    -0.205 F 
ATOM     70  C   UNL A   1      36.460  31.268  32.149  1.00  0.00     0.022 A 
BRANCH  68  71
ATOM     71  S   UNL A   1      35.336  32.661  30.074  1.00  0.00     0.127 S 
ATOM     72  O   UNL A   1      36.140  33.804  29.650  1.00  0.00    -0.237 OA
ATOM     73  O   UNL A   1      34.805  31.843  28.982  1.00  0.00    -0.237 OA
ATOM     74  O   UNL A   1      34.382  32.916  31.145  1.00  0.00    -0.744 OA
ENDBRANCH  68  71
ENDBRANCH  40  64
BRANCH  52  75
ATOM     75  C   UNL A   1      44.883  33.417  29.525  1.00  0.00     0.023 A 
ATOM     76  C   UNL A   1      45.634  33.504  30.713  1.00  0.00     0.012 A 
ATOM     77  C   UNL A   1      44.757  34.551  28.700  1.00  0.00     0.148 A 
ATOM     78  C   UNL A   1      46.232  34.707  31.087  1.00  0.00     0.002 A 
ATOM     79  C   UNL A   1      45.389  35.736  29.058  1.00  0.00     0.091 A 
ATOM     80  F   UNL A   1      44.019  34.454  27.584  1.00  0.00    -0.205 F 
ATOM     81  C   UNL A   1      46.119  35.819  30.255  1.00  0.00     0.022 A 
BRANCH  79  82
ATOM     82  S   UNL A   1      45.367  37.188  27.999  1.00  0.00     0.127 S 
ATOM     83  O   UNL A   1      46.121  38.152  28.797  1.00  0.00    -0.237 OA
ATOM     84  O   UNL A   1      46.058  36.714  26.799  1.00  0.00    -0.237 OA
ATOM     85  O   UNL A   1      43.959  37.505  27.793  1.00  0.00    -0.744 OA
ENDBRANCH  79  82
ENDBRANCH  52  75
ENDBRANCH  26  27
ENDBRANCH  19  21
ENDBRANCH  18  19
ENDBRANCH  17  18
ENDBRANCH   1  17
TORSDOF 17
ENDMDL
MODEL 3
REMARK VINA RESULT:     -10.9      5.657     10.198
REMARK SMILES CC(C)Cc1ccc([C@H](C)C(=O)OCCOC(=O)c2ccc(-c3c4nc(c(-c5cccc(S(=O)(=O)[O-])c5F)c5ccc([nH]5)c(-c5cccc(S(=O)(=O)[O-])c5F)c5nc(c(-c6cccc(S(=O)(=O)[O-])c6F)c6ccc3[nH]6)C=C5)C=C4)cc2)cc1
REMARK SMILES IDX 14 1 13 2 11 3 12 4 9 5 10 6 8 7 5 8 6 9 83 10 7 11 82 12
REMARK SMILES IDX 4 13 2 14 1 15 3 16 15 17 16 18 17 19 18 20 19 21 20 22
REMARK SMILES IDX 81 23 21 24 80 25 22 26 23 27 24 28 74 29 25 30 79 31 73 32
REMARK SMILES IDX 75 33 26 34 78 35 72 36 71 37 27 39 59 40 39 41 58 42 40 43
REMARK SMILES IDX 43 44 57 45 76 46 41 47 42 48 56 50 77 51 44 52 28 53 29 54
REMARK SMILES IDX 37 55 30 56 32 57 38 58 31 59 33 60 34 61 35 62 36 63 60 64
REMARK SMILES IDX 61 65 69 66 62 67 64 68 70 69 63 70 65 71 66 72 67 73 68 74
REMARK SMILES IDX 45 75 46 76 54 77 47 78 49 79 55 80 48 81 50 82 51 83 52 84
REMARK SMILES IDX 53 85
REMARK H PARENT 75 38 43 49
REMARK Flexibility Score: inf
ROOT
ATOM      1  C   UNL A   1      41.788  21.470  25.907  1.00  0.00     0.274 C 
ENDROOT
BRANCH   1   2
ATOM      2  O   UNL A   1      42.545  22.518  25.274  1.00  0.00    -0.462 OA
BRANCH   2   3
ATOM      3  C   UNL A   1      43.887  22.491  25.504  1.00  0.00     0.313 C 
ATOM      4  O   UNL A   1      44.547  21.464  25.616  1.00  0.00    -0.252 OA
BRANCH   3   5
ATOM      5  C   UNL A   1      44.499  23.886  25.666  1.00  0.00     0.126 C 
ATOM      6  C   UNL A   1      43.638  25.001  25.075  1.00  0.00     0.025 C 
BRANCH   5   7
ATOM      7  C   UNL A   1      44.944  24.075  27.103  1.00  0.00    -0.034 A 
ATOM      8  C   UNL A   1      45.491  24.739  29.783  1.00  0.00    -0.048 A 
ATOM      9  C   UNL A   1      44.319  24.053  29.457  1.00  0.00     0.004 A 
ATOM     10  C   UNL A   1      46.427  25.008  28.775  1.00  0.00     0.004 A 
ATOM     11  C   UNL A   1      44.051  23.723  28.130  1.00  0.00     0.005 A 
ATOM     12  C   UNL A   1      46.152  24.691  27.445  1.00  0.00     0.005 A 
BRANCH   8  13
ATOM     13  C   UNL A   1      45.699  25.270  31.179  1.00  0.00     0.038 C 
BRANCH  13  14
ATOM     14  C   UNL A   1      44.369  25.437  31.946  1.00  0.00    -0.013 C 
ATOM     15  C   UNL A   1      44.370  24.688  33.283  1.00  0.00     0.008 C 
ATOM     16  C   UNL A   1      44.082  26.920  32.181  1.00  0.00     0.008 C 
ENDBRANCH  13  14
ENDBRANCH   8  13
ENDBRANCH   5   7
ENDBRANCH   3   5
ENDBRANCH   2   3
ENDBRANCH   1   2
BRANCH   1  17
ATOM     17  C   UNL A   1      41.244  21.895  27.275  1.00  0.00     0.275 C 
BRANCH  17  18
ATOM     18  O   UNL A   1      39.807  21.870  27.317  1.00  0.00    -0.458 OA
BRANCH  18  19
ATOM     19  C   UNL A   1      39.194  22.763  26.506  1.00  0.00     0.338 C 
ATOM     20  O   UNL A   1      38.464  22.522  25.560  1.00  0.00    -0.246 OA
BRANCH  19  21
ATOM     21  C   UNL A   1      39.430  24.128  26.999  1.00  0.00     0.060 A 
ATOM     22  C   UNL A   1      40.074  25.031  26.151  1.00  0.00     0.016 A 
ATOM     23  C   UNL A   1      39.123  24.483  28.311  1.00  0.00     0.016 A 
ATOM     24  C   UNL A   1      40.433  26.293  26.610  1.00  0.00     0.010 A 
ATOM     25  C   UNL A   1      39.472  25.757  28.770  1.00  0.00     0.010 A 
ATOM     26  C   UNL A   1      40.145  26.662  27.928  1.00  0.00    -0.014 A 
BRANCH  26  27
ATOM     27  C   UNL A   1      40.590  27.980  28.432  1.00  0.00     0.031 A 
ATOM     28  C   UNL A   1      42.056  28.258  28.604  1.00  0.00     0.074 A 
ATOM     29  C   UNL A   1      39.678  28.920  28.740  1.00  0.00     0.049 A 
ATOM     30  N   UNL A   1      42.641  29.312  29.110  1.00  0.00    -0.248 NA
ATOM     31  C   UNL A   1      42.986  27.211  28.152  1.00  0.00     0.031 C 
ATOM     32  C   UNL A   1      38.229  28.764  28.603  1.00  0.00     0.029 A 
ATOM     33  N   UNL A   1      39.833  30.182  29.255  1.00  0.00    -0.354 N 
ATOM     34  C   UNL A   1      44.002  29.036  29.085  1.00  0.00     0.074 A 
ATOM     35  C   UNL A   1      44.157  27.718  28.508  1.00  0.00     0.031 C 
ATOM     36  C   UNL A   1      37.627  29.880  29.043  1.00  0.00     0.029 A 
ATOM     37  C   UNL A   1      38.641  30.810  29.527  1.00  0.00     0.049 A 
ATOM     38  H   UNL A   1      40.712  30.596  29.414  1.00  0.00     0.167 HD
ATOM     39  C   UNL A   1      45.029  29.818  29.495  1.00  0.00     0.034 A 
ATOM     40  C   UNL A   1      38.395  31.992  30.127  1.00  0.00     0.034 A 
ATOM     41  C   UNL A   1      44.871  31.146  30.023  1.00  0.00     0.049 A 
ATOM     42  C   UNL A   1      39.554  32.842  30.569  1.00  0.00     0.074 A 
ATOM     43  C   UNL A   1      45.852  32.039  30.414  1.00  0.00     0.029 A 
ATOM     44  N   UNL A   1      43.651  31.773  30.233  1.00  0.00    -0.354 N 
ATOM     45  N   UNL A   1      40.839  32.611  30.449  1.00  0.00    -0.248 NA
ATOM     46  C   UNL A   1      39.232  34.126  31.207  1.00  0.00     0.031 C 
ATOM     47  C   UNL A   1      45.225  33.204  30.872  1.00  0.00     0.029 A 
ATOM     48  C   UNL A   1      43.854  33.039  30.758  1.00  0.00     0.049 A 
ATOM     49  H   UNL A   1      42.771  31.376  30.040  1.00  0.00     0.167 HD
ATOM     50  C   UNL A   1      41.479  33.725  30.976  1.00  0.00     0.074 A 
ATOM     51  C   UNL A   1      40.439  34.644  31.394  1.00  0.00     0.031 C 
ATOM     52  C   UNL A   1      42.807  33.959  31.120  1.00  0.00     0.034 A 
BRANCH  39  53
ATOM     53  C   UNL A   1      46.421  29.263  29.362  1.00  0.00     0.023 A 
ATOM     54  C   UNL A   1      46.981  28.522  30.422  1.00  0.00     0.012 A 
ATOM     55  C   UNL A   1      47.159  29.438  28.175  1.00  0.00     0.148 A 
ATOM     56  C   UNL A   1      48.263  27.987  30.314  1.00  0.00     0.002 A 
ATOM     57  C   UNL A   1      48.424  28.871  28.061  1.00  0.00     0.091 A 
ATOM     58  F   UNL A   1      46.624  30.172  27.188  1.00  0.00    -0.205 F 
ATOM     59  C   UNL A   1      48.980  28.152  29.132  1.00  0.00     0.022 A 
BRANCH  57  60
ATOM     60  S   UNL A   1      49.388  28.980  26.549  1.00  0.00     0.127 S 
ATOM     61  O   UNL A   1      50.539  28.138  26.870  1.00  0.00    -0.237 OA
ATOM     62  O   UNL A   1      48.477  28.412  25.555  1.00  0.00    -0.237 OA
ATOM     63  O   UNL A   1      49.671  30.396  26.363  1.00  0.00    -0.744 OA
ENDBRANCH  57  60
ENDBRANCH  39  53
BRANCH  40  64
ATOM     64  C   UNL A   1      36.987  32.442  30.308  1.00  0.00     0.023 A 
ATOM     65  C   UNL A   1      36.346  32.226  31.542  1.00  0.00     0.012 A 
ATOM     66  C   UNL A   1      36.303  33.134  29.289  1.00  0.00     0.148 A 
ATOM     67  C   UNL A   1      35.044  32.680  31.755  1.00  0.00     0.002 A 
ATOM     68  C   UNL A   1      35.028  33.632  29.527  1.00  0.00     0.091 A 
ATOM     69  F   UNL A   1      36.922  33.310  28.113  1.00  0.00    -0.205 F 
ATOM     70  C   UNL A   1      34.391  33.395  30.754  1.00  0.00     0.022 A 
BRANCH  68  71
ATOM     71  S   UNL A   1      34.172  34.679  28.343  1.00  0.00     0.127 S 
ATOM     72  O   UNL A   1      34.916  34.414  27.115  1.00  0.00    -0.237 OA
ATOM     73  O   UNL A   1      32.816  34.129  28.372  1.00  0.00    -0.237 OA
ATOM     74  O   UNL A   1      34.277  36.032  28.872  1.00  0.00    -0.744 OA
ENDBRANCH  68  71
ENDBRANCH  40  64
BRANCH  52  75
ATOM     75  C   UNL A   1      43.218  35.265  31.748  1.00  0.00     0.023 A 
ATOM     76  C   UNL A   1      43.586  36.344  30.921  1.00  0.00     0.012 A 
ATOM     77  C   UNL A   1      43.166  35.448  33.143  1.00  0.00     0.148 A 
ATOM     78  C   UNL A   1      43.919  37.579  31.474  1.00  0.00     0.002 A 
ATOM     79  C   UNL A   1      43.460  36.693  33.685  1.00  0.00     0.091 A 
ATOM     80  F   UNL A   1      42.835  34.402  33.915  1.00  0.00    -0.205 F 
ATOM     81  C   UNL A   1      43.845  37.758  32.855  1.00  0.00     0.022 A 
BRANCH  79  82
ATOM     82  S   UNL A   1      43.302  37.030  35.444  1.00  0.00     0.127 S 
ATOM     83  O   UNL A   1      43.751  38.418  35.524  1.00  0.00    -0.237 OA
ATOM     84  O   UNL A   1      41.870  36.836  35.676  1.00  0.00    -0.237 OA
ATOM     85  O   UNL A   1      44.154  36.052  36.111  1.00  0.00    -0.744 OA
ENDBRANCH  79  82
ENDBRANCH  52  75
ENDBRANCH  26  27
ENDBRANCH  19  21
ENDBRANCH  18  19
ENDBRANCH  17  18
ENDBRANCH   1  17
TORSDOF 17
ENDMDL
