MODEL 1
REMARK VINA RESULT:     -11.8      0.000      0.000
REMARK SMILES O=C(Cn1nnnc1[C@H]1Cc2ccccc2S1)OCCOC(=O)c1ccc(-c2c3nc(c(-c4cccc(S(=O)(=O)[O-])c4F)c4ccc([nH]4)c(-c4cccc(S(=O)(=O)[O-])c4F)c4nc(c(-c5cccc(S(=O)(=O)[O-])c5F)c5ccc2[nH]5)C=C4)C=C3)cc1
REMARK SMILES IDX 20 1 19 2 18 3 2 4 1 5 3 6 4 7 5 8 8 9 6 10 7 11 9 12 10 13
REMARK SMILES IDX 17 14 11 15 16 16 12 17 15 18 13 19 14 20 21 21 22 22 23 23
REMARK SMILES IDX 24 24 25 25 86 26 26 27 85 28 27 29 28 30 29 31 79 32 30 33
REMARK SMILES IDX 84 34 78 35 80 36 31 37 83 38 77 39 76 40 32 42 64 43 44 44
REMARK SMILES IDX 63 45 45 46 48 47 62 48 81 49 46 50 47 51 61 53 82 54 49 55
REMARK SMILES IDX 33 56 34 57 42 58 35 59 37 60 43 61 36 62 38 63 39 64 40 65
REMARK SMILES IDX 41 66 65 67 66 68 74 69 67 70 69 71 75 72 68 73 70 74 71 75
REMARK SMILES IDX 72 76 73 77 50 78 51 79 59 80 52 81 54 82 60 83 53 84 55 85
REMARK SMILES IDX 56 86 57 87 58 88
REMARK H PARENT 80 41 48 52
REMARK Flexibility Score: inf
ROOT
ATOM      1  C   UNL A   1      34.962  33.758  28.798  1.00  0.00     0.275 C 
ENDROOT
BRANCH   1   2
ATOM      2  C   UNL A   1      34.603  35.013  27.990  1.00  0.00     0.274 C 
BRANCH   2   3
ATOM      3  O   UNL A   1      33.367  35.597  28.438  1.00  0.00    -0.461 OA
BRANCH   3   4
ATOM      4  C   UNL A   1      32.994  35.781  29.730  1.00  0.00     0.328 C 
ATOM      5  O   UNL A   1      32.163  35.012  30.207  1.00  0.00    -0.250 OA
BRANCH   4   6
ATOM      6  C   UNL A   1      33.496  36.976  30.502  1.00  0.00     0.270 C 
BRANCH   6   7
ATOM      7  N   UNL A   1      33.643  36.837  31.927  1.00  0.00    -0.217 N 
ATOM      8  N   UNL A   1      33.066  37.737  32.734  1.00  0.00    -0.044 NA
ATOM      9  C   UNL A   1      34.470  36.008  32.663  1.00  0.00     0.165 A 
ATOM     10  N   UNL A   1      33.583  37.524  33.929  1.00  0.00    -0.024 NA
ATOM     11  N   UNL A   1      34.425  36.448  33.909  1.00  0.00    -0.113 NA
BRANCH   9  12
ATOM     12  C   UNL A   1      35.241  34.787  32.260  1.00  0.00     0.126 C 
ATOM     13  C   UNL A   1      36.664  34.683  32.834  1.00  0.00     0.059 C 
ATOM     14  S   UNL A   1      34.460  33.174  32.524  1.00  0.00    -0.114 SA
ATOM     15  C   UNL A   1      37.085  33.241  32.749  1.00  0.00    -0.033 A 
ATOM     16  C   UNL A   1      36.029  32.343  32.594  1.00  0.00     0.011 A 
ATOM     17  C   UNL A   1      38.392  32.779  32.890  1.00  0.00     0.005 A 
ATOM     18  C   UNL A   1      36.262  30.973  32.544  1.00  0.00     0.015 A 
ATOM     19  C   UNL A   1      38.634  31.405  32.843  1.00  0.00     0.000 A 
ATOM     20  C   UNL A   1      37.575  30.505  32.664  1.00  0.00     0.001 A 
ENDBRANCH   9  12
ENDBRANCH   6   7
ENDBRANCH   4   6
ENDBRANCH   3   4
ENDBRANCH   2   3
ENDBRANCH   1   2
BRANCH   1  21
ATOM     21  O   UNL A   1      35.815  32.911  28.011  1.00  0.00    -0.458 OA
BRANCH  21  22
ATOM     22  C   UNL A   1      35.543  31.575  28.024  1.00  0.00     0.338 C 
ATOM     23  O   UNL A   1      34.743  30.989  27.316  1.00  0.00    -0.246 OA
BRANCH  22  24
ATOM     24  C   UNL A   1      36.624  30.937  28.811  1.00  0.00     0.060 A 
ATOM     25  C   UNL A   1      37.824  31.606  29.042  1.00  0.00     0.016 A 
ATOM     26  C   UNL A   1      36.525  29.566  29.067  1.00  0.00     0.016 A 
ATOM     27  C   UNL A   1      38.969  30.860  29.307  1.00  0.00     0.010 A 
ATOM     28  C   UNL A   1      37.672  28.829  29.371  1.00  0.00     0.010 A 
ATOM     29  C   UNL A   1      38.918  29.454  29.385  1.00  0.00    -0.014 A 
BRANCH  29  30
ATOM     30  C   UNL A   1      40.199  28.728  29.541  1.00  0.00     0.031 A 
ATOM     31  C   UNL A   1      40.599  28.518  30.965  1.00  0.00     0.074 A 
ATOM     32  C   UNL A   1      40.956  28.203  28.547  1.00  0.00     0.049 A 
ATOM     33  N   UNL A   1      41.665  28.931  31.577  1.00  0.00    -0.248 NA
ATOM     34  C   UNL A   1      39.590  27.911  31.849  1.00  0.00     0.031 C 
ATOM     35  C   UNL A   1      40.643  28.115  27.119  1.00  0.00     0.029 A 
ATOM     36  N   UNL A   1      42.141  27.511  28.630  1.00  0.00    -0.354 N 
ATOM     37  C   UNL A   1      41.550  28.445  32.877  1.00  0.00     0.074 A 
ATOM     38  C   UNL A   1      40.194  27.982  33.033  1.00  0.00     0.031 C 
ATOM     39  C   UNL A   1      41.445  27.197  26.535  1.00  0.00     0.029 A 
ATOM     40  C   UNL A   1      42.408  26.720  27.508  1.00  0.00     0.049 A 
ATOM     41  H   UNL A   1      42.743  27.565  29.407  1.00  0.00     0.167 HD
ATOM     42  C   UNL A   1      42.621  28.227  33.686  1.00  0.00     0.034 A 
ATOM     43  C   UNL A   1      43.293  25.691  27.418  1.00  0.00     0.034 A 
ATOM     44  C   UNL A   1      43.797  28.927  33.272  1.00  0.00     0.049 A 
ATOM     45  C   UNL A   1      44.274  25.863  28.510  1.00  0.00     0.074 A 
ATOM     46  C   UNL A   1      44.150  30.250  33.105  1.00  0.00     0.029 A 
ATOM     47  N   UNL A   1      44.775  28.195  32.648  1.00  0.00    -0.354 N 
ATOM     48  N   UNL A   1      45.162  26.812  28.556  1.00  0.00    -0.248 NA
ATOM     49  C   UNL A   1      44.034  25.155  29.755  1.00  0.00     0.031 C 
ATOM     50  C   UNL A   1      45.051  30.257  32.002  1.00  0.00     0.029 A 
ATOM     51  C   UNL A   1      45.214  28.936  31.585  1.00  0.00     0.049 A 
ATOM     52  H   UNL A   1      45.099  27.305  32.915  1.00  0.00     0.167 HD
ATOM     53  C   UNL A   1      45.267  27.113  29.905  1.00  0.00     0.074 A 
ATOM     54  C   UNL A   1      44.632  25.996  30.598  1.00  0.00     0.031 C 
ATOM     55  C   UNL A   1      45.603  28.367  30.318  1.00  0.00     0.034 A 
BRANCH  42  56
ATOM     56  C   UNL A   1      42.673  27.084  34.664  1.00  0.00     0.023 A 
ATOM     57  C   UNL A   1      41.672  26.094  34.609  1.00  0.00     0.012 A 
ATOM     58  C   UNL A   1      43.525  27.085  35.793  1.00  0.00     0.148 A 
ATOM     59  C   UNL A   1      41.532  25.147  35.631  1.00  0.00     0.002 A 
ATOM     60  C   UNL A   1      43.438  26.094  36.760  1.00  0.00     0.091 A 
ATOM     61  F   UNL A   1      44.340  28.125  36.007  1.00  0.00    -0.205 F 
ATOM     62  C   UNL A   1      42.427  25.134  36.697  1.00  0.00     0.022 A 
BRANCH  60  63
ATOM     63  S   UNL A   1      44.606  26.015  38.121  1.00  0.00     0.127 S 
ATOM     64  O   UNL A   1      44.567  24.595  38.457  1.00  0.00    -0.237 OA
ATOM     65  O   UNL A   1      45.841  26.469  37.482  1.00  0.00    -0.237 OA
ATOM     66  O   UNL A   1      44.087  26.933  39.127  1.00  0.00    -0.744 OA
ENDBRANCH  60  63
ENDBRANCH  42  56
BRANCH  43  67
ATOM     67  C   UNL A   1      43.221  24.402  26.670  1.00  0.00     0.023 A 
ATOM     68  C   UNL A   1      44.398  23.887  26.076  1.00  0.00     0.012 A 
ATOM     69  C   UNL A   1      42.123  23.525  26.802  1.00  0.00     0.148 A 
ATOM     70  C   UNL A   1      44.503  22.540  25.702  1.00  0.00     0.002 A 
ATOM     71  C   UNL A   1      42.226  22.189  26.416  1.00  0.00     0.091 A 
ATOM     72  F   UNL A   1      41.008  23.962  27.401  1.00  0.00    -0.205 F 
ATOM     73  C   UNL A   1      43.421  21.688  25.885  1.00  0.00     0.022 A 
BRANCH  71  74
ATOM     74  S   UNL A   1      40.868  21.031  26.635  1.00  0.00     0.127 S 
ATOM     75  O   UNL A   1      41.399  19.812  26.025  1.00  0.00    -0.237 OA
ATOM     76  O   UNL A   1      40.742  20.981  28.089  1.00  0.00    -0.237 OA
ATOM     77  O   UNL A   1      39.737  21.609  25.919  1.00  0.00    -0.744 OA
ENDBRANCH  71  74
ENDBRANCH  43  67
BRANCH  55  78
ATOM     78  C   UNL A   1      46.159  29.327  29.305  1.00  0.00     0.023 A 
ATOM     79  C   UNL A   1      47.510  29.295  28.902  1.00  0.00     0.012 A 
ATOM     80  C   UNL A   1      45.250  30.134  28.601  1.00  0.00     0.148 A 
ATOM     81  C   UNL A   1      47.942  30.053  27.810  1.00  0.00     0.002 A 
ATOM     82  C   UNL A   1      45.675  30.858  27.497  1.00  0.00     0.091 A 
ATOM     83  F   UNL A   1      43.971  30.137  29.004  1.00  0.00    -0.205 F 
ATOM     84  C   UNL A   1      47.022  30.823  27.098  1.00  0.00     0.022 A 
BRANCH  82  85
ATOM     85  S   UNL A   1      44.524  31.780  26.473  1.00  0.00     0.127 S 
ATOM     86  O   UNL A   1      43.534  30.761  26.128  1.00  0.00    -0.237 OA
ATOM     87  O   UNL A   1      44.045  32.812  27.394  1.00  0.00    -0.237 OA
ATOM     88  O   UNL A   1      45.299  32.294  25.350  1.00  0.00    -0.744 OA
ENDBRANCH  82  85
ENDBRANCH  55  78
ENDBRANCH  29  30
ENDBRANCH  22  24
ENDBRANCH  21  22
ENDBRANCH   1  21
TORSDOF 16
ENDMDL
MODEL 2
REMARK VINA RESULT:     -11.4      2.045      3.104
REMARK SMILES O=C(Cn1nnnc1[C@H]1Cc2ccccc2S1)OCCOC(=O)c1ccc(-c2c3nc(c(-c4cccc(S(=O)(=O)[O-])c4F)c4ccc([nH]4)c(-c4cccc(S(=O)(=O)[O-])c4F)c4nc(c(-c5cccc(S(=O)(=O)[O-])c5F)c5ccc2[nH]5)C=C4)C=C3)cc1
REMARK SMILES IDX 20 1 19 2 18 3 2 4 1 5 3 6 4 7 5 8 8 9 6 10 7 11 9 12 10 13
REMARK SMILES IDX 17 14 11 15 16 16 12 17 15 18 13 19 14 20 21 21 22 22 23 23
REMARK SMILES IDX 24 24 25 25 86 26 26 27 85 28 27 29 28 30 29 31 79 32 30 33
REMARK SMILES IDX 84 34 78 35 80 36 31 37 83 38 77 39 76 40 32 42 64 43 44 44
REMARK SMILES IDX 63 45 45 46 48 47 62 48 81 49 46 50 47 51 61 53 82 54 49 55
REMARK SMILES IDX 33 56 34 57 42 58 35 59 37 60 43 61 36 62 38 63 39 64 40 65
REMARK SMILES IDX 41 66 65 67 66 68 74 69 67 70 69 71 75 72 68 73 70 74 71 75
REMARK SMILES IDX 72 76 73 77 50 78 51 79 59 80 52 81 54 82 60 83 53 84 55 85
REMARK SMILES IDX 56 86 57 87 58 88
REMARK H PARENT 80 41 48 52
REMARK Flexibility Score: inf
ROOT
ATOM      1  C   UNL A   1      36.102  33.310  33.885  1.00  0.00     0.275 C 
ENDROOT
BRANCH   1   2
ATOM      2  C   UNL A   1      36.202  34.567  33.009  1.00  0.00     0.274 C 
BRANCH   2   3
ATOM      3  O   UNL A   1      35.468  35.667  33.575  1.00  0.00    -0.461 OA
BRANCH   3   4
ATOM      4  C   UNL A   1      34.313  36.190  33.089  1.00  0.00     0.328 C 
ATOM      5  O   UNL A   1      34.031  37.348  33.390  1.00  0.00    -0.250 OA
BRANCH   4   6
ATOM      6  C   UNL A   1      33.355  35.323  32.311  1.00  0.00     0.270 C 
BRANCH   6   7
ATOM      7  N   UNL A   1      33.259  35.540  30.892  1.00  0.00    -0.217 N 
ATOM      8  N   UNL A   1      32.517  36.559  30.436  1.00  0.00    -0.044 NA
ATOM      9  C   UNL A   1      33.657  34.741  29.836  1.00  0.00     0.165 A 
ATOM     10  N   UNL A   1      32.391  36.353  29.139  1.00  0.00    -0.024 NA
ATOM     11  N   UNL A   1      33.108  35.258  28.749  1.00  0.00    -0.113 NA
BRANCH   9  12
ATOM     12  C   UNL A   1      34.581  33.561  29.796  1.00  0.00     0.126 C 
ATOM     13  C   UNL A   1      34.083  32.357  28.979  1.00  0.00     0.059 C 
ATOM     14  S   UNL A   1      36.297  33.852  29.291  1.00  0.00    -0.114 SA
ATOM     15  C   UNL A   1      35.279  31.509  28.643  1.00  0.00    -0.033 A 
ATOM     16  C   UNL A   1      36.503  32.170  28.757  1.00  0.00     0.011 A 
ATOM     17  C   UNL A   1      35.225  30.198  28.174  1.00  0.00     0.005 A 
ATOM     18  C   UNL A   1      37.692  31.526  28.437  1.00  0.00     0.015 A 
ATOM     19  C   UNL A   1      36.415  29.545  27.848  1.00  0.00     0.000 A 
ATOM     20  C   UNL A   1      37.644  30.203  27.984  1.00  0.00     0.001 A 
ENDBRANCH   9  12
ENDBRANCH   6   7
ENDBRANCH   4   6
ENDBRANCH   3   4
ENDBRANCH   2   3
ENDBRANCH   1   2
BRANCH   1  21
ATOM     21  O   UNL A   1      36.968  32.291  33.358  1.00  0.00    -0.458 OA
BRANCH  21  22
ATOM     22  C   UNL A   1      36.397  31.349  32.555  1.00  0.00     0.338 C 
ATOM     23  O   UNL A   1      35.213  31.243  32.286  1.00  0.00    -0.246 OA
BRANCH  22  24
ATOM     24  C   UNL A   1      37.507  30.696  31.822  1.00  0.00     0.060 A 
ATOM     25  C   UNL A   1      37.447  29.340  31.507  1.00  0.00     0.016 A 
ATOM     26  C   UNL A   1      38.716  31.389  31.712  1.00  0.00     0.016 A 
ATOM     27  C   UNL A   1      38.636  28.645  31.303  1.00  0.00     0.010 A 
ATOM     28  C   UNL A   1      39.901  30.691  31.469  1.00  0.00     0.010 A 
ATOM     29  C   UNL A   1      39.882  29.300  31.372  1.00  0.00    -0.014 A 
BRANCH  29  30
ATOM     30  C   UNL A   1      41.102  28.467  31.273  1.00  0.00     0.031 A 
ATOM     31  C   UNL A   1      41.812  28.290  32.576  1.00  0.00     0.074 A 
ATOM     32  C   UNL A   1      41.557  27.827  30.169  1.00  0.00     0.049 A 
ATOM     33  N   UNL A   1      43.023  28.632  32.892  1.00  0.00    -0.248 NA
ATOM     34  C   UNL A   1      40.999  27.822  33.710  1.00  0.00     0.031 C 
ATOM     35  C   UNL A   1      40.906  27.700  28.863  1.00  0.00     0.029 A 
ATOM     36  N   UNL A   1      42.670  27.033  30.021  1.00  0.00    -0.354 N 
ATOM     37  C   UNL A   1      43.183  28.221  34.214  1.00  0.00     0.074 A 
ATOM     38  C   UNL A   1      41.871  27.894  34.713  1.00  0.00     0.031 C 
ATOM     39  C   UNL A   1      41.471  26.684  28.173  1.00  0.00     0.029 A 
ATOM     40  C   UNL A   1      42.598  26.167  28.924  1.00  0.00     0.049 A 
ATOM     41  H   UNL A   1      43.442  27.068  30.630  1.00  0.00     0.167 HD
ATOM     42  C   UNL A   1      44.395  27.945  34.764  1.00  0.00     0.034 A 
ATOM     43  C   UNL A   1      43.352  25.058  28.701  1.00  0.00     0.034 A 
ATOM     44  C   UNL A   1      45.490  28.512  34.039  1.00  0.00     0.049 A 
ATOM     45  C   UNL A   1      44.576  25.191  29.519  1.00  0.00     0.074 A 
ATOM     46  C   UNL A   1      45.895  29.788  33.704  1.00  0.00     0.029 A 
ATOM     47  N   UNL A   1      46.231  27.664  33.256  1.00  0.00    -0.354 N 
ATOM     48  N   UNL A   1      45.521  26.055  29.292  1.00  0.00    -0.248 NA
ATOM     49  C   UNL A   1      44.585  24.569  30.832  1.00  0.00     0.031 C 
ATOM     50  C   UNL A   1      46.505  29.658  32.423  1.00  0.00     0.029 A 
ATOM     51  C   UNL A   1      46.460  28.309  32.072  1.00  0.00     0.049 A 
ATOM     52  H   UNL A   1      46.538  26.762  33.501  1.00  0.00     0.167 HD
ATOM     53  C   UNL A   1      45.968  26.410  30.555  1.00  0.00     0.074 A 
ATOM     54  C   UNL A   1      45.431  25.392  31.452  1.00  0.00     0.031 C 
ATOM     55  C   UNL A   1      46.490  27.646  30.791  1.00  0.00     0.034 A 
BRANCH  42  56
ATOM     56  C   UNL A   1      44.590  26.850  35.778  1.00  0.00     0.023 A 
ATOM     57  C   UNL A   1      44.259  25.527  35.424  1.00  0.00     0.012 A 
ATOM     58  C   UNL A   1      44.844  27.113  37.145  1.00  0.00     0.148 A 
ATOM     59  C   UNL A   1      44.192  24.514  36.388  1.00  0.00     0.002 A 
ATOM     60  C   UNL A   1      44.860  26.091  38.083  1.00  0.00     0.091 A 
ATOM     61  F   UNL A   1      44.940  28.379  37.568  1.00  0.00    -0.205 F 
ATOM     62  C   UNL A   1      44.512  24.791  37.714  1.00  0.00     0.022 A 
BRANCH  60  63
ATOM     63  S   UNL A   1      45.317  26.401  39.791  1.00  0.00     0.127 S 
ATOM     64  O   UNL A   1      45.054  25.103  40.404  1.00  0.00    -0.237 OA
ATOM     65  O   UNL A   1      46.732  26.753  39.663  1.00  0.00    -0.237 OA
ATOM     66  O   UNL A   1      44.469  27.505  40.222  1.00  0.00    -0.744 OA
ENDBRANCH  60  63
ENDBRANCH  42  56
BRANCH  43  67
ATOM     67  C   UNL A   1      43.003  23.746  28.081  1.00  0.00     0.023 A 
ATOM     68  C   UNL A   1      41.692  23.238  28.242  1.00  0.00     0.012 A 
ATOM     69  C   UNL A   1      43.811  23.156  27.085  1.00  0.00     0.148 A 
ATOM     70  C   UNL A   1      41.183  22.242  27.399  1.00  0.00     0.002 A 
ATOM     71  C   UNL A   1      43.305  22.155  26.257  1.00  0.00     0.091 A 
ATOM     72  F   UNL A   1      45.041  23.641  26.872  1.00  0.00    -0.205 F 
ATOM     73  C   UNL A   1      41.985  21.710  26.397  1.00  0.00     0.022 A 
BRANCH  71  74
ATOM     74  S   UNL A   1      44.287  21.431  24.935  1.00  0.00     0.127 S 
ATOM     75  O   UNL A   1      45.618  21.366  25.540  1.00  0.00    -0.237 OA
ATOM     76  O   UNL A   1      43.638  20.137  24.747  1.00  0.00    -0.237 OA
ATOM     77  O   UNL A   1      44.188  22.361  23.817  1.00  0.00    -0.744 OA
ENDBRANCH  71  74
ENDBRANCH  43  67
BRANCH  55  78
ATOM     78  C   UNL A   1      46.862  28.500  29.612  1.00  0.00     0.023 A 
ATOM     79  C   UNL A   1      48.115  28.395  28.974  1.00  0.00     0.012 A 
ATOM     80  C   UNL A   1      45.849  29.272  29.019  1.00  0.00     0.148 A 
ATOM     81  C   UNL A   1      48.346  29.046  27.758  1.00  0.00     0.002 A 
ATOM     82  C   UNL A   1      46.072  29.888  27.796  1.00  0.00     0.091 A 
ATOM     83  F   UNL A   1      44.667  29.348  29.648  1.00  0.00    -0.205 F 
ATOM     84  C   UNL A   1      47.321  29.780  27.162  1.00  0.00     0.022 A 
BRANCH  82  85
ATOM     85  S   UNL A   1      44.764  30.755  26.924  1.00  0.00     0.127 S 
ATOM     86  O   UNL A   1      44.332  31.738  27.916  1.00  0.00    -0.237 OA
ATOM     87  O   UNL A   1      45.475  31.316  25.775  1.00  0.00    -0.237 OA
ATOM     88  O   UNL A   1      43.768  29.748  26.577  1.00  0.00    -0.744 OA
ENDBRANCH  82  85
ENDBRANCH  55  78
ENDBRANCH  29  30
ENDBRANCH  22  24
ENDBRANCH  21  22
ENDBRANCH   1  21
TORSDOF 16
ENDMDL
MODEL 3
REMARK VINA RESULT:     -11.4      3.670     11.856
REMARK SMILES O=C(Cn1nnnc1[C@H]1Cc2ccccc2S1)OCCOC(=O)c1ccc(-c2c3nc(c(-c4cccc(S(=O)(=O)[O-])c4F)c4ccc([nH]4)c(-c4cccc(S(=O)(=O)[O-])c4F)c4nc(c(-c5cccc(S(=O)(=O)[O-])c5F)c5ccc2[nH]5)C=C4)C=C3)cc1
REMARK SMILES IDX 20 1 19 2 18 3 2 4 1 5 3 6 4 7 5 8 8 9 6 10 7 11 9 12 10 13
REMARK SMILES IDX 17 14 11 15 16 16 12 17 15 18 13 19 14 20 21 21 22 22 23 23
REMARK SMILES IDX 24 24 25 25 86 26 26 27 85 28 27 29 28 30 29 31 79 32 30 33
REMARK SMILES IDX 84 34 78 35 80 36 31 37 83 38 77 39 76 40 32 42 64 43 44 44
REMARK SMILES IDX 63 45 45 46 48 47 62 48 81 49 46 50 47 51 61 53 82 54 49 55
REMARK SMILES IDX 33 56 34 57 42 58 35 59 37 60 43 61 36 62 38 63 39 64 40 65
REMARK SMILES IDX 41 66 65 67 66 68 74 69 67 70 69 71 75 72 68 73 70 74 71 75
REMARK SMILES IDX 72 76 73 77 50 78 51 79 59 80 52 81 54 82 60 83 53 84 55 85
REMARK SMILES IDX 56 86 57 87 58 88
REMARK H PARENT 80 41 48 52
REMARK Flexibility Score: inf
ROOT
ATOM      1  C   UNL A   1      46.033  24.007  24.673  1.00  0.00     0.275 C 
ENDROOT
BRANCH   1   2
ATOM      2  C   UNL A   1      45.920  22.780  25.589  1.00  0.00     0.274 C 
BRANCH   2   3
ATOM      3  O   UNL A   1      46.548  21.624  25.006  1.00  0.00    -0.461 OA
BRANCH   3   4
ATOM      4  C   UNL A   1      46.040  20.365  24.986  1.00  0.00     0.328 C 
ATOM      5  O   UNL A   1      46.777  19.439  25.317  1.00  0.00    -0.250 OA
BRANCH   4   6
ATOM      6  C   UNL A   1      44.653  20.114  24.447  1.00  0.00     0.270 C 
BRANCH   6   7
ATOM      7  N   UNL A   1      43.731  19.396  25.287  1.00  0.00    -0.217 N 
ATOM      8  N   UNL A   1      43.851  18.065  25.399  1.00  0.00    -0.044 NA
ATOM      9  C   UNL A   1      42.559  19.814  25.889  1.00  0.00     0.165 A 
ATOM     10  N   UNL A   1      42.742  17.659  25.987  1.00  0.00    -0.024 NA
ATOM     11  N   UNL A   1      41.951  18.722  26.320  1.00  0.00    -0.113 NA
BRANCH   9  12
ATOM     12  C   UNL A   1      42.023  21.192  26.135  1.00  0.00     0.126 C 
ATOM     13  C   UNL A   1      40.550  21.409  25.752  1.00  0.00     0.059 C 
ATOM     14  S   UNL A   1      42.232  21.892  27.794  1.00  0.00    -0.114 SA
ATOM     15  C   UNL A   1      40.060  22.624  26.492  1.00  0.00    -0.033 A 
ATOM     16  C   UNL A   1      40.845  22.983  27.589  1.00  0.00     0.011 A 
ATOM     17  C   UNL A   1      38.888  23.320  26.202  1.00  0.00     0.005 A 
ATOM     18  C   UNL A   1      40.491  24.059  28.394  1.00  0.00     0.015 A 
ATOM     19  C   UNL A   1      38.525  24.401  27.008  1.00  0.00     0.000 A 
ATOM     20  C   UNL A   1      39.325  24.774  28.095  1.00  0.00     0.001 A 
ENDBRANCH   9  12
ENDBRANCH   6   7
ENDBRANCH   4   6
ENDBRANCH   3   4
ENDBRANCH   2   3
ENDBRANCH   1   2
BRANCH   1  21
ATOM     21  O   UNL A   1      45.058  24.987  25.067  1.00  0.00    -0.458 OA
BRANCH  21  22
ATOM     22  C   UNL A   1      43.749  24.611  25.022  1.00  0.00     0.338 C 
ATOM     23  O   UNL A   1      43.283  23.671  24.401  1.00  0.00    -0.246 OA
BRANCH  22  24
ATOM     24  C   UNL A   1      43.065  25.343  26.113  1.00  0.00     0.060 A 
ATOM     25  C   UNL A   1      41.977  26.169  25.840  1.00  0.00     0.016 A 
ATOM     26  C   UNL A   1      43.702  25.411  27.356  1.00  0.00     0.016 A 
ATOM     27  C   UNL A   1      41.682  27.206  26.721  1.00  0.00     0.010 A 
ATOM     28  C   UNL A   1      43.375  26.430  28.252  1.00  0.00     0.010 A 
ATOM     29  C   UNL A   1      42.439  27.399  27.894  1.00  0.00    -0.014 A 
BRANCH  29  30
ATOM     30  C   UNL A   1      42.146  28.599  28.710  1.00  0.00     0.031 A 
ATOM     31  C   UNL A   1      43.053  29.752  28.426  1.00  0.00     0.074 A 
ATOM     32  C   UNL A   1      41.127  28.748  29.591  1.00  0.00     0.049 A 
ATOM     33  N   UNL A   1      43.859  30.368  29.234  1.00  0.00    -0.248 NA
ATOM     34  C   UNL A   1      43.189  30.150  27.015  1.00  0.00     0.031 C 
ATOM     35  C   UNL A   1      40.018  27.830  29.857  1.00  0.00     0.029 A 
ATOM     36  N   UNL A   1      40.798  29.838  30.364  1.00  0.00    -0.354 N 
ATOM     37  C   UNL A   1      44.446  31.372  28.467  1.00  0.00     0.074 A 
ATOM     38  C   UNL A   1      44.134  31.085  27.091  1.00  0.00     0.031 C 
ATOM     39  C   UNL A   1      39.024  28.492  30.492  1.00  0.00     0.029 A 
ATOM     40  C   UNL A   1      39.465  29.840  30.789  1.00  0.00     0.049 A 
ATOM     41  H   UNL A   1      41.439  30.549  30.593  1.00  0.00     0.167 HD
ATOM     42  C   UNL A   1      44.957  32.512  29.004  1.00  0.00     0.034 A 
ATOM     43  C   UNL A   1      38.756  30.899  31.264  1.00  0.00     0.034 A 
ATOM     44  C   UNL A   1      45.235  32.407  30.403  1.00  0.00     0.049 A 
ATOM     45  C   UNL A   1      39.734  31.903  31.735  1.00  0.00     0.074 A 
ATOM     46  C   UNL A   1      46.059  31.628  31.189  1.00  0.00     0.029 A 
ATOM     47  N   UNL A   1      44.356  33.013  31.264  1.00  0.00    -0.354 N 
ATOM     48  N   UNL A   1      40.492  31.756  32.781  1.00  0.00    -0.248 NA
ATOM     49  C   UNL A   1      40.118  32.957  30.812  1.00  0.00     0.031 C 
ATOM     50  C   UNL A   1      45.341  31.441  32.405  1.00  0.00     0.029 A 
ATOM     51  C   UNL A   1      44.139  32.141  32.295  1.00  0.00     0.049 A 
ATOM     52  H   UNL A   1      43.956  33.905  31.158  1.00  0.00     0.167 HD
ATOM     53  C   UNL A   1      41.675  32.387  32.433  1.00  0.00     0.074 A 
ATOM     54  C   UNL A   1      41.351  33.193  31.260  1.00  0.00     0.031 C 
ATOM     55  C   UNL A   1      42.866  31.978  32.953  1.00  0.00     0.034 A 
BRANCH  42  56
ATOM     56  C   UNL A   1      44.871  33.841  28.303  1.00  0.00     0.023 A 
ATOM     57  C   UNL A   1      46.063  34.498  27.940  1.00  0.00     0.012 A 
ATOM     58  C   UNL A   1      43.669  34.583  28.220  1.00  0.00     0.148 A 
ATOM     59  C   UNL A   1      46.053  35.830  27.507  1.00  0.00     0.002 A 
ATOM     60  C   UNL A   1      43.653  35.873  27.710  1.00  0.00     0.091 A 
ATOM     61  F   UNL A   1      42.548  34.089  28.760  1.00  0.00    -0.205 F 
ATOM     62  C   UNL A   1      44.847  36.511  27.372  1.00  0.00     0.022 A 
BRANCH  60  63
ATOM     63  S   UNL A   1      42.112  36.763  27.475  1.00  0.00     0.127 S 
ATOM     64  O   UNL A   1      42.517  37.802  26.533  1.00  0.00    -0.237 OA
ATOM     65  O   UNL A   1      41.247  35.723  26.919  1.00  0.00    -0.237 OA
ATOM     66  O   UNL A   1      41.721  37.212  28.805  1.00  0.00    -0.744 OA
ENDBRANCH  60  63
ENDBRANCH  42  56
BRANCH  43  67
ATOM     67  C   UNL A   1      37.321  31.271  31.093  1.00  0.00     0.023 A 
ATOM     68  C   UNL A   1      36.575  31.669  32.229  1.00  0.00     0.012 A 
ATOM     69  C   UNL A   1      36.771  31.551  29.824  1.00  0.00     0.148 A 
ATOM     70  C   UNL A   1      35.376  32.384  32.105  1.00  0.00     0.002 A 
ATOM     71  C   UNL A   1      35.571  32.250  29.705  1.00  0.00     0.091 A 
ATOM     72  F   UNL A   1      37.469  31.231  28.727  1.00  0.00    -0.205 F 
ATOM     73  C   UNL A   1      34.881  32.686  30.843  1.00  0.00     0.022 A 
BRANCH  71  74
ATOM     74  S   UNL A   1      34.880  32.682  28.101  1.00  0.00     0.127 S 
ATOM     75  O   UNL A   1      34.629  31.368  27.509  1.00  0.00    -0.237 OA
ATOM     76  O   UNL A   1      33.678  33.422  28.477  1.00  0.00    -0.237 OA
ATOM     77  O   UNL A   1      35.914  33.453  27.422  1.00  0.00    -0.744 OA
ENDBRANCH  71  74
ENDBRANCH  43  67
BRANCH  55  78
ATOM     78  C   UNL A   1      42.846  31.051  34.136  1.00  0.00     0.023 A 
ATOM     79  C   UNL A   1      42.920  31.523  35.462  1.00  0.00     0.012 A 
ATOM     80  C   UNL A   1      42.540  29.700  33.902  1.00  0.00     0.148 A 
ATOM     81  C   UNL A   1      42.685  30.659  36.535  1.00  0.00     0.002 A 
ATOM     82  C   UNL A   1      42.273  28.854  34.968  1.00  0.00     0.091 A 
ATOM     83  F   UNL A   1      42.471  29.282  32.629  1.00  0.00    -0.205 F 
ATOM     84  C   UNL A   1      42.347  29.329  36.289  1.00  0.00     0.022 A 
BRANCH  82  85
ATOM     85  S   UNL A   1      41.727  27.162  34.718  1.00  0.00     0.127 S 
ATOM     86  O   UNL A   1      40.573  27.339  33.837  1.00  0.00    -0.237 OA
ATOM     87  O   UNL A   1      42.893  26.549  34.083  1.00  0.00    -0.237 OA
ATOM     88  O   UNL A   1      41.418  26.633  36.041  1.00  0.00    -0.744 OA
ENDBRANCH  82  85
ENDBRANCH  55  78
ENDBRANCH  29  30
ENDBRANCH  22  24
ENDBRANCH  21  22
ENDBRANCH   1  21
TORSDOF 16
ENDMDL
