MODEL 1
REMARK VINA RESULT:     -11.4      0.000      0.000
REMARK SMILES Cc1nn(CC(=O)OCCOC(=O)c2ccc(-c3c4nc(c(-c5cccc(S(=O)(=O)[O-])c5F)c5ccc([nH]5)c(-c5cccc(S(=O)(=O)[O-])c5F)c5nc(c(-c6cccc(S(=O)(=O)[O-])c6F)c6ccc3[nH]6)C=C5)C=C4)cc2)c(C)c1NS(=O)(=O)c1cccc2cccnc12
REMARK SMILES IDX 9 1 8 2 6 3 7 4 5 5 4 6 1 7 2 8 3 9 79 10 77 11 78 12 80 13
REMARK SMILES IDX 81 15 82 16 83 17 84 18 85 19 93 20 86 21 88 22 92 23 87 24
REMARK SMILES IDX 89 25 91 26 90 27 10 28 11 29 12 30 13 31 14 32 15 33 76 34
REMARK SMILES IDX 16 35 75 36 17 37 18 38 19 39 69 40 20 41 74 42 68 43 70 44
REMARK SMILES IDX 21 45 73 46 67 47 66 48 22 50 54 51 34 52 53 53 35 54 38 55
REMARK SMILES IDX 52 56 71 57 36 58 37 59 51 61 72 62 39 63 23 64 24 65 32 66
REMARK SMILES IDX 25 67 27 68 33 69 26 70 28 71 29 72 30 73 31 74 55 75 56 76
REMARK SMILES IDX 64 77 57 78 59 79 65 80 58 81 60 82 61 83 62 84 63 85 40 86
REMARK SMILES IDX 41 87 49 88 42 89 44 90 50 91 43 92 45 93 46 94 47 95 48 96
REMARK H PARENT 80 14 70 49 38 60
REMARK Flexibility Score: inf
ROOT
ATOM      1  C   UNL A   1      31.505  30.777  26.728  1.00  0.00     0.274 C 
ENDROOT
BRANCH   1   2
ATOM      2  O   UNL A   1      31.205  30.488  25.351  1.00  0.00    -0.461 OA
BRANCH   2   3
ATOM      3  C   UNL A   1      31.903  29.493  24.756  1.00  0.00     0.327 C 
ATOM      4  O   UNL A   1      33.130  29.457  24.702  1.00  0.00    -0.250 OA
BRANCH   3   5
ATOM      5  C   UNL A   1      31.066  28.382  24.202  1.00  0.00     0.267 C 
BRANCH   5   6
ATOM      6  N   UNL A   1      31.714  27.287  23.486  1.00  0.00    -0.256 N 
ATOM      7  C   UNL A   1      32.096  25.736  20.340  1.00  0.00     0.071 C 
ATOM      8  C   UNL A   1      31.845  26.046  21.770  1.00  0.00     0.084 A 
ATOM      9  N   UNL A   1      31.654  27.316  22.136  1.00  0.00    -0.175 NA
ATOM     10  C   UNL A   1      31.778  25.177  22.896  1.00  0.00     0.093 A 
ATOM     11  C   UNL A   1      32.027  26.025  23.957  1.00  0.00     0.060 A 
ATOM     12  C   UNL A   1      32.545  25.781  25.322  1.00  0.00     0.069 C 
BRANCH  10  13
ATOM     13  N   UNL A   1      31.562  23.791  22.841  1.00  0.00    -0.276 N 
ATOM     14  H   UNL A   1      30.625  23.493  22.853  1.00  0.00     0.180 HD
BRANCH  13  15
ATOM     15  S   UNL A   1      32.747  22.568  22.755  1.00  0.00     0.264 S 
ATOM     16  O   UNL A   1      32.011  21.359  22.425  1.00  0.00    -0.201 OA
ATOM     17  O   UNL A   1      33.765  23.086  21.867  1.00  0.00    -0.201 OA
BRANCH  15  18
ATOM     18  C   UNL A   1      33.402  22.327  24.392  1.00  0.00     0.114 A 
ATOM     19  C   UNL A   1      32.527  22.002  25.438  1.00  0.00     0.024 A 
ATOM     20  C   UNL A   1      34.731  22.686  24.633  1.00  0.00     0.091 A 
ATOM     21  C   UNL A   1      32.907  22.262  26.749  1.00  0.00     0.002 A 
ATOM     22  C   UNL A   1      35.044  23.080  25.953  1.00  0.00     0.002 A 
ATOM     23  N   UNL A   1      35.696  22.662  23.686  1.00  0.00    -0.255 NA
ATOM     24  C   UNL A   1      34.122  22.894  26.995  1.00  0.00     0.010 A 
ATOM     25  C   UNL A   1      36.296  23.657  26.202  1.00  0.00     0.012 A 
ATOM     26  C   UNL A   1      36.938  23.088  23.999  1.00  0.00     0.112 A 
ATOM     27  C   UNL A   1      37.269  23.648  25.213  1.00  0.00     0.021 A 
ENDBRANCH  15  18
ENDBRANCH  13  15
ENDBRANCH  10  13
ENDBRANCH   5   6
ENDBRANCH   3   5
ENDBRANCH   2   3
ENDBRANCH   1   2
BRANCH   1  28
ATOM     28  C   UNL A   1      31.652  32.282  26.920  1.00  0.00     0.275 C 
BRANCH  28  29
ATOM     29  O   UNL A   1      32.988  32.609  27.304  1.00  0.00    -0.458 OA
BRANCH  29  30
ATOM     30  C   UNL A   1      33.064  33.722  28.067  1.00  0.00     0.338 C 
ATOM     31  O   UNL A   1      32.236  34.611  28.147  1.00  0.00    -0.246 OA
BRANCH  30  32
ATOM     32  C   UNL A   1      34.349  33.796  28.747  1.00  0.00     0.060 A 
ATOM     33  C   UNL A   1      35.447  34.246  28.001  1.00  0.00     0.016 A 
ATOM     34  C   UNL A   1      34.483  33.095  29.947  1.00  0.00     0.016 A 
ATOM     35  C   UNL A   1      36.703  33.828  28.371  1.00  0.00     0.010 A 
ATOM     36  C   UNL A   1      35.731  32.646  30.291  1.00  0.00     0.010 A 
ATOM     37  C   UNL A   1      36.806  32.958  29.454  1.00  0.00    -0.014 A 
BRANCH  37  38
ATOM     38  C   UNL A   1      38.078  32.326  29.706  1.00  0.00     0.031 A 
ATOM     39  C   UNL A   1      38.133  30.900  29.328  1.00  0.00     0.074 A 
ATOM     40  C   UNL A   1      39.141  33.070  30.068  1.00  0.00     0.049 A 
ATOM     41  N   UNL A   1      38.400  29.891  30.087  1.00  0.00    -0.248 NA
ATOM     42  C   UNL A   1      37.705  30.538  27.968  1.00  0.00     0.031 C 
ATOM     43  C   UNL A   1      39.211  34.534  30.139  1.00  0.00     0.029 A 
ATOM     44  N   UNL A   1      40.434  32.684  30.243  1.00  0.00    -0.354 N 
ATOM     45  C   UNL A   1      38.399  28.791  29.235  1.00  0.00     0.074 A 
ATOM     46  C   UNL A   1      37.762  29.209  28.016  1.00  0.00     0.031 C 
ATOM     47  C   UNL A   1      40.505  34.910  30.050  1.00  0.00     0.029 A 
ATOM     48  C   UNL A   1      41.336  33.720  30.021  1.00  0.00     0.049 A 
ATOM     49  H   UNL A   1      40.702  31.772  30.500  1.00  0.00     0.167 HD
ATOM     50  C   UNL A   1      39.171  27.702  29.480  1.00  0.00     0.034 A 
ATOM     51  C   UNL A   1      42.643  33.582  29.692  1.00  0.00     0.034 A 
ATOM     52  C   UNL A   1      39.648  27.667  30.836  1.00  0.00     0.049 A 
ATOM     53  C   UNL A   1      43.054  32.201  30.046  1.00  0.00     0.074 A 
ATOM     54  C   UNL A   1      39.050  27.691  32.080  1.00  0.00     0.029 A 
ATOM     55  N   UNL A   1      40.972  27.972  31.044  1.00  0.00    -0.354 N 
ATOM     56  N   UNL A   1      43.137  31.759  31.269  1.00  0.00    -0.248 NA
ATOM     57  C   UNL A   1      42.973  31.175  29.018  1.00  0.00     0.031 C 
ATOM     58  C   UNL A   1      39.929  28.457  32.897  1.00  0.00     0.029 A 
ATOM     59  C   UNL A   1      41.030  28.820  32.117  1.00  0.00     0.049 A 
ATOM     60  H   UNL A   1      41.736  27.643  30.518  1.00  0.00     0.167 HD
ATOM     61  C   UNL A   1      42.663  30.455  31.201  1.00  0.00     0.074 A 
ATOM     62  C   UNL A   1      42.702  30.113  29.781  1.00  0.00     0.031 C 
ATOM     63  C   UNL A   1      41.998  29.887  32.252  1.00  0.00     0.034 A 
BRANCH  50  64
ATOM     64  C   UNL A   1      39.791  26.858  28.399  1.00  0.00     0.023 A 
ATOM     65  C   UNL A   1      39.499  25.479  28.402  1.00  0.00     0.012 A 
ATOM     66  C   UNL A   1      40.838  27.295  27.553  1.00  0.00     0.148 A 
ATOM     67  C   UNL A   1      40.232  24.577  27.626  1.00  0.00     0.002 A 
ATOM     68  C   UNL A   1      41.495  26.409  26.711  1.00  0.00     0.091 A 
ATOM     69  F   UNL A   1      41.310  28.542  27.654  1.00  0.00    -0.205 F 
ATOM     70  C   UNL A   1      41.220  25.043  26.766  1.00  0.00     0.022 A 
BRANCH  68  71
ATOM     71  S   UNL A   1      42.719  26.993  25.533  1.00  0.00     0.127 S 
ATOM     72  O   UNL A   1      43.847  27.298  26.406  1.00  0.00    -0.237 OA
ATOM     73  O   UNL A   1      42.897  25.822  24.673  1.00  0.00    -0.237 OA
ATOM     74  O   UNL A   1      42.088  28.125  24.865  1.00  0.00    -0.744 OA
ENDBRANCH  68  71
ENDBRANCH  50  64
BRANCH  51  75
ATOM     75  C   UNL A   1      43.475  34.466  28.841  1.00  0.00     0.023 A 
ATOM     76  C   UNL A   1      43.038  34.790  27.542  1.00  0.00     0.012 A 
ATOM     77  C   UNL A   1      44.576  35.182  29.366  1.00  0.00     0.148 A 
ATOM     78  C   UNL A   1      43.661  35.801  26.801  1.00  0.00     0.002 A 
ATOM     79  C   UNL A   1      45.211  36.167  28.616  1.00  0.00     0.091 A 
ATOM     80  F   UNL A   1      44.944  34.973  30.637  1.00  0.00    -0.205 F 
ATOM     81  C   UNL A   1      44.748  36.490  27.336  1.00  0.00     0.022 A 
BRANCH  79  82
ATOM     82  S   UNL A   1      46.624  37.078  29.255  1.00  0.00     0.127 S 
ATOM     83  O   UNL A   1      47.173  37.688  28.043  1.00  0.00    -0.237 OA
ATOM     84  O   UNL A   1      45.992  38.013  30.180  1.00  0.00    -0.237 OA
ATOM     85  O   UNL A   1      47.495  36.075  29.858  1.00  0.00    -0.744 OA
ENDBRANCH  79  82
ENDBRANCH  51  75
BRANCH  63  86
ATOM     86  C   UNL A   1      42.016  30.598  33.584  1.00  0.00     0.023 A 
ATOM     87  C   UNL A   1      43.071  30.425  34.506  1.00  0.00     0.012 A 
ATOM     88  C   UNL A   1      41.062  31.599  33.830  1.00  0.00     0.148 A 
ATOM     89  C   UNL A   1      43.154  31.209  35.659  1.00  0.00     0.002 A 
ATOM     90  C   UNL A   1      41.177  32.412  34.953  1.00  0.00     0.091 A 
ATOM     91  F   UNL A   1      40.067  31.765  32.944  1.00  0.00    -0.205 F 
ATOM     92  C   UNL A   1      42.215  32.212  35.876  1.00  0.00     0.022 A 
BRANCH  90  93
ATOM     93  S   UNL A   1      40.078  33.809  35.208  1.00  0.00     0.127 S 
ATOM     94  O   UNL A   1      38.796  33.152  35.451  1.00  0.00    -0.237 OA
ATOM     95  O   UNL A   1      40.661  34.464  36.382  1.00  0.00    -0.237 OA
ATOM     96  O   UNL A   1      40.163  34.603  33.988  1.00  0.00    -0.744 OA
ENDBRANCH  90  93
ENDBRANCH  63  86
ENDBRANCH  37  38
ENDBRANCH  30  32
ENDBRANCH  29  30
ENDBRANCH  28  29
ENDBRANCH   1  28
TORSDOF 18
ENDMDL
MODEL 2
REMARK VINA RESULT:     -11.4      3.058      7.916
REMARK SMILES Cc1nn(CC(=O)OCCOC(=O)c2ccc(-c3c4nc(c(-c5cccc(S(=O)(=O)[O-])c5F)c5ccc([nH]5)c(-c5cccc(S(=O)(=O)[O-])c5F)c5nc(c(-c6cccc(S(=O)(=O)[O-])c6F)c6ccc3[nH]6)C=C5)C=C4)cc2)c(C)c1NS(=O)(=O)c1cccc2cccnc12
REMARK SMILES IDX 9 1 8 2 6 3 7 4 5 5 4 6 1 7 2 8 3 9 79 10 77 11 78 12 80 13
REMARK SMILES IDX 81 15 82 16 83 17 84 18 85 19 93 20 86 21 88 22 92 23 87 24
REMARK SMILES IDX 89 25 91 26 90 27 10 28 11 29 12 30 13 31 14 32 15 33 76 34
REMARK SMILES IDX 16 35 75 36 17 37 18 38 19 39 69 40 20 41 74 42 68 43 70 44
REMARK SMILES IDX 21 45 73 46 67 47 66 48 22 50 54 51 34 52 53 53 35 54 38 55
REMARK SMILES IDX 52 56 71 57 36 58 37 59 51 61 72 62 39 63 23 64 24 65 32 66
REMARK SMILES IDX 25 67 27 68 33 69 26 70 28 71 29 72 30 73 31 74 55 75 56 76
REMARK SMILES IDX 64 77 57 78 59 79 65 80 58 81 60 82 61 83 62 84 63 85 40 86
REMARK SMILES IDX 41 87 49 88 42 89 44 90 50 91 43 92 45 93 46 94 47 95 48 96
REMARK H PARENT 80 14 70 49 38 60
REMARK Flexibility Score: inf
ROOT
ATOM      1  C   UNL A   1      36.664  23.350  25.307  1.00  0.00     0.274 C 
ENDROOT
BRANCH   1   2
ATOM      2  O   UNL A   1      35.878  22.375  24.599  1.00  0.00    -0.461 OA
BRANCH   2   3
ATOM      3  C   UNL A   1      35.152  22.807  23.543  1.00  0.00     0.327 C 
ATOM      4  O   UNL A   1      35.643  23.311  22.535  1.00  0.00    -0.250 OA
BRANCH   3   5
ATOM      5  C   UNL A   1      33.676  22.578  23.658  1.00  0.00     0.267 C 
BRANCH   5   6
ATOM      6  N   UNL A   1      32.919  23.289  24.686  1.00  0.00    -0.256 N 
ATOM      7  C   UNL A   1      30.149  23.104  26.861  1.00  0.00     0.071 C 
ATOM      8  C   UNL A   1      31.153  23.498  25.842  1.00  0.00     0.084 A 
ATOM      9  N   UNL A   1      31.999  22.578  25.372  1.00  0.00    -0.175 NA
ATOM     10  C   UNL A   1      31.401  24.767  25.245  1.00  0.00     0.093 A 
ATOM     11  C   UNL A   1      32.703  24.650  24.797  1.00  0.00     0.060 A 
ATOM     12  C   UNL A   1      33.744  25.659  24.501  1.00  0.00     0.069 C 
BRANCH  10  13
ATOM     13  N   UNL A   1      30.498  25.841  25.216  1.00  0.00    -0.276 N 
ATOM     14  H   UNL A   1      30.154  26.147  26.086  1.00  0.00     0.180 HD
BRANCH  13  15
ATOM     15  S   UNL A   1      29.933  26.675  23.841  1.00  0.00     0.264 S 
ATOM     16  O   UNL A   1      30.688  26.118  22.731  1.00  0.00    -0.201 OA
ATOM     17  O   UNL A   1      28.492  26.560  23.893  1.00  0.00    -0.201 OA
BRANCH  15  18
ATOM     18  C   UNL A   1      30.435  28.376  23.988  1.00  0.00     0.114 A 
ATOM     19  C   UNL A   1      31.412  28.722  24.933  1.00  0.00     0.024 A 
ATOM     20  C   UNL A   1      29.687  29.348  23.318  1.00  0.00     0.091 A 
ATOM     21  C   UNL A   1      31.483  30.032  25.389  1.00  0.00     0.002 A 
ATOM     22  C   UNL A   1      29.674  30.637  23.895  1.00  0.00     0.002 A 
ATOM     23  N   UNL A   1      29.007  29.111  22.173  1.00  0.00    -0.255 NA
ATOM     24  C   UNL A   1      30.548  30.962  24.944  1.00  0.00     0.010 A 
ATOM     25  C   UNL A   1      28.771  31.586  23.397  1.00  0.00     0.012 A 
ATOM     26  C   UNL A   1      28.260  30.097  21.633  1.00  0.00     0.112 A 
ATOM     27  C   UNL A   1      28.062  31.320  22.235  1.00  0.00     0.021 A 
ENDBRANCH  15  18
ENDBRANCH  13  15
ENDBRANCH  10  13
ENDBRANCH   5   6
ENDBRANCH   3   5
ENDBRANCH   2   3
ENDBRANCH   1   2
BRANCH   1  28
ATOM     28  C   UNL A   1      37.917  22.692  25.875  1.00  0.00     0.275 C 
BRANCH  28  29
ATOM     29  O   UNL A   1      38.562  23.564  26.803  1.00  0.00    -0.458 OA
BRANCH  29  30
ATOM     30  C   UNL A   1      39.877  23.291  26.961  1.00  0.00     0.338 C 
ATOM     31  O   UNL A   1      40.391  22.190  27.032  1.00  0.00    -0.246 OA
BRANCH  30  32
ATOM     32  C   UNL A   1      40.642  24.517  27.141  1.00  0.00     0.060 A 
ATOM     33  C   UNL A   1      41.592  24.537  28.172  1.00  0.00     0.016 A 
ATOM     34  C   UNL A   1      40.148  25.677  26.542  1.00  0.00     0.016 A 
ATOM     35  C   UNL A   1      41.919  25.747  28.735  1.00  0.00     0.010 A 
ATOM     36  C   UNL A   1      40.443  26.878  27.132  1.00  0.00     0.010 A 
ATOM     37  C   UNL A   1      41.262  26.882  28.263  1.00  0.00    -0.014 A 
BRANCH  37  38
ATOM     38  C   UNL A   1      41.414  28.115  28.998  1.00  0.00     0.031 A 
ATOM     39  C   UNL A   1      42.454  29.016  28.463  1.00  0.00     0.074 A 
ATOM     40  C   UNL A   1      40.525  28.444  29.953  1.00  0.00     0.049 A 
ATOM     41  N   UNL A   1      43.496  29.470  29.075  1.00  0.00    -0.248 NA
ATOM     42  C   UNL A   1      42.403  29.342  27.030  1.00  0.00     0.031 C 
ATOM     43  C   UNL A   1      39.287  27.731  30.293  1.00  0.00     0.029 A 
ATOM     44  N   UNL A   1      40.431  29.595  30.674  1.00  0.00    -0.354 N 
ATOM     45  C   UNL A   1      44.101  30.328  28.163  1.00  0.00     0.074 A 
ATOM     46  C   UNL A   1      43.523  30.045  26.877  1.00  0.00     0.031 C 
ATOM     47  C   UNL A   1      38.450  28.588  30.915  1.00  0.00     0.029 A 
ATOM     48  C   UNL A   1      39.133  29.856  31.099  1.00  0.00     0.049 A 
ATOM     49  H   UNL A   1      41.199  30.178  30.872  1.00  0.00     0.167 HD
ATOM     50  C   UNL A   1      44.826  31.402  28.569  1.00  0.00     0.034 A 
ATOM     51  C   UNL A   1      38.632  31.070  31.437  1.00  0.00     0.034 A 
ATOM     52  C   UNL A   1      45.192  31.317  29.957  1.00  0.00     0.049 A 
ATOM     53  C   UNL A   1      39.780  31.969  31.710  1.00  0.00     0.074 A 
ATOM     54  C   UNL A   1      45.869  30.397  30.731  1.00  0.00     0.029 A 
ATOM     55  N   UNL A   1      44.515  32.130  30.835  1.00  0.00    -0.354 N 
ATOM     56  N   UNL A   1      40.588  31.828  32.724  1.00  0.00    -0.248 NA
ATOM     57  C   UNL A   1      40.287  32.789  30.621  1.00  0.00     0.031 C 
ATOM     58  C   UNL A   1      45.203  30.411  31.989  1.00  0.00     0.029 A 
ATOM     59  C   UNL A   1      44.186  31.367  31.923  1.00  0.00     0.049 A 
ATOM     60  H   UNL A   1      44.306  33.083  30.706  1.00  0.00     0.167 HD
ATOM     61  C   UNL A   1      41.842  32.142  32.215  1.00  0.00     0.074 A 
ATOM     62  C   UNL A   1      41.576  32.846  30.963  1.00  0.00     0.031 C 
ATOM     63  C   UNL A   1      42.972  31.538  32.692  1.00  0.00     0.034 A 
BRANCH  50  64
ATOM     64  C   UNL A   1      44.894  32.699  27.809  1.00  0.00     0.023 A 
ATOM     65  C   UNL A   1      43.697  33.188  27.248  1.00  0.00     0.012 A 
ATOM     66  C   UNL A   1      46.099  33.317  27.399  1.00  0.00     0.148 A 
ATOM     67  C   UNL A   1      43.702  34.219  26.304  1.00  0.00     0.002 A 
ATOM     68  C   UNL A   1      46.089  34.405  26.537  1.00  0.00     0.091 A 
ATOM     69  F   UNL A   1      47.278  32.774  27.720  1.00  0.00    -0.205 F 
ATOM     70  C   UNL A   1      44.897  34.841  25.960  1.00  0.00     0.022 A 
BRANCH  68  71
ATOM     71  S   UNL A   1      47.607  35.278  26.137  1.00  0.00     0.127 S 
ATOM     72  O   UNL A   1      48.127  34.477  25.035  1.00  0.00    -0.237 OA
ATOM     73  O   UNL A   1      47.108  36.602  25.763  1.00  0.00    -0.237 OA
ATOM     74  O   UNL A   1      48.384  35.267  27.371  1.00  0.00    -0.744 OA
ENDBRANCH  68  71
ENDBRANCH  50  64
BRANCH  51  75
ATOM     75  C   UNL A   1      37.249  31.575  31.265  1.00  0.00     0.023 A 
ATOM     76  C   UNL A   1      36.547  32.066  32.383  1.00  0.00     0.012 A 
ATOM     77  C   UNL A   1      36.693  31.796  29.984  1.00  0.00     0.148 A 
ATOM     78  C   UNL A   1      35.346  32.768  32.229  1.00  0.00     0.002 A 
ATOM     79  C   UNL A   1      35.484  32.470  29.837  1.00  0.00     0.091 A 
ATOM     80  F   UNL A   1      37.391  31.438  28.898  1.00  0.00    -0.205 F 
ATOM     81  C   UNL A   1      34.812  32.970  30.958  1.00  0.00     0.022 A 
BRANCH  79  82
ATOM     82  S   UNL A   1      34.747  32.748  28.220  1.00  0.00     0.127 S 
ATOM     83  O   UNL A   1      35.797  33.493  27.524  1.00  0.00    -0.237 OA
ATOM     84  O   UNL A   1      34.542  31.385  27.740  1.00  0.00    -0.237 OA
ATOM     85  O   UNL A   1      33.538  33.524  28.470  1.00  0.00    -0.744 OA
ENDBRANCH  79  82
ENDBRANCH  51  75
BRANCH  63  86
ATOM     86  C   UNL A   1      42.872  30.722  33.959  1.00  0.00     0.023 A 
ATOM     87  C   UNL A   1      42.952  31.317  35.236  1.00  0.00     0.012 A 
ATOM     88  C   UNL A   1      42.498  29.371  33.866  1.00  0.00     0.148 A 
ATOM     89  C   UNL A   1      42.697  30.576  36.392  1.00  0.00     0.002 A 
ATOM     90  C   UNL A   1      42.195  28.650  35.016  1.00  0.00     0.091 A 
ATOM     91  F   UNL A   1      42.413  28.814  32.647  1.00  0.00    -0.205 F 
ATOM     92  C   UNL A   1      42.305  29.246  36.282  1.00  0.00     0.022 A 
BRANCH  90  93
ATOM     93  S   UNL A   1      41.549  26.977  34.924  1.00  0.00     0.127 S 
ATOM     94  O   UNL A   1      42.712  26.223  34.461  1.00  0.00    -0.237 OA
ATOM     95  O   UNL A   1      41.159  26.709  36.310  1.00  0.00    -0.237 OA
ATOM     96  O   UNL A   1      40.425  27.041  33.997  1.00  0.00    -0.744 OA
ENDBRANCH  90  93
ENDBRANCH  63  86
ENDBRANCH  37  38
ENDBRANCH  30  32
ENDBRANCH  29  30
ENDBRANCH  28  29
ENDBRANCH   1  28
TORSDOF 18
ENDMDL
MODEL 3
REMARK VINA RESULT:     -11.3      3.705      7.720
REMARK SMILES Cc1nn(CC(=O)OCCOC(=O)c2ccc(-c3c4nc(c(-c5cccc(S(=O)(=O)[O-])c5F)c5ccc([nH]5)c(-c5cccc(S(=O)(=O)[O-])c5F)c5nc(c(-c6cccc(S(=O)(=O)[O-])c6F)c6ccc3[nH]6)C=C5)C=C4)cc2)c(C)c1NS(=O)(=O)c1cccc2cccnc12
REMARK SMILES IDX 9 1 8 2 6 3 7 4 5 5 4 6 1 7 2 8 3 9 79 10 77 11 78 12 80 13
REMARK SMILES IDX 81 15 82 16 83 17 84 18 85 19 93 20 86 21 88 22 92 23 87 24
REMARK SMILES IDX 89 25 91 26 90 27 10 28 11 29 12 30 13 31 14 32 15 33 76 34
REMARK SMILES IDX 16 35 75 36 17 37 18 38 19 39 69 40 20 41 74 42 68 43 70 44
REMARK SMILES IDX 21 45 73 46 67 47 66 48 22 50 54 51 34 52 53 53 35 54 38 55
REMARK SMILES IDX 52 56 71 57 36 58 37 59 51 61 72 62 39 63 23 64 24 65 32 66
REMARK SMILES IDX 25 67 27 68 33 69 26 70 28 71 29 72 30 73 31 74 55 75 56 76
REMARK SMILES IDX 64 77 57 78 59 79 65 80 58 81 60 82 61 83 62 84 63 85 40 86
REMARK SMILES IDX 41 87 49 88 42 89 44 90 50 91 43 92 45 93 46 94 47 95 48 96
REMARK H PARENT 80 14 70 49 38 60
REMARK Flexibility Score: inf
ROOT
ATOM      1  C   UNL A   1      34.247  32.104  27.669  1.00  0.00     0.274 C 
ENDROOT
BRANCH   1   2
ATOM      2  O   UNL A   1      33.759  30.780  27.386  1.00  0.00    -0.461 OA
BRANCH   2   3
ATOM      3  C   UNL A   1      32.469  30.662  26.994  1.00  0.00     0.327 C 
ATOM      4  O   UNL A   1      31.789  31.602  26.590  1.00  0.00    -0.250 OA
BRANCH   3   5
ATOM      5  C   UNL A   1      31.926  29.267  27.032  1.00  0.00     0.267 C 
BRANCH   5   6
ATOM      6  N   UNL A   1      31.869  28.487  25.798  1.00  0.00    -0.256 N 
ATOM      7  C   UNL A   1      29.929  27.758  22.944  1.00  0.00     0.071 C 
ATOM      8  C   UNL A   1      30.744  27.697  24.183  1.00  0.00     0.084 A 
ATOM      9  N   UNL A   1      30.894  28.802  24.918  1.00  0.00    -0.175 NA
ATOM     10  C   UNL A   1      31.451  26.603  24.759  1.00  0.00     0.093 A 
ATOM     11  C   UNL A   1      32.387  27.228  25.560  1.00  0.00     0.060 A 
ATOM     12  C   UNL A   1      33.698  26.783  26.085  1.00  0.00     0.069 C 
BRANCH  10  13
ATOM     13  N   UNL A   1      31.220  25.248  24.477  1.00  0.00    -0.276 N 
ATOM     14  H   UNL A   1      30.533  24.799  25.021  1.00  0.00     0.180 HD
BRANCH  13  15
ATOM     15  S   UNL A   1      31.999  24.295  23.298  1.00  0.00     0.264 S 
ATOM     16  O   UNL A   1      31.198  23.085  23.209  1.00  0.00    -0.201 OA
ATOM     17  O   UNL A   1      32.163  25.165  22.154  1.00  0.00    -0.201 OA
BRANCH  15  18
ATOM     18  C   UNL A   1      33.580  23.804  23.950  1.00  0.00     0.114 A 
ATOM     19  C   UNL A   1      34.704  23.830  23.111  1.00  0.00     0.024 A 
ATOM     20  C   UNL A   1      33.619  23.196  25.207  1.00  0.00     0.091 A 
ATOM     21  C   UNL A   1      35.805  23.042  23.424  1.00  0.00     0.002 A 
ATOM     22  C   UNL A   1      34.681  22.293  25.435  1.00  0.00     0.002 A 
ATOM     23  N   UNL A   1      32.715  23.440  26.184  1.00  0.00    -0.255 NA
ATOM     24  C   UNL A   1      35.749  22.199  24.530  1.00  0.00     0.010 A 
ATOM     25  C   UNL A   1      34.646  21.493  26.586  1.00  0.00     0.012 A 
ATOM     26  C   UNL A   1      32.798  22.757  27.345  1.00  0.00     0.112 A 
ATOM     27  C   UNL A   1      33.698  21.738  27.568  1.00  0.00     0.021 A 
ENDBRANCH  15  18
ENDBRANCH  13  15
ENDBRANCH  10  13
ENDBRANCH   5   6
ENDBRANCH   3   5
ENDBRANCH   2   3
ENDBRANCH   1   2
BRANCH   1  28
ATOM     28  C   UNL A   1      34.032  32.430  29.142  1.00  0.00     0.275 C 
BRANCH  28  29
ATOM     29  O   UNL A   1      35.268  32.793  29.759  1.00  0.00    -0.458 OA
BRANCH  29  30
ATOM     30  C   UNL A   1      35.791  31.807  30.522  1.00  0.00     0.338 C 
ATOM     31  O   UNL A   1      35.440  31.487  31.643  1.00  0.00    -0.246 OA
BRANCH  30  32
ATOM     32  C   UNL A   1      36.939  31.198  29.866  1.00  0.00     0.060 A 
ATOM     33  C   UNL A   1      36.941  29.802  29.738  1.00  0.00     0.016 A 
ATOM     34  C   UNL A   1      38.092  31.973  29.738  1.00  0.00     0.016 A 
ATOM     35  C   UNL A   1      38.151  29.156  29.660  1.00  0.00     0.010 A 
ATOM     36  C   UNL A   1      39.299  31.326  29.702  1.00  0.00     0.010 A 
ATOM     37  C   UNL A   1      39.308  29.929  29.740  1.00  0.00    -0.014 A 
BRANCH  37  38
ATOM     38  C   UNL A   1      40.573  29.254  29.899  1.00  0.00     0.031 A 
ATOM     39  C   UNL A   1      40.930  28.956  31.300  1.00  0.00     0.074 A 
ATOM     40  C   UNL A   1      41.228  28.787  28.819  1.00  0.00     0.049 A 
ATOM     41  N   UNL A   1      41.978  29.342  31.947  1.00  0.00    -0.248 NA
ATOM     42  C   UNL A   1      39.932  28.256  32.123  1.00  0.00     0.031 C 
ATOM     43  C   UNL A   1      40.750  28.774  27.431  1.00  0.00     0.029 A 
ATOM     44  N   UNL A   1      42.364  28.039  28.766  1.00  0.00    -0.354 N 
ATOM     45  C   UNL A   1      41.874  28.731  33.193  1.00  0.00     0.074 A 
ATOM     46  C   UNL A   1      40.519  28.267  33.318  1.00  0.00     0.031 C 
ATOM     47  C   UNL A   1      41.424  27.824  26.750  1.00  0.00     0.029 A 
ATOM     48  C   UNL A   1      42.432  27.250  27.623  1.00  0.00     0.049 A 
ATOM     49  H   UNL A   1      43.061  28.055  29.462  1.00  0.00     0.167 HD
ATOM     50  C   UNL A   1      42.974  28.397  33.914  1.00  0.00     0.034 A 
ATOM     51  C   UNL A   1      43.166  26.120  27.475  1.00  0.00     0.034 A 
ATOM     52  C   UNL A   1      44.157  29.065  33.444  1.00  0.00     0.049 A 
ATOM     53  C   UNL A   1      44.203  26.115  28.536  1.00  0.00     0.074 A 
ATOM     54  C   UNL A   1      44.518  30.383  33.248  1.00  0.00     0.029 A 
ATOM     55  N   UNL A   1      45.064  28.312  32.737  1.00  0.00    -0.354 N 
ATOM     56  N   UNL A   1      45.195  26.959  28.586  1.00  0.00    -0.248 NA
ATOM     57  C   UNL A   1      43.907  25.430  29.785  1.00  0.00     0.031 C 
ATOM     58  C   UNL A   1      45.326  30.374  32.074  1.00  0.00     0.029 A 
ATOM     59  C   UNL A   1      45.443  29.049  31.647  1.00  0.00     0.049 A 
ATOM     60  H   UNL A   1      45.382  27.410  32.971  1.00  0.00     0.167 HD
ATOM     61  C   UNL A   1      45.340  27.247  29.937  1.00  0.00     0.074 A 
ATOM     62  C   UNL A   1      44.614  26.185  30.629  1.00  0.00     0.031 C 
ATOM     63  C   UNL A   1      45.766  28.476  30.358  1.00  0.00     0.034 A 
BRANCH  50  64
ATOM     64  C   UNL A   1      43.049  27.193  34.814  1.00  0.00     0.023 A 
ATOM     65  C   UNL A   1      42.152  26.136  34.561  1.00  0.00     0.012 A 
ATOM     66  C   UNL A   1      43.762  27.157  36.036  1.00  0.00     0.148 A 
ATOM     67  C   UNL A   1      41.952  25.111  35.490  1.00  0.00     0.002 A 
ATOM     68  C   UNL A   1      43.632  26.086  36.909  1.00  0.00     0.091 A 
ATOM     69  F   UNL A   1      44.463  28.223  36.438  1.00  0.00    -0.205 F 
ATOM     70  C   UNL A   1      42.705  25.076  36.659  1.00  0.00     0.022 A 
BRANCH  68  71
ATOM     71  S   UNL A   1      44.649  25.973  38.386  1.00  0.00     0.127 S 
ATOM     72  O   UNL A   1      43.788  26.596  39.385  1.00  0.00    -0.237 OA
ATOM     73  O   UNL A   1      44.821  24.527  38.528  1.00  0.00    -0.237 OA
ATOM     74  O   UNL A   1      45.877  26.685  38.053  1.00  0.00    -0.744 OA
ENDBRANCH  68  71
ENDBRANCH  50  64
BRANCH  51  75
ATOM     75  C   UNL A   1      42.854  24.920  26.662  1.00  0.00     0.023 A 
ATOM     76  C   UNL A   1      43.699  24.570  25.591  1.00  0.00     0.012 A 
ATOM     77  C   UNL A   1      41.873  23.984  27.065  1.00  0.00     0.148 A 
ATOM     78  C   UNL A   1      43.583  23.327  24.957  1.00  0.00     0.002 A 
ATOM     79  C   UNL A   1      41.743  22.762  26.414  1.00  0.00     0.091 A 
ATOM     80  F   UNL A   1      41.130  24.243  28.149  1.00  0.00    -0.205 F 
ATOM     81  C   UNL A   1      42.605  22.423  25.366  1.00  0.00     0.022 A 
BRANCH  79  82
ATOM     82  S   UNL A   1      40.491  21.563  26.895  1.00  0.00     0.127 S 
ATOM     83  O   UNL A   1      39.248  22.282  26.613  1.00  0.00    -0.237 OA
ATOM     84  O   UNL A   1      40.773  20.449  25.995  1.00  0.00    -0.237 OA
ATOM     85  O   UNL A   1      40.718  21.309  28.313  1.00  0.00    -0.744 OA
ENDBRANCH  79  82
ENDBRANCH  51  75
BRANCH  63  86
ATOM     86  C   UNL A   1      46.334  29.431  29.335  1.00  0.00     0.023 A 
ATOM     87  C   UNL A   1      47.675  29.350  28.903  1.00  0.00     0.012 A 
ATOM     88  C   UNL A   1      45.457  30.294  28.656  1.00  0.00     0.148 A 
ATOM     89  C   UNL A   1      48.138  30.133  27.843  1.00  0.00     0.002 A 
ATOM     90  C   UNL A   1      45.909  31.034  27.568  1.00  0.00     0.091 A 
ATOM     91  F   UNL A   1      44.180  30.358  29.065  1.00  0.00    -0.205 F 
ATOM     92  C   UNL A   1      47.252  30.965  27.166  1.00  0.00     0.022 A 
BRANCH  90  93
ATOM     93  S   UNL A   1      44.780  32.012  26.573  1.00  0.00     0.127 S 
ATOM     94  O   UNL A   1      43.713  31.055  26.286  1.00  0.00    -0.237 OA
ATOM     95  O   UNL A   1      44.402  33.093  27.487  1.00  0.00    -0.237 OA
ATOM     96  O   UNL A   1      45.557  32.458  25.423  1.00  0.00    -0.744 OA
ENDBRANCH  90  93
ENDBRANCH  63  86
ENDBRANCH  37  38
ENDBRANCH  30  32
ENDBRANCH  29  30
ENDBRANCH  28  29
ENDBRANCH   1  28
TORSDOF 18
ENDMDL
