MODEL 1
REMARK VINA RESULT:     -10.7      0.000      0.000
REMARK SMILES [NH3+][C@@H](C(=O)OCCOC(=O)c1ccc(-c2c3nc(c(-c4cccc(S(=O)(=O)[O-])c4F)c4ccc([nH]4)c(-c4cccc(S(=O)(=O)[O-])c4F)c4nc(c(-c5cccc(S(=O)(=O)[O-])c5F)c5ccc2[nH]5)C=C4)C=C3)cc1)[C@@H](O)c1cccs1
REMARK SMILES IDX 7 1 6 2 5 3 3 4 4 5 2 6 1 7 74 11 75 12 76 14 77 15 80 16
REMARK SMILES IDX 78 17 79 18 8 19 9 20 10 21 11 22 12 23 73 24 13 25 72 26
REMARK SMILES IDX 14 27 15 28 16 29 66 30 17 31 71 32 65 33 67 34 18 35 70 36
REMARK SMILES IDX 64 37 63 38 19 40 51 41 31 42 50 43 32 44 35 45 49 46 68 47
REMARK SMILES IDX 33 48 34 49 48 51 69 52 36 53 20 54 21 55 29 56 22 57 24 58
REMARK SMILES IDX 30 59 23 60 25 61 26 62 27 63 28 64 52 65 53 66 61 67 54 68
REMARK SMILES IDX 56 69 62 70 55 71 57 72 58 73 59 74 60 75 37 76 38 77 46 78
REMARK SMILES IDX 39 79 41 80 47 81 40 82 42 83 43 84 44 85 45 86
REMARK H PARENT 1 8 1 9 1 10 75 13 67 39 35 50
REMARK Flexibility Score: inf
ROOT
ATOM      1  C   UNL A   1      37.145  21.385  24.329  1.00  0.00     0.275 C 
ENDROOT
BRANCH   1   2
ATOM      2  C   UNL A   1      36.380  22.576  23.747  1.00  0.00     0.274 C 
BRANCH   2   3
ATOM      3  O   UNL A   1      35.210  22.887  24.535  1.00  0.00    -0.458 OA
BRANCH   3   4
ATOM      4  C   UNL A   1      34.007  22.461  24.034  1.00  0.00     0.368 C 
ATOM      5  O   UNL A   1      33.578  22.807  22.946  1.00  0.00    -0.245 OA
BRANCH   4   6
ATOM      6  C   UNL A   1      33.225  21.608  25.062  1.00  0.00     0.326 C 
BRANCH   6   7
ATOM      7  N   UNL A   1      32.937  22.396  26.322  1.00  0.00    -0.343 N 
ATOM      8  H   UNL A   1      33.770  22.413  26.910  1.00  0.00     0.345 HD
ATOM      9  H   UNL A   1      32.171  21.955  26.830  1.00  0.00     0.345 HD
ATOM     10  H   UNL A   1      32.676  23.350  26.073  1.00  0.00     0.345 HD
ENDBRANCH   6   7
BRANCH   6  11
ATOM     11  C   UNL A   1      33.853  20.253  25.475  1.00  0.00     0.224 C 
BRANCH  11  12
ATOM     12  O   UNL A   1      33.286  19.870  26.743  1.00  0.00    -0.381 OA
ATOM     13  H   UNL A   1      33.210  20.652  27.313  1.00  0.00     0.211 HD
ENDBRANCH  11  12
BRANCH  11  14
ATOM     14  C   UNL A   1      33.752  19.098  24.508  1.00  0.00     0.040 A 
ATOM     15  C   UNL A   1      34.599  18.002  24.422  1.00  0.00     0.018 A 
ATOM     16  S   UNL A   1      32.456  18.932  23.391  1.00  0.00    -0.146 S 
ATOM     17  C   UNL A   1      34.187  17.041  23.459  1.00  0.00     0.012 A 
ATOM     18  C   UNL A   1      33.014  17.411  22.848  1.00  0.00     0.065 A 
ENDBRANCH  11  14
ENDBRANCH   6  11
ENDBRANCH   4   6
ENDBRANCH   3   4
ENDBRANCH   2   3
ENDBRANCH   1   2
BRANCH   1  19
ATOM     19  O   UNL A   1      37.498  21.598  25.710  1.00  0.00    -0.458 OA
BRANCH  19  20
ATOM     20  C   UNL A   1      38.771  21.268  26.023  1.00  0.00     0.338 C 
ATOM     21  O   UNL A   1      39.368  20.250  25.684  1.00  0.00    -0.246 OA
BRANCH  20  22
ATOM     22  C   UNL A   1      39.471  22.420  26.609  1.00  0.00     0.060 A 
ATOM     23  C   UNL A   1      39.089  23.663  26.113  1.00  0.00     0.016 A 
ATOM     24  C   UNL A   1      40.512  22.331  27.528  1.00  0.00     0.016 A 
ATOM     25  C   UNL A   1      39.705  24.836  26.533  1.00  0.00     0.010 A 
ATOM     26  C   UNL A   1      41.157  23.511  27.940  1.00  0.00     0.010 A 
ATOM     27  C   UNL A   1      40.761  24.771  27.443  1.00  0.00    -0.014 A 
BRANCH  27  28
ATOM     28  C   UNL A   1      41.504  26.012  27.777  1.00  0.00     0.031 A 
ATOM     29  C   UNL A   1      40.824  27.087  28.577  1.00  0.00     0.074 A 
ATOM     30  C   UNL A   1      42.793  26.166  27.417  1.00  0.00     0.049 A 
ATOM     31  N   UNL A   1      41.251  28.282  28.892  1.00  0.00    -0.248 NA
ATOM     32  C   UNL A   1      39.485  26.767  29.098  1.00  0.00     0.031 C 
ATOM     33  C   UNL A   1      43.599  25.170  26.715  1.00  0.00     0.029 A 
ATOM     34  N   UNL A   1      43.644  27.233  27.580  1.00  0.00    -0.354 N 
ATOM     35  C   UNL A   1      40.220  28.876  29.608  1.00  0.00     0.074 A 
ATOM     36  C   UNL A   1      39.148  27.905  29.687  1.00  0.00     0.031 C 
ATOM     37  C   UNL A   1      44.819  25.682  26.478  1.00  0.00     0.029 A 
ATOM     38  C   UNL A   1      44.862  27.059  26.965  1.00  0.00     0.049 A 
ATOM     39  H   UNL A   1      43.405  28.042  28.088  1.00  0.00     0.167 HD
ATOM     40  C   UNL A   1      40.168  30.115  30.151  1.00  0.00     0.034 A 
ATOM     41  C   UNL A   1      45.878  27.925  26.774  1.00  0.00     0.034 A 
ATOM     42  C   UNL A   1      41.240  31.072  30.090  1.00  0.00     0.049 A 
ATOM     43  C   UNL A   1      45.769  29.326  27.324  1.00  0.00     0.074 A 
ATOM     44  C   UNL A   1      41.280  32.353  30.613  1.00  0.00     0.029 A 
ATOM     45  N   UNL A   1      42.457  30.862  29.460  1.00  0.00    -0.354 N 
ATOM     46  N   UNL A   1      44.806  29.863  28.032  1.00  0.00    -0.248 NA
ATOM     47  C   UNL A   1      46.897  30.233  27.064  1.00  0.00     0.031 C 
ATOM     48  C   UNL A   1      42.508  32.929  30.269  1.00  0.00     0.029 A 
ATOM     49  C   UNL A   1      43.250  31.992  29.568  1.00  0.00     0.049 A 
ATOM     50  H   UNL A   1      42.718  30.030  29.003  1.00  0.00     0.167 HD
ATOM     51  C   UNL A   1      45.226  31.154  28.334  1.00  0.00     0.074 A 
ATOM     52  C   UNL A   1      46.540  31.313  27.747  1.00  0.00     0.031 C 
ATOM     53  C   UNL A   1      44.578  32.125  29.025  1.00  0.00     0.034 A 
BRANCH  40  54
ATOM     54  C   UNL A   1      38.893  30.515  30.846  1.00  0.00     0.023 A 
ATOM     55  C   UNL A   1      38.739  30.286  32.228  1.00  0.00     0.012 A 
ATOM     56  C   UNL A   1      37.858  31.148  30.130  1.00  0.00     0.148 A 
ATOM     57  C   UNL A   1      37.558  30.645  32.877  1.00  0.00     0.002 A 
ATOM     58  C   UNL A   1      36.704  31.544  30.792  1.00  0.00     0.091 A 
ATOM     59  F   UNL A   1      38.017  31.337  28.811  1.00  0.00    -0.205 F 
ATOM     60  C   UNL A   1      36.546  31.281  32.163  1.00  0.00     0.022 A 
BRANCH  58  61
ATOM     61  S   UNL A   1      35.377  32.437  29.975  1.00  0.00     0.127 S 
ATOM     62  O   UNL A   1      36.050  33.675  29.586  1.00  0.00    -0.237 OA
ATOM     63  O   UNL A   1      35.049  31.546  28.862  1.00  0.00    -0.237 OA
ATOM     64  O   UNL A   1      34.321  32.585  30.967  1.00  0.00    -0.744 OA
ENDBRANCH  58  61
ENDBRANCH  40  54
BRANCH  41  65
ATOM     65  C   UNL A   1      47.089  27.504  26.010  1.00  0.00     0.023 A 
ATOM     66  C   UNL A   1      48.133  26.828  26.668  1.00  0.00     0.012 A 
ATOM     67  C   UNL A   1      47.209  27.776  24.632  1.00  0.00     0.148 A 
ATOM     68  C   UNL A   1      49.289  26.460  25.977  1.00  0.00     0.002 A 
ATOM     69  C   UNL A   1      48.335  27.354  23.938  1.00  0.00     0.091 A 
ATOM     70  F   UNL A   1      46.213  28.439  24.027  1.00  0.00    -0.205 F 
ATOM     71  C   UNL A   1      49.386  26.713  24.612  1.00  0.00     0.022 A 
BRANCH  69  72
ATOM     72  S   UNL A   1      48.491  27.526  22.156  1.00  0.00     0.127 S 
ATOM     73  O   UNL A   1      47.204  28.119  21.799  1.00  0.00    -0.237 OA
ATOM     74  O   UNL A   1      49.639  28.427  22.043  1.00  0.00    -0.237 OA
ATOM     75  O   UNL A   1      48.729  26.183  21.648  1.00  0.00    -0.744 OA
ENDBRANCH  69  72
ENDBRANCH  41  65
BRANCH  53  76
ATOM     76  C   UNL A   1      45.290  33.438  29.235  1.00  0.00     0.023 A 
ATOM     77  C   UNL A   1      46.138  33.613  30.346  1.00  0.00     0.012 A 
ATOM     78  C   UNL A   1      45.178  34.471  28.282  1.00  0.00     0.148 A 
ATOM     79  C   UNL A   1      46.838  34.807  30.523  1.00  0.00     0.002 A 
ATOM     80  C   UNL A   1      45.918  35.638  28.438  1.00  0.00     0.091 A 
ATOM     81  F   UNL A   1      44.353  34.294  27.239  1.00  0.00    -0.205 F 
ATOM     82  C   UNL A   1      46.738  35.813  29.564  1.00  0.00     0.022 A 
BRANCH  80  83
ATOM     83  S   UNL A   1      45.931  36.945  27.205  1.00  0.00     0.127 S 
ATOM     84  O   UNL A   1      46.856  37.908  27.800  1.00  0.00    -0.237 OA
ATOM     85  O   UNL A   1      46.449  36.252  26.025  1.00  0.00    -0.237 OA
ATOM     86  O   UNL A   1      44.552  37.398  27.083  1.00  0.00    -0.744 OA
ENDBRANCH  80  83
ENDBRANCH  53  76
ENDBRANCH  27  28
ENDBRANCH  20  22
ENDBRANCH  19  20
ENDBRANCH   1  19
TORSDOF 18
ENDMDL
MODEL 2
REMARK VINA RESULT:     -10.7      1.818      8.199
REMARK SMILES [NH3+][C@@H](C(=O)OCCOC(=O)c1ccc(-c2c3nc(c(-c4cccc(S(=O)(=O)[O-])c4F)c4ccc([nH]4)c(-c4cccc(S(=O)(=O)[O-])c4F)c4nc(c(-c5cccc(S(=O)(=O)[O-])c5F)c5ccc2[nH]5)C=C4)C=C3)cc1)[C@@H](O)c1cccs1
REMARK SMILES IDX 7 1 6 2 5 3 3 4 4 5 2 6 1 7 74 11 75 12 76 14 77 15 80 16
REMARK SMILES IDX 78 17 79 18 8 19 9 20 10 21 11 22 12 23 73 24 13 25 72 26
REMARK SMILES IDX 14 27 15 28 16 29 66 30 17 31 71 32 65 33 67 34 18 35 70 36
REMARK SMILES IDX 64 37 63 38 19 40 51 41 31 42 50 43 32 44 35 45 49 46 68 47
REMARK SMILES IDX 33 48 34 49 48 51 69 52 36 53 20 54 21 55 29 56 22 57 24 58
REMARK SMILES IDX 30 59 23 60 25 61 26 62 27 63 28 64 52 65 53 66 61 67 54 68
REMARK SMILES IDX 56 69 62 70 55 71 57 72 58 73 59 74 60 75 37 76 38 77 46 78
REMARK SMILES IDX 39 79 41 80 47 81 40 82 42 83 43 84 44 85 45 86
REMARK H PARENT 1 8 1 9 1 10 75 13 67 39 35 50
REMARK Flexibility Score: inf
ROOT
ATOM      1  C   UNL A   1      37.688  19.679  25.004  1.00  0.00     0.275 C 
ENDROOT
BRANCH   1   2
ATOM      2  C   UNL A   1      36.164  19.778  24.892  1.00  0.00     0.274 C 
BRANCH   2   3
ATOM      3  O   UNL A   1      35.574  18.497  24.579  1.00  0.00    -0.458 OA
BRANCH   3   4
ATOM      4  C   UNL A   1      34.212  18.476  24.424  1.00  0.00     0.368 C 
ATOM      5  O   UNL A   1      33.645  17.769  23.606  1.00  0.00    -0.245 OA
BRANCH   4   6
ATOM      6  C   UNL A   1      33.515  19.537  25.308  1.00  0.00     0.326 C 
BRANCH   6   7
ATOM      7  N   UNL A   1      32.883  18.904  26.530  1.00  0.00    -0.343 N 
ATOM      8  H   UNL A   1      33.484  18.157  26.875  1.00  0.00     0.345 HD
ATOM      9  H   UNL A   1      31.972  18.520  26.280  1.00  0.00     0.345 HD
ATOM     10  H   UNL A   1      32.766  19.611  27.256  1.00  0.00     0.345 HD
ENDBRANCH   6   7
BRANCH   6  11
ATOM     11  C   UNL A   1      32.451  20.434  24.626  1.00  0.00     0.224 C 
BRANCH  11  12
ATOM     12  O   UNL A   1      31.542  20.895  25.644  1.00  0.00    -0.381 OA
ATOM     13  H   UNL A   1      30.756  20.327  25.659  1.00  0.00     0.211 HD
ENDBRANCH  11  12
BRANCH  11  14
ATOM     14  C   UNL A   1      32.929  21.607  23.806  1.00  0.00     0.040 A 
ATOM     15  C   UNL A   1      32.540  21.941  22.516  1.00  0.00     0.018 A 
ATOM     16  S   UNL A   1      34.002  22.797  24.426  1.00  0.00    -0.146 S 
ATOM     17  C   UNL A   1      33.110  23.156  22.049  1.00  0.00     0.012 A 
ATOM     18  C   UNL A   1      33.902  23.742  23.005  1.00  0.00     0.065 A 
ENDBRANCH  11  14
ENDBRANCH   6  11
ENDBRANCH   4   6
ENDBRANCH   3   4
ENDBRANCH   2   3
ENDBRANCH   1   2
BRANCH   1  19
ATOM     19  O   UNL A   1      38.265  20.891  25.528  1.00  0.00    -0.458 OA
BRANCH  19  20
ATOM     20  C   UNL A   1      39.440  20.720  26.175  1.00  0.00     0.338 C 
ATOM     21  O   UNL A   1      40.145  19.715  26.159  1.00  0.00    -0.246 OA
BRANCH  20  22
ATOM     22  C   UNL A   1      39.928  22.003  26.700  1.00  0.00     0.060 A 
ATOM     23  C   UNL A   1      39.381  23.136  26.105  1.00  0.00     0.016 A 
ATOM     24  C   UNL A   1      40.929  22.139  27.657  1.00  0.00     0.016 A 
ATOM     25  C   UNL A   1      39.790  24.416  26.460  1.00  0.00     0.010 A 
ATOM     26  C   UNL A   1      41.367  23.429  28.004  1.00  0.00     0.010 A 
ATOM     27  C   UNL A   1      40.803  24.576  27.407  1.00  0.00    -0.014 A 
BRANCH  27  28
ATOM     28  C   UNL A   1      41.331  25.938  27.675  1.00  0.00     0.031 A 
ATOM     29  C   UNL A   1      42.717  26.295  27.220  1.00  0.00     0.074 A 
ATOM     30  C   UNL A   1      40.567  26.871  28.275  1.00  0.00     0.049 A 
ATOM     31  N   UNL A   1      43.406  27.385  27.436  1.00  0.00    -0.248 NA
ATOM     32  C   UNL A   1      43.417  25.290  26.404  1.00  0.00     0.031 C 
ATOM     33  C   UNL A   1      39.177  26.688  28.690  1.00  0.00     0.029 A 
ATOM     34  N   UNL A   1      40.863  28.159  28.655  1.00  0.00    -0.354 N 
ATOM     35  C   UNL A   1      44.636  27.183  26.825  1.00  0.00     0.074 A 
ATOM     36  C   UNL A   1      44.597  25.868  26.221  1.00  0.00     0.031 C 
ATOM     37  C   UNL A   1      38.750  27.808  29.296  1.00  0.00     0.029 A 
ATOM     38  C   UNL A   1      39.850  28.768  29.358  1.00  0.00     0.049 A 
ATOM     39  H   UNL A   1      41.717  28.601  28.444  1.00  0.00     0.167 HD
ATOM     40  C   UNL A   1      45.703  28.016  26.769  1.00  0.00     0.034 A 
ATOM     41  C   UNL A   1      39.826  29.945  30.016  1.00  0.00     0.034 A 
ATOM     42  C   UNL A   1      45.736  29.331  27.351  1.00  0.00     0.049 A 
ATOM     43  C   UNL A   1      41.051  30.824  30.003  1.00  0.00     0.074 A 
ATOM     44  C   UNL A   1      46.771  30.249  27.343  1.00  0.00     0.029 A 
ATOM     45  N   UNL A   1      44.693  29.914  28.054  1.00  0.00    -0.354 N 
ATOM     46  N   UNL A   1      42.194  30.640  29.390  1.00  0.00    -0.248 NA
ATOM     47  C   UNL A   1      40.975  32.085  30.759  1.00  0.00     0.031 C 
ATOM     48  C   UNL A   1      46.367  31.372  28.072  1.00  0.00     0.029 A 
ATOM     49  C   UNL A   1      45.064  31.173  28.497  1.00  0.00     0.049 A 
ATOM     50  H   UNL A   1      43.817  29.494  28.214  1.00  0.00     0.167 HD
ATOM     51  C   UNL A   1      42.958  31.773  29.652  1.00  0.00     0.074 A 
ATOM     52  C   UNL A   1      42.140  32.648  30.467  1.00  0.00     0.031 C 
ATOM     53  C   UNL A   1      44.225  32.059  29.264  1.00  0.00     0.034 A 
BRANCH  40  54
ATOM     54  C   UNL A   1      46.937  27.515  26.066  1.00  0.00     0.023 A 
ATOM     55  C   UNL A   1      47.129  27.786  24.697  1.00  0.00     0.012 A 
ATOM     56  C   UNL A   1      47.922  26.801  26.775  1.00  0.00     0.148 A 
ATOM     57  C   UNL A   1      48.265  27.318  24.035  1.00  0.00     0.002 A 
ATOM     58  C   UNL A   1      49.072  26.378  26.121  1.00  0.00     0.091 A 
ATOM     59  F   UNL A   1      47.709  26.536  28.073  1.00  0.00    -0.205 F 
ATOM     60  C   UNL A   1      49.239  26.624  24.748  1.00  0.00     0.022 A 
BRANCH  58  61
ATOM     61  S   UNL A   1      50.416  25.543  26.970  1.00  0.00     0.127 S 
ATOM     62  O   UNL A   1      51.387  25.373  25.889  1.00  0.00    -0.237 OA
ATOM     63  O   UNL A   1      50.798  26.526  27.983  1.00  0.00    -0.237 OA
ATOM     64  O   UNL A   1      49.852  24.310  27.502  1.00  0.00    -0.744 OA
ENDBRANCH  58  61
ENDBRANCH  40  54
BRANCH  41  65
ATOM     65  C   UNL A   1      38.603  30.360  30.765  1.00  0.00     0.023 A 
ATOM     66  C   UNL A   1      38.465  30.022  32.125  1.00  0.00     0.012 A 
ATOM     67  C   UNL A   1      37.575  31.085  30.131  1.00  0.00     0.148 A 
ATOM     68  C   UNL A   1      37.311  30.369  32.830  1.00  0.00     0.002 A 
ATOM     69  C   UNL A   1      36.457  31.480  30.854  1.00  0.00     0.091 A 
ATOM     70  F   UNL A   1      37.716  31.381  28.830  1.00  0.00    -0.205 F 
ATOM     71  C   UNL A   1      36.314  31.106  32.199  1.00  0.00     0.022 A 
BRANCH  69  72
ATOM     72  S   UNL A   1      35.181  32.537  30.159  1.00  0.00     0.127 S 
ATOM     73  O   UNL A   1      34.250  32.659  31.278  1.00  0.00    -0.237 OA
ATOM     74  O   UNL A   1      35.936  33.751  29.848  1.00  0.00    -0.237 OA
ATOM     75  O   UNL A   1      34.673  31.829  28.992  1.00  0.00    -0.744 OA
ENDBRANCH  69  72
ENDBRANCH  41  65
BRANCH  53  76
ATOM     76  C   UNL A   1      44.804  33.392  29.667  1.00  0.00     0.023 A 
ATOM     77  C   UNL A   1      45.543  33.510  30.861  1.00  0.00     0.012 A 
ATOM     78  C   UNL A   1      44.681  34.511  28.818  1.00  0.00     0.148 A 
ATOM     79  C   UNL A   1      46.122  34.728  31.220  1.00  0.00     0.002 A 
ATOM     80  C   UNL A   1      45.305  35.707  29.156  1.00  0.00     0.091 A 
ATOM     81  F   UNL A   1      43.960  34.385  27.694  1.00  0.00    -0.205 F 
ATOM     82  C   UNL A   1      46.014  35.821  30.362  1.00  0.00     0.022 A 
BRANCH  80  83
ATOM     83  S   UNL A   1      45.305  37.137  28.068  1.00  0.00     0.127 S 
ATOM     84  O   UNL A   1      46.053  38.113  28.858  1.00  0.00    -0.237 OA
ATOM     85  O   UNL A   1      46.016  36.631  26.893  1.00  0.00    -0.237 OA
ATOM     86  O   UNL A   1      43.905  37.464  27.833  1.00  0.00    -0.744 OA
ENDBRANCH  80  83
ENDBRANCH  53  76
ENDBRANCH  27  28
ENDBRANCH  20  22
ENDBRANCH  19  20
ENDBRANCH   1  19
TORSDOF 18
ENDMDL
MODEL 3
REMARK VINA RESULT:     -10.6      4.024      9.473
REMARK SMILES [NH3+][C@@H](C(=O)OCCOC(=O)c1ccc(-c2c3nc(c(-c4cccc(S(=O)(=O)[O-])c4F)c4ccc([nH]4)c(-c4cccc(S(=O)(=O)[O-])c4F)c4nc(c(-c5cccc(S(=O)(=O)[O-])c5F)c5ccc2[nH]5)C=C4)C=C3)cc1)[C@@H](O)c1cccs1
REMARK SMILES IDX 7 1 6 2 5 3 3 4 4 5 2 6 1 7 74 11 75 12 76 14 77 15 80 16
REMARK SMILES IDX 78 17 79 18 8 19 9 20 10 21 11 22 12 23 73 24 13 25 72 26
REMARK SMILES IDX 14 27 15 28 16 29 66 30 17 31 71 32 65 33 67 34 18 35 70 36
REMARK SMILES IDX 64 37 63 38 19 40 51 41 31 42 50 43 32 44 35 45 49 46 68 47
REMARK SMILES IDX 33 48 34 49 48 51 69 52 36 53 20 54 21 55 29 56 22 57 24 58
REMARK SMILES IDX 30 59 23 60 25 61 26 62 27 63 28 64 52 65 53 66 61 67 54 68
REMARK SMILES IDX 56 69 62 70 55 71 57 72 58 73 59 74 60 75 37 76 38 77 46 78
REMARK SMILES IDX 39 79 41 80 47 81 40 82 42 83 43 84 44 85 45 86
REMARK H PARENT 1 8 1 9 1 10 75 13 67 39 35 50
REMARK Flexibility Score: inf
ROOT
ATOM      1  C   UNL A   1      40.886  19.978  26.673  1.00  0.00     0.275 C 
ENDROOT
BRANCH   1   2
ATOM      2  C   UNL A   1      42.149  19.118  26.595  1.00  0.00     0.274 C 
BRANCH   2   3
ATOM      3  O   UNL A   1      42.633  19.013  25.238  1.00  0.00    -0.458 OA
BRANCH   3   4
ATOM      4  C   UNL A   1      43.971  18.753  25.087  1.00  0.00     0.368 C 
ATOM      5  O   UNL A   1      44.550  17.866  25.692  1.00  0.00    -0.245 OA
BRANCH   4   6
ATOM      6  C   UNL A   1      44.660  19.794  24.172  1.00  0.00     0.326 C 
BRANCH   6   7
ATOM      7  N   UNL A   1      45.479  19.118  23.093  1.00  0.00    -0.343 N 
ATOM      8  H   UNL A   1      44.956  19.118  22.218  1.00  0.00     0.345 HD
ATOM      9  H   UNL A   1      45.680  18.158  23.371  1.00  0.00     0.345 HD
ATOM     10  H   UNL A   1      46.356  19.625  22.966  1.00  0.00     0.345 HD
ENDBRANCH   6   7
BRANCH   6  11
ATOM     11  C   UNL A   1      45.554  20.856  24.861  1.00  0.00     0.224 C 
BRANCH  11  12
ATOM     12  O   UNL A   1      46.852  20.814  24.238  1.00  0.00    -0.381 OA
ATOM     13  H   UNL A   1      47.045  19.907  23.954  1.00  0.00     0.211 HD
ENDBRANCH  11  12
BRANCH  11  14
ATOM     14  C   UNL A   1      45.060  22.281  24.904  1.00  0.00     0.040 A 
ATOM     15  C   UNL A   1      43.743  22.709  25.002  1.00  0.00     0.018 A 
ATOM     16  S   UNL A   1      46.123  23.631  24.932  1.00  0.00    -0.146 S 
ATOM     17  C   UNL A   1      43.612  24.121  25.104  1.00  0.00     0.012 A 
ATOM     18  C   UNL A   1      44.836  24.742  25.111  1.00  0.00     0.065 A 
ENDBRANCH  11  14
ENDBRANCH   6  11
ENDBRANCH   4   6
ENDBRANCH   3   4
ENDBRANCH   2   3
ENDBRANCH   1   2
BRANCH   1  19
ATOM     19  O   UNL A   1      41.198  21.379  26.806  1.00  0.00    -0.458 OA
BRANCH  19  20
ATOM     20  C   UNL A   1      40.160  22.212  26.571  1.00  0.00     0.338 C 
ATOM     21  O   UNL A   1      39.057  21.901  26.130  1.00  0.00    -0.246 OA
BRANCH  20  22
ATOM     22  C   UNL A   1      40.414  23.530  27.172  1.00  0.00     0.060 A 
ATOM     23  C   UNL A   1      39.907  24.614  26.462  1.00  0.00     0.016 A 
ATOM     24  C   UNL A   1      41.179  23.746  28.314  1.00  0.00     0.016 A 
ATOM     25  C   UNL A   1      40.121  25.922  26.879  1.00  0.00     0.010 A 
ATOM     26  C   UNL A   1      41.421  25.068  28.730  1.00  0.00     0.010 A 
ATOM     27  C   UNL A   1      40.896  26.164  28.014  1.00  0.00    -0.014 A 
BRANCH  27  28
ATOM     28  C   UNL A   1      41.236  27.565  28.370  1.00  0.00     0.031 A 
ATOM     29  C   UNL A   1      42.666  28.021  28.293  1.00  0.00     0.074 A 
ATOM     30  C   UNL A   1      40.275  28.446  28.712  1.00  0.00     0.049 A 
ATOM     31  N   UNL A   1      43.193  29.162  28.651  1.00  0.00    -0.248 NA
ATOM     32  C   UNL A   1      43.628  27.061  27.728  1.00  0.00     0.031 C 
ATOM     33  C   UNL A   1      38.842  28.163  28.745  1.00  0.00     0.029 A 
ATOM     34  N   UNL A   1      40.368  29.757  29.116  1.00  0.00    -0.354 N 
ATOM     35  C   UNL A   1      44.554  29.046  28.399  1.00  0.00     0.074 A 
ATOM     36  C   UNL A   1      44.770  27.724  27.850  1.00  0.00     0.031 C 
ATOM     37  C   UNL A   1      38.190  29.256  29.177  1.00  0.00     0.029 A 
ATOM     38  C   UNL A   1      39.163  30.296  29.501  1.00  0.00     0.049 A 
ATOM     39  H   UNL A   1      41.215  30.259  29.128  1.00  0.00     0.167 HD
ATOM     40  C   UNL A   1      45.536  29.955  28.605  1.00  0.00     0.034 A 
ATOM     41  C   UNL A   1      38.881  31.476  30.090  1.00  0.00     0.034 A 
ATOM     42  C   UNL A   1      45.319  31.277  29.132  1.00  0.00     0.049 A 
ATOM     43  C   UNL A   1      40.000  32.446  30.378  1.00  0.00     0.074 A 
ATOM     44  C   UNL A   1      46.252  32.270  29.373  1.00  0.00     0.029 A 
ATOM     45  N   UNL A   1      44.087  31.788  29.509  1.00  0.00    -0.354 N 
ATOM     46  N   UNL A   1      41.276  32.341  30.101  1.00  0.00    -0.248 NA
ATOM     47  C   UNL A   1      39.635  33.706  31.044  1.00  0.00     0.031 C 
ATOM     48  C   UNL A   1      45.589  33.368  29.930  1.00  0.00     0.029 A 
ATOM     49  C   UNL A   1      44.236  33.077  29.995  1.00  0.00     0.049 A 
ATOM     50  H   UNL A   1      43.231  31.306  29.441  1.00  0.00     0.167 HD
ATOM     51  C   UNL A   1      41.860  33.531  30.522  1.00  0.00     0.074 A 
ATOM     52  C   UNL A   1      40.794  34.352  31.058  1.00  0.00     0.031 C 
ATOM     53  C   UNL A   1      43.162  33.907  30.479  1.00  0.00     0.034 A 
BRANCH  40  54
ATOM     54  C   UNL A   1      46.945  29.541  28.275  1.00  0.00     0.023 A 
ATOM     55  C   UNL A   1      47.482  29.809  27.001  1.00  0.00     0.012 A 
ATOM     56  C   UNL A   1      47.749  28.910  29.246  1.00  0.00     0.148 A 
ATOM     57  C   UNL A   1      48.784  29.421  26.684  1.00  0.00     0.002 A 
ATOM     58  C   UNL A   1      49.059  28.568  28.939  1.00  0.00     0.091 A 
ATOM     59  F   UNL A   1      47.212  28.645  30.446  1.00  0.00    -0.205 F 
ATOM     60  C   UNL A   1      49.574  28.810  27.654  1.00  0.00     0.022 A 
BRANCH  58  61
ATOM     61  S   UNL A   1      50.178  27.845  30.143  1.00  0.00     0.127 S 
ATOM     62  O   UNL A   1      51.398  27.684  29.353  1.00  0.00    -0.237 OA
ATOM     63  O   UNL A   1      50.246  28.890  31.165  1.00  0.00    -0.237 OA
ATOM     64  O   UNL A   1      49.551  26.606  30.583  1.00  0.00    -0.744 OA
ENDBRANCH  58  61
ENDBRANCH  40  54
BRANCH  41  65
ATOM     65  C   UNL A   1      37.476  31.807  30.469  1.00  0.00     0.023 A 
ATOM     66  C   UNL A   1      36.976  31.412  31.725  1.00  0.00     0.012 A 
ATOM     67  C   UNL A   1      36.632  32.509  29.586  1.00  0.00     0.148 A 
ATOM     68  C   UNL A   1      35.653  31.680  32.080  1.00  0.00     0.002 A 
ATOM     69  C   UNL A   1      35.335  32.826  29.970  1.00  0.00     0.091 A 
ATOM     70  F   UNL A   1      37.119  32.861  28.387  1.00  0.00    -0.205 F 
ATOM     71  C   UNL A   1      34.837  32.395  31.209  1.00  0.00     0.022 A 
BRANCH  69  72
ATOM     72  S   UNL A   1      34.253  33.849  28.965  1.00  0.00     0.127 S 
ATOM     73  O   UNL A   1      33.316  34.363  29.961  1.00  0.00    -0.237 OA
ATOM     74  O   UNL A   1      35.190  34.838  28.431  1.00  0.00    -0.237 OA
ATOM     75  O   UNL A   1      33.683  32.959  27.964  1.00  0.00    -0.744 OA
ENDBRANCH  69  72
ENDBRANCH  41  65
BRANCH  53  76
ATOM     76  C   UNL A   1      43.517  35.285  30.980  1.00  0.00     0.023 A 
ATOM     77  C   UNL A   1      43.914  35.470  32.319  1.00  0.00     0.012 A 
ATOM     78  C   UNL A   1      43.532  36.384  30.097  1.00  0.00     0.148 A 
ATOM     79  C   UNL A   1      44.289  36.733  32.780  1.00  0.00     0.002 A 
ATOM     80  C   UNL A   1      43.957  37.628  30.550  1.00  0.00     0.091 A 
ATOM     81  F   UNL A   1      43.135  36.193  28.830  1.00  0.00    -0.205 F 
ATOM     82  C   UNL A   1      44.323  37.807  31.893  1.00  0.00     0.022 A 
BRANCH  80  83
ATOM     83  S   UNL A   1      44.130  39.045  29.459  1.00  0.00     0.127 S 
ATOM     84  O   UNL A   1      42.748  39.268  29.038  1.00  0.00    -0.237 OA
ATOM     85  O   UNL A   1      44.665  40.066  30.361  1.00  0.00    -0.237 OA
ATOM     86  O   UNL A   1      45.044  38.632  28.403  1.00  0.00    -0.744 OA
ENDBRANCH  80  83
ENDBRANCH  53  76
ENDBRANCH  27  28
ENDBRANCH  20  22
ENDBRANCH  19  20
ENDBRANCH   1  19
TORSDOF 18
ENDMDL
