MODEL 1
REMARK VINA RESULT:     -12.5      0.000      0.000
REMARK SMILES CO[C@@]1(C(=O)OCCOC(=O)c2ccc(-c3c4nc(c(-c5cccc(S(=O)(=O)[O-])c5F)c5ccc([nH]5)c(-c5cccc(S(=O)(=O)[O-])c5F)c5nc(c(-c6cccc(S(=O)(=O)[O-])c6F)c6ccc3[nH]6)C=C5)C=C4)cc2)CC(c2ccccc2)=CC=C1C
REMARK SMILES IDX 8 1 7 2 6 3 4 4 5 5 3 6 75 7 85 8 76 9 84 10 86 11 83 12
REMARK SMILES IDX 2 13 1 14 77 15 78 16 82 17 79 18 81 19 80 20 9 21 10 22
REMARK SMILES IDX 11 23 12 24 13 25 74 26 14 27 73 28 15 29 16 30 17 31 67 32
REMARK SMILES IDX 18 33 72 34 66 35 68 36 19 37 71 38 65 39 64 40 20 42 52 43
REMARK SMILES IDX 32 44 51 45 33 46 36 47 50 48 69 49 34 50 35 51 49 53 70 54
REMARK SMILES IDX 37 55 21 56 22 57 30 58 23 59 25 60 31 61 24 62 26 63 27 64
REMARK SMILES IDX 28 65 29 66 53 67 54 68 62 69 55 70 57 71 63 72 56 73 58 74
REMARK SMILES IDX 59 75 60 76 61 77 38 78 39 79 47 80 40 81 42 82 48 83 41 84
REMARK SMILES IDX 43 85 44 86 45 87 46 88
REMARK H PARENT 68 41 36 52
REMARK Flexibility Score: inf
ROOT
ATOM      1  C   UNL A   1      36.952  21.308  24.290  1.00  0.00     0.275 C 
ENDROOT
BRANCH   1   2
ATOM      2  C   UNL A   1      36.560  22.649  23.685  1.00  0.00     0.274 C 
BRANCH   2   3
ATOM      3  O   UNL A   1      35.132  22.670  23.518  1.00  0.00    -0.460 OA
BRANCH   3   4
ATOM      4  C   UNL A   1      34.388  23.194  24.538  1.00  0.00     0.343 C 
ATOM      5  O   UNL A   1      34.794  24.065  25.300  1.00  0.00    -0.248 OA
BRANCH   4   6
ATOM      6  C   UNL A   1      32.981  22.512  24.626  1.00  0.00     0.190 C 
ATOM      7  C   UNL A   1      33.248  21.007  24.982  1.00  0.00     0.088 C 
ATOM      8  C   UNL A   1      32.333  22.736  23.257  1.00  0.00    -0.030 C 
ATOM      9  C   UNL A   1      32.811  19.988  23.956  1.00  0.00    -0.037 C 
ATOM     10  C   UNL A   1      32.007  21.715  22.445  1.00  0.00     0.003 C 
ATOM     11  C   UNL A   1      32.100  24.160  22.826  1.00  0.00     0.043 C 
ATOM     12  C   UNL A   1      32.242  20.337  22.792  1.00  0.00     0.004 C 
BRANCH   6  13
ATOM     13  O   UNL A   1      32.187  23.236  25.590  1.00  0.00    -0.362 OA
ATOM     14  C   UNL A   1      30.950  22.703  26.016  1.00  0.00     0.197 C 
ENDBRANCH   6  13
BRANCH   9  15
ATOM     15  C   UNL A   1      33.056  18.573  24.296  1.00  0.00    -0.022 A 
ATOM     16  C   UNL A   1      32.709  18.076  25.559  1.00  0.00     0.008 A 
ATOM     17  C   UNL A   1      33.573  17.691  23.337  1.00  0.00     0.008 A 
ATOM     18  C   UNL A   1      32.860  16.717  25.849  1.00  0.00     0.001 A 
ATOM     19  C   UNL A   1      33.720  16.333  23.628  1.00  0.00     0.001 A 
ATOM     20  C   UNL A   1      33.360  15.847  24.882  1.00  0.00     0.000 A 
ENDBRANCH   9  15
ENDBRANCH   4   6
ENDBRANCH   3   4
ENDBRANCH   2   3
ENDBRANCH   1   2
BRANCH   1  21
ATOM     21  O   UNL A   1      37.349  21.525  25.656  1.00  0.00    -0.458 OA
BRANCH  21  22
ATOM     22  C   UNL A   1      38.655  21.296  25.928  1.00  0.00     0.338 C 
ATOM     23  O   UNL A   1      39.311  20.304  25.665  1.00  0.00    -0.246 OA
BRANCH  22  24
ATOM     24  C   UNL A   1      39.222  22.479  26.591  1.00  0.00     0.060 A 
ATOM     25  C   UNL A   1      38.646  23.728  26.361  1.00  0.00     0.016 A 
ATOM     26  C   UNL A   1      40.401  22.370  27.322  1.00  0.00     0.016 A 
ATOM     27  C   UNL A   1      39.291  24.889  26.791  1.00  0.00     0.010 A 
ATOM     28  C   UNL A   1      41.015  23.529  27.806  1.00  0.00     0.010 A 
ATOM     29  C   UNL A   1      40.497  24.802  27.500  1.00  0.00    -0.014 A 
BRANCH  29  30
ATOM     30  C   UNL A   1      41.285  26.023  27.828  1.00  0.00     0.031 A 
ATOM     31  C   UNL A   1      40.647  27.123  28.640  1.00  0.00     0.074 A 
ATOM     32  C   UNL A   1      42.555  26.168  27.400  1.00  0.00     0.049 A 
ATOM     33  N   UNL A   1      41.092  28.325  28.905  1.00  0.00    -0.248 NA
ATOM     34  C   UNL A   1      39.325  26.835  29.223  1.00  0.00     0.031 C 
ATOM     35  C   UNL A   1      43.307  25.184  26.624  1.00  0.00     0.029 A 
ATOM     36  N   UNL A   1      43.430  27.218  27.545  1.00  0.00    -0.354 N 
ATOM     37  C   UNL A   1      40.080  28.958  29.618  1.00  0.00     0.074 A 
ATOM     38  C   UNL A   1      39.000  28.005  29.754  1.00  0.00     0.031 C 
ATOM     39  C   UNL A   1      44.527  25.675  26.357  1.00  0.00     0.029 A 
ATOM     40  C   UNL A   1      44.629  27.028  26.900  1.00  0.00     0.049 A 
ATOM     41  H   UNL A   1      43.218  28.029  28.062  1.00  0.00     0.167 HD
ATOM     42  C   UNL A   1      40.052  30.212  30.129  1.00  0.00     0.034 A 
ATOM     43  C   UNL A   1      45.682  27.856  26.740  1.00  0.00     0.034 A 
ATOM     44  C   UNL A   1      41.152  31.136  30.070  1.00  0.00     0.049 A 
ATOM     45  C   UNL A   1      45.641  29.231  27.350  1.00  0.00     0.074 A 
ATOM     46  C   UNL A   1      41.227  32.418  30.587  1.00  0.00     0.029 A 
ATOM     47  N   UNL A   1      42.376  30.872  29.477  1.00  0.00    -0.354 N 
ATOM     48  N   UNL A   1      44.698  29.790  28.068  1.00  0.00    -0.248 NA
ATOM     49  C   UNL A   1      46.824  30.083  27.147  1.00  0.00     0.031 C 
ATOM     50  C   UNL A   1      42.503  32.926  30.314  1.00  0.00     0.029 A 
ATOM     51  C   UNL A   1      43.220  31.959  29.627  1.00  0.00     0.049 A 
ATOM     52  H   UNL A   1      42.610  30.034  29.017  1.00  0.00     0.167 HD
ATOM     53  C   UNL A   1      45.182  31.044  28.425  1.00  0.00     0.074 A 
ATOM     54  C   UNL A   1      46.513  31.154  27.866  1.00  0.00     0.031 C 
ATOM     55  C   UNL A   1      44.569  32.027  29.130  1.00  0.00     0.034 A 
BRANCH  42  56
ATOM     56  C   UNL A   1      38.799  30.645  30.840  1.00  0.00     0.023 A 
ATOM     57  C   UNL A   1      38.691  30.459  32.233  1.00  0.00     0.012 A 
ATOM     58  C   UNL A   1      37.750  31.274  30.143  1.00  0.00     0.148 A 
ATOM     59  C   UNL A   1      37.545  30.867  32.916  1.00  0.00     0.002 A 
ATOM     60  C   UNL A   1      36.626  31.712  30.836  1.00  0.00     0.091 A 
ATOM     61  F   UNL A   1      37.857  31.417  28.814  1.00  0.00    -0.205 F 
ATOM     62  C   UNL A   1      36.519  31.502  32.221  1.00  0.00     0.022 A 
BRANCH  60  63
ATOM     63  S   UNL A   1      35.291  32.601  30.027  1.00  0.00     0.127 S 
ATOM     64  O   UNL A   1      34.872  31.641  29.007  1.00  0.00    -0.237 OA
ATOM     65  O   UNL A   1      34.332  32.789  31.116  1.00  0.00    -0.237 OA
ATOM     66  O   UNL A   1      35.885  33.835  29.531  1.00  0.00    -0.744 OA
ENDBRANCH  60  63
ENDBRANCH  42  56
BRANCH  43  67
ATOM     67  C   UNL A   1      46.888  27.384  26.004  1.00  0.00     0.023 A 
ATOM     68  C   UNL A   1      47.796  26.524  26.650  1.00  0.00     0.012 A 
ATOM     69  C   UNL A   1      47.125  27.751  24.665  1.00  0.00     0.148 A 
ATOM     70  C   UNL A   1      48.927  26.053  25.985  1.00  0.00     0.002 A 
ATOM     71  C   UNL A   1      48.225  27.235  23.990  1.00  0.00     0.091 A 
ATOM     72  F   UNL A   1      46.265  28.593  24.073  1.00  0.00    -0.205 F 
ATOM     73  C   UNL A   1      49.135  26.398  24.652  1.00  0.00     0.022 A 
BRANCH  71  74
ATOM     74  S   UNL A   1      48.486  27.523  22.236  1.00  0.00     0.127 S 
ATOM     75  O   UNL A   1      49.717  28.308  22.240  1.00  0.00    -0.237 OA
ATOM     76  O   UNL A   1      48.626  26.160  21.718  1.00  0.00    -0.237 OA
ATOM     77  O   UNL A   1      47.288  28.213  21.777  1.00  0.00    -0.744 OA
ENDBRANCH  71  74
ENDBRANCH  43  67
BRANCH  55  78
ATOM     78  C   UNL A   1      45.339  33.297  29.371  1.00  0.00     0.023 A 
ATOM     79  C   UNL A   1      46.144  33.413  30.522  1.00  0.00     0.012 A 
ATOM     80  C   UNL A   1      45.319  34.346  28.433  1.00  0.00     0.148 A 
ATOM     81  C   UNL A   1      46.898  34.564  30.745  1.00  0.00     0.002 A 
ATOM     82  C   UNL A   1      46.104  35.476  28.644  1.00  0.00     0.091 A 
ATOM     83  F   UNL A   1      44.529  34.233  27.355  1.00  0.00    -0.205 F 
ATOM     84  C   UNL A   1      46.886  35.590  29.804  1.00  0.00     0.022 A 
BRANCH  82  85
ATOM     85  S   UNL A   1      46.196  36.794  27.428  1.00  0.00     0.127 S 
ATOM     86  O   UNL A   1      44.829  37.309  27.435  1.00  0.00    -0.237 OA
ATOM     87  O   UNL A   1      47.190  37.700  28.009  1.00  0.00    -0.237 OA
ATOM     88  O   UNL A   1      46.629  36.149  26.195  1.00  0.00    -0.744 OA
ENDBRANCH  82  85
ENDBRANCH  55  78
ENDBRANCH  29  30
ENDBRANCH  22  24
ENDBRANCH  21  22
ENDBRANCH   1  21
TORSDOF 16
ENDMDL
MODEL 2
REMARK VINA RESULT:     -12.4      2.057      3.651
REMARK SMILES CO[C@@]1(C(=O)OCCOC(=O)c2ccc(-c3c4nc(c(-c5cccc(S(=O)(=O)[O-])c5F)c5ccc([nH]5)c(-c5cccc(S(=O)(=O)[O-])c5F)c5nc(c(-c6cccc(S(=O)(=O)[O-])c6F)c6ccc3[nH]6)C=C5)C=C4)cc2)CC(c2ccccc2)=CC=C1C
REMARK SMILES IDX 8 1 7 2 6 3 4 4 5 5 3 6 75 7 85 8 76 9 84 10 86 11 83 12
REMARK SMILES IDX 2 13 1 14 77 15 78 16 82 17 79 18 81 19 80 20 9 21 10 22
REMARK SMILES IDX 11 23 12 24 13 25 74 26 14 27 73 28 15 29 16 30 17 31 67 32
REMARK SMILES IDX 18 33 72 34 66 35 68 36 19 37 71 38 65 39 64 40 20 42 52 43
REMARK SMILES IDX 32 44 51 45 33 46 36 47 50 48 69 49 34 50 35 51 49 53 70 54
REMARK SMILES IDX 37 55 21 56 22 57 30 58 23 59 25 60 31 61 24 62 26 63 27 64
REMARK SMILES IDX 28 65 29 66 53 67 54 68 62 69 55 70 57 71 63 72 56 73 58 74
REMARK SMILES IDX 59 75 60 76 61 77 38 78 39 79 47 80 40 81 42 82 48 83 41 84
REMARK SMILES IDX 43 85 44 86 45 87 46 88
REMARK H PARENT 68 41 36 52
REMARK Flexibility Score: inf
ROOT
ATOM      1  C   UNL A   1      36.341  21.151  25.684  1.00  0.00     0.275 C 
ENDROOT
BRANCH   1   2
ATOM      2  C   UNL A   1      35.246  21.128  24.625  1.00  0.00     0.274 C 
BRANCH   2   3
ATOM      3  O   UNL A   1      34.638  22.429  24.574  1.00  0.00    -0.460 OA
BRANCH   3   4
ATOM      4  C   UNL A   1      34.736  23.123  23.400  1.00  0.00     0.343 C 
ATOM      5  O   UNL A   1      35.724  23.096  22.673  1.00  0.00    -0.248 OA
BRANCH   4   6
ATOM      6  C   UNL A   1      33.451  23.977  23.134  1.00  0.00     0.190 C 
ATOM      7  C   UNL A   1      33.569  25.242  24.055  1.00  0.00     0.088 C 
ATOM      8  C   UNL A   1      32.273  23.055  23.467  1.00  0.00    -0.030 C 
ATOM      9  C   UNL A   1      32.506  25.400  25.116  1.00  0.00    -0.037 C 
ATOM     10  C   UNL A   1      31.409  23.332  24.459  1.00  0.00     0.003 C 
ATOM     11  C   UNL A   1      32.133  21.793  22.659  1.00  0.00     0.043 C 
ATOM     12  C   UNL A   1      31.520  24.507  25.285  1.00  0.00     0.004 C 
BRANCH   6  13
ATOM     13  O   UNL A   1      33.379  24.256  21.719  1.00  0.00    -0.362 OA
ATOM     14  C   UNL A   1      32.931  25.522  21.280  1.00  0.00     0.197 C 
ENDBRANCH   6  13
BRANCH   9  15
ATOM     15  C   UNL A   1      32.615  26.594  25.976  1.00  0.00    -0.022 A 
ATOM     16  C   UNL A   1      33.816  27.310  26.048  1.00  0.00     0.008 A 
ATOM     17  C   UNL A   1      31.498  27.069  26.677  1.00  0.00     0.008 A 
ATOM     18  C   UNL A   1      33.892  28.490  26.793  1.00  0.00     0.001 A 
ATOM     19  C   UNL A   1      31.575  28.250  27.419  1.00  0.00     0.001 A 
ATOM     20  C   UNL A   1      32.771  28.962  27.472  1.00  0.00     0.000 A 
ENDBRANCH   9  15
ENDBRANCH   4   6
ENDBRANCH   3   4
ENDBRANCH   2   3
ENDBRANCH   1   2
BRANCH   1  21
ATOM     21  O   UNL A   1      37.593  21.442  25.037  1.00  0.00    -0.458 OA
BRANCH  21  22
ATOM     22  C   UNL A   1      38.702  21.095  25.730  1.00  0.00     0.338 C 
ATOM     23  O   UNL A   1      39.239  20.003  25.783  1.00  0.00    -0.246 OA
BRANCH  22  24
ATOM     24  C   UNL A   1      39.224  22.280  26.425  1.00  0.00     0.060 A 
ATOM     25  C   UNL A   1      38.695  23.533  26.123  1.00  0.00     0.016 A 
ATOM     26  C   UNL A   1      40.328  22.164  27.266  1.00  0.00     0.016 A 
ATOM     27  C   UNL A   1      39.317  24.691  26.594  1.00  0.00     0.010 A 
ATOM     28  C   UNL A   1      40.914  23.321  27.787  1.00  0.00     0.010 A 
ATOM     29  C   UNL A   1      40.449  24.597  27.414  1.00  0.00    -0.014 A 
BRANCH  29  30
ATOM     30  C   UNL A   1      41.224  25.811  27.797  1.00  0.00     0.031 A 
ATOM     31  C   UNL A   1      40.559  26.889  28.617  1.00  0.00     0.074 A 
ATOM     32  C   UNL A   1      42.506  25.969  27.411  1.00  0.00     0.049 A 
ATOM     33  N   UNL A   1      40.993  28.085  28.925  1.00  0.00    -0.248 NA
ATOM     34  C   UNL A   1      39.221  26.584  29.152  1.00  0.00     0.031 C 
ATOM     35  C   UNL A   1      43.283  25.006  26.633  1.00  0.00     0.029 A 
ATOM     36  N   UNL A   1      43.374  27.016  27.609  1.00  0.00    -0.354 N 
ATOM     37  C   UNL A   1      39.958  28.697  29.623  1.00  0.00     0.074 A 
ATOM     38  C   UNL A   1      38.877  27.740  29.702  1.00  0.00     0.031 C 
ATOM     39  C   UNL A   1      44.510  25.505  26.416  1.00  0.00     0.029 A 
ATOM     40  C   UNL A   1      44.592  26.844  26.995  1.00  0.00     0.049 A 
ATOM     41  H   UNL A   1      43.144  27.813  28.139  1.00  0.00     0.167 HD
ATOM     42  C   UNL A   1      39.913  29.938  30.164  1.00  0.00     0.034 A 
ATOM     43  C   UNL A   1      45.647  27.677  26.888  1.00  0.00     0.034 A 
ATOM     44  C   UNL A   1      41.011  30.865  30.161  1.00  0.00     0.049 A 
ATOM     45  C   UNL A   1      45.585  29.037  27.530  1.00  0.00     0.074 A 
ATOM     46  C   UNL A   1      41.068  32.135  30.711  1.00  0.00     0.029 A 
ATOM     47  N   UNL A   1      42.253  30.618  29.599  1.00  0.00    -0.354 N 
ATOM     48  N   UNL A   1      44.619  29.576  28.234  1.00  0.00    -0.248 NA
ATOM     49  C   UNL A   1      46.771  29.895  27.385  1.00  0.00     0.031 C 
ATOM     50  C   UNL A   1      42.350  32.651  30.490  1.00  0.00     0.029 A 
ATOM     51  C   UNL A   1      43.090  31.703  29.801  1.00  0.00     0.049 A 
ATOM     52  H   UNL A   1      42.503  29.792  29.125  1.00  0.00     0.167 HD
ATOM     53  C   UNL A   1      45.089  30.821  28.636  1.00  0.00     0.074 A 
ATOM     54  C   UNL A   1      46.437  30.947  28.121  1.00  0.00     0.031 C 
ATOM     55  C   UNL A   1      44.453  31.785  29.347  1.00  0.00     0.034 A 
BRANCH  42  56
ATOM     56  C   UNL A   1      38.638  30.352  30.847  1.00  0.00     0.023 A 
ATOM     57  C   UNL A   1      38.453  30.055  32.213  1.00  0.00     0.012 A 
ATOM     58  C   UNL A   1      37.643  31.069  30.155  1.00  0.00     0.148 A 
ATOM     59  C   UNL A   1      37.287  30.442  32.872  1.00  0.00     0.002 A 
ATOM     60  C   UNL A   1      36.498  31.484  30.828  1.00  0.00     0.091 A 
ATOM     61  F   UNL A   1      37.822  31.318  28.850  1.00  0.00    -0.205 F 
ATOM     62  C   UNL A   1      36.315  31.165  32.183  1.00  0.00     0.022 A 
BRANCH  60  63
ATOM     63  S   UNL A   1      35.231  32.479  30.033  1.00  0.00     0.127 S 
ATOM     64  O   UNL A   1      34.299  32.707  31.134  1.00  0.00    -0.237 OA
ATOM     65  O   UNL A   1      35.979  33.665  29.613  1.00  0.00    -0.237 OA
ATOM     66  O   UNL A   1      34.728  31.667  28.933  1.00  0.00    -0.744 OA
ENDBRANCH  60  63
ENDBRANCH  42  56
BRANCH  43  67
ATOM     67  C   UNL A   1      46.876  27.226  26.177  1.00  0.00     0.023 A 
ATOM     68  C   UNL A   1      47.022  27.512  24.806  1.00  0.00     0.012 A 
ATOM     69  C   UNL A   1      47.911  26.549  26.850  1.00  0.00     0.148 A 
ATOM     70  C   UNL A   1      48.165  27.115  24.114  1.00  0.00     0.002 A 
ATOM     71  C   UNL A   1      49.072  26.205  26.168  1.00  0.00     0.091 A 
ATOM     72  F   UNL A   1      47.743  26.259  28.149  1.00  0.00    -0.205 F 
ATOM     73  C   UNL A   1      49.196  26.474  24.796  1.00  0.00     0.022 A 
BRANCH  71  74
ATOM     74  S   UNL A   1      50.496  25.500  27.007  1.00  0.00     0.127 S 
ATOM     75  O   UNL A   1      51.453  25.365  25.913  1.00  0.00    -0.237 OA
ATOM     76  O   UNL A   1      50.822  26.540  27.986  1.00  0.00    -0.237 OA
ATOM     77  O   UNL A   1      50.017  24.257  27.597  1.00  0.00    -0.744 OA
ENDBRANCH  71  74
ENDBRANCH  43  67
BRANCH  55  78
ATOM     78  C   UNL A   1      45.212  33.050  29.643  1.00  0.00     0.023 A 
ATOM     79  C   UNL A   1      45.993  33.133  30.813  1.00  0.00     0.012 A 
ATOM     80  C   UNL A   1      45.208  34.127  28.737  1.00  0.00     0.148 A 
ATOM     81  C   UNL A   1      46.737  34.280  31.088  1.00  0.00     0.002 A 
ATOM     82  C   UNL A   1      45.982  35.253  29.000  1.00  0.00     0.091 A 
ATOM     83  F   UNL A   1      44.440  34.045  27.640  1.00  0.00    -0.205 F 
ATOM     84  C   UNL A   1      46.741  35.335  30.178  1.00  0.00     0.022 A 
BRANCH  82  85
ATOM     85  S   UNL A   1      46.094  36.609  27.827  1.00  0.00     0.127 S 
ATOM     86  O   UNL A   1      47.053  37.496  28.480  1.00  0.00    -0.237 OA
ATOM     87  O   UNL A   1      46.599  35.951  26.619  1.00  0.00    -0.237 OA
ATOM     88  O   UNL A   1      44.735  37.120  27.700  1.00  0.00    -0.744 OA
ENDBRANCH  82  85
ENDBRANCH  55  78
ENDBRANCH  29  30
ENDBRANCH  22  24
ENDBRANCH  21  22
ENDBRANCH   1  21
TORSDOF 16
ENDMDL
MODEL 3
REMARK VINA RESULT:     -12.3      1.561      8.269
REMARK SMILES CO[C@@]1(C(=O)OCCOC(=O)c2ccc(-c3c4nc(c(-c5cccc(S(=O)(=O)[O-])c5F)c5ccc([nH]5)c(-c5cccc(S(=O)(=O)[O-])c5F)c5nc(c(-c6cccc(S(=O)(=O)[O-])c6F)c6ccc3[nH]6)C=C5)C=C4)cc2)CC(c2ccccc2)=CC=C1C
REMARK SMILES IDX 8 1 7 2 6 3 4 4 5 5 3 6 75 7 85 8 76 9 84 10 86 11 83 12
REMARK SMILES IDX 2 13 1 14 77 15 78 16 82 17 79 18 81 19 80 20 9 21 10 22
REMARK SMILES IDX 11 23 12 24 13 25 74 26 14 27 73 28 15 29 16 30 17 31 67 32
REMARK SMILES IDX 18 33 72 34 66 35 68 36 19 37 71 38 65 39 64 40 20 42 52 43
REMARK SMILES IDX 32 44 51 45 33 46 36 47 50 48 69 49 34 50 35 51 49 53 70 54
REMARK SMILES IDX 37 55 21 56 22 57 30 58 23 59 25 60 31 61 24 62 26 63 27 64
REMARK SMILES IDX 28 65 29 66 53 67 54 68 62 69 55 70 57 71 63 72 56 73 58 74
REMARK SMILES IDX 59 75 60 76 61 77 38 78 39 79 47 80 40 81 42 82 48 83 41 84
REMARK SMILES IDX 43 85 44 86 45 87 46 88
REMARK H PARENT 68 41 36 52
REMARK Flexibility Score: inf
ROOT
ATOM      1  C   UNL A   1      37.434  19.890  24.831  1.00  0.00     0.275 C 
ENDROOT
BRANCH   1   2
ATOM      2  C   UNL A   1      35.940  20.139  24.994  1.00  0.00     0.274 C 
BRANCH   2   3
ATOM      3  O   UNL A   1      35.700  21.550  24.867  1.00  0.00    -0.460 OA
BRANCH   3   4
ATOM      4  C   UNL A   1      34.745  22.100  25.676  1.00  0.00     0.343 C 
ATOM      5  O   UNL A   1      34.744  21.994  26.898  1.00  0.00    -0.248 OA
BRANCH   4   6
ATOM      6  C   UNL A   1      33.646  22.840  24.841  1.00  0.00     0.190 C 
ATOM      7  C   UNL A   1      33.757  24.358  25.223  1.00  0.00     0.088 C 
ATOM      8  C   UNL A   1      32.322  22.179  25.235  1.00  0.00    -0.030 C 
ATOM      9  C   UNL A   1      32.549  24.970  25.893  1.00  0.00    -0.037 C 
ATOM     10  C   UNL A   1      31.336  22.864  25.842  1.00  0.00     0.003 C 
ATOM     11  C   UNL A   1      32.170  20.708  24.951  1.00  0.00     0.043 C 
ATOM     12  C   UNL A   1      31.444  24.262  26.170  1.00  0.00     0.004 C 
BRANCH   6  13
ATOM     13  O   UNL A   1      33.864  22.543  23.445  1.00  0.00    -0.362 OA
ATOM     14  C   UNL A   1      33.309  23.389  22.458  1.00  0.00     0.197 C 
ENDBRANCH   6  13
BRANCH   9  15
ATOM     15  C   UNL A   1      32.652  26.399  26.244  1.00  0.00    -0.022 A 
ATOM     16  C   UNL A   1      31.600  27.047  26.903  1.00  0.00     0.008 A 
ATOM     17  C   UNL A   1      33.832  27.111  25.986  1.00  0.00     0.008 A 
ATOM     18  C   UNL A   1      31.734  28.376  27.314  1.00  0.00     0.001 A 
ATOM     19  C   UNL A   1      33.965  28.438  26.399  1.00  0.00     0.001 A 
ATOM     20  C   UNL A   1      32.918  29.068  27.067  1.00  0.00     0.000 A 
ENDBRANCH   9  15
ENDBRANCH   4   6
ENDBRANCH   3   4
ENDBRANCH   2   3
ENDBRANCH   1   2
BRANCH   1  21
ATOM     21  O   UNL A   1      38.136  21.099  25.174  1.00  0.00    -0.458 OA
BRANCH  21  22
ATOM     22  C   UNL A   1      39.227  20.938  25.957  1.00  0.00     0.338 C 
ATOM     23  O   UNL A   1      39.873  19.921  26.140  1.00  0.00    -0.246 OA
BRANCH  22  24
ATOM     24  C   UNL A   1      39.573  22.228  26.570  1.00  0.00     0.060 A 
ATOM     25  C   UNL A   1      38.867  23.370  26.194  1.00  0.00     0.016 A 
ATOM     26  C   UNL A   1      40.683  22.328  27.404  1.00  0.00     0.016 A 
ATOM     27  C   UNL A   1      39.314  24.634  26.584  1.00  0.00     0.010 A 
ATOM     28  C   UNL A   1      41.095  23.589  27.845  1.00  0.00     0.010 A 
ATOM     29  C   UNL A   1      40.450  24.758  27.396  1.00  0.00    -0.014 A 
BRANCH  29  30
ATOM     30  C   UNL A   1      41.041  26.093  27.692  1.00  0.00     0.031 A 
ATOM     31  C   UNL A   1      42.451  26.396  27.249  1.00  0.00     0.074 A 
ATOM     32  C   UNL A   1      40.343  27.031  28.362  1.00  0.00     0.049 A 
ATOM     33  N   UNL A   1      43.209  27.424  27.535  1.00  0.00    -0.248 NA
ATOM     34  C   UNL A   1      43.099  25.402  26.375  1.00  0.00     0.031 C 
ATOM     35  C   UNL A   1      38.967  26.888  28.836  1.00  0.00     0.029 A 
ATOM     36  N   UNL A   1      40.710  28.289  28.777  1.00  0.00    -0.354 N 
ATOM     37  C   UNL A   1      44.440  27.166  26.941  1.00  0.00     0.074 A 
ATOM     38  C   UNL A   1      44.327  25.890  26.271  1.00  0.00     0.031 C 
ATOM     39  C   UNL A   1      38.606  28.009  29.479  1.00  0.00     0.029 A 
ATOM     40  C   UNL A   1      39.738  28.932  29.507  1.00  0.00     0.049 A 
ATOM     41  H   UNL A   1      41.585  28.690  28.571  1.00  0.00     0.167 HD
ATOM     42  C   UNL A   1      45.561  27.927  26.939  1.00  0.00     0.034 A 
ATOM     43  C   UNL A   1      39.763  30.118  30.149  1.00  0.00     0.034 A 
ATOM     44  C   UNL A   1      45.657  29.232  27.533  1.00  0.00     0.049 A 
ATOM     45  C   UNL A   1      41.009  30.961  30.099  1.00  0.00     0.074 A 
ATOM     46  C   UNL A   1      46.743  30.091  27.554  1.00  0.00     0.029 A 
ATOM     47  N   UNL A   1      44.624  29.878  28.192  1.00  0.00    -0.354 N 
ATOM     48  N   UNL A   1      42.142  30.726  29.486  1.00  0.00    -0.248 NA
ATOM     49  C   UNL A   1      40.969  32.248  30.811  1.00  0.00     0.031 C 
ATOM     50  C   UNL A   1      46.361  31.262  28.219  1.00  0.00     0.029 A 
ATOM     51  C   UNL A   1      45.039  31.131  28.611  1.00  0.00     0.049 A 
ATOM     52  H   UNL A   1      43.726  29.502  28.341  1.00  0.00     0.167 HD
ATOM     53  C   UNL A   1      42.939  31.842  29.714  1.00  0.00     0.074 A 
ATOM     54  C   UNL A   1      42.150  32.767  30.501  1.00  0.00     0.031 C 
ATOM     55  C   UNL A   1      44.219  32.071  29.329  1.00  0.00     0.034 A 
BRANCH  42  56
ATOM     56  C   UNL A   1      46.770  27.380  26.230  1.00  0.00     0.023 A 
ATOM     57  C   UNL A   1      47.604  26.455  26.890  1.00  0.00     0.012 A 
ATOM     58  C   UNL A   1      47.058  27.745  24.900  1.00  0.00     0.148 A 
ATOM     59  C   UNL A   1      48.721  25.923  26.247  1.00  0.00     0.002 A 
ATOM     60  C   UNL A   1      48.153  27.182  24.253  1.00  0.00     0.091 A 
ATOM     61  F   UNL A   1      46.271  28.648  24.298  1.00  0.00    -0.205 F 
ATOM     62  C   UNL A   1      48.990  26.277  24.927  1.00  0.00     0.022 A 
BRANCH  60  63
ATOM     63  S   UNL A   1      48.528  27.532  22.531  1.00  0.00     0.127 S 
ATOM     64  O   UNL A   1      49.778  28.280  22.647  1.00  0.00    -0.237 OA
ATOM     65  O   UNL A   1      48.671  26.192  21.960  1.00  0.00    -0.237 OA
ATOM     66  O   UNL A   1      47.386  28.281  22.025  1.00  0.00    -0.744 OA
ENDBRANCH  60  63
ENDBRANCH  42  56
BRANCH  43  67
ATOM     67  C   UNL A   1      38.544  30.600  30.858  1.00  0.00     0.023 A 
ATOM     68  C   UNL A   1      38.432  30.399  32.248  1.00  0.00     0.012 A 
ATOM     69  C   UNL A   1      37.516  31.281  30.178  1.00  0.00     0.148 A 
ATOM     70  C   UNL A   1      37.311  30.850  32.943  1.00  0.00     0.002 A 
ATOM     71  C   UNL A   1      36.427  31.776  30.887  1.00  0.00     0.091 A 
ATOM     72  F   UNL A   1      37.625  31.438  28.851  1.00  0.00    -0.205 F 
ATOM     73  C   UNL A   1      36.316  31.549  32.267  1.00  0.00     0.022 A 
BRANCH  71  74
ATOM     74  S   UNL A   1      35.174  32.802  30.110  1.00  0.00     0.127 S 
ATOM     75  O   UNL A   1      34.596  31.883  29.134  1.00  0.00    -0.237 OA
ATOM     76  O   UNL A   1      34.301  33.130  31.240  1.00  0.00    -0.237 OA
ATOM     77  O   UNL A   1      35.895  33.944  29.565  1.00  0.00    -0.744 OA
ENDBRANCH  71  74
ENDBRANCH  43  67
BRANCH  55  78
ATOM     78  C   UNL A   1      44.842  33.385  29.720  1.00  0.00     0.023 A 
ATOM     79  C   UNL A   1      45.589  33.472  30.911  1.00  0.00     0.012 A 
ATOM     80  C   UNL A   1      44.744  34.511  28.881  1.00  0.00     0.148 A 
ATOM     81  C   UNL A   1      46.208  34.668  31.272  1.00  0.00     0.002 A 
ATOM     82  C   UNL A   1      45.397  35.689  29.229  1.00  0.00     0.091 A 
ATOM     83  F   UNL A   1      44.008  34.421  27.763  1.00  0.00    -0.205 F 
ATOM     84  C   UNL A   1      46.122  35.772  30.428  1.00  0.00     0.022 A 
BRANCH  82  85
ATOM     85  S   UNL A   1      45.392  37.120  28.143  1.00  0.00     0.127 S 
ATOM     86  O   UNL A   1      43.976  37.478  28.121  1.00  0.00    -0.237 OA
ATOM     87  O   UNL A   1      46.248  38.070  28.857  1.00  0.00    -0.237 OA
ATOM     88  O   UNL A   1      45.951  36.648  26.883  1.00  0.00    -0.744 OA
ENDBRANCH  82  85
ENDBRANCH  55  78
ENDBRANCH  29  30
ENDBRANCH  22  24
ENDBRANCH  21  22
ENDBRANCH   1  21
TORSDOF 16
ENDMDL
