MODEL 1
REMARK VINA RESULT:     -11.6      0.000      0.000
REMARK SMILES C[C@H](C(=O)OCCOC(=O)c1ccc(-c2c3nc(c(-c4cccc(S(=O)(=O)[O-])c4F)c4ccc([nH]4)c(-c4cccc(S(=O)(=O)[O-])c4F)c4nc(c(-c5cccc(S(=O)(=O)[O-])c5F)c5ccc2[nH]5)C=C4)C=C3)cc1)[C@@H](C)Nc1cccc2ccccc12
REMARK SMILES IDX 6 1 5 2 3 3 4 4 2 5 1 6 74 7 75 8 76 9 77 11 78 12 86 13
REMARK SMILES IDX 79 14 81 15 85 16 80 17 82 18 84 19 83 20 7 21 8 22 9 23
REMARK SMILES IDX 10 24 11 25 12 26 73 27 13 28 72 29 14 30 15 31 16 32 66 33
REMARK SMILES IDX 17 34 71 35 65 36 67 37 18 38 70 39 64 40 63 41 19 43 51 44
REMARK SMILES IDX 31 45 50 46 32 47 35 48 49 49 68 50 33 51 34 52 48 54 69 55
REMARK SMILES IDX 36 56 20 57 21 58 29 59 22 60 24 61 30 62 23 63 25 64 26 65
REMARK SMILES IDX 27 66 28 67 52 68 53 69 61 70 54 71 56 72 62 73 55 74 57 75
REMARK SMILES IDX 58 76 59 77 60 78 37 79 38 80 46 81 39 82 41 83 47 84 40 85
REMARK SMILES IDX 42 86 43 87 44 88 45 89
REMARK H PARENT 76 10 67 42 35 53
REMARK Flexibility Score: inf
ROOT
ATOM      1  C   UNL A   1      34.407  21.222  25.465  1.00  0.00     0.274 C 
ENDROOT
BRANCH   1   2
ATOM      2  O   UNL A   1      34.419  21.859  26.758  1.00  0.00    -0.462 OA
BRANCH   2   3
ATOM      3  C   UNL A   1      33.273  22.517  27.081  1.00  0.00     0.310 C 
ATOM      4  O   UNL A   1      32.730  22.445  28.177  1.00  0.00    -0.252 OA
BRANCH   3   5
ATOM      5  C   UNL A   1      32.770  23.432  25.976  1.00  0.00     0.118 C 
ATOM      6  C   UNL A   1      31.246  23.376  25.807  1.00  0.00     0.022 C 
BRANCH   5   7
ATOM      7  C   UNL A   1      33.280  24.880  26.138  1.00  0.00     0.090 C 
ATOM      8  C   UNL A   1      34.012  25.414  24.899  1.00  0.00     0.031 C 
BRANCH   7   9
ATOM      9  N   UNL A   1      32.119  25.746  26.322  1.00  0.00    -0.381 N 
ATOM     10  H   UNL A   1      31.332  25.297  26.706  1.00  0.00     0.160 HD
BRANCH   9  11
ATOM     11  C   UNL A   1      31.937  27.090  26.048  1.00  0.00     0.042 A 
ATOM     12  C   UNL A   1      32.543  27.959  26.983  1.00  0.00     0.026 A 
ATOM     13  C   UNL A   1      31.246  27.665  24.938  1.00  0.00     0.005 A 
ATOM     14  C   UNL A   1      32.468  29.341  26.872  1.00  0.00     0.003 A 
ATOM     15  C   UNL A   1      31.174  29.085  24.842  1.00  0.00    -0.016 A 
ATOM     16  C   UNL A   1      30.563  26.942  23.928  1.00  0.00     0.011 A 
ATOM     17  C   UNL A   1      31.778  29.899  25.808  1.00  0.00     0.009 A 
ATOM     18  C   UNL A   1      30.475  29.701  23.790  1.00  0.00     0.009 A 
ATOM     19  C   UNL A   1      29.895  27.566  22.869  1.00  0.00     0.001 A 
ATOM     20  C   UNL A   1      29.847  28.949  22.803  1.00  0.00     0.001 A 
ENDBRANCH   9  11
ENDBRANCH   7   9
ENDBRANCH   5   7
ENDBRANCH   3   5
ENDBRANCH   2   3
ENDBRANCH   1   2
BRANCH   1  21
ATOM     21  C   UNL A   1      35.811  20.720  25.124  1.00  0.00     0.275 C 
BRANCH  21  22
ATOM     22  O   UNL A   1      36.780  21.746  25.417  1.00  0.00    -0.458 OA
BRANCH  22  23
ATOM     23  C   UNL A   1      38.040  21.321  25.666  1.00  0.00     0.338 C 
ATOM     24  O   UNL A   1      38.457  20.176  25.525  1.00  0.00    -0.246 OA
BRANCH  23  25
ATOM     25  C   UNL A   1      38.901  22.437  26.121  1.00  0.00     0.060 A 
ATOM     26  C   UNL A   1      40.088  22.216  26.825  1.00  0.00     0.016 A 
ATOM     27  C   UNL A   1      38.470  23.748  25.906  1.00  0.00     0.016 A 
ATOM     28  C   UNL A   1      40.785  23.288  27.389  1.00  0.00     0.010 A 
ATOM     29  C   UNL A   1      39.233  24.822  26.371  1.00  0.00     0.010 A 
ATOM     30  C   UNL A   1      40.388  24.610  27.144  1.00  0.00    -0.014 A 
BRANCH  30  31
ATOM     31  C   UNL A   1      41.175  25.778  27.645  1.00  0.00     0.031 A 
ATOM     32  C   UNL A   1      40.518  26.834  28.499  1.00  0.00     0.074 A 
ATOM     33  C   UNL A   1      42.459  25.946  27.263  1.00  0.00     0.049 A 
ATOM     34  N   UNL A   1      40.943  28.031  28.811  1.00  0.00    -0.248 NA
ATOM     35  C   UNL A   1      39.193  26.509  29.057  1.00  0.00     0.031 C 
ATOM     36  C   UNL A   1      43.230  25.016  26.436  1.00  0.00     0.029 A 
ATOM     37  N   UNL A   1      43.335  26.981  27.494  1.00  0.00    -0.354 N 
ATOM     38  C   UNL A   1      39.911  28.634  29.521  1.00  0.00     0.074 A 
ATOM     39  C   UNL A   1      38.843  27.661  29.612  1.00  0.00     0.031 C 
ATOM     40  C   UNL A   1      44.459  25.514  26.235  1.00  0.00     0.029 A 
ATOM     41  C   UNL A   1      44.540  26.836  26.844  1.00  0.00     0.049 A 
ATOM     42  H   UNL A   1      43.121  27.752  28.070  1.00  0.00     0.167 HD
ATOM     43  C   UNL A   1      39.858  29.879  30.052  1.00  0.00     0.034 A 
ATOM     44  C   UNL A   1      45.579  27.682  26.703  1.00  0.00     0.034 A 
ATOM     45  C   UNL A   1      40.952  30.813  30.038  1.00  0.00     0.049 A 
ATOM     46  C   UNL A   1      45.507  29.045  27.328  1.00  0.00     0.074 A 
ATOM     47  C   UNL A   1      41.016  32.072  30.613  1.00  0.00     0.029 A 
ATOM     48  N   UNL A   1      42.179  30.590  29.433  1.00  0.00    -0.354 N 
ATOM     49  N   UNL A   1      44.545  29.573  28.045  1.00  0.00    -0.248 NA
ATOM     50  C   UNL A   1      46.666  29.927  27.134  1.00  0.00     0.031 C 
ATOM     51  C   UNL A   1      42.280  32.612  30.350  1.00  0.00     0.029 A 
ATOM     52  C   UNL A   1      43.007  31.685  29.621  1.00  0.00     0.049 A 
ATOM     53  H   UNL A   1      42.426  29.773  28.943  1.00  0.00     0.167 HD
ATOM     54  C   UNL A   1      44.992  30.839  28.406  1.00  0.00     0.074 A 
ATOM     55  C   UNL A   1      46.322  30.988  27.851  1.00  0.00     0.031 C 
ATOM     56  C   UNL A   1      44.350  31.799  29.114  1.00  0.00     0.034 A 
BRANCH  43  57
ATOM     57  C   UNL A   1      38.582  30.304  30.732  1.00  0.00     0.023 A 
ATOM     58  C   UNL A   1      38.396  30.037  32.103  1.00  0.00     0.012 A 
ATOM     59  C   UNL A   1      37.600  31.036  30.033  1.00  0.00     0.148 A 
ATOM     60  C   UNL A   1      37.243  30.466  32.760  1.00  0.00     0.002 A 
ATOM     61  C   UNL A   1      36.472  31.496  30.703  1.00  0.00     0.091 A 
ATOM     62  F   UNL A   1      37.783  31.264  28.724  1.00  0.00    -0.205 F 
ATOM     63  C   UNL A   1      36.288  31.204  32.065  1.00  0.00     0.022 A 
BRANCH  61  64
ATOM     64  S   UNL A   1      35.227  32.521  29.909  1.00  0.00     0.127 S 
ATOM     65  O   UNL A   1      34.286  32.743  31.005  1.00  0.00    -0.237 OA
ATOM     66  O   UNL A   1      35.998  33.702  29.519  1.00  0.00    -0.237 OA
ATOM     67  O   UNL A   1      34.721  31.736  28.793  1.00  0.00    -0.744 OA
ENDBRANCH  61  64
ENDBRANCH  43  57
BRANCH  44  68
ATOM     68  C   UNL A   1      46.789  27.247  25.948  1.00  0.00     0.023 A 
ATOM     69  C   UNL A   1      46.883  27.541  24.575  1.00  0.00     0.012 A 
ATOM     70  C   UNL A   1      47.865  26.600  26.588  1.00  0.00     0.148 A 
ATOM     71  C   UNL A   1      48.019  27.184  23.848  1.00  0.00     0.002 A 
ATOM     72  C   UNL A   1      49.018  26.303  25.872  1.00  0.00     0.091 A 
ATOM     73  F   UNL A   1      47.748  26.306  27.891  1.00  0.00    -0.205 F 
ATOM     74  C   UNL A   1      49.092  26.579  24.498  1.00  0.00     0.022 A 
BRANCH  72  75
ATOM     75  S   UNL A   1      50.498  25.666  26.669  1.00  0.00     0.127 S 
ATOM     76  O   UNL A   1      51.397  25.485  25.533  1.00  0.00    -0.237 OA
ATOM     77  O   UNL A   1      50.856  26.762  27.570  1.00  0.00    -0.237 OA
ATOM     78  O   UNL A   1      50.074  24.450  27.351  1.00  0.00    -0.744 OA
ENDBRANCH  72  75
ENDBRANCH  44  68
BRANCH  56  79
ATOM     79  C   UNL A   1      45.083  33.090  29.358  1.00  0.00     0.023 A 
ATOM     80  C   UNL A   1      45.906  33.218  30.494  1.00  0.00     0.012 A 
ATOM     81  C   UNL A   1      45.010  34.149  28.432  1.00  0.00     0.148 A 
ATOM     82  C   UNL A   1      46.624  34.392  30.719  1.00  0.00     0.002 A 
ATOM     83  C   UNL A   1      45.761  35.299  28.642  1.00  0.00     0.091 A 
ATOM     84  F   UNL A   1      44.203  34.016  27.368  1.00  0.00    -0.205 F 
ATOM     85  C   UNL A   1      46.561  35.427  29.789  1.00  0.00     0.022 A 
BRANCH  83  86
ATOM     86  S   UNL A   1      45.802  36.644  27.451  1.00  0.00     0.127 S 
ATOM     87  O   UNL A   1      44.429  37.142  27.513  1.00  0.00    -0.237 OA
ATOM     88  O   UNL A   1      46.803  37.544  28.027  1.00  0.00    -0.237 OA
ATOM     89  O   UNL A   1      46.196  36.041  26.185  1.00  0.00    -0.744 OA
ENDBRANCH  83  86
ENDBRANCH  56  79
ENDBRANCH  30  31
ENDBRANCH  23  25
ENDBRANCH  22  23
ENDBRANCH  21  22
ENDBRANCH   1  21
TORSDOF 17
ENDMDL
MODEL 2
REMARK VINA RESULT:     -11.6      4.842     10.069
REMARK SMILES C[C@H](C(=O)OCCOC(=O)c1ccc(-c2c3nc(c(-c4cccc(S(=O)(=O)[O-])c4F)c4ccc([nH]4)c(-c4cccc(S(=O)(=O)[O-])c4F)c4nc(c(-c5cccc(S(=O)(=O)[O-])c5F)c5ccc2[nH]5)C=C4)C=C3)cc1)[C@@H](C)Nc1cccc2ccccc12
REMARK SMILES IDX 6 1 5 2 3 3 4 4 2 5 1 6 74 7 75 8 76 9 77 11 78 12 86 13
REMARK SMILES IDX 79 14 81 15 85 16 80 17 82 18 84 19 83 20 7 21 8 22 9 23
REMARK SMILES IDX 10 24 11 25 12 26 73 27 13 28 72 29 14 30 15 31 16 32 66 33
REMARK SMILES IDX 17 34 71 35 65 36 67 37 18 38 70 39 64 40 63 41 19 43 51 44
REMARK SMILES IDX 31 45 50 46 32 47 35 48 49 49 68 50 33 51 34 52 48 54 69 55
REMARK SMILES IDX 36 56 20 57 21 58 29 59 22 60 24 61 30 62 23 63 25 64 26 65
REMARK SMILES IDX 27 66 28 67 52 68 53 69 61 70 54 71 56 72 62 73 55 74 57 75
REMARK SMILES IDX 58 76 59 77 60 78 37 79 38 80 46 81 39 82 41 83 47 84 40 85
REMARK SMILES IDX 42 86 43 87 44 88 45 89
REMARK H PARENT 76 10 67 42 35 53
REMARK Flexibility Score: inf
ROOT
ATOM      1  C   UNL A   1      31.726  28.197  26.607  1.00  0.00     0.274 C 
ENDROOT
BRANCH   1   2
ATOM      2  O   UNL A   1      32.089  27.092  25.757  1.00  0.00    -0.462 OA
BRANCH   2   3
ATOM      3  C   UNL A   1      31.091  26.197  25.525  1.00  0.00     0.310 C 
ATOM      4  O   UNL A   1      30.350  25.758  26.396  1.00  0.00    -0.252 OA
BRANCH   3   5
ATOM      5  C   UNL A   1      30.918  25.855  24.053  1.00  0.00     0.118 C 
ATOM      6  C   UNL A   1      30.721  27.097  23.174  1.00  0.00     0.022 C 
BRANCH   5   7
ATOM      7  C   UNL A   1      32.052  24.949  23.527  1.00  0.00     0.090 C 
ATOM      8  C   UNL A   1      33.208  25.727  22.881  1.00  0.00     0.031 C 
BRANCH   7   9
ATOM      9  N   UNL A   1      32.631  24.247  24.668  1.00  0.00    -0.381 N 
ATOM     10  H   UNL A   1      32.678  24.780  25.494  1.00  0.00     0.160 HD
BRANCH   9  11
ATOM     11  C   UNL A   1      33.124  22.959  24.786  1.00  0.00     0.042 A 
ATOM     12  C   UNL A   1      32.126  21.964  24.891  1.00  0.00     0.026 A 
ATOM     13  C   UNL A   1      34.492  22.549  24.785  1.00  0.00     0.005 A 
ATOM     14  C   UNL A   1      32.430  20.616  25.016  1.00  0.00     0.003 A 
ATOM     15  C   UNL A   1      34.787  21.161  24.920  1.00  0.00    -0.016 A 
ATOM     16  C   UNL A   1      35.613  23.415  24.715  1.00  0.00     0.011 A 
ATOM     17  C   UNL A   1      33.758  20.219  25.037  1.00  0.00     0.009 A 
ATOM     18  C   UNL A   1      36.117  20.709  24.960  1.00  0.00     0.009 A 
ATOM     19  C   UNL A   1      36.932  22.950  24.728  1.00  0.00     0.001 A 
ATOM     20  C   UNL A   1      37.184  21.594  24.855  1.00  0.00     0.001 A 
ENDBRANCH   9  11
ENDBRANCH   7   9
ENDBRANCH   5   7
ENDBRANCH   3   5
ENDBRANCH   2   3
ENDBRANCH   1   2
BRANCH   1  21
ATOM     21  C   UNL A   1      31.672  29.486  25.785  1.00  0.00     0.275 C 
BRANCH  21  22
ATOM     22  O   UNL A   1      32.952  30.146  25.828  1.00  0.00    -0.458 OA
BRANCH  22  23
ATOM     23  C   UNL A   1      33.083  31.130  26.747  1.00  0.00     0.338 C 
ATOM     24  O   UNL A   1      32.293  32.048  26.941  1.00  0.00    -0.246 OA
BRANCH  23  25
ATOM     25  C   UNL A   1      34.321  30.956  27.543  1.00  0.00     0.060 A 
ATOM     26  C   UNL A   1      35.172  32.026  27.830  1.00  0.00     0.016 A 
ATOM     27  C   UNL A   1      34.682  29.670  27.950  1.00  0.00     0.016 A 
ATOM     28  C   UNL A   1      36.414  31.801  28.430  1.00  0.00     0.010 A 
ATOM     29  C   UNL A   1      35.871  29.466  28.656  1.00  0.00     0.010 A 
ATOM     30  C   UNL A   1      36.769  30.522  28.883  1.00  0.00    -0.014 A 
BRANCH  30  31
ATOM     31  C   UNL A   1      38.043  30.272  29.625  1.00  0.00     0.031 A 
ATOM     32  C   UNL A   1      39.091  29.348  29.054  1.00  0.00     0.074 A 
ATOM     33  C   UNL A   1      38.229  30.799  30.853  1.00  0.00     0.049 A 
ATOM     34  N   UNL A   1      40.125  28.804  29.643  1.00  0.00    -0.248 NA
ATOM     35  C   UNL A   1      38.942  28.966  27.639  1.00  0.00     0.031 C 
ATOM     36  C   UNL A   1      37.307  31.705  31.540  1.00  0.00     0.029 A 
ATOM     37  N   UNL A   1      39.247  30.620  31.761  1.00  0.00    -0.354 N 
ATOM     38  C   UNL A   1      40.696  27.951  28.705  1.00  0.00     0.074 A 
ATOM     39  C   UNL A   1      39.905  28.065  27.499  1.00  0.00     0.031 C 
ATOM     40  C   UNL A   1      37.799  32.008  32.750  1.00  0.00     0.029 A 
ATOM     41  C   UNL A   1      39.027  31.254  32.963  1.00  0.00     0.049 A 
ATOM     42  H   UNL A   1      40.055  30.090  31.569  1.00  0.00     0.167 HD
ATOM     43  C   UNL A   1      41.782  27.150  28.834  1.00  0.00     0.034 A 
ATOM     44  C   UNL A   1      39.701  31.201  34.129  1.00  0.00     0.034 A 
ATOM     45  C   UNL A   1      42.620  27.104  30.003  1.00  0.00     0.049 A 
ATOM     46  C   UNL A   1      40.919  30.329  34.236  1.00  0.00     0.074 A 
ATOM     47  C   UNL A   1      43.782  26.376  30.199  1.00  0.00     0.029 A 
ATOM     48  N   UNL A   1      42.399  27.821  31.168  1.00  0.00    -0.354 N 
ATOM     49  N   UNL A   1      41.477  29.576  33.319  1.00  0.00    -0.248 NA
ATOM     50  C   UNL A   1      41.609  30.307  35.534  1.00  0.00     0.031 C 
ATOM     51  C   UNL A   1      44.260  26.650  31.486  1.00  0.00     0.029 A 
ATOM     52  C   UNL A   1      43.402  27.556  32.086  1.00  0.00     0.049 A 
ATOM     53  H   UNL A   1      41.641  28.431  31.320  1.00  0.00     0.167 HD
ATOM     54  C   UNL A   1      42.592  29.009  33.922  1.00  0.00     0.074 A 
ATOM     55  C   UNL A   1      42.648  29.525  35.274  1.00  0.00     0.031 C 
ATOM     56  C   UNL A   1      43.479  28.121  33.408  1.00  0.00     0.034 A 
BRANCH  43  57
ATOM     57  C   UNL A   1      42.158  26.275  27.666  1.00  0.00     0.023 A 
ATOM     58  C   UNL A   1      42.995  26.782  26.653  1.00  0.00     0.012 A 
ATOM     59  C   UNL A   1      41.746  24.928  27.611  1.00  0.00     0.148 A 
ATOM     60  C   UNL A   1      43.394  25.971  25.590  1.00  0.00     0.002 A 
ATOM     61  C   UNL A   1      42.179  24.114  26.571  1.00  0.00     0.091 A 
ATOM     62  F   UNL A   1      40.932  24.468  28.573  1.00  0.00    -0.205 F 
ATOM     63  C   UNL A   1      42.996  24.637  25.554  1.00  0.00     0.022 A 
BRANCH  61  64
ATOM     64  S   UNL A   1      41.782  22.363  26.484  1.00  0.00     0.127 S 
ATOM     65  O   UNL A   1      40.332  22.398  26.309  1.00  0.00    -0.237 OA
ATOM     66  O   UNL A   1      42.528  21.933  25.300  1.00  0.00    -0.237 OA
ATOM     67  O   UNL A   1      42.253  21.787  27.735  1.00  0.00    -0.744 OA
ENDBRANCH  61  64
ENDBRANCH  43  57
BRANCH  44  68
ATOM     68  C   UNL A   1      39.241  32.022  35.286  1.00  0.00     0.023 A 
ATOM     69  C   UNL A   1      38.379  31.445  36.237  1.00  0.00     0.012 A 
ATOM     70  C   UNL A   1      39.695  33.341  35.481  1.00  0.00     0.148 A 
ATOM     71  C   UNL A   1      37.962  32.171  37.352  1.00  0.00     0.002 A 
ATOM     72  C   UNL A   1      39.325  34.038  36.625  1.00  0.00     0.091 A 
ATOM     73  F   UNL A   1      40.496  33.884  34.552  1.00  0.00    -0.205 F 
ATOM     74  C   UNL A   1      38.447  33.462  37.555  1.00  0.00     0.022 A 
BRANCH  72  75
ATOM     75  S   UNL A   1      40.028  35.642  37.033  1.00  0.00     0.127 S 
ATOM     76  O   UNL A   1      39.591  36.457  35.904  1.00  0.00    -0.237 OA
ATOM     77  O   UNL A   1      39.372  35.949  38.305  1.00  0.00    -0.237 OA
ATOM     78  O   UNL A   1      41.463  35.416  37.144  1.00  0.00    -0.744 OA
ENDBRANCH  72  75
ENDBRANCH  44  68
BRANCH  56  79
ATOM     79  C   UNL A   1      44.605  27.670  34.298  1.00  0.00     0.023 A 
ATOM     80  C   UNL A   1      45.788  28.432  34.363  1.00  0.00     0.012 A 
ATOM     81  C   UNL A   1      44.468  26.533  35.118  1.00  0.00     0.148 A 
ATOM     82  C   UNL A   1      46.829  28.053  35.209  1.00  0.00     0.002 A 
ATOM     83  C   UNL A   1      45.493  26.185  35.988  1.00  0.00     0.091 A 
ATOM     84  F   UNL A   1      43.343  25.808  35.024  1.00  0.00    -0.205 F 
ATOM     85  C   UNL A   1      46.678  26.937  36.030  1.00  0.00     0.022 A 
BRANCH  83  86
ATOM     86  S   UNL A   1      45.345  24.813  37.139  1.00  0.00     0.127 S 
ATOM     87  O   UNL A   1      46.633  24.859  37.828  1.00  0.00    -0.237 OA
ATOM     88  O   UNL A   1      44.200  25.211  37.959  1.00  0.00    -0.237 OA
ATOM     89  O   UNL A   1      45.113  23.631  36.320  1.00  0.00    -0.744 OA
ENDBRANCH  83  86
ENDBRANCH  56  79
ENDBRANCH  30  31
ENDBRANCH  23  25
ENDBRANCH  22  23
ENDBRANCH  21  22
ENDBRANCH   1  21
TORSDOF 17
ENDMDL
MODEL 3
REMARK VINA RESULT:     -11.1      1.535      1.948
REMARK SMILES C[C@H](C(=O)OCCOC(=O)c1ccc(-c2c3nc(c(-c4cccc(S(=O)(=O)[O-])c4F)c4ccc([nH]4)c(-c4cccc(S(=O)(=O)[O-])c4F)c4nc(c(-c5cccc(S(=O)(=O)[O-])c5F)c5ccc2[nH]5)C=C4)C=C3)cc1)[C@@H](C)Nc1cccc2ccccc12
REMARK SMILES IDX 6 1 5 2 3 3 4 4 2 5 1 6 74 7 75 8 76 9 77 11 78 12 86 13
REMARK SMILES IDX 79 14 81 15 85 16 80 17 82 18 84 19 83 20 7 21 8 22 9 23
REMARK SMILES IDX 10 24 11 25 12 26 73 27 13 28 72 29 14 30 15 31 16 32 66 33
REMARK SMILES IDX 17 34 71 35 65 36 67 37 18 38 70 39 64 40 63 41 19 43 51 44
REMARK SMILES IDX 31 45 50 46 32 47 35 48 49 49 68 50 33 51 34 52 48 54 69 55
REMARK SMILES IDX 36 56 20 57 21 58 29 59 22 60 24 61 30 62 23 63 25 64 26 65
REMARK SMILES IDX 27 66 28 67 52 68 53 69 61 70 54 71 56 72 62 73 55 74 57 75
REMARK SMILES IDX 58 76 59 77 60 78 37 79 38 80 46 81 39 82 41 83 47 84 40 85
REMARK SMILES IDX 42 86 43 87 44 88 45 89
REMARK H PARENT 76 10 67 42 35 53
REMARK Flexibility Score: inf
ROOT
ATOM      1  C   UNL A   1      35.112  21.337  25.705  1.00  0.00     0.274 C 
ENDROOT
BRANCH   1   2
ATOM      2  O   UNL A   1      34.282  21.711  24.589  1.00  0.00    -0.462 OA
BRANCH   2   3
ATOM      3  C   UNL A   1      34.147  23.051  24.400  1.00  0.00     0.310 C 
ATOM      4  O   UNL A   1      35.065  23.855  24.517  1.00  0.00    -0.252 OA
BRANCH   3   5
ATOM      5  C   UNL A   1      32.756  23.458  23.937  1.00  0.00     0.118 C 
ATOM      6  C   UNL A   1      32.046  22.350  23.149  1.00  0.00     0.022 C 
BRANCH   5   7
ATOM      7  C   UNL A   1      31.887  23.991  25.096  1.00  0.00     0.090 C 
ATOM      8  C   UNL A   1      31.672  22.969  26.221  1.00  0.00     0.031 C 
BRANCH   7   9
ATOM      9  N   UNL A   1      32.593  25.114  25.705  1.00  0.00    -0.381 N 
ATOM     10  H   UNL A   1      33.222  24.863  26.419  1.00  0.00     0.160 HD
BRANCH   9  11
ATOM     11  C   UNL A   1      32.528  26.472  25.450  1.00  0.00     0.042 A 
ATOM     12  C   UNL A   1      33.625  27.209  25.949  1.00  0.00     0.026 A 
ATOM     13  C   UNL A   1      31.511  27.174  24.731  1.00  0.00     0.005 A 
ATOM     14  C   UNL A   1      33.734  28.584  25.787  1.00  0.00     0.003 A 
ATOM     15  C   UNL A   1      31.636  28.586  24.580  1.00  0.00    -0.016 A 
ATOM     16  C   UNL A   1      30.335  26.596  24.190  1.00  0.00     0.011 A 
ATOM     17  C   UNL A   1      32.737  29.268  25.111  1.00  0.00     0.009 A 
ATOM     18  C   UNL A   1      30.646  29.328  23.914  1.00  0.00     0.009 A 
ATOM     19  C   UNL A   1      29.371  27.341  23.504  1.00  0.00     0.001 A 
ATOM     20  C   UNL A   1      29.524  28.711  23.370  1.00  0.00     0.001 A 
ENDBRANCH   9  11
ENDBRANCH   7   9
ENDBRANCH   5   7
ENDBRANCH   3   5
ENDBRANCH   2   3
ENDBRANCH   1   2
BRANCH   1  21
ATOM     21  C   UNL A   1      36.276  20.474  25.218  1.00  0.00     0.275 C 
BRANCH  21  22
ATOM     22  O   UNL A   1      37.419  21.306  24.943  1.00  0.00    -0.458 OA
BRANCH  22  23
ATOM     23  C   UNL A   1      38.554  21.001  25.614  1.00  0.00     0.338 C 
ATOM     24  O   UNL A   1      39.026  19.878  25.760  1.00  0.00    -0.246 OA
BRANCH  23  25
ATOM     25  C   UNL A   1      39.204  22.219  26.150  1.00  0.00     0.060 A 
ATOM     26  C   UNL A   1      38.685  23.496  25.919  1.00  0.00     0.016 A 
ATOM     27  C   UNL A   1      40.411  22.088  26.839  1.00  0.00     0.016 A 
ATOM     28  C   UNL A   1      39.412  24.631  26.287  1.00  0.00     0.010 A 
ATOM     29  C   UNL A   1      41.076  23.224  27.310  1.00  0.00     0.010 A 
ATOM     30  C   UNL A   1      40.602  24.514  27.019  1.00  0.00    -0.014 A 
BRANCH  30  31
ATOM     31  C   UNL A   1      41.344  25.712  27.519  1.00  0.00     0.031 A 
ATOM     32  C   UNL A   1      40.642  26.748  28.362  1.00  0.00     0.074 A 
ATOM     33  C   UNL A   1      42.623  25.924  27.147  1.00  0.00     0.049 A 
ATOM     34  N   UNL A   1      41.023  27.961  28.671  1.00  0.00    -0.248 NA
ATOM     35  C   UNL A   1      39.326  26.379  28.912  1.00  0.00     0.031 C 
ATOM     36  C   UNL A   1      43.434  25.018  26.331  1.00  0.00     0.029 A 
ATOM     37  N   UNL A   1      43.460  26.990  27.379  1.00  0.00    -0.354 N 
ATOM     38  C   UNL A   1      39.964  28.531  29.370  1.00  0.00     0.074 A 
ATOM     39  C   UNL A   1      38.930  27.521  29.458  1.00  0.00     0.031 C 
ATOM     40  C   UNL A   1      44.646  25.557  26.136  1.00  0.00     0.029 A 
ATOM     41  C   UNL A   1      44.675  26.885  26.739  1.00  0.00     0.049 A 
ATOM     42  H   UNL A   1      43.215  27.756  27.948  1.00  0.00     0.167 HD
ATOM     43  C   UNL A   1      39.862  29.777  29.894  1.00  0.00     0.034 A 
ATOM     44  C   UNL A   1      45.684  27.767  26.601  1.00  0.00     0.034 A 
ATOM     45  C   UNL A   1      40.923  30.749  29.883  1.00  0.00     0.049 A 
ATOM     46  C   UNL A   1      45.558  29.130  27.217  1.00  0.00     0.074 A 
ATOM     47  C   UNL A   1      40.937  32.012  30.451  1.00  0.00     0.029 A 
ATOM     48  N   UNL A   1      42.162  30.566  29.289  1.00  0.00    -0.354 N 
ATOM     49  N   UNL A   1      44.573  29.627  27.924  1.00  0.00    -0.248 NA
ATOM     50  C   UNL A   1      46.688  30.051  27.028  1.00  0.00     0.031 C 
ATOM     51  C   UNL A   1      42.183  32.595  30.195  1.00  0.00     0.029 A 
ATOM     52  C   UNL A   1      42.948  31.691  29.477  1.00  0.00     0.049 A 
ATOM     53  H   UNL A   1      42.441  29.756  28.804  1.00  0.00     0.167 HD
ATOM     54  C   UNL A   1      44.972  30.909  28.282  1.00  0.00     0.074 A 
ATOM     55  C   UNL A   1      46.300  31.103  27.736  1.00  0.00     0.031 C 
ATOM     56  C   UNL A   1      44.290  31.850  28.979  1.00  0.00     0.034 A 
BRANCH  43  57
ATOM     57  C   UNL A   1      38.567  30.159  30.562  1.00  0.00     0.023 A 
ATOM     58  C   UNL A   1      38.334  29.790  31.901  1.00  0.00     0.012 A 
ATOM     59  C   UNL A   1      37.613  30.950  29.888  1.00  0.00     0.148 A 
ATOM     60  C   UNL A   1      37.162  30.178  32.551  1.00  0.00     0.002 A 
ATOM     61  C   UNL A   1      36.466  31.367  30.554  1.00  0.00     0.091 A 
ATOM     62  F   UNL A   1      37.841  31.274  28.606  1.00  0.00    -0.205 F 
ATOM     63  C   UNL A   1      36.235  30.974  31.882  1.00  0.00     0.022 A 
BRANCH  61  64
ATOM     64  S   UNL A   1      35.254  32.459  29.799  1.00  0.00     0.127 S 
ATOM     65  O   UNL A   1      34.632  31.574  28.816  1.00  0.00    -0.237 OA
ATOM     66  O   UNL A   1      34.398  32.806  30.935  1.00  0.00    -0.237 OA
ATOM     67  O   UNL A   1      36.012  33.575  29.253  1.00  0.00    -0.744 OA
ENDBRANCH  61  64
ENDBRANCH  43  57
BRANCH  44  68
ATOM     68  C   UNL A   1      46.915  27.371  25.857  1.00  0.00     0.023 A 
ATOM     69  C   UNL A   1      47.867  26.554  26.494  1.00  0.00     0.012 A 
ATOM     70  C   UNL A   1      47.119  27.746  24.515  1.00  0.00     0.148 A 
ATOM     71  C   UNL A   1      49.010  26.132  25.815  1.00  0.00     0.002 A 
ATOM     72  C   UNL A   1      48.228  27.271  23.825  1.00  0.00     0.091 A 
ATOM     73  F   UNL A   1      46.213  28.545  23.932  1.00  0.00    -0.205 F 
ATOM     74  C   UNL A   1      49.183  26.477  24.476  1.00  0.00     0.022 A 
BRANCH  72  75
ATOM     75  S   UNL A   1      48.441  27.545  22.061  1.00  0.00     0.127 S 
ATOM     76  O   UNL A   1      47.190  28.208  21.706  1.00  0.00    -0.237 OA
ATOM     77  O   UNL A   1      49.626  28.403  22.025  1.00  0.00    -0.237 OA
ATOM     78  O   UNL A   1      48.650  26.221  21.489  1.00  0.00    -0.744 OA
ENDBRANCH  72  75
ENDBRANCH  44  68
BRANCH  56  79
ATOM     79  C   UNL A   1      44.976  33.167  29.222  1.00  0.00     0.023 A 
ATOM     80  C   UNL A   1      45.837  33.310  30.327  1.00  0.00     0.012 A 
ATOM     81  C   UNL A   1      44.819  34.240  28.322  1.00  0.00     0.148 A 
ATOM     82  C   UNL A   1      46.510  34.510  30.549  1.00  0.00     0.002 A 
ATOM     83  C   UNL A   1      45.526  35.419  28.527  1.00  0.00     0.091 A 
ATOM     84  F   UNL A   1      43.977  34.091  27.288  1.00  0.00    -0.205 F 
ATOM     85  C   UNL A   1      46.365  35.560  29.644  1.00  0.00     0.022 A 
BRANCH  83  86
ATOM     86  S   UNL A   1      45.460  36.787  27.364  1.00  0.00     0.127 S 
ATOM     87  O   UNL A   1      46.107  37.856  28.123  1.00  0.00    -0.237 OA
ATOM     88  O   UNL A   1      46.243  36.280  26.236  1.00  0.00    -0.237 OA
ATOM     89  O   UNL A   1      44.048  36.990  27.071  1.00  0.00    -0.744 OA
ENDBRANCH  83  86
ENDBRANCH  56  79
ENDBRANCH  30  31
ENDBRANCH  23  25
ENDBRANCH  22  23
ENDBRANCH  21  22
ENDBRANCH   1  21
TORSDOF 17
ENDMDL
