MODEL 1
REMARK VINA RESULT:     -10.9      0.000      0.000
REMARK SMILES Cc1ccc(N2C(=O)N=C(OCCOC(=O)c3ccc(-c4c5nc(c(-c6cccc(S(=O)(=O)[O-])c6F)c6ccc([nH]6)c(-c6cccc(S(=O)(=O)[O-])c6F)c6nc(c(-c7cccc(S(=O)(=O)[O-])c7F)c7ccc4[nH]7)C=C6)C=C5)cc3)/C(=C\c3ccccc3OCc3cccc(C(=O)[O-])c3)C2=O)cc1
REMARK SMILES IDX 12 1 11 2 10 3 6 4 7 5 99 6 8 7 9 8 80 9 100 10 81 11 5 12
REMARK SMILES IDX 1 13 2 14 3 15 102 16 4 17 101 18 82 19 83 20 87 21 84 22
REMARK SMILES IDX 86 23 85 24 88 25 89 26 90 27 91 28 98 29 92 30 94 31 93 32
REMARK SMILES IDX 95 33 96 34 97 35 13 36 14 37 15 38 16 39 17 40 18 41 79 42
REMARK SMILES IDX 19 43 78 44 20 45 21 46 22 47 72 48 23 49 77 50 71 51 73 52
REMARK SMILES IDX 24 53 76 54 70 55 69 56 25 58 57 59 37 60 56 61 38 62 41 63
REMARK SMILES IDX 55 64 74 65 39 66 40 67 54 69 75 70 42 71 26 72 27 73 35 74
REMARK SMILES IDX 28 75 30 76 36 77 29 78 31 79 32 80 33 81 34 82 58 83 59 84
REMARK SMILES IDX 67 85 60 86 62 87 68 88 61 89 63 90 64 91 65 92 66 93 43 94
REMARK SMILES IDX 44 95 52 96 45 97 47 98 53 99 46 100 48 101 49 102 50 103
REMARK SMILES IDX 51 104
REMARK H PARENT 73 57 41 68
REMARK Flexibility Score: inf
ROOT
ATOM      1  C   UNL A   1      50.781  29.674  26.568  1.00  0.00     0.273 C 
ENDROOT
BRANCH   1   2
ATOM      2  O   UNL A   1      49.402  29.820  26.412  1.00  0.00    -0.473 OA
BRANCH   2   3
ATOM      3  C   UNL A   1      48.833  28.594  26.487  1.00  0.00     0.231 C 
ATOM      4  N   UNL A   1      47.274  25.479  26.384  1.00  0.00    -0.226 N 
ATOM      5  C   UNL A   1      48.990  25.697  26.763  1.00  0.00     0.358 C 
ATOM      6  C   UNL A   1      46.166  26.688  25.966  1.00  0.00     0.272 C 
ATOM      7  O   UNL A   1      49.694  24.720  27.025  1.00  0.00    -0.245 OA
ATOM      8  N   UNL A   1      49.667  27.332  26.752  1.00  0.00    -0.156 NA
ATOM      9  C   UNL A   1      46.817  28.490  26.137  1.00  0.00     0.103 C 
ATOM     10  O   UNL A   1      45.101  26.502  25.374  1.00  0.00    -0.268 OA
ATOM     11  C   UNL A   1      45.603  29.089  26.028  1.00  0.00     0.031 C 
BRANCH   4  12
ATOM     12  C   UNL A   1      46.755  24.130  26.073  1.00  0.00     0.054 A 
ATOM     13  C   UNL A   1      44.415  20.688  24.686  1.00  0.00     0.044 C 
ATOM     14  C   UNL A   1      45.294  21.804  25.189  1.00  0.00    -0.051 A 
ATOM     15  C   UNL A   1      45.196  22.280  26.505  1.00  0.00     0.005 A 
ATOM     16  C   UNL A   1      46.140  22.488  24.319  1.00  0.00     0.005 A 
ATOM     17  C   UNL A   1      45.937  23.409  26.952  1.00  0.00     0.027 A 
ATOM     18  C   UNL A   1      46.847  23.629  24.754  1.00  0.00     0.027 A 
ENDBRANCH   4  12
BRANCH  11  19
ATOM     19  C   UNL A   1      45.170  30.150  26.869  1.00  0.00     0.018 A 
ATOM     20  C   UNL A   1      46.069  30.939  27.621  1.00  0.00     0.012 A 
ATOM     21  C   UNL A   1      43.805  30.205  27.012  1.00  0.00     0.127 A 
ATOM     22  C   UNL A   1      45.637  31.615  28.756  1.00  0.00     0.001 A 
ATOM     23  C   UNL A   1      43.459  30.767  28.279  1.00  0.00     0.047 A 
ATOM     24  C   UNL A   1      44.328  31.453  29.138  1.00  0.00     0.004 A 
BRANCH  21  25
ATOM     25  O   UNL A   1      42.866  29.491  26.203  1.00  0.00    -0.488 OA
BRANCH  25  26
ATOM     26  C   UNL A   1      42.273  28.034  25.835  1.00  0.00     0.265 C 
BRANCH  26  27
ATOM     27  C   UNL A   1      42.469  26.593  26.755  1.00  0.00    -0.010 A 
ATOM     28  C   UNL A   1      42.908  26.503  28.065  1.00  0.00     0.007 A 
ATOM     29  C   UNL A   1      41.686  25.452  26.496  1.00  0.00     0.017 A 
ATOM     30  C   UNL A   1      42.616  25.346  28.876  1.00  0.00     0.001 A 
ATOM     31  C   UNL A   1      41.194  24.314  27.192  1.00  0.00    -0.002 A 
ATOM     32  C   UNL A   1      41.791  24.261  28.444  1.00  0.00     0.010 A 
BRANCH  31  33
ATOM     33  C   UNL A   1      39.620  23.539  26.967  1.00  0.00     0.071 C 
ATOM     34  O   UNL A   1      38.836  24.408  27.470  1.00  0.00    -0.545 OA
ATOM     35  O   UNL A   1      39.038  21.764  26.215  1.00  0.00    -0.545 OA
ENDBRANCH  31  33
ENDBRANCH  26  27
ENDBRANCH  25  26
ENDBRANCH  21  25
ENDBRANCH  11  19
ENDBRANCH   2   3
ENDBRANCH   1   2
BRANCH   1  36
ATOM     36  C   UNL A   1      51.174  30.572  27.745  1.00  0.00     0.274 C 
BRANCH  36  37
ATOM     37  O   UNL A   1      50.246  30.532  29.018  1.00  0.00    -0.458 OA
BRANCH  37  38
ATOM     38  C   UNL A   1      49.882  29.578  30.238  1.00  0.00     0.338 C 
ATOM     39  O   UNL A   1      50.741  29.966  31.053  1.00  0.00    -0.246 OA
BRANCH  38  40
ATOM     40  C   UNL A   1      48.276  28.154  30.259  1.00  0.00     0.060 A 
ATOM     41  C   UNL A   1      47.040  27.937  29.548  1.00  0.00     0.016 A 
ATOM     42  C   UNL A   1      48.280  26.723  31.032  1.00  0.00     0.016 A 
ATOM     43  C   UNL A   1      46.038  26.893  29.890  1.00  0.00     0.010 A 
ATOM     44  C   UNL A   1      47.374  25.664  31.262  1.00  0.00     0.010 A 
ATOM     45  C   UNL A   1      46.113  26.005  31.023  1.00  0.00    -0.014 A 
BRANCH  45  46
ATOM     46  C   UNL A   1      45.034  25.601  32.218  1.00  0.00     0.031 A 
ATOM     47  C   UNL A   1      44.831  26.848  32.953  1.00  0.00     0.074 A 
ATOM     48  C   UNL A   1      44.776  24.512  33.122  1.00  0.00     0.049 A 
ATOM     49  N   UNL A   1      44.261  27.043  34.496  1.00  0.00    -0.248 NA
ATOM     50  C   UNL A   1      45.050  28.668  32.088  1.00  0.00     0.031 C 
ATOM     51  C   UNL A   1      43.611  24.349  34.012  1.00  0.00     0.029 A 
ATOM     52  N   UNL A   1      45.401  23.270  33.439  1.00  0.00    -0.354 N 
ATOM     53  C   UNL A   1      43.772  28.827  34.785  1.00  0.00     0.074 A 
ATOM     54  C   UNL A   1      44.366  29.781  33.149  1.00  0.00     0.031 C 
ATOM     55  C   UNL A   1      43.761  23.272  34.819  1.00  0.00     0.029 A 
ATOM     56  C   UNL A   1      45.081  22.700  34.643  1.00  0.00     0.049 A 
ATOM     57  H   UNL A   1      46.035  22.841  32.820  1.00  0.00     0.167 HD
ATOM     58  C   UNL A   1      42.590  28.866  35.488  1.00  0.00     0.034 A 
ATOM     59  C   UNL A   1      45.919  22.086  35.544  1.00  0.00     0.034 A 
ATOM     60  C   UNL A   1      42.524  27.626  36.286  1.00  0.00     0.049 A 
ATOM     61  C   UNL A   1      45.749  22.751  36.896  1.00  0.00     0.074 A 
ATOM     62  C   UNL A   1      41.791  26.448  36.188  1.00  0.00     0.029 A 
ATOM     63  N   UNL A   1      43.589  27.329  37.128  1.00  0.00    -0.354 N 
ATOM     64  N   UNL A   1      44.857  23.671  37.111  1.00  0.00    -0.248 NA
ATOM     65  C   UNL A   1      46.609  22.544  38.061  1.00  0.00     0.031 C 
ATOM     66  C   UNL A   1      42.428  25.458  36.994  1.00  0.00     0.029 A 
ATOM     67  C   UNL A   1      43.546  26.019  37.586  1.00  0.00     0.049 A 
ATOM     68  H   UNL A   1      44.294  27.973  37.371  1.00  0.00     0.167 HD
ATOM     69  C   UNL A   1      45.155  24.348  38.257  1.00  0.00     0.074 A 
ATOM     70  C   UNL A   1      46.192  23.533  38.871  1.00  0.00     0.031 C 
ATOM     71  C   UNL A   1      44.569  25.553  38.532  1.00  0.00     0.034 A 
BRANCH  58  72
ATOM     72  C   UNL A   1      41.360  29.677  35.102  1.00  0.00     0.023 A 
ATOM     73  C   UNL A   1      41.066  30.819  35.885  1.00  0.00     0.012 A 
ATOM     74  C   UNL A   1      40.425  29.384  34.086  1.00  0.00     0.148 A 
ATOM     75  C   UNL A   1      39.907  31.586  35.712  1.00  0.00     0.002 A 
ATOM     76  C   UNL A   1      39.245  30.126  33.930  1.00  0.00     0.091 A 
ATOM     77  F   UNL A   1      40.678  28.406  33.217  1.00  0.00    -0.205 F 
ATOM     78  C   UNL A   1      38.986  31.231  34.742  1.00  0.00     0.022 A 
BRANCH  76  79
ATOM     79  S   UNL A   1      37.968  29.662  32.743  1.00  0.00     0.127 S 
ATOM     80  O   UNL A   1      37.570  28.331  33.208  1.00  0.00    -0.237 OA
ATOM     81  O   UNL A   1      36.960  30.700  32.943  1.00  0.00    -0.237 OA
ATOM     82  O   UNL A   1      38.630  29.652  31.443  1.00  0.00    -0.744 OA
ENDBRANCH  76  79
ENDBRANCH  58  72
BRANCH  59  83
ATOM     83  C   UNL A   1      47.229  21.460  35.106  1.00  0.00     0.023 A 
ATOM     84  C   UNL A   1      47.213  20.131  34.614  1.00  0.00     0.012 A 
ATOM     85  C   UNL A   1      48.423  22.201  34.941  1.00  0.00     0.148 A 
ATOM     86  C   UNL A   1      48.254  19.632  33.815  1.00  0.00     0.002 A 
ATOM     87  C   UNL A   1      49.458  21.697  34.142  1.00  0.00     0.091 A 
ATOM     88  F   UNL A   1      48.477  23.447  35.423  1.00  0.00    -0.205 F 
ATOM     89  C   UNL A   1      49.350  20.437  33.535  1.00  0.00     0.022 A 
BRANCH  87  90
ATOM     90  S   UNL A   1      50.801  22.728  33.534  1.00  0.00     0.127 S 
ATOM     91  O   UNL A   1      51.488  23.120  34.761  1.00  0.00    -0.237 OA
ATOM     92  O   UNL A   1      51.504  21.751  32.713  1.00  0.00    -0.237 OA
ATOM     93  O   UNL A   1      50.175  23.823  32.809  1.00  0.00    -0.744 OA
ENDBRANCH  87  90
ENDBRANCH  59  83
BRANCH  71  94
ATOM     94  C   UNL A   1      44.896  26.435  39.720  1.00  0.00     0.023 A 
ATOM     95  C   UNL A   1      44.189  26.408  40.931  1.00  0.00     0.012 A 
ATOM     96  C   UNL A   1      46.028  27.291  39.670  1.00  0.00     0.148 A 
ATOM     97  C   UNL A   1      44.523  27.255  41.994  1.00  0.00     0.002 A 
ATOM     98  C   UNL A   1      46.462  27.981  40.787  1.00  0.00     0.091 A 
ATOM     99  F   UNL A   1      46.679  27.491  38.515  1.00  0.00    -0.205 F 
ATOM    100  C   UNL A   1      45.680  28.018  41.935  1.00  0.00     0.022 A 
BRANCH  98 101
ATOM    101  S   UNL A   1      48.109  28.694  40.828  1.00  0.00     0.127 S 
ATOM    102  O   UNL A   1      47.998  29.764  39.839  1.00  0.00    -0.237 OA
ATOM    103  O   UNL A   1      48.214  29.149  42.215  1.00  0.00    -0.237 OA
ATOM    104  O   UNL A   1      49.006  27.595  40.493  1.00  0.00    -0.744 OA
ENDBRANCH  98 101
ENDBRANCH  71  94
ENDBRANCH  45  46
ENDBRANCH  38  40
ENDBRANCH  37  38
ENDBRANCH  36  37
ENDBRANCH   1  36
TORSDOF 19
ENDMDL
MODEL 2
REMARK VINA RESULT:     -10.8      6.081     13.984
REMARK SMILES Cc1ccc(N2C(=O)N=C(OCCOC(=O)c3ccc(-c4c5nc(c(-c6cccc(S(=O)(=O)[O-])c6F)c6ccc([nH]6)c(-c6cccc(S(=O)(=O)[O-])c6F)c6nc(c(-c7cccc(S(=O)(=O)[O-])c7F)c7ccc4[nH]7)C=C6)C=C5)cc3)/C(=C\c3ccccc3OCc3cccc(C(=O)[O-])c3)C2=O)cc1
REMARK SMILES IDX 12 1 11 2 10 3 6 4 7 5 99 6 8 7 9 8 80 9 100 10 81 11 5 12
REMARK SMILES IDX 1 13 2 14 3 15 102 16 4 17 101 18 82 19 83 20 87 21 84 22
REMARK SMILES IDX 86 23 85 24 88 25 89 26 90 27 91 28 98 29 92 30 94 31 93 32
REMARK SMILES IDX 95 33 96 34 97 35 13 36 14 37 15 38 16 39 17 40 18 41 79 42
REMARK SMILES IDX 19 43 78 44 20 45 21 46 22 47 72 48 23 49 77 50 71 51 73 52
REMARK SMILES IDX 24 53 76 54 70 55 69 56 25 58 57 59 37 60 56 61 38 62 41 63
REMARK SMILES IDX 55 64 74 65 39 66 40 67 54 69 75 70 42 71 26 72 27 73 35 74
REMARK SMILES IDX 28 75 30 76 36 77 29 78 31 79 32 80 33 81 34 82 58 83 59 84
REMARK SMILES IDX 67 85 60 86 62 87 68 88 61 89 63 90 64 91 65 92 66 93 43 94
REMARK SMILES IDX 44 95 52 96 45 97 47 98 53 99 46 100 48 101 49 102 50 103
REMARK SMILES IDX 51 104
REMARK H PARENT 73 57 41 68
REMARK Flexibility Score: inf
ROOT
ATOM      1  C   UNL A   1      46.727  19.208  38.259  1.00  0.00     0.273 C 
ENDROOT
BRANCH   1   2
ATOM      2  O   UNL A   1      46.046  19.663  39.389  1.00  0.00    -0.473 OA
BRANCH   2   3
ATOM      3  C   UNL A   1      45.853  18.614  40.222  1.00  0.00     0.231 C 
ATOM      4  N   UNL A   1      45.342  16.120  42.601  1.00  0.00    -0.226 N 
ATOM      5  C   UNL A   1      44.291  16.355  41.196  1.00  0.00     0.358 C 
ATOM      6  C   UNL A   1      46.676  17.064  43.039  1.00  0.00     0.272 C 
ATOM      7  O   UNL A   1      43.331  15.605  41.010  1.00  0.00    -0.245 OA
ATOM      8  N   UNL A   1      44.643  17.680  40.076  1.00  0.00    -0.156 NA
ATOM      9  C   UNL A   1      47.204  18.385  41.746  1.00  0.00     0.103 C 
ATOM     10  O   UNL A   1      47.170  17.117  44.167  1.00  0.00    -0.268 OA
ATOM     11  C   UNL A   1      48.408  18.662  42.309  1.00  0.00     0.031 C 
BRANCH   4  12
ATOM     12  C   UNL A   1      44.903  15.245  43.710  1.00  0.00     0.054 A 
ATOM     13  C   UNL A   1      43.410  11.952  46.194  1.00  0.00     0.044 C 
ATOM     14  C   UNL A   1      43.950  13.132  45.429  1.00  0.00    -0.051 A 
ATOM     15  C   UNL A   1      43.122  14.195  45.037  1.00  0.00     0.005 A 
ATOM     16  C   UNL A   1      45.265  13.139  44.968  1.00  0.00     0.005 A 
ATOM     17  C   UNL A   1      43.597  15.253  44.213  1.00  0.00     0.027 A 
ATOM     18  C   UNL A   1      45.724  14.171  44.122  1.00  0.00     0.027 A 
ENDBRANCH   4  12
BRANCH  11  19
ATOM     19  C   UNL A   1      49.613  18.797  41.568  1.00  0.00     0.018 A 
ATOM     20  C   UNL A   1      49.752  18.312  40.249  1.00  0.00     0.012 A 
ATOM     21  C   UNL A   1      50.660  19.271  42.320  1.00  0.00     0.127 A 
ATOM     22  C   UNL A   1      51.010  18.020  39.732  1.00  0.00     0.001 A 
ATOM     23  C   UNL A   1      51.903  18.786  41.808  1.00  0.00     0.047 A 
ATOM     24  C   UNL A   1      52.094  18.179  40.558  1.00  0.00     0.004 A 
BRANCH  21  25
ATOM     25  O   UNL A   1      50.539  19.856  43.620  1.00  0.00    -0.488 OA
BRANCH  25  26
ATOM     26  C   UNL A   1      50.221  19.567  45.178  1.00  0.00     0.265 C 
BRANCH  26  27
ATOM     27  C   UNL A   1      48.992  20.315  46.122  1.00  0.00    -0.010 A 
ATOM     28  C   UNL A   1      48.957  21.636  46.536  1.00  0.00     0.007 A 
ATOM     29  C   UNL A   1      47.663  19.853  46.085  1.00  0.00     0.017 A 
ATOM     30  C   UNL A   1      47.719  22.270  46.917  1.00  0.00     0.001 A 
ATOM     31  C   UNL A   1      46.350  20.358  46.288  1.00  0.00    -0.002 A 
ATOM     32  C   UNL A   1      46.439  21.640  46.814  1.00  0.00     0.010 A 
BRANCH  31  33
ATOM     33  C   UNL A   1      44.895  19.908  45.388  1.00  0.00     0.071 C 
ATOM     34  O   UNL A   1      44.509  18.878  46.031  1.00  0.00    -0.545 OA
ATOM     35  O   UNL A   1      43.990  20.646  43.748  1.00  0.00    -0.545 OA
ENDBRANCH  31  33
ENDBRANCH  26  27
ENDBRANCH  25  26
ENDBRANCH  21  25
ENDBRANCH  11  19
ENDBRANCH   2   3
ENDBRANCH   1   2
BRANCH   1  36
ATOM     36  C   UNL A   1      45.707  19.213  37.116  1.00  0.00     0.274 C 
BRANCH  36  37
ATOM     37  O   UNL A   1      46.252  19.522  35.670  1.00  0.00    -0.458 OA
BRANCH  37  38
ATOM     38  C   UNL A   1      46.404  20.735  34.652  1.00  0.00     0.338 C 
ATOM     39  O   UNL A   1      47.379  20.321  33.997  1.00  0.00    -0.246 OA
BRANCH  38  40
ATOM     40  C   UNL A   1      45.124  22.457  34.580  1.00  0.00     0.060 A 
ATOM     41  C   UNL A   1      43.717  22.727  34.418  1.00  0.00     0.016 A 
ATOM     42  C   UNL A   1      45.541  23.974  34.992  1.00  0.00     0.016 A 
ATOM     43  C   UNL A   1      43.126  24.085  34.278  1.00  0.00     0.010 A 
ATOM     44  C   UNL A   1      44.947  25.255  34.979  1.00  0.00     0.010 A 
ATOM     45  C   UNL A   1      43.873  25.316  34.200  1.00  0.00    -0.014 A 
BRANCH  45  46
ATOM     46  C   UNL A   1      43.836  26.599  33.148  1.00  0.00     0.031 A 
ATOM     47  C   UNL A   1      42.736  27.430  33.636  1.00  0.00     0.074 A 
ATOM     48  C   UNL A   1      43.984  26.850  31.739  1.00  0.00     0.049 A 
ATOM     49  N   UNL A   1      41.879  28.579  32.807  1.00  0.00    -0.248 NA
ATOM     50  C   UNL A   1      42.164  27.445  35.580  1.00  0.00     0.031 C 
ATOM     51  C   UNL A   1      44.053  28.162  31.070  1.00  0.00     0.029 A 
ATOM     52  N   UNL A   1      44.179  26.057  30.570  1.00  0.00    -0.354 N 
ATOM     53  C   UNL A   1      40.907  29.647  33.999  1.00  0.00     0.074 A 
ATOM     54  C   UNL A   1      41.159  28.781  35.767  1.00  0.00     0.031 C 
ATOM     55  C   UNL A   1      44.060  28.022  29.723  1.00  0.00     0.029 A 
ATOM     56  C   UNL A   1      43.862  26.632  29.368  1.00  0.00     0.049 A 
ATOM     57  H   UNL A   1      44.527  25.138  30.625  1.00  0.00     0.167 HD
ATOM     58  C   UNL A   1      40.992  30.962  33.604  1.00  0.00     0.034 A 
ATOM     59  C   UNL A   1      43.210  26.063  28.298  1.00  0.00     0.034 A 
ATOM     60  C   UNL A   1      41.205  30.959  32.143  1.00  0.00     0.049 A 
ATOM     61  C   UNL A   1      42.017  26.929  27.943  1.00  0.00     0.074 A 
ATOM     62  C   UNL A   1      42.296  31.213  31.321  1.00  0.00     0.029 A 
ATOM     63  N   UNL A   1      40.299  30.264  31.349  1.00  0.00    -0.354 N 
ATOM     64  N   UNL A   1      41.782  28.066  28.530  1.00  0.00    -0.248 NA
ATOM     65  C   UNL A   1      40.946  26.565  27.015  1.00  0.00     0.031 C 
ATOM     66  C   UNL A   1      42.019  30.673  30.030  1.00  0.00     0.029 A 
ATOM     67  C   UNL A   1      40.764  30.090  30.053  1.00  0.00     0.049 A 
ATOM     68  H   UNL A   1      39.429  29.933  31.670  1.00  0.00     0.167 HD
ATOM     69  C   UNL A   1      40.492  28.446  28.304  1.00  0.00     0.074 A 
ATOM     70  C   UNL A   1      40.047  27.534  27.262  1.00  0.00     0.031 C 
ATOM     71  C   UNL A   1      39.907  29.422  29.065  1.00  0.00     0.034 A 
BRANCH  58  72
ATOM     72  C   UNL A   1      41.382  32.129  34.501  1.00  0.00     0.023 A 
ATOM     73  C   UNL A   1      42.577  31.999  35.249  1.00  0.00     0.012 A 
ATOM     74  C   UNL A   1      40.650  33.314  34.734  1.00  0.00     0.148 A 
ATOM     75  C   UNL A   1      42.992  32.944  36.196  1.00  0.00     0.002 A 
ATOM     76  C   UNL A   1      41.041  34.246  35.705  1.00  0.00     0.091 A 
ATOM     77  F   UNL A   1      39.581  33.586  33.987  1.00  0.00    -0.205 F 
ATOM     78  C   UNL A   1      42.215  34.065  36.436  1.00  0.00     0.022 A 
BRANCH  76  79
ATOM     79  S   UNL A   1      40.028  35.679  36.124  1.00  0.00     0.127 S 
ATOM     80  O   UNL A   1      38.963  35.620  35.120  1.00  0.00    -0.237 OA
ATOM     81  O   UNL A   1      39.596  35.374  37.485  1.00  0.00    -0.237 OA
ATOM     82  O   UNL A   1      40.907  36.834  35.974  1.00  0.00    -0.744 OA
ENDBRANCH  76  79
ENDBRANCH  58  72
BRANCH  59  83
ATOM     83  C   UNL A   1      43.221  24.565  28.070  1.00  0.00     0.023 A 
ATOM     84  C   UNL A   1      42.273  23.768  28.760  1.00  0.00     0.012 A 
ATOM     85  C   UNL A   1      43.964  23.945  27.037  1.00  0.00     0.148 A 
ATOM     86  C   UNL A   1      41.931  22.482  28.312  1.00  0.00     0.002 A 
ATOM     87  C   UNL A   1      43.617  22.661  26.595  1.00  0.00     0.091 A 
ATOM     88  F   UNL A   1      44.887  24.664  26.390  1.00  0.00    -0.205 F 
ATOM     89  C   UNL A   1      42.565  21.953  27.196  1.00  0.00     0.022 A 
BRANCH  87  90
ATOM     90  S   UNL A   1      44.207  21.982  25.037  1.00  0.00     0.127 S 
ATOM     91  O   UNL A   1      43.615  20.647  25.022  1.00  0.00    -0.237 OA
ATOM     92  O   UNL A   1      43.609  22.938  24.114  1.00  0.00    -0.237 OA
ATOM     93  O   UNL A   1      45.660  22.004  25.109  1.00  0.00    -0.744 OA
ENDBRANCH  87  90
ENDBRANCH  59  83
BRANCH  71  94
ATOM     94  C   UNL A   1      38.458  29.855  28.969  1.00  0.00     0.023 A 
ATOM     95  C   UNL A   1      37.398  28.981  28.685  1.00  0.00     0.012 A 
ATOM     96  C   UNL A   1      38.105  31.199  29.260  1.00  0.00     0.148 A 
ATOM     97  C   UNL A   1      36.078  29.434  28.594  1.00  0.00     0.002 A 
ATOM     98  C   UNL A   1      36.783  31.596  29.353  1.00  0.00     0.091 A 
ATOM     99  F   UNL A   1      39.053  32.136  29.402  1.00  0.00    -0.205 F 
ATOM    100  C   UNL A   1      35.765  30.736  28.960  1.00  0.00     0.022 A 
BRANCH  98 101
ATOM    101  S   UNL A   1      36.358  33.154  30.136  1.00  0.00     0.127 S 
ATOM    102  O   UNL A   1      37.245  33.158  31.298  1.00  0.00    -0.237 OA
ATOM    103  O   UNL A   1      36.703  34.125  29.097  1.00  0.00    -0.237 OA
ATOM    104  O   UNL A   1      34.930  33.062  30.414  1.00  0.00    -0.744 OA
ENDBRANCH  98 101
ENDBRANCH  71  94
ENDBRANCH  45  46
ENDBRANCH  38  40
ENDBRANCH  37  38
ENDBRANCH  36  37
ENDBRANCH   1  36
TORSDOF 19
ENDMDL
MODEL 3
REMARK VINA RESULT:     -10.6      6.222     13.308
REMARK SMILES Cc1ccc(N2C(=O)N=C(OCCOC(=O)c3ccc(-c4c5nc(c(-c6cccc(S(=O)(=O)[O-])c6F)c6ccc([nH]6)c(-c6cccc(S(=O)(=O)[O-])c6F)c6nc(c(-c7cccc(S(=O)(=O)[O-])c7F)c7ccc4[nH]7)C=C6)C=C5)cc3)/C(=C\c3ccccc3OCc3cccc(C(=O)[O-])c3)C2=O)cc1
REMARK SMILES IDX 12 1 11 2 10 3 6 4 7 5 99 6 8 7 9 8 80 9 100 10 81 11 5 12
REMARK SMILES IDX 1 13 2 14 3 15 102 16 4 17 101 18 82 19 83 20 87 21 84 22
REMARK SMILES IDX 86 23 85 24 88 25 89 26 90 27 91 28 98 29 92 30 94 31 93 32
REMARK SMILES IDX 95 33 96 34 97 35 13 36 14 37 15 38 16 39 17 40 18 41 79 42
REMARK SMILES IDX 19 43 78 44 20 45 21 46 22 47 72 48 23 49 77 50 71 51 73 52
REMARK SMILES IDX 24 53 76 54 70 55 69 56 25 58 57 59 37 60 56 61 38 62 41 63
REMARK SMILES IDX 55 64 74 65 39 66 40 67 54 69 75 70 42 71 26 72 27 73 35 74
REMARK SMILES IDX 28 75 30 76 36 77 29 78 31 79 32 80 33 81 34 82 58 83 59 84
REMARK SMILES IDX 67 85 60 86 62 87 68 88 61 89 63 90 64 91 65 92 66 93 43 94
REMARK SMILES IDX 44 95 52 96 45 97 47 98 53 99 46 100 48 101 49 102 50 103
REMARK SMILES IDX 51 104
REMARK H PARENT 73 57 41 68
REMARK Flexibility Score: inf
ROOT
ATOM      1  C   UNL A   1      37.725  33.474  33.594  1.00  0.00     0.273 C 
ENDROOT
BRANCH   1   2
ATOM      2  O   UNL A   1      37.126  32.239  33.338  1.00  0.00    -0.473 OA
BRANCH   2   3
ATOM      3  C   UNL A   1      38.082  31.382  32.910  1.00  0.00     0.231 C 
ATOM      4  N   UNL A   1      40.734  29.422  31.784  1.00  0.00    -0.226 N 
ATOM      5  C   UNL A   1      39.900  29.142  33.320  1.00  0.00     0.358 C 
ATOM      6  C   UNL A   1      40.438  30.672  30.683  1.00  0.00     0.272 C 
ATOM      7  O   UNL A   1      40.238  28.204  34.045  1.00  0.00    -0.245 OA
ATOM      8  N   UNL A   1      38.585  30.229  33.791  1.00  0.00    -0.156 NA
ATOM      9  C   UNL A   1      38.893  31.751  31.065  1.00  0.00     0.103 C 
ATOM     10  O   UNL A   1      41.229  31.063  29.822  1.00  0.00    -0.268 OA
ATOM     11  C   UNL A   1      38.846  32.365  29.855  1.00  0.00     0.031 C 
BRANCH   4  12
ATOM     12  C   UNL A   1      42.021  28.747  31.512  1.00  0.00     0.054 A 
ATOM     13  C   UNL A   1      46.023  27.626  30.108  1.00  0.00     0.044 C 
ATOM     14  C   UNL A   1      44.652  27.928  30.654  1.00  0.00    -0.051 A 
ATOM     15  C   UNL A   1      43.490  27.450  30.030  1.00  0.00     0.005 A 
ATOM     16  C   UNL A   1      44.491  28.809  31.722  1.00  0.00     0.005 A 
ATOM     17  C   UNL A   1      42.191  27.828  30.469  1.00  0.00     0.027 A 
ATOM     18  C   UNL A   1      43.203  29.211  32.133  1.00  0.00     0.027 A 
ENDBRANCH   4  12
BRANCH  11  19
ATOM     19  C   UNL A   1      37.649  32.557  29.113  1.00  0.00     0.018 A 
ATOM     20  C   UNL A   1      36.883  33.741  29.200  1.00  0.00     0.012 A 
ATOM     21  C   UNL A   1      37.227  31.423  28.464  1.00  0.00     0.127 A 
ATOM     22  C   UNL A   1      35.532  33.734  28.873  1.00  0.00     0.001 A 
ATOM     23  C   UNL A   1      35.806  31.430  28.318  1.00  0.00     0.047 A 
ATOM     24  C   UNL A   1      34.967  32.537  28.510  1.00  0.00     0.004 A 
BRANCH  21  25
ATOM     25  O   UNL A   1      38.014  30.243  28.277  1.00  0.00    -0.488 OA
BRANCH  25  26
ATOM     26  C   UNL A   1      39.044  29.480  27.294  1.00  0.00     0.265 C 
BRANCH  26  27
ATOM     27  C   UNL A   1      39.974  28.083  27.679  1.00  0.00    -0.010 A 
ATOM     28  C   UNL A   1      39.492  26.875  28.153  1.00  0.00     0.007 A 
ATOM     29  C   UNL A   1      41.196  27.820  27.030  1.00  0.00     0.017 A 
ATOM     30  C   UNL A   1      40.253  25.658  28.018  1.00  0.00     0.001 A 
ATOM     31  C   UNL A   1      42.006  26.703  26.691  1.00  0.00    -0.002 A 
ATOM     32  C   UNL A   1      41.497  25.573  27.317  1.00  0.00     0.010 A 
BRANCH  31  33
ATOM     33  C   UNL A   1      42.960  26.501  25.215  1.00  0.00     0.071 C 
ATOM     34  O   UNL A   1      42.649  27.553  24.568  1.00  0.00    -0.545 OA
ATOM     35  O   UNL A   1      44.188  25.055  24.539  1.00  0.00    -0.545 OA
ENDBRANCH  31  33
ENDBRANCH  26  27
ENDBRANCH  25  26
ENDBRANCH  21  25
ENDBRANCH  11  19
ENDBRANCH   2   3
ENDBRANCH   1   2
BRANCH   1  36
ATOM     36  C   UNL A   1      37.371  33.828  35.041  1.00  0.00     0.274 C 
BRANCH  36  37
ATOM     37  O   UNL A   1      38.440  34.644  35.862  1.00  0.00    -0.458 OA
BRANCH  37  38
ATOM     38  C   UNL A   1      39.722  35.558  35.632  1.00  0.00     0.338 C 
ATOM     39  O   UNL A   1      39.434  36.497  36.399  1.00  0.00    -0.246 OA
BRANCH  38  40
ATOM     40  C   UNL A   1      41.381  35.067  34.361  1.00  0.00     0.060 A 
ATOM     41  C   UNL A   1      42.746  35.496  34.185  1.00  0.00     0.016 A 
ATOM     42  C   UNL A   1      41.484  33.770  33.385  1.00  0.00     0.016 A 
ATOM     43  C   UNL A   1      43.644  35.037  33.091  1.00  0.00     0.010 A 
ATOM     44  C   UNL A   1      42.389  33.257  32.430  1.00  0.00     0.010 A 
ATOM     45  C   UNL A   1      43.261  34.166  32.008  1.00  0.00    -0.014 A 
BRANCH  45  46
ATOM     46  C   UNL A   1      43.434  34.265  30.360  1.00  0.00     0.031 A 
ATOM     47  C   UNL A   1      44.719  33.619  30.096  1.00  0.00     0.074 A 
ATOM     48  C   UNL A   1      43.191  35.207  29.300  1.00  0.00     0.049 A 
ATOM     49  N   UNL A   1      45.690  33.782  28.764  1.00  0.00    -0.248 NA
ATOM     50  C   UNL A   1      45.483  32.185  31.307  1.00  0.00     0.031 C 
ATOM     51  C   UNL A   1      43.307  34.965  27.849  1.00  0.00     0.029 A 
ATOM     52  N   UNL A   1      42.725  36.552  29.206  1.00  0.00    -0.354 N 
ATOM     53  C   UNL A   1      46.969  32.416  28.725  1.00  0.00     0.074 A 
ATOM     54  C   UNL A   1      46.741  31.466  30.452  1.00  0.00     0.031 C 
ATOM     55  C   UNL A   1      43.131  36.111  27.149  1.00  0.00     0.029 A 
ATOM     56  C   UNL A   1      43.019  37.235  28.056  1.00  0.00     0.049 A 
ATOM     57  H   UNL A   1      42.215  36.970  29.937  1.00  0.00     0.167 HD
ATOM     58  C   UNL A   1      47.098  31.952  27.436  1.00  0.00     0.034 A 
ATOM     59  C   UNL A   1      43.434  38.539  27.924  1.00  0.00     0.034 A 
ATOM     60  C   UNL A   1      46.737  33.067  26.539  1.00  0.00     0.049 A 
ATOM     61  C   UNL A   1      44.728  38.558  27.133  1.00  0.00     0.074 A 
ATOM     62  C   UNL A   1      45.635  33.354  25.743  1.00  0.00     0.029 A 
ATOM     63  N   UNL A   1      47.404  34.277  26.696  1.00  0.00    -0.354 N 
ATOM     64  N   UNL A   1      45.237  37.484  26.607  1.00  0.00    -0.248 NA
ATOM     65  C   UNL A   1      45.605  39.716  26.962  1.00  0.00     0.031 C 
ATOM     66  C   UNL A   1      45.666  34.743  25.420  1.00  0.00     0.029 A 
ATOM     67  C   UNL A   1      46.781  35.311  26.011  1.00  0.00     0.049 A 
ATOM     68  H   UNL A   1      48.223  34.388  27.232  1.00  0.00     0.167 HD
ATOM     69  C   UNL A   1      46.546  37.699  26.288  1.00  0.00     0.074 A 
ATOM     70  C   UNL A   1      46.695  39.140  26.425  1.00  0.00     0.031 C 
ATOM     71  C   UNL A   1      47.385  36.650  26.026  1.00  0.00     0.034 A 
BRANCH  58  72
ATOM     72  C   UNL A   1      47.036  30.489  27.014  1.00  0.00     0.023 A 
ATOM     73  C   UNL A   1      45.753  29.914  26.859  1.00  0.00     0.012 A 
ATOM     74  C   UNL A   1      48.122  29.606  26.824  1.00  0.00     0.148 A 
ATOM     75  C   UNL A   1      45.552  28.555  26.588  1.00  0.00     0.002 A 
ATOM     76  C   UNL A   1      47.928  28.238  26.587  1.00  0.00     0.091 A 
ATOM     77  F   UNL A   1      49.367  30.080  26.823  1.00  0.00    -0.205 F 
ATOM     78  C   UNL A   1      46.642  27.709  26.465  1.00  0.00     0.022 A 
BRANCH  76  79
ATOM     79  S   UNL A   1      49.304  27.073  26.505  1.00  0.00     0.127 S 
ATOM     80  O   UNL A   1      50.208  27.574  27.543  1.00  0.00    -0.237 OA
ATOM     81  O   UNL A   1      48.660  25.801  26.824  1.00  0.00    -0.237 OA
ATOM     82  O   UNL A   1      49.840  27.199  25.153  1.00  0.00    -0.744 OA
ENDBRANCH  76  79
ENDBRANCH  58  72
BRANCH  59  83
ATOM     83  C   UNL A   1      43.110  39.583  28.974  1.00  0.00     0.023 A 
ATOM     84  C   UNL A   1      41.952  40.382  28.800  1.00  0.00     0.012 A 
ATOM     85  C   UNL A   1      43.762  39.647  30.229  1.00  0.00     0.148 A 
ATOM     86  C   UNL A   1      41.352  41.049  29.880  1.00  0.00     0.002 A 
ATOM     87  C   UNL A   1      43.157  40.315  31.302  1.00  0.00     0.091 A 
ATOM     88  F   UNL A   1      44.875  38.927  30.411  1.00  0.00    -0.205 F 
ATOM     89  C   UNL A   1      41.926  40.968  31.141  1.00  0.00     0.022 A 
BRANCH  87  90
ATOM     90  S   UNL A   1      43.687  40.087  33.006  1.00  0.00     0.127 S 
ATOM     91  O   UNL A   1      43.029  38.839  33.384  1.00  0.00    -0.237 OA
ATOM     92  O   UNL A   1      45.127  39.993  32.802  1.00  0.00    -0.237 OA
ATOM     93  O   UNL A   1      43.232  41.261  33.733  1.00  0.00    -0.744 OA
ENDBRANCH  87  90
ENDBRANCH  59  83
BRANCH  71  94
ATOM     94  C   UNL A   1      48.872  36.765  25.758  1.00  0.00     0.023 A 
ATOM     95  C   UNL A   1      49.472  36.445  24.532  1.00  0.00     0.012 A 
ATOM     96  C   UNL A   1      49.726  37.303  26.756  1.00  0.00     0.148 A 
ATOM     97  C   UNL A   1      50.854  36.554  24.340  1.00  0.00     0.002 A 
ATOM     98  C   UNL A   1      51.055  37.585  26.495  1.00  0.00     0.091 A 
ATOM     99  F   UNL A   1      49.274  37.505  28.002  1.00  0.00    -0.205 F 
ATOM    100  C   UNL A   1      51.643  37.156  25.311  1.00  0.00     0.022 A 
BRANCH  98 101
ATOM    101  S   UNL A   1      51.989  38.649  27.599  1.00  0.00     0.127 S 
ATOM    102  O   UNL A   1      51.082  39.782  27.763  1.00  0.00    -0.237 OA
ATOM    103  O   UNL A   1      52.139  37.805  28.786  1.00  0.00    -0.237 OA
ATOM    104  O   UNL A   1      53.239  38.917  26.899  1.00  0.00    -0.744 OA
ENDBRANCH  98 101
ENDBRANCH  71  94
ENDBRANCH  45  46
ENDBRANCH  38  40
ENDBRANCH  37  38
ENDBRANCH  36  37
ENDBRANCH   1  36
TORSDOF 19
ENDMDL
