MODEL 1
REMARK VINA RESULT:     -11.7      0.000      0.000
REMARK SMILES CCc1cc(OC(F)(F)F)cc2c1O[C@@H](C(F)(F)F)C(C(=O)OCCOC(=O)c1ccc(-c3c4nc(c(-c5cccc(S(=O)(=O)[O-])c5F)c5ccc([nH]5)c(-c5cccc(S(=O)(=O)[O-])c5F)c5nc(c(-c6cccc(S(=O)(=O)[O-])c6F)c6ccc3[nH]6)C=C5)C=C4)cc1)=C2
REMARK SMILES IDX 25 1 24 2 23 3 21 4 22 5 20 6 3 7 4 8 13 9 5 10 12 11 14 12
REMARK SMILES IDX 11 13 92 14 15 15 2 16 1 17 6 18 7 19 8 20 9 21 10 22 16 23
REMARK SMILES IDX 17 24 18 25 19 26 26 27 27 28 28 29 29 30 30 31 91 32 31 33
REMARK SMILES IDX 90 34 32 35 33 36 34 37 84 38 35 39 89 40 83 41 85 42 36 43
REMARK SMILES IDX 88 44 82 45 81 46 37 48 69 49 49 50 68 51 50 52 53 53 67 54
REMARK SMILES IDX 86 55 51 56 52 57 66 59 87 60 54 61 38 62 39 63 47 64 40 65
REMARK SMILES IDX 42 66 48 67 41 68 43 69 44 70 45 71 46 72 70 73 71 74 79 75
REMARK SMILES IDX 72 76 74 77 80 78 73 79 75 80 76 81 77 82 78 83 55 84 56 85
REMARK SMILES IDX 64 86 57 87 59 88 65 89 58 90 60 91 61 92 62 93 63 94
REMARK H PARENT 85 47 53 58
REMARK Flexibility Score: inf
ROOT
ATOM      1  C   UNL A   1      31.749  31.074  26.164  1.00  0.00     0.275 C 
ENDROOT
BRANCH   1   2
ATOM      2  C   UNL A   1      31.573  29.761  25.395  1.00  0.00     0.275 C 
BRANCH   2   3
ATOM      3  O   UNL A   1      32.641  28.828  25.665  1.00  0.00    -0.459 OA
BRANCH   3   4
ATOM      4  C   UNL A   1      32.264  27.661  26.249  1.00  0.00     0.338 C 
ATOM      5  O   UNL A   1      31.635  27.567  27.290  1.00  0.00    -0.246 OA
BRANCH   4   6
ATOM      6  C   UNL A   1      32.683  26.482  25.456  1.00  0.00     0.087 C 
ATOM      7  C   UNL A   1      33.637  23.138  23.137  1.00  0.00    -0.002 A 
ATOM      8  C   UNL A   1      34.920  22.576  23.231  1.00  0.00     0.054 A 
ATOM      9  C   UNL A   1      33.297  24.181  24.007  1.00  0.00     0.131 A 
ATOM     10  C   UNL A   1      35.841  23.050  24.168  1.00  0.00     0.130 A 
ATOM     11  C   UNL A   1      34.236  24.730  24.887  1.00  0.00     0.021 A 
ATOM     12  O   UNL A   1      31.993  24.587  24.025  1.00  0.00    -0.475 OA
ATOM     13  C   UNL A   1      35.508  24.154  24.964  1.00  0.00     0.058 A 
ATOM     14  C   UNL A   1      33.855  25.876  25.715  1.00  0.00     0.027 C 
ATOM     15  C   UNL A   1      31.766  25.982  24.352  1.00  0.00     0.316 C 
BRANCH   7  16
ATOM     16  C   UNL A   1      32.677  22.640  22.082  1.00  0.00     0.036 C 
ATOM     17  C   UNL A   1      32.087  21.278  22.407  1.00  0.00     0.009 C 
ENDBRANCH   7  16
BRANCH  10  18
ATOM     18  O   UNL A   1      37.091  22.539  24.382  1.00  0.00    -0.406 OA
BRANCH  18  19
ATOM     19  C   UNL A   1      37.199  21.465  25.305  1.00  0.00     0.573 C 
ATOM     20  F   UNL A   1      37.770  21.858  26.465  1.00  0.00    -0.132 F 
ATOM     21  F   UNL A   1      35.991  20.919  25.558  1.00  0.00    -0.132 F 
ATOM     22  F   UNL A   1      37.985  20.506  24.762  1.00  0.00    -0.132 F 
ENDBRANCH  18  19
ENDBRANCH  10  18
BRANCH  15  23
ATOM     23  C   UNL A   1      30.246  26.170  24.513  1.00  0.00     0.430 C 
ATOM     24  F   UNL A   1      29.869  27.440  24.242  1.00  0.00    -0.167 F 
ATOM     25  F   UNL A   1      29.581  25.388  23.623  1.00  0.00    -0.167 F 
ATOM     26  F   UNL A   1      29.809  25.829  25.744  1.00  0.00    -0.167 F 
ENDBRANCH  15  23
ENDBRANCH   4   6
ENDBRANCH   3   4
ENDBRANCH   2   3
ENDBRANCH   1   2
BRANCH   1  27
ATOM     27  O   UNL A   1      32.717  30.946  27.220  1.00  0.00    -0.458 OA
BRANCH  27  28
ATOM     28  C   UNL A   1      33.491  32.043  27.412  1.00  0.00     0.338 C 
ATOM     29  O   UNL A   1      33.148  33.208  27.276  1.00  0.00    -0.246 OA
BRANCH  28  30
ATOM     30  C   UNL A   1      34.785  31.660  28.014  1.00  0.00     0.060 A 
ATOM     31  C   UNL A   1      34.839  30.404  28.624  1.00  0.00     0.016 A 
ATOM     32  C   UNL A   1      35.913  32.485  28.005  1.00  0.00     0.016 A 
ATOM     33  C   UNL A   1      36.035  29.935  29.164  1.00  0.00     0.010 A 
ATOM     34  C   UNL A   1      37.104  32.031  28.593  1.00  0.00     0.010 A 
ATOM     35  C   UNL A   1      37.174  30.748  29.162  1.00  0.00    -0.014 A 
BRANCH  35  36
ATOM     36  C   UNL A   1      38.399  30.248  29.832  1.00  0.00     0.031 A 
ATOM     37  C   UNL A   1      38.717  30.701  31.227  1.00  0.00     0.074 A 
ATOM     38  C   UNL A   1      39.188  29.342  29.226  1.00  0.00     0.049 A 
ATOM     39  N   UNL A   1      39.671  30.303  32.028  1.00  0.00    -0.248 NA
ATOM     40  C   UNL A   1      37.835  31.729  31.800  1.00  0.00     0.031 C 
ATOM     41  C   UNL A   1      38.979  28.805  27.883  1.00  0.00     0.029 A 
ATOM     42  N   UNL A   1      40.328  28.718  29.666  1.00  0.00    -0.354 N 
ATOM     43  C   UNL A   1      39.512  31.032  33.199  1.00  0.00     0.074 A 
ATOM     44  C   UNL A   1      38.373  31.904  33.000  1.00  0.00     0.031 C 
ATOM     45  C   UNL A   1      39.973  27.946  27.599  1.00  0.00     0.029 A 
ATOM     46  C   UNL A   1      40.894  27.882  28.733  1.00  0.00     0.049 A 
ATOM     47  H   UNL A   1      40.706  28.856  30.565  1.00  0.00     0.167 HD
ATOM     48  C   UNL A   1      40.238  30.973  34.341  1.00  0.00     0.034 A 
ATOM     49  C   UNL A   1      42.029  27.157  28.784  1.00  0.00     0.034 A 
ATOM     50  C   UNL A   1      41.384  30.124  34.536  1.00  0.00     0.049 A 
ATOM     51  C   UNL A   1      42.849  27.151  30.051  1.00  0.00     0.074 A 
ATOM     52  C   UNL A   1      42.170  29.987  35.668  1.00  0.00     0.029 A 
ATOM     53  N   UNL A   1      41.930  29.291  33.572  1.00  0.00    -0.354 N 
ATOM     54  N   UNL A   1      42.611  27.744  31.197  1.00  0.00    -0.248 NA
ATOM     55  C   UNL A   1      44.074  26.337  30.044  1.00  0.00     0.031 C 
ATOM     56  C   UNL A   1      43.211  29.097  35.376  1.00  0.00     0.029 A 
ATOM     57  C   UNL A   1      43.050  28.649  34.075  1.00  0.00     0.049 A 
ATOM     58  H   UNL A   1      41.573  29.171  32.663  1.00  0.00     0.167 HD
ATOM     59  C   UNL A   1      43.634  27.348  32.053  1.00  0.00     0.074 A 
ATOM     60  C   UNL A   1      44.476  26.441  31.302  1.00  0.00     0.031 C 
ATOM     61  C   UNL A   1      43.864  27.714  33.339  1.00  0.00     0.034 A 
BRANCH  48  62
ATOM     62  C   UNL A   1      39.806  31.858  35.480  1.00  0.00     0.023 A 
ATOM     63  C   UNL A   1      40.290  33.180  35.558  1.00  0.00     0.012 A 
ATOM     64  C   UNL A   1      38.889  31.398  36.444  1.00  0.00     0.148 A 
ATOM     65  C   UNL A   1      39.891  34.021  36.597  1.00  0.00     0.002 A 
ATOM     66  C   UNL A   1      38.463  32.255  37.452  1.00  0.00     0.091 A 
ATOM     67  F   UNL A   1      38.460  30.130  36.364  1.00  0.00    -0.205 F 
ATOM     68  C   UNL A   1      38.971  33.562  37.536  1.00  0.00     0.022 A 
BRANCH  66  69
ATOM     69  S   UNL A   1      37.228  31.782  38.666  1.00  0.00     0.127 S 
ATOM     70  O   UNL A   1      37.982  31.901  39.914  1.00  0.00    -0.237 OA
ATOM     71  O   UNL A   1      36.202  32.808  38.475  1.00  0.00    -0.237 OA
ATOM     72  O   UNL A   1      36.812  30.432  38.314  1.00  0.00    -0.744 OA
ENDBRANCH  66  69
ENDBRANCH  48  62
BRANCH  49  73
ATOM     73  C   UNL A   1      42.458  26.350  27.607  1.00  0.00     0.023 A 
ATOM     74  C   UNL A   1      43.221  26.950  26.586  1.00  0.00     0.012 A 
ATOM     75  C   UNL A   1      42.094  24.994  27.485  1.00  0.00     0.148 A 
ATOM     76  C   UNL A   1      43.579  26.227  25.447  1.00  0.00     0.002 A 
ATOM     77  C   UNL A   1      42.499  24.266  26.374  1.00  0.00     0.091 A 
ATOM     78  F   UNL A   1      41.351  24.447  28.456  1.00  0.00    -0.205 F 
ATOM     79  C   UNL A   1      43.226  24.884  25.345  1.00  0.00     0.022 A 
BRANCH  77  80
ATOM     80  S   UNL A   1      42.184  22.505  26.206  1.00  0.00     0.127 S 
ATOM     81  O   UNL A   1      42.770  21.979  27.435  1.00  0.00    -0.237 OA
ATOM     82  O   UNL A   1      40.722  22.465  26.154  1.00  0.00    -0.237 OA
ATOM     83  O   UNL A   1      42.843  22.102  24.971  1.00  0.00    -0.744 OA
ENDBRANCH  77  80
ENDBRANCH  49  73
BRANCH  61  84
ATOM     84  C   UNL A   1      45.060  27.108  34.035  1.00  0.00     0.023 A 
ATOM     85  C   UNL A   1      46.301  27.776  34.018  1.00  0.00     0.012 A 
ATOM     86  C   UNL A   1      44.947  25.891  34.739  1.00  0.00     0.148 A 
ATOM     87  C   UNL A   1      47.419  27.222  34.641  1.00  0.00     0.002 A 
ATOM     88  C   UNL A   1      46.052  25.370  35.404  1.00  0.00     0.091 A 
ATOM     89  F   UNL A   1      43.766  25.255  34.735  1.00  0.00    -0.205 F 
ATOM     90  C   UNL A   1      47.293  26.025  35.341  1.00  0.00     0.022 A 
BRANCH  88  91
ATOM     91  S   UNL A   1      45.954  23.887  36.413  1.00  0.00     0.127 S 
ATOM     92  O   UNL A   1      45.649  22.865  35.413  1.00  0.00    -0.237 OA
ATOM     93  O   UNL A   1      47.301  23.803  36.978  1.00  0.00    -0.237 OA
ATOM     94  O   UNL A   1      44.906  24.142  37.392  1.00  0.00    -0.744 OA
ENDBRANCH  88  91
ENDBRANCH  61  84
ENDBRANCH  35  36
ENDBRANCH  28  30
ENDBRANCH  27  28
ENDBRANCH   1  27
TORSDOF 18
ENDMDL
MODEL 2
REMARK VINA RESULT:     -11.6      1.357      1.660
REMARK SMILES CCc1cc(OC(F)(F)F)cc2c1O[C@@H](C(F)(F)F)C(C(=O)OCCOC(=O)c1ccc(-c3c4nc(c(-c5cccc(S(=O)(=O)[O-])c5F)c5ccc([nH]5)c(-c5cccc(S(=O)(=O)[O-])c5F)c5nc(c(-c6cccc(S(=O)(=O)[O-])c6F)c6ccc3[nH]6)C=C5)C=C4)cc1)=C2
REMARK SMILES IDX 25 1 24 2 23 3 21 4 22 5 20 6 3 7 4 8 13 9 5 10 12 11 14 12
REMARK SMILES IDX 11 13 92 14 15 15 2 16 1 17 6 18 7 19 8 20 9 21 10 22 16 23
REMARK SMILES IDX 17 24 18 25 19 26 26 27 27 28 28 29 29 30 30 31 91 32 31 33
REMARK SMILES IDX 90 34 32 35 33 36 34 37 84 38 35 39 89 40 83 41 85 42 36 43
REMARK SMILES IDX 88 44 82 45 81 46 37 48 69 49 49 50 68 51 50 52 53 53 67 54
REMARK SMILES IDX 86 55 51 56 52 57 66 59 87 60 54 61 38 62 39 63 47 64 40 65
REMARK SMILES IDX 42 66 48 67 41 68 43 69 44 70 45 71 46 72 70 73 71 74 79 75
REMARK SMILES IDX 72 76 74 77 80 78 73 79 75 80 76 81 77 82 78 83 55 84 56 85
REMARK SMILES IDX 64 86 57 87 59 88 65 89 58 90 60 91 61 92 62 93 63 94
REMARK H PARENT 85 47 53 58
REMARK Flexibility Score: inf
ROOT
ATOM      1  C   UNL A   1      31.618  30.844  25.965  1.00  0.00     0.275 C 
ENDROOT
BRANCH   1   2
ATOM      2  C   UNL A   1      31.281  29.644  25.075  1.00  0.00     0.275 C 
BRANCH   2   3
ATOM      3  O   UNL A   1      32.216  28.558  25.252  1.00  0.00    -0.459 OA
BRANCH   3   4
ATOM      4  C   UNL A   1      31.799  27.555  26.066  1.00  0.00     0.338 C 
ATOM      5  O   UNL A   1      31.188  27.705  27.110  1.00  0.00    -0.246 OA
BRANCH   4   6
ATOM      6  C   UNL A   1      32.150  26.220  25.527  1.00  0.00     0.087 C 
ATOM      7  C   UNL A   1      32.925  22.453  23.892  1.00  0.00    -0.002 A 
ATOM      8  C   UNL A   1      34.081  21.756  24.278  1.00  0.00     0.054 A 
ATOM      9  C   UNL A   1      32.620  23.657  24.537  1.00  0.00     0.131 A 
ATOM     10  C   UNL A   1      34.913  22.256  25.282  1.00  0.00     0.130 A 
ATOM     11  C   UNL A   1      33.489  24.218  25.479  1.00  0.00     0.021 A 
ATOM     12  O   UNL A   1      31.403  24.221  24.278  1.00  0.00    -0.475 OA
ATOM     13  C   UNL A   1      34.635  23.507  25.850  1.00  0.00     0.058 A 
ATOM     14  C   UNL A   1      33.166  25.521  26.063  1.00  0.00     0.027 C 
ATOM     15  C   UNL A   1      31.343  25.668  24.364  1.00  0.00     0.316 C 
BRANCH   7  16
ATOM     16  C   UNL A   1      32.068  21.916  22.768  1.00  0.00     0.036 C 
ATOM     17  C   UNL A   1      32.154  20.406  22.622  1.00  0.00     0.009 C 
ENDBRANCH   7  16
BRANCH  10  18
ATOM     18  O   UNL A   1      36.026  21.633  25.774  1.00  0.00    -0.406 OA
BRANCH  18  19
ATOM     19  C   UNL A   1      37.276  22.008  25.212  1.00  0.00     0.573 C 
ATOM     20  F   UNL A   1      37.663  23.235  25.627  1.00  0.00    -0.132 F 
ATOM     21  F   UNL A   1      38.234  21.107  25.512  1.00  0.00    -0.132 F 
ATOM     22  F   UNL A   1      37.149  22.049  23.865  1.00  0.00    -0.132 F 
ENDBRANCH  18  19
ENDBRANCH  10  18
BRANCH  15  23
ATOM     23  C   UNL A   1      29.861  26.070  24.237  1.00  0.00     0.430 C 
ATOM     24  F   UNL A   1      29.182  25.224  23.430  1.00  0.00    -0.167 F 
ATOM     25  F   UNL A   1      29.251  25.997  25.448  1.00  0.00    -0.167 F 
ATOM     26  F   UNL A   1      29.704  27.334  23.791  1.00  0.00    -0.167 F 
ENDBRANCH  15  23
ENDBRANCH   4   6
ENDBRANCH   3   4
ENDBRANCH   2   3
ENDBRANCH   1   2
BRANCH   1  27
ATOM     27  O   UNL A   1      32.825  30.626  26.717  1.00  0.00    -0.458 OA
BRANCH  27  28
ATOM     28  C   UNL A   1      33.389  31.752  27.219  1.00  0.00     0.338 C 
ATOM     29  O   UNL A   1      32.878  32.860  27.270  1.00  0.00    -0.246 OA
BRANCH  28  30
ATOM     30  C   UNL A   1      34.662  31.431  27.897  1.00  0.00     0.060 A 
ATOM     31  C   UNL A   1      34.790  30.132  28.396  1.00  0.00     0.016 A 
ATOM     32  C   UNL A   1      35.701  32.350  28.061  1.00  0.00     0.016 A 
ATOM     33  C   UNL A   1      35.978  29.721  28.996  1.00  0.00     0.010 A 
ATOM     34  C   UNL A   1      36.879  31.950  28.710  1.00  0.00     0.010 A 
ATOM     35  C   UNL A   1      37.028  30.630  29.168  1.00  0.00    -0.014 A 
BRANCH  35  36
ATOM     36  C   UNL A   1      38.239  30.180  29.897  1.00  0.00     0.031 A 
ATOM     37  C   UNL A   1      38.486  30.668  31.294  1.00  0.00     0.074 A 
ATOM     38  C   UNL A   1      39.079  29.287  29.341  1.00  0.00     0.049 A 
ATOM     39  N   UNL A   1      39.417  30.314  32.142  1.00  0.00    -0.248 NA
ATOM     40  C   UNL A   1      37.551  31.679  31.811  1.00  0.00     0.031 C 
ATOM     41  C   UNL A   1      38.941  28.718  28.002  1.00  0.00     0.029 A 
ATOM     42  N   UNL A   1      40.218  28.706  29.840  1.00  0.00    -0.354 N 
ATOM     43  C   UNL A   1      39.188  31.059  33.290  1.00  0.00     0.074 A 
ATOM     44  C   UNL A   1      38.033  31.893  33.027  1.00  0.00     0.031 C 
ATOM     45  C   UNL A   1      39.972  27.885  27.776  1.00  0.00     0.029 A 
ATOM     46  C   UNL A   1      40.846  27.870  28.948  1.00  0.00     0.049 A 
ATOM     47  H   UNL A   1      40.553  28.871  30.751  1.00  0.00     0.167 HD
ATOM     48  C   UNL A   1      39.867  31.043  34.462  1.00  0.00     0.034 A 
ATOM     49  C   UNL A   1      41.999  27.181  29.060  1.00  0.00     0.034 A 
ATOM     50  C   UNL A   1      41.029  30.233  34.720  1.00  0.00     0.049 A 
ATOM     51  C   UNL A   1      42.765  27.223  30.359  1.00  0.00     0.074 A 
ATOM     52  C   UNL A   1      41.771  30.140  35.886  1.00  0.00     0.029 A 
ATOM     53  N   UNL A   1      41.638  29.399  33.796  1.00  0.00    -0.354 N 
ATOM     54  N   UNL A   1      42.463  27.830  31.482  1.00  0.00    -0.248 NA
ATOM     55  C   UNL A   1      44.013  26.447  30.418  1.00  0.00     0.031 C 
ATOM     56  C   UNL A   1      42.849  29.278  35.655  1.00  0.00     0.029 A 
ATOM     57  C   UNL A   1      42.755  28.801  34.357  1.00  0.00     0.049 A 
ATOM     58  H   UNL A   1      41.323  29.252  32.876  1.00  0.00     0.167 HD
ATOM     59  C   UNL A   1      43.460  27.481  32.387  1.00  0.00     0.074 A 
ATOM     60  C   UNL A   1      44.360  26.585  31.689  1.00  0.00     0.031 C 
ATOM     61  C   UNL A   1      43.626  27.877  33.674  1.00  0.00     0.034 A 
BRANCH  48  62
ATOM     62  C   UNL A   1      39.362  31.936  35.565  1.00  0.00     0.023 A 
ATOM     63  C   UNL A   1      38.414  31.441  36.484  1.00  0.00     0.012 A 
ATOM     64  C   UNL A   1      39.858  33.244  35.718  1.00  0.00     0.148 A 
ATOM     65  C   UNL A   1      37.944  32.246  37.520  1.00  0.00     0.002 A 
ATOM     66  C   UNL A   1      39.417  34.027  36.779  1.00  0.00     0.091 A 
ATOM     67  F   UNL A   1      40.741  33.702  34.820  1.00  0.00    -0.205 F 
ATOM     68  C   UNL A   1      38.452  33.533  37.673  1.00  0.00     0.022 A 
BRANCH  66  69
ATOM     69  S   UNL A   1      40.063  35.670  37.104  1.00  0.00     0.127 S 
ATOM     70  O   UNL A   1      39.658  36.390  35.897  1.00  0.00    -0.237 OA
ATOM     71  O   UNL A   1      39.334  36.052  38.315  1.00  0.00    -0.237 OA
ATOM     72  O   UNL A   1      41.499  35.509  37.283  1.00  0.00    -0.744 OA
ENDBRANCH  66  69
ENDBRANCH  48  62
BRANCH  49  73
ATOM     73  C   UNL A   1      42.500  26.365  27.917  1.00  0.00     0.023 A 
ATOM     74  C   UNL A   1      43.416  26.925  27.004  1.00  0.00     0.012 A 
ATOM     75  C   UNL A   1      42.055  25.043  27.719  1.00  0.00     0.148 A 
ATOM     76  C   UNL A   1      43.848  26.198  25.895  1.00  0.00     0.002 A 
ATOM     77  C   UNL A   1      42.531  24.307  26.641  1.00  0.00     0.091 A 
ATOM     78  F   UNL A   1      41.168  24.536  28.586  1.00  0.00    -0.205 F 
ATOM     79  C   UNL A   1      43.413  24.887  25.717  1.00  0.00     0.022 A 
BRANCH  77  80
ATOM     80  S   UNL A   1      42.110  22.578  26.393  1.00  0.00     0.127 S 
ATOM     81  O   UNL A   1      42.704  21.954  27.572  1.00  0.00    -0.237 OA
ATOM     82  O   UNL A   1      40.648  22.622  26.389  1.00  0.00    -0.237 OA
ATOM     83  O   UNL A   1      42.706  22.206  25.116  1.00  0.00    -0.744 OA
ENDBRANCH  77  80
ENDBRANCH  49  73
BRANCH  61  84
ATOM     84  C   UNL A   1      44.810  27.321  34.430  1.00  0.00     0.023 A 
ATOM     85  C   UNL A   1      46.040  28.009  34.422  1.00  0.00     0.012 A 
ATOM     86  C   UNL A   1      44.694  26.132  35.180  1.00  0.00     0.148 A 
ATOM     87  C   UNL A   1      47.147  27.499  35.101  1.00  0.00     0.002 A 
ATOM     88  C   UNL A   1      45.786  25.657  35.899  1.00  0.00     0.091 A 
ATOM     89  F   UNL A   1      43.524  25.476  35.167  1.00  0.00    -0.205 F 
ATOM     90  C   UNL A   1      47.018  26.330  35.847  1.00  0.00     0.022 A 
BRANCH  88  91
ATOM     91  S   UNL A   1      45.681  24.215  36.965  1.00  0.00     0.127 S 
ATOM     92  O   UNL A   1      47.071  24.053  37.386  1.00  0.00    -0.237 OA
ATOM     93  O   UNL A   1      44.774  24.670  38.019  1.00  0.00    -0.237 OA
ATOM     94  O   UNL A   1      45.146  23.145  36.134  1.00  0.00    -0.744 OA
ENDBRANCH  88  91
ENDBRANCH  61  84
ENDBRANCH  35  36
ENDBRANCH  28  30
ENDBRANCH  27  28
ENDBRANCH   1  27
TORSDOF 18
ENDMDL
MODEL 3
REMARK VINA RESULT:     -11.5      5.001     10.256
REMARK SMILES CCc1cc(OC(F)(F)F)cc2c1O[C@@H](C(F)(F)F)C(C(=O)OCCOC(=O)c1ccc(-c3c4nc(c(-c5cccc(S(=O)(=O)[O-])c5F)c5ccc([nH]5)c(-c5cccc(S(=O)(=O)[O-])c5F)c5nc(c(-c6cccc(S(=O)(=O)[O-])c6F)c6ccc3[nH]6)C=C5)C=C4)cc1)=C2
REMARK SMILES IDX 25 1 24 2 23 3 21 4 22 5 20 6 3 7 4 8 13 9 5 10 12 11 14 12
REMARK SMILES IDX 11 13 92 14 15 15 2 16 1 17 6 18 7 19 8 20 9 21 10 22 16 23
REMARK SMILES IDX 17 24 18 25 19 26 26 27 27 28 28 29 29 30 30 31 91 32 31 33
REMARK SMILES IDX 90 34 32 35 33 36 34 37 84 38 35 39 89 40 83 41 85 42 36 43
REMARK SMILES IDX 88 44 82 45 81 46 37 48 69 49 49 50 68 51 50 52 53 53 67 54
REMARK SMILES IDX 86 55 51 56 52 57 66 59 87 60 54 61 38 62 39 63 47 64 40 65
REMARK SMILES IDX 42 66 48 67 41 68 43 69 44 70 45 71 46 72 70 73 71 74 79 75
REMARK SMILES IDX 72 76 74 77 80 78 73 79 75 80 76 81 77 82 78 83 55 84 56 85
REMARK SMILES IDX 64 86 57 87 59 88 65 89 58 90 60 91 61 92 62 93 63 94
REMARK H PARENT 85 47 53 58
REMARK Flexibility Score: inf
ROOT
ATOM      1  C   UNL A   1      37.479  20.654  25.317  1.00  0.00     0.275 C 
ENDROOT
BRANCH   1   2
ATOM      2  C   UNL A   1      36.063  21.008  24.851  1.00  0.00     0.275 C 
BRANCH   2   3
ATOM      3  O   UNL A   1      35.749  22.398  25.082  1.00  0.00    -0.459 OA
BRANCH   3   4
ATOM      4  C   UNL A   1      34.689  22.630  25.899  1.00  0.00     0.338 C 
ATOM      5  O   UNL A   1      34.434  22.003  26.913  1.00  0.00    -0.246 OA
BRANCH   4   6
ATOM      6  C   UNL A   1      33.868  23.771  25.434  1.00  0.00     0.087 C 
ATOM      7  C   UNL A   1      31.441  26.840  23.964  1.00  0.00    -0.002 A 
ATOM      8  C   UNL A   1      31.644  28.156  24.410  1.00  0.00     0.054 A 
ATOM      9  C   UNL A   1      32.338  25.846  24.374  1.00  0.00     0.131 A 
ATOM     10  C   UNL A   1      32.716  28.467  25.249  1.00  0.00     0.130 A 
ATOM     11  C   UNL A   1      33.361  26.122  25.287  1.00  0.00     0.021 A 
ATOM     12  O   UNL A   1      32.231  24.618  23.785  1.00  0.00    -0.475 OA
ATOM     13  C   UNL A   1      33.546  27.440  25.718  1.00  0.00     0.058 A 
ATOM     14  C   UNL A   1      34.219  25.030  25.750  1.00  0.00     0.027 C 
ATOM     15  C   UNL A   1      32.629  23.487  24.600  1.00  0.00     0.316 C 
BRANCH   7  16
ATOM     16  C   UNL A   1      30.245  26.521  23.096  1.00  0.00     0.036 C 
ATOM     17  C   UNL A   1      28.951  26.408  23.883  1.00  0.00     0.009 C 
ENDBRANCH   7  16
BRANCH  10  18
ATOM     18  O   UNL A   1      33.039  29.719  25.694  1.00  0.00    -0.406 OA
BRANCH  18  19
ATOM     19  C   UNL A   1      32.046  30.417  26.432  1.00  0.00     0.573 C 
ATOM     20  F   UNL A   1      31.144  31.010  25.619  1.00  0.00    -0.132 F 
ATOM     21  F   UNL A   1      31.409  29.593  27.290  1.00  0.00    -0.132 F 
ATOM     22  F   UNL A   1      32.649  31.388  27.156  1.00  0.00    -0.132 F 
ENDBRANCH  18  19
ENDBRANCH  10  18
BRANCH  15  23
ATOM     23  C   UNL A   1      32.622  22.245  23.689  1.00  0.00     0.430 C 
ATOM     24  F   UNL A   1      31.518  22.206  22.908  1.00  0.00    -0.167 F 
ATOM     25  F   UNL A   1      33.679  22.284  22.837  1.00  0.00    -0.167 F 
ATOM     26  F   UNL A   1      32.716  21.092  24.384  1.00  0.00    -0.167 F 
ENDBRANCH  15  23
ENDBRANCH   4   6
ENDBRANCH   3   4
ENDBRANCH   2   3
ENDBRANCH   1   2
BRANCH   1  27
ATOM     27  O   UNL A   1      38.230  21.827  25.674  1.00  0.00    -0.458 OA
BRANCH  27  28
ATOM     28  C   UNL A   1      39.396  21.577  26.319  1.00  0.00     0.338 C 
ATOM     29  O   UNL A   1      40.001  20.516  26.342  1.00  0.00    -0.246 OA
BRANCH  28  30
ATOM     30  C   UNL A   1      39.972  22.831  26.847  1.00  0.00     0.060 A 
ATOM     31  C   UNL A   1      39.579  24.011  26.210  1.00  0.00     0.016 A 
ATOM     32  C   UNL A   1      40.870  22.877  27.916  1.00  0.00     0.016 A 
ATOM     33  C   UNL A   1      40.023  25.246  26.679  1.00  0.00     0.010 A 
ATOM     34  C   UNL A   1      41.355  24.118  28.357  1.00  0.00     0.010 A 
ATOM     35  C   UNL A   1      40.923  25.309  27.749  1.00  0.00    -0.014 A 
BRANCH  35  36
ATOM     36  C   UNL A   1      41.445  26.636  28.155  1.00  0.00     0.031 A 
ATOM     37  C   UNL A   1      42.856  27.014  27.811  1.00  0.00     0.074 A 
ATOM     38  C   UNL A   1      40.644  27.527  28.769  1.00  0.00     0.049 A 
ATOM     39  N   UNL A   1      43.469  28.157  27.974  1.00  0.00    -0.248 NA
ATOM     40  C   UNL A   1      43.681  25.968  27.186  1.00  0.00     0.031 C 
ATOM     41  C   UNL A   1      39.250  27.293  29.140  1.00  0.00     0.029 A 
ATOM     42  N   UNL A   1      40.896  28.809  29.189  1.00  0.00    -0.354 N 
ATOM     43  C   UNL A   1      44.753  27.973  27.479  1.00  0.00     0.074 A 
ATOM     44  C   UNL A   1      44.833  26.602  27.017  1.00  0.00     0.031 C 
ATOM     45  C   UNL A   1      38.774  28.391  29.755  1.00  0.00     0.029 A 
ATOM     46  C   UNL A   1      39.832  29.397  29.831  1.00  0.00     0.049 A 
ATOM     47  H   UNL A   1      41.757  29.264  29.045  1.00  0.00     0.167 HD
ATOM     48  C   UNL A   1      45.770  28.865  27.403  1.00  0.00     0.034 A 
ATOM     49  C   UNL A   1      39.727  30.604  30.422  1.00  0.00     0.034 A 
ATOM     50  C   UNL A   1      45.702  30.221  27.881  1.00  0.00     0.049 A 
ATOM     51  C   UNL A   1      40.894  31.560  30.368  1.00  0.00     0.074 A 
ATOM     52  C   UNL A   1      46.680  31.201  27.829  1.00  0.00     0.029 A 
ATOM     53  N   UNL A   1      44.612  30.784  28.525  1.00  0.00    -0.354 N 
ATOM     54  N   UNL A   1      42.058  31.417  29.780  1.00  0.00    -0.248 NA
ATOM     55  C   UNL A   1      40.715  32.862  31.028  1.00  0.00     0.031 C 
ATOM     56  C   UNL A   1      46.192  32.344  28.473  1.00  0.00     0.029 A 
ATOM     57  C   UNL A   1      44.895  32.090  28.890  1.00  0.00     0.049 A 
ATOM     58  H   UNL A   1      43.759  30.323  28.696  1.00  0.00     0.167 HD
ATOM     59  C   UNL A   1      42.732  32.620  29.967  1.00  0.00     0.074 A 
ATOM     60  C   UNL A   1      41.834  33.490  30.698  1.00  0.00     0.031 C 
ATOM     61  C   UNL A   1      43.985  32.969  29.582  1.00  0.00     0.034 A 
BRANCH  48  62
ATOM     62  C   UNL A   1      47.053  28.396  26.771  1.00  0.00     0.023 A 
ATOM     63  C   UNL A   1      48.158  28.078  27.587  1.00  0.00     0.012 A 
ATOM     64  C   UNL A   1      47.151  28.227  25.377  1.00  0.00     0.148 A 
ATOM     65  C   UNL A   1      49.351  27.629  27.023  1.00  0.00     0.002 A 
ATOM     66  C   UNL A   1      48.329  27.738  24.824  1.00  0.00     0.091 A 
ATOM     67  F   UNL A   1      46.097  28.556  24.617  1.00  0.00    -0.205 F 
ATOM     68  C   UNL A   1      49.433  27.450  25.645  1.00  0.00     0.022 A 
BRANCH  66  69
ATOM     69  S   UNL A   1      48.510  27.403  23.070  1.00  0.00     0.127 S 
ATOM     70  O   UNL A   1      49.893  27.818  22.832  1.00  0.00    -0.237 OA
ATOM     71  O   UNL A   1      48.289  25.958  23.009  1.00  0.00    -0.237 OA
ATOM     72  O   UNL A   1      47.495  28.204  22.401  1.00  0.00    -0.744 OA
ENDBRANCH  66  69
ENDBRANCH  48  62
BRANCH  49  73
ATOM     73  C   UNL A   1      38.460  31.001  31.099  1.00  0.00     0.023 A 
ATOM     74  C   UNL A   1      38.264  30.684  32.458  1.00  0.00     0.012 A 
ATOM     75  C   UNL A   1      37.440  31.672  30.396  1.00  0.00     0.148 A 
ATOM     76  C   UNL A   1      37.060  30.993  33.092  1.00  0.00     0.002 A 
ATOM     77  C   UNL A   1      36.265  32.024  31.048  1.00  0.00     0.091 A 
ATOM     78  F   UNL A   1      37.638  31.945  29.099  1.00  0.00    -0.205 F 
ATOM     79  C   UNL A   1      36.065  31.669  32.391  1.00  0.00     0.022 A 
BRANCH  77  80
ATOM     80  S   UNL A   1      34.973  32.989  30.257  1.00  0.00     0.127 S 
ATOM     81  O   UNL A   1      34.507  32.071  29.222  1.00  0.00    -0.237 OA
ATOM     82  O   UNL A   1      34.037  33.200  31.362  1.00  0.00    -0.237 OA
ATOM     83  O   UNL A   1      35.624  34.202  29.778  1.00  0.00    -0.744 OA
ENDBRANCH  77  80
ENDBRANCH  49  73
BRANCH  61  84
ATOM     84  C   UNL A   1      44.456  34.365  29.915  1.00  0.00     0.023 A 
ATOM     85  C   UNL A   1      45.072  34.625  31.155  1.00  0.00     0.012 A 
ATOM     86  C   UNL A   1      44.321  35.415  28.983  1.00  0.00     0.148 A 
ATOM     87  C   UNL A   1      45.497  35.913  31.485  1.00  0.00     0.002 A 
ATOM     88  C   UNL A   1      44.795  36.684  29.295  1.00  0.00     0.091 A 
ATOM     89  F   UNL A   1      43.718  35.159  27.812  1.00  0.00    -0.205 F 
ATOM     90  C   UNL A   1      45.368  36.939  30.552  1.00  0.00     0.022 A 
BRANCH  88  91
ATOM     91  S   UNL A   1      44.760  38.039  28.116  1.00  0.00     0.127 S 
ATOM     92  O   UNL A   1      43.339  38.380  28.095  1.00  0.00    -0.237 OA
ATOM     93  O   UNL A   1      45.616  39.036  28.760  1.00  0.00    -0.237 OA
ATOM     94  O   UNL A   1      45.296  37.499  26.874  1.00  0.00    -0.744 OA
ENDBRANCH  88  91
ENDBRANCH  61  84
ENDBRANCH  35  36
ENDBRANCH  28  30
ENDBRANCH  27  28
ENDBRANCH   1  27
TORSDOF 18
ENDMDL
