MODEL 1
REMARK VINA RESULT:     -11.7      0.000      0.000
REMARK SMILES Cc1cc(N[C@@H]2C=C[C@@H](C(=O)OCCOC(=O)c3ccc(-c4c5nc(c(-c6cccc(S(=O)(=O)[O-])c6F)c6ccc([nH]6)c(-c6cccc(S(=O)(=O)[O-])c6F)c6nc(c(-c7cccc(S(=O)(=O)[O-])c7F)c7ccc4[nH]7)C=C6)C=C5)cc3)C2)nc(C)n1
REMARK SMILES IDX 14 1 13 2 12 3 10 4 11 5 9 6 6 7 7 8 81 9 8 10 5 11 4 13
REMARK SMILES IDX 1 14 2 15 3 16 85 17 83 18 82 19 84 20 15 21 16 22 17 23
REMARK SMILES IDX 18 24 19 25 80 26 20 27 79 28 21 29 22 30 23 31 73 32 24 33
REMARK SMILES IDX 78 34 72 35 74 36 25 37 77 38 71 39 70 40 26 42 58 43 38 44
REMARK SMILES IDX 57 45 39 46 42 47 56 48 75 49 40 50 41 51 55 53 76 54 43 55
REMARK SMILES IDX 27 56 28 57 36 58 29 59 31 60 37 61 30 62 32 63 33 64 34 65
REMARK SMILES IDX 35 66 59 67 60 68 68 69 61 70 63 71 69 72 62 73 64 74 65 75
REMARK SMILES IDX 66 76 67 77 44 78 45 79 53 80 46 81 48 82 54 83 47 84 49 85
REMARK SMILES IDX 50 86 51 87 52 88
REMARK H PARENT 5 12 74 41 42 52
REMARK Flexibility Score: inf
ROOT
ATOM      1  C   UNL A   1      36.432  21.116  25.741  1.00  0.00     0.275 C 
ENDROOT
BRANCH   1   2
ATOM      2  C   UNL A   1      35.294  20.619  24.851  1.00  0.00     0.274 C 
BRANCH   2   3
ATOM      3  O   UNL A   1      34.123  20.359  25.648  1.00  0.00    -0.462 OA
BRANCH   3   4
ATOM      4  C   UNL A   1      32.936  20.532  25.021  1.00  0.00     0.312 C 
ATOM      5  O   UNL A   1      32.023  19.710  25.021  1.00  0.00    -0.252 OA
BRANCH   4   6
ATOM      6  C   UNL A   1      32.778  21.894  24.369  1.00  0.00     0.124 C 
ATOM      7  C   UNL A   1      31.195  23.363  23.209  1.00  0.00     0.104 C 
ATOM      8  C   UNL A   1      31.263  23.669  24.666  1.00  0.00    -0.006 C 
ATOM      9  C   UNL A   1      31.978  22.050  23.068  1.00  0.00     0.048 C 
ATOM     10  C   UNL A   1      32.110  22.859  25.308  1.00  0.00    -0.014 C 
BRANCH   7  11
ATOM     11  N   UNL A   1      31.667  24.473  22.411  1.00  0.00    -0.364 N 
ATOM     12  H   UNL A   1      31.976  24.195  21.519  1.00  0.00     0.162 HD
BRANCH  11  13
ATOM     13  C   UNL A   1      31.781  25.817  22.609  1.00  0.00     0.130 A 
ATOM     14  C   UNL A   1      34.159  28.702  22.915  1.00  0.00     0.067 C 
ATOM     15  C   UNL A   1      32.903  27.884  22.897  1.00  0.00     0.043 A 
ATOM     16  C   UNL A   1      32.961  26.513  22.734  1.00  0.00     0.070 A 
ATOM     17  N   UNL A   1      31.739  28.543  22.966  1.00  0.00    -0.238 NA
ATOM     18  C   UNL A   1      30.628  27.800  22.857  1.00  0.00     0.127 A 
ATOM     19  N   UNL A   1      30.605  26.463  22.677  1.00  0.00    -0.216 NA
ATOM     20  C   UNL A   1      29.318  28.512  22.978  1.00  0.00     0.090 C 
ENDBRANCH  11  13
ENDBRANCH   7  11
ENDBRANCH   4   6
ENDBRANCH   3   4
ENDBRANCH   2   3
ENDBRANCH   1   2
BRANCH   1  21
ATOM     21  O   UNL A   1      37.669  21.225  25.011  1.00  0.00    -0.458 OA
BRANCH  21  22
ATOM     22  C   UNL A   1      38.783  20.968  25.736  1.00  0.00     0.338 C 
ATOM     23  O   UNL A   1      39.336  19.893  25.884  1.00  0.00    -0.246 OA
BRANCH  22  24
ATOM     24  C   UNL A   1      39.294  22.208  26.333  1.00  0.00     0.060 A 
ATOM     25  C   UNL A   1      38.775  23.433  25.910  1.00  0.00     0.016 A 
ATOM     26  C   UNL A   1      40.386  22.158  27.199  1.00  0.00     0.016 A 
ATOM     27  C   UNL A   1      39.394  24.617  26.309  1.00  0.00     0.010 A 
ATOM     28  C   UNL A   1      40.978  23.349  27.629  1.00  0.00     0.010 A 
ATOM     29  C   UNL A   1      40.511  24.588  27.158  1.00  0.00    -0.014 A 
BRANCH  29  30
ATOM     30  C   UNL A   1      41.212  25.848  27.522  1.00  0.00     0.031 A 
ATOM     31  C   UNL A   1      40.520  26.885  28.368  1.00  0.00     0.074 A 
ATOM     32  C   UNL A   1      42.472  26.064  27.096  1.00  0.00     0.049 A 
ATOM     33  N   UNL A   1      40.944  28.070  28.725  1.00  0.00    -0.248 NA
ATOM     34  C   UNL A   1      39.182  26.550  28.882  1.00  0.00     0.031 C 
ATOM     35  C   UNL A   1      43.262  25.136  26.287  1.00  0.00     0.029 A 
ATOM     36  N   UNL A   1      43.309  27.136  27.285  1.00  0.00    -0.354 N 
ATOM     37  C   UNL A   1      39.912  28.639  29.461  1.00  0.00     0.074 A 
ATOM     38  C   UNL A   1      38.841  27.669  29.510  1.00  0.00     0.031 C 
ATOM     39  C   UNL A   1      44.475  25.669  26.064  1.00  0.00     0.029 A 
ATOM     40  C   UNL A   1      44.533  26.994  26.674  1.00  0.00     0.049 A 
ATOM     41  H   UNL A   1      43.056  27.932  27.808  1.00  0.00     0.167 HD
ATOM     42  C   UNL A   1      39.868  29.853  30.059  1.00  0.00     0.034 A 
ATOM     43  C   UNL A   1      45.579  27.840  26.600  1.00  0.00     0.034 A 
ATOM     44  C   UNL A   1      40.955  30.794  30.076  1.00  0.00     0.049 A 
ATOM     45  C   UNL A   1      45.494  29.188  27.259  1.00  0.00     0.074 A 
ATOM     46  C   UNL A   1      41.010  32.026  30.704  1.00  0.00     0.029 A 
ATOM     47  N   UNL A   1      42.175  30.607  29.449  1.00  0.00    -0.354 N 
ATOM     48  N   UNL A   1      44.532  29.682  27.999  1.00  0.00    -0.248 NA
ATOM     49  C   UNL A   1      46.639  30.094  27.078  1.00  0.00     0.031 C 
ATOM     50  C   UNL A   1      42.264  32.588  30.453  1.00  0.00     0.029 A 
ATOM     51  C   UNL A   1      42.988  31.704  29.670  1.00  0.00     0.049 A 
ATOM     52  H   UNL A   1      42.426  29.813  28.924  1.00  0.00     0.167 HD
ATOM     53  C   UNL A   1      44.963  30.944  28.390  1.00  0.00     0.074 A 
ATOM     54  C   UNL A   1      46.278  31.137  27.816  1.00  0.00     0.031 C 
ATOM     55  C   UNL A   1      44.316  31.864  29.142  1.00  0.00     0.034 A 
BRANCH  42  56
ATOM     56  C   UNL A   1      38.619  30.240  30.800  1.00  0.00     0.023 A 
ATOM     57  C   UNL A   1      38.519  29.952  32.175  1.00  0.00     0.012 A 
ATOM     58  C   UNL A   1      37.616  31.003  30.172  1.00  0.00     0.148 A 
ATOM     59  C   UNL A   1      37.436  30.421  32.916  1.00  0.00     0.002 A 
ATOM     60  C   UNL A   1      36.552  31.489  30.923  1.00  0.00     0.091 A 
ATOM     61  F   UNL A   1      37.735  31.257  28.861  1.00  0.00    -0.205 F 
ATOM     62  C   UNL A   1      36.460  31.196  32.294  1.00  0.00     0.022 A 
BRANCH  60  63
ATOM     63  S   UNL A   1      35.271  32.542  30.233  1.00  0.00     0.127 S 
ATOM     64  O   UNL A   1      36.041  33.719  29.831  1.00  0.00    -0.237 OA
ATOM     65  O   UNL A   1      34.775  31.730  29.122  1.00  0.00    -0.237 OA
ATOM     66  O   UNL A   1      34.313  32.771  31.305  1.00  0.00    -0.744 OA
ENDBRANCH  60  63
ENDBRANCH  42  56
BRANCH  43  67
ATOM     67  C   UNL A   1      46.827  27.407  25.914  1.00  0.00     0.023 A 
ATOM     68  C   UNL A   1      47.752  26.615  26.620  1.00  0.00     0.012 A 
ATOM     69  C   UNL A   1      47.082  27.735  24.569  1.00  0.00     0.148 A 
ATOM     70  C   UNL A   1      48.916  26.160  25.999  1.00  0.00     0.002 A 
ATOM     71  C   UNL A   1      48.223  27.246  23.944  1.00  0.00     0.091 A 
ATOM     72  F   UNL A   1      46.193  28.504  23.925  1.00  0.00    -0.205 F 
ATOM     73  C   UNL A   1      49.146  26.467  24.661  1.00  0.00     0.022 A 
BRANCH  71  74
ATOM     74  S   UNL A   1      48.555  27.502  22.198  1.00  0.00     0.127 S 
ATOM     75  O   UNL A   1      49.790  28.281  22.239  1.00  0.00    -0.237 OA
ATOM     76  O   UNL A   1      48.708  26.128  21.717  1.00  0.00    -0.237 OA
ATOM     77  O   UNL A   1      47.388  28.198  21.672  1.00  0.00    -0.744 OA
ENDBRANCH  71  74
ENDBRANCH  43  67
BRANCH  55  78
ATOM     78  C   UNL A   1      45.006  33.171  29.415  1.00  0.00     0.023 A 
ATOM     79  C   UNL A   1      45.869  33.272  30.522  1.00  0.00     0.012 A 
ATOM     80  C   UNL A   1      44.906  34.244  28.506  1.00  0.00     0.148 A 
ATOM     81  C   UNL A   1      46.623  34.427  30.725  1.00  0.00     0.002 A 
ATOM     82  C   UNL A   1      45.685  35.378  28.698  1.00  0.00     0.091 A 
ATOM     83  F   UNL A   1      44.070  34.121  27.465  1.00  0.00    -0.205 F 
ATOM     84  C   UNL A   1      46.540  35.474  29.807  1.00  0.00     0.022 A 
BRANCH  82  85
ATOM     85  S   UNL A   1      45.707  36.747  27.533  1.00  0.00     0.127 S 
ATOM     86  O   UNL A   1      44.285  37.078  27.436  1.00  0.00    -0.237 OA
ATOM     87  O   UNL A   1      46.518  37.739  28.238  1.00  0.00    -0.237 OA
ATOM     88  O   UNL A   1      46.307  36.228  26.311  1.00  0.00    -0.744 OA
ENDBRANCH  82  85
ENDBRANCH  55  78
ENDBRANCH  29  30
ENDBRANCH  22  24
ENDBRANCH  21  22
ENDBRANCH   1  21
TORSDOF 16
ENDMDL
MODEL 2
REMARK VINA RESULT:     -11.7      5.369     10.225
REMARK SMILES Cc1cc(N[C@@H]2C=C[C@@H](C(=O)OCCOC(=O)c3ccc(-c4c5nc(c(-c6cccc(S(=O)(=O)[O-])c6F)c6ccc([nH]6)c(-c6cccc(S(=O)(=O)[O-])c6F)c6nc(c(-c7cccc(S(=O)(=O)[O-])c7F)c7ccc4[nH]7)C=C6)C=C5)cc3)C2)nc(C)n1
REMARK SMILES IDX 14 1 13 2 12 3 10 4 11 5 9 6 6 7 7 8 81 9 8 10 5 11 4 13
REMARK SMILES IDX 1 14 2 15 3 16 85 17 83 18 82 19 84 20 15 21 16 22 17 23
REMARK SMILES IDX 18 24 19 25 80 26 20 27 79 28 21 29 22 30 23 31 73 32 24 33
REMARK SMILES IDX 78 34 72 35 74 36 25 37 77 38 71 39 70 40 26 42 58 43 38 44
REMARK SMILES IDX 57 45 39 46 42 47 56 48 75 49 40 50 41 51 55 53 76 54 43 55
REMARK SMILES IDX 27 56 28 57 36 58 29 59 31 60 37 61 30 62 32 63 33 64 34 65
REMARK SMILES IDX 35 66 59 67 60 68 68 69 61 70 63 71 69 72 62 73 64 74 65 75
REMARK SMILES IDX 66 76 67 77 44 78 45 79 53 80 46 81 48 82 54 83 47 84 49 85
REMARK SMILES IDX 50 86 51 87 52 88
REMARK H PARENT 5 12 74 41 42 52
REMARK Flexibility Score: inf
ROOT
ATOM      1  C   UNL A   1      31.383  30.646  25.848  1.00  0.00     0.275 C 
ENDROOT
BRANCH   1   2
ATOM      2  C   UNL A   1      31.051  29.763  24.646  1.00  0.00     0.274 C 
BRANCH   2   3
ATOM      3  O   UNL A   1      31.385  28.392  24.934  1.00  0.00    -0.462 OA
BRANCH   3   4
ATOM      4  C   UNL A   1      30.749  27.463  24.183  1.00  0.00     0.312 C 
ATOM      5  O   UNL A   1      29.544  27.468  23.943  1.00  0.00    -0.252 OA
BRANCH   4   6
ATOM      6  C   UNL A   1      31.675  26.429  23.568  1.00  0.00     0.124 C 
ATOM      7  C   UNL A   1      32.230  25.252  21.491  1.00  0.00     0.104 C 
ATOM      8  C   UNL A   1      33.107  26.438  21.702  1.00  0.00    -0.006 C 
ATOM      9  C   UNL A   1      31.141  25.400  22.563  1.00  0.00     0.048 C 
ATOM     10  C   UNL A   1      32.797  27.097  22.824  1.00  0.00    -0.014 C 
BRANCH   7  11
ATOM     11  N   UNL A   1      32.988  24.020  21.520  1.00  0.00    -0.364 N 
ATOM     12  H   UNL A   1      33.181  23.672  20.620  1.00  0.00     0.162 HD
BRANCH  11  13
ATOM     13  C   UNL A   1      33.496  23.229  22.508  1.00  0.00     0.130 A 
ATOM     14  C   UNL A   1      32.801  20.385  24.851  1.00  0.00     0.067 C 
ATOM     15  C   UNL A   1      33.478  21.525  24.153  1.00  0.00     0.043 A 
ATOM     16  C   UNL A   1      32.803  22.267  23.203  1.00  0.00     0.070 A 
ATOM     17  N   UNL A   1      34.771  21.738  24.434  1.00  0.00    -0.238 NA
ATOM     18  C   UNL A   1      35.380  22.704  23.732  1.00  0.00     0.127 A 
ATOM     19  N   UNL A   1      34.793  23.455  22.777  1.00  0.00    -0.216 NA
ATOM     20  C   UNL A   1      36.810  22.987  24.064  1.00  0.00     0.090 C 
ENDBRANCH  11  13
ENDBRANCH   7  11
ENDBRANCH   4   6
ENDBRANCH   3   4
ENDBRANCH   2   3
ENDBRANCH   1   2
BRANCH   1  21
ATOM     21  O   UNL A   1      32.741  30.456  26.290  1.00  0.00    -0.458 OA
BRANCH  21  22
ATOM     22  C   UNL A   1      33.234  31.454  27.058  1.00  0.00     0.338 C 
ATOM     23  O   UNL A   1      32.698  32.515  27.328  1.00  0.00    -0.246 OA
BRANCH  22  24
ATOM     24  C   UNL A   1      34.553  31.080  27.586  1.00  0.00     0.060 A 
ATOM     25  C   UNL A   1      34.813  29.742  27.886  1.00  0.00     0.016 A 
ATOM     26  C   UNL A   1      35.470  32.077  27.919  1.00  0.00     0.016 A 
ATOM     27  C   UNL A   1      35.974  29.406  28.580  1.00  0.00     0.010 A 
ATOM     28  C   UNL A   1      36.652  31.729  28.580  1.00  0.00     0.010 A 
ATOM     29  C   UNL A   1      36.898  30.396  28.949  1.00  0.00    -0.014 A 
BRANCH  29  30
ATOM     30  C   UNL A   1      38.098  30.043  29.754  1.00  0.00     0.031 A 
ATOM     31  C   UNL A   1      39.153  29.131  29.183  1.00  0.00     0.074 A 
ATOM     32  C   UNL A   1      38.245  30.541  30.996  1.00  0.00     0.049 A 
ATOM     33  N   UNL A   1      40.227  28.657  29.759  1.00  0.00    -0.248 NA
ATOM     34  C   UNL A   1      38.983  28.697  27.786  1.00  0.00     0.031 C 
ATOM     35  C   UNL A   1      37.309  31.447  31.661  1.00  0.00     0.029 A 
ATOM     36  N   UNL A   1      39.240  30.352  31.924  1.00  0.00    -0.354 N 
ATOM     37  C   UNL A   1      40.834  27.834  28.817  1.00  0.00     0.074 A 
ATOM     38  C   UNL A   1      40.015  27.877  27.626  1.00  0.00     0.031 C 
ATOM     39  C   UNL A   1      37.782  31.751  32.881  1.00  0.00     0.029 A 
ATOM     40  C   UNL A   1      39.029  31.027  33.103  1.00  0.00     0.049 A 
ATOM     41  H   UNL A   1      40.030  29.787  31.760  1.00  0.00     0.167 HD
ATOM     42  C   UNL A   1      41.980  27.122  28.928  1.00  0.00     0.034 A 
ATOM     43  C   UNL A   1      39.750  31.050  34.242  1.00  0.00     0.034 A 
ATOM     44  C   UNL A   1      42.837  27.131  30.082  1.00  0.00     0.049 A 
ATOM     45  C   UNL A   1      41.009  30.236  34.341  1.00  0.00     0.074 A 
ATOM     46  C   UNL A   1      44.045  26.477  30.256  1.00  0.00     0.029 A 
ATOM     47  N   UNL A   1      42.587  27.830  31.250  1.00  0.00    -0.354 N 
ATOM     48  N   UNL A   1      41.595  29.512  33.419  1.00  0.00    -0.248 NA
ATOM     49  C   UNL A   1      41.710  30.243  35.635  1.00  0.00     0.031 C 
ATOM     50  C   UNL A   1      44.524  26.777  31.533  1.00  0.00     0.029 A 
ATOM     51  C   UNL A   1      43.614  27.619  32.152  1.00  0.00     0.049 A 
ATOM     52  H   UNL A   1      41.796  28.393  31.415  1.00  0.00     0.167 HD
ATOM     53  C   UNL A   1      42.742  28.998  34.011  1.00  0.00     0.074 A 
ATOM     54  C   UNL A   1      42.778  29.500  35.369  1.00  0.00     0.031 C 
ATOM     55  C   UNL A   1      43.670  28.169  33.480  1.00  0.00     0.034 A 
BRANCH  42  56
ATOM     56  C   UNL A   1      42.426  26.297  27.753  1.00  0.00     0.023 A 
ATOM     57  C   UNL A   1      43.404  26.814  26.882  1.00  0.00     0.012 A 
ATOM     58  C   UNL A   1      41.980  24.970  27.596  1.00  0.00     0.148 A 
ATOM     59  C   UNL A   1      43.935  26.018  25.868  1.00  0.00     0.002 A 
ATOM     60  C   UNL A   1      42.534  24.175  26.599  1.00  0.00     0.091 A 
ATOM     61  F   UNL A   1      41.045  24.508  28.437  1.00  0.00    -0.205 F 
ATOM     62  C   UNL A   1      43.508  24.699  25.733  1.00  0.00     0.022 A 
BRANCH  60  63
ATOM     63  S   UNL A   1      42.096  22.448  26.373  1.00  0.00     0.127 S 
ATOM     64  O   UNL A   1      42.785  22.129  25.123  1.00  0.00    -0.237 OA
ATOM     65  O   UNL A   1      42.676  21.828  27.564  1.00  0.00    -0.237 OA
ATOM     66  O   UNL A   1      40.642  22.404  26.302  1.00  0.00    -0.744 OA
ENDBRANCH  60  63
ENDBRANCH  42  56
BRANCH  43  67
ATOM     67  C   UNL A   1      39.321  31.925  35.366  1.00  0.00     0.023 A 
ATOM     68  C   UNL A   1      38.488  31.389  36.367  1.00  0.00     0.012 A 
ATOM     69  C   UNL A   1      39.761  33.258  35.474  1.00  0.00     0.148 A 
ATOM     70  C   UNL A   1      38.094  32.168  37.454  1.00  0.00     0.002 A 
ATOM     71  C   UNL A   1      39.398  34.017  36.580  1.00  0.00     0.091 A 
ATOM     72  F   UNL A   1      40.539  33.749  34.499  1.00  0.00    -0.205 F 
ATOM     73  C   UNL A   1      38.557  33.477  37.566  1.00  0.00     0.022 A 
BRANCH  71  74
ATOM     74  S   UNL A   1      40.025  35.676  36.863  1.00  0.00     0.127 S 
ATOM     75  O   UNL A   1      39.409  36.014  38.144  1.00  0.00    -0.237 OA
ATOM     76  O   UNL A   1      41.470  35.446  36.915  1.00  0.00    -0.237 OA
ATOM     77  O   UNL A   1      39.582  36.466  35.723  1.00  0.00    -0.744 OA
ENDBRANCH  71  74
ENDBRANCH  43  67
BRANCH  55  78
ATOM     78  C   UNL A   1      44.824  27.746  34.345  1.00  0.00     0.023 A 
ATOM     79  C   UNL A   1      45.960  28.573  34.424  1.00  0.00     0.012 A 
ATOM     80  C   UNL A   1      44.727  26.612  35.176  1.00  0.00     0.148 A 
ATOM     81  C   UNL A   1      46.989  28.276  35.316  1.00  0.00     0.002 A 
ATOM     82  C   UNL A   1      45.741  26.341  36.086  1.00  0.00     0.091 A 
ATOM     83  F   UNL A   1      43.637  25.839  35.073  1.00  0.00    -0.205 F 
ATOM     84  C   UNL A   1      46.874  27.168  36.155  1.00  0.00     0.022 A 
BRANCH  82  85
ATOM     85  S   UNL A   1      45.652  24.983  37.260  1.00  0.00     0.127 S 
ATOM     86  O   UNL A   1      45.573  23.825  36.371  1.00  0.00    -0.237 OA
ATOM     87  O   UNL A   1      46.918  25.114  37.981  1.00  0.00    -0.237 OA
ATOM     88  O   UNL A   1      44.464  25.225  38.068  1.00  0.00    -0.744 OA
ENDBRANCH  82  85
ENDBRANCH  55  78
ENDBRANCH  29  30
ENDBRANCH  22  24
ENDBRANCH  21  22
ENDBRANCH   1  21
TORSDOF 16
ENDMDL
MODEL 3
REMARK VINA RESULT:     -11.6      5.881     11.029
REMARK SMILES Cc1cc(N[C@@H]2C=C[C@@H](C(=O)OCCOC(=O)c3ccc(-c4c5nc(c(-c6cccc(S(=O)(=O)[O-])c6F)c6ccc([nH]6)c(-c6cccc(S(=O)(=O)[O-])c6F)c6nc(c(-c7cccc(S(=O)(=O)[O-])c7F)c7ccc4[nH]7)C=C6)C=C5)cc3)C2)nc(C)n1
REMARK SMILES IDX 14 1 13 2 12 3 10 4 11 5 9 6 6 7 7 8 81 9 8 10 5 11 4 13
REMARK SMILES IDX 1 14 2 15 3 16 85 17 83 18 82 19 84 20 15 21 16 22 17 23
REMARK SMILES IDX 18 24 19 25 80 26 20 27 79 28 21 29 22 30 23 31 73 32 24 33
REMARK SMILES IDX 78 34 72 35 74 36 25 37 77 38 71 39 70 40 26 42 58 43 38 44
REMARK SMILES IDX 57 45 39 46 42 47 56 48 75 49 40 50 41 51 55 53 76 54 43 55
REMARK SMILES IDX 27 56 28 57 36 58 29 59 31 60 37 61 30 62 32 63 33 64 34 65
REMARK SMILES IDX 35 66 59 67 60 68 68 69 61 70 63 71 69 72 62 73 64 74 65 75
REMARK SMILES IDX 66 76 67 77 44 78 45 79 53 80 46 81 48 82 54 83 47 84 49 85
REMARK SMILES IDX 50 86 51 87 52 88
REMARK H PARENT 5 12 74 41 42 52
REMARK Flexibility Score: inf
ROOT
ATOM      1  C   UNL A   1      31.845  32.744  27.124  1.00  0.00     0.275 C 
ENDROOT
BRANCH   1   2
ATOM      2  C   UNL A   1      31.881  31.290  26.656  1.00  0.00     0.274 C 
BRANCH   2   3
ATOM      3  O   UNL A   1      33.175  30.718  26.922  1.00  0.00    -0.462 OA
BRANCH   3   4
ATOM      4  C   UNL A   1      33.348  29.440  26.510  1.00  0.00     0.312 C 
ATOM      5  O   UNL A   1      34.107  28.634  27.044  1.00  0.00    -0.252 OA
BRANCH   4   6
ATOM      6  C   UNL A   1      32.446  29.038  25.358  1.00  0.00     0.124 C 
ATOM      7  C   UNL A   1      32.390  27.889  23.193  1.00  0.00     0.104 C 
ATOM      8  C   UNL A   1      31.976  26.987  24.305  1.00  0.00    -0.006 C 
ATOM      9  C   UNL A   1      32.940  29.132  23.908  1.00  0.00     0.048 C 
ATOM     10  C   UNL A   1      32.023  27.601  25.491  1.00  0.00    -0.014 C 
BRANCH   7  11
ATOM     11  N   UNL A   1      31.306  28.118  22.263  1.00  0.00    -0.364 N 
ATOM     12  H   UNL A   1      31.511  27.797  21.356  1.00  0.00     0.162 HD
BRANCH  11  13
ATOM     13  C   UNL A   1      30.065  28.676  22.355  1.00  0.00     0.130 A 
ATOM     14  C   UNL A   1      26.570  28.239  23.642  1.00  0.00     0.067 C 
ATOM     15  C   UNL A   1      27.775  28.798  22.949  1.00  0.00     0.043 A 
ATOM     16  C   UNL A   1      28.954  28.079  22.901  1.00  0.00     0.070 A 
ATOM     17  N   UNL A   1      27.679  30.040  22.454  1.00  0.00    -0.238 NA
ATOM     18  C   UNL A   1      28.797  30.553  21.919  1.00  0.00     0.127 A 
ATOM     19  N   UNL A   1      29.987  29.921  21.854  1.00  0.00    -0.216 NA
ATOM     20  C   UNL A   1      28.698  31.920  21.320  1.00  0.00     0.090 C 
ENDBRANCH  11  13
ENDBRANCH   7  11
ENDBRANCH   4   6
ENDBRANCH   3   4
ENDBRANCH   2   3
ENDBRANCH   1   2
BRANCH   1  21
ATOM     21  O   UNL A   1      33.170  33.267  27.341  1.00  0.00    -0.458 OA
BRANCH  21  22
ATOM     22  C   UNL A   1      33.267  34.177  28.337  1.00  0.00     0.338 C 
ATOM     23  O   UNL A   1      32.551  35.145  28.526  1.00  0.00    -0.246 OA
BRANCH  22  24
ATOM     24  C   UNL A   1      34.378  33.830  29.232  1.00  0.00     0.060 A 
ATOM     25  C   UNL A   1      35.656  34.318  28.953  1.00  0.00     0.016 A 
ATOM     26  C   UNL A   1      34.176  32.904  30.255  1.00  0.00     0.016 A 
ATOM     27  C   UNL A   1      36.750  33.828  29.665  1.00  0.00     0.010 A 
ATOM     28  C   UNL A   1      35.272  32.446  30.993  1.00  0.00     0.010 A 
ATOM     29  C   UNL A   1      36.572  32.876  30.681  1.00  0.00    -0.014 A 
BRANCH  29  30
ATOM     30  C   UNL A   1      37.749  32.302  31.387  1.00  0.00     0.031 A 
ATOM     31  C   UNL A   1      38.536  31.179  30.762  1.00  0.00     0.074 A 
ATOM     32  C   UNL A   1      38.116  32.789  32.588  1.00  0.00     0.049 A 
ATOM     33  N   UNL A   1      39.543  30.507  31.258  1.00  0.00    -0.248 NA
ATOM     34  C   UNL A   1      38.144  30.756  29.407  1.00  0.00     0.031 C 
ATOM     35  C   UNL A   1      37.453  33.884  33.295  1.00  0.00     0.029 A 
ATOM     36  N   UNL A   1      39.138  32.421  33.428  1.00  0.00    -0.354 N 
ATOM     37  C   UNL A   1      39.875  29.555  30.301  1.00  0.00     0.074 A 
ATOM     38  C   UNL A   1      38.968  29.737  29.189  1.00  0.00     0.031 C 
ATOM     39  C   UNL A   1      38.095  34.113  34.453  1.00  0.00     0.029 A 
ATOM     40  C   UNL A   1      39.186  33.152  34.591  1.00  0.00     0.049 A 
ATOM     41  H   UNL A   1      39.777  31.701  33.217  1.00  0.00     0.167 HD
ATOM     42  C   UNL A   1      40.857  28.625  30.337  1.00  0.00     0.034 A 
ATOM     43  C   UNL A   1      40.005  33.054  35.657  1.00  0.00     0.034 A 
ATOM     44  C   UNL A   1      41.808  28.484  31.406  1.00  0.00     0.049 A 
ATOM     45  C   UNL A   1      41.075  32.000  35.676  1.00  0.00     0.074 A 
ATOM     46  C   UNL A   1      42.868  27.600  31.498  1.00  0.00     0.029 A 
ATOM     47  N   UNL A   1      41.821  29.248  32.561  1.00  0.00    -0.354 N 
ATOM     48  N   UNL A   1      41.409  31.149  34.736  1.00  0.00    -0.248 NA
ATOM     49  C   UNL A   1      41.888  31.893  36.898  1.00  0.00     0.031 C 
ATOM     50  C   UNL A   1      43.522  27.825  32.711  1.00  0.00     0.029 A 
ATOM     51  C   UNL A   1      42.868  28.851  33.373  1.00  0.00     0.049 A 
ATOM     52  H   UNL A   1      41.181  29.965  32.773  1.00  0.00     0.167 HD
ATOM     53  C   UNL A   1      42.480  30.424  35.243  1.00  0.00     0.074 A 
ATOM     54  C   UNL A   1      42.751  30.940  36.568  1.00  0.00     0.031 C 
ATOM     55  C   UNL A   1      43.164  29.409  34.666  1.00  0.00     0.034 A 
BRANCH  42  56
ATOM     56  C   UNL A   1      41.008  27.698  29.164  1.00  0.00     0.023 A 
ATOM     57  C   UNL A   1      40.202  26.546  29.090  1.00  0.00     0.012 A 
ATOM     58  C   UNL A   1      41.841  28.038  28.080  1.00  0.00     0.148 A 
ATOM     59  C   UNL A   1      40.221  25.744  27.950  1.00  0.00     0.002 A 
ATOM     60  C   UNL A   1      41.835  27.248  26.937  1.00  0.00     0.091 A 
ATOM     61  F   UNL A   1      42.601  29.138  28.181  1.00  0.00    -0.205 F 
ATOM     62  C   UNL A   1      41.028  26.100  26.872  1.00  0.00     0.022 A 
BRANCH  60  63
ATOM     63  S   UNL A   1      42.794  27.646  25.471  1.00  0.00     0.127 S 
ATOM     64  O   UNL A   1      42.650  26.422  24.682  1.00  0.00    -0.237 OA
ATOM     65  O   UNL A   1      42.073  28.802  24.940  1.00  0.00    -0.237 OA
ATOM     66  O   UNL A   1      44.147  27.923  25.934  1.00  0.00    -0.744 OA
ENDBRANCH  60  63
ENDBRANCH  42  56
BRANCH  43  67
ATOM     67  C   UNL A   1      39.875  34.025  36.777  1.00  0.00     0.023 A 
ATOM     68  C   UNL A   1      40.253  35.364  36.564  1.00  0.00     0.012 A 
ATOM     69  C   UNL A   1      39.345  33.646  38.025  1.00  0.00     0.148 A 
ATOM     70  C   UNL A   1      40.111  36.311  37.579  1.00  0.00     0.002 A 
ATOM     71  C   UNL A   1      39.170  34.601  39.019  1.00  0.00     0.091 A 
ATOM     72  F   UNL A   1      39.009  32.361  38.206  1.00  0.00    -0.205 F 
ATOM     73  C   UNL A   1      39.562  35.932  38.801  1.00  0.00     0.022 A 
BRANCH  71  74
ATOM     74  S   UNL A   1      38.377  34.231  40.587  1.00  0.00     0.127 S 
ATOM     75  O   UNL A   1      37.201  33.479  40.157  1.00  0.00    -0.237 OA
ATOM     76  O   UNL A   1      39.405  33.437  41.263  1.00  0.00    -0.237 OA
ATOM     77  O   UNL A   1      38.109  35.521  41.208  1.00  0.00    -0.744 OA
ENDBRANCH  71  74
ENDBRANCH  43  67
BRANCH  55  78
ATOM     78  C   UNL A   1      44.288  28.778  35.439  1.00  0.00     0.023 A 
ATOM     79  C   UNL A   1      45.572  29.349  35.370  1.00  0.00     0.012 A 
ATOM     80  C   UNL A   1      44.043  27.715  36.331  1.00  0.00     0.148 A 
ATOM     81  C   UNL A   1      46.603  28.868  36.176  1.00  0.00     0.002 A 
ATOM     82  C   UNL A   1      45.067  27.262  37.155  1.00  0.00     0.091 A 
ATOM     83  F   UNL A   1      42.812  27.186  36.369  1.00  0.00    -0.205 F 
ATOM     84  C   UNL A   1      46.347  27.834  37.076  1.00  0.00     0.022 A 
BRANCH  82  85
ATOM     85  S   UNL A   1      44.819  25.989  38.399  1.00  0.00     0.127 S 
ATOM     86  O   UNL A   1      46.183  25.777  38.883  1.00  0.00    -0.237 OA
ATOM     87  O   UNL A   1      43.930  26.655  39.350  1.00  0.00    -0.237 OA
ATOM     88  O   UNL A   1      44.226  24.855  37.703  1.00  0.00    -0.744 OA
ENDBRANCH  82  85
ENDBRANCH  55  78
ENDBRANCH  29  30
ENDBRANCH  22  24
ENDBRANCH  21  22
ENDBRANCH   1  21
TORSDOF 16
ENDMDL
