MODEL 1
REMARK VINA RESULT:      -9.7      0.000      0.000
REMARK SMILES O=C(CCCc1csc2ccccc12)OCCOC(=O)c1ccc(-c2c3nc(c(-c4cccc(S(=O)(=O)[O-])c4F)c4ccc([nH]4)c(-c4cccc(S(=O)(=O)[O-])c4F)c4nc(c(-c5cccc(S(=O)(=O)[O-])c5F)c5ccc2[nH]5)C=C4)C=C3)cc1
REMARK SMILES IDX 16 1 15 2 2 3 1 4 3 5 4 6 5 7 6 8 7 9 14 10 8 11 9 12 13 13
REMARK SMILES IDX 10 14 12 15 11 16 17 17 18 18 19 19 20 20 21 21 22 22 83 23
REMARK SMILES IDX 23 24 82 25 24 26 25 27 26 28 76 29 27 30 81 31 75 32 77 33
REMARK SMILES IDX 28 34 80 35 74 36 73 37 29 39 61 40 41 41 60 42 42 43 45 44
REMARK SMILES IDX 59 45 78 46 43 47 44 48 58 50 79 51 46 52 30 53 31 54 39 55
REMARK SMILES IDX 32 56 34 57 40 58 33 59 35 60 36 61 37 62 38 63 62 64 63 65
REMARK SMILES IDX 71 66 64 67 66 68 72 69 65 70 67 71 68 72 69 73 70 74 47 75
REMARK SMILES IDX 48 76 56 77 49 78 51 79 57 80 50 81 52 82 53 83 54 84 55 85
REMARK H PARENT 77 38 45 49
REMARK Flexibility Score: inf
ROOT
ATOM      1  C   UNL A   1      42.246  19.663  26.607  1.00  0.00     0.274 C 
ENDROOT
BRANCH   1   2
ATOM      2  O   UNL A   1      42.757  19.617  25.262  1.00  0.00    -0.462 OA
BRANCH   2   3
ATOM      3  C   UNL A   1      44.085  19.456  25.028  1.00  0.00     0.305 C 
ATOM      4  O   UNL A   1      44.570  18.334  24.919  1.00  0.00    -0.252 OA
BRANCH   3   5
ATOM      5  C   UNL A   1      44.953  20.695  25.064  1.00  0.00     0.123 C 
BRANCH   5   6
ATOM      6  C   UNL A   1      44.387  21.892  24.300  1.00  0.00     0.016 C 
BRANCH   6   7
ATOM      7  C   UNL A   1      43.623  22.912  25.153  1.00  0.00     0.037 C 
BRANCH   7   8
ATOM      8  C   UNL A   1      44.213  23.239  26.509  1.00  0.00    -0.029 A 
ATOM      9  C   UNL A   1      43.625  22.966  27.731  1.00  0.00     0.069 A 
ATOM     10  C   UNL A   1      45.496  23.898  26.689  1.00  0.00    -0.004 A 
ATOM     11  S   UNL A   1      44.497  23.600  29.048  1.00  0.00    -0.144 S 
ATOM     12  C   UNL A   1      45.753  24.185  28.034  1.00  0.00     0.035 A 
ATOM     13  C   UNL A   1      46.468  24.306  25.736  1.00  0.00     0.010 A 
ATOM     14  C   UNL A   1      46.916  24.871  28.438  1.00  0.00     0.019 A 
ATOM     15  C   UNL A   1      47.630  24.974  26.135  1.00  0.00     0.001 A 
ATOM     16  C   UNL A   1      47.847  25.258  27.473  1.00  0.00     0.001 A 
ENDBRANCH   7   8
ENDBRANCH   6   7
ENDBRANCH   5   6
ENDBRANCH   3   5
ENDBRANCH   2   3
ENDBRANCH   1   2
BRANCH   1  17
ATOM     17  C   UNL A   1      40.807  20.172  26.683  1.00  0.00     0.275 C 
BRANCH  17  18
ATOM     18  O   UNL A   1      40.771  21.550  27.083  1.00  0.00    -0.458 OA
BRANCH  18  19
ATOM     19  C   UNL A   1      39.876  22.321  26.412  1.00  0.00     0.338 C 
ATOM     20  O   UNL A   1      39.005  21.932  25.661  1.00  0.00    -0.246 OA
BRANCH  19  21
ATOM     21  C   UNL A   1      40.004  23.730  26.859  1.00  0.00     0.060 A 
ATOM     22  C   UNL A   1      40.373  24.683  25.900  1.00  0.00     0.016 A 
ATOM     23  C   UNL A   1      39.758  24.122  28.178  1.00  0.00     0.016 A 
ATOM     24  C   UNL A   1      40.539  26.019  26.264  1.00  0.00     0.010 A 
ATOM     25  C   UNL A   1      39.927  25.461  28.543  1.00  0.00     0.010 A 
ATOM     26  C   UNL A   1      40.351  26.409  27.596  1.00  0.00    -0.014 A 
BRANCH  26  27
ATOM     27  C   UNL A   1      40.746  27.766  28.040  1.00  0.00     0.031 A 
ATOM     28  C   UNL A   1      42.207  28.113  28.083  1.00  0.00     0.074 A 
ATOM     29  C   UNL A   1      39.830  28.663  28.444  1.00  0.00     0.049 A 
ATOM     30  N   UNL A   1      42.786  29.215  28.482  1.00  0.00    -0.248 NA
ATOM     31  C   UNL A   1      43.142  27.071  27.625  1.00  0.00     0.031 C 
ATOM     32  C   UNL A   1      38.386  28.443  28.469  1.00  0.00     0.029 A 
ATOM     33  N   UNL A   1      39.990  29.930  28.950  1.00  0.00    -0.354 N 
ATOM     34  C   UNL A   1      44.150  28.992  28.351  1.00  0.00     0.074 A 
ATOM     35  C   UNL A   1      44.315  27.646  27.847  1.00  0.00     0.031 C 
ATOM     36  C   UNL A   1      37.793  29.521  29.011  1.00  0.00     0.029 A 
ATOM     37  C   UNL A   1      38.818  30.499  29.382  1.00  0.00     0.049 A 
ATOM     38  H   UNL A   1      40.862  30.385  28.998  1.00  0.00     0.167 HD
ATOM     39  C   UNL A   1      45.176  29.836  28.609  1.00  0.00     0.034 A 
ATOM     40  C   UNL A   1      38.597  31.664  30.026  1.00  0.00     0.034 A 
ATOM     41  C   UNL A   1      45.017  31.178  29.094  1.00  0.00     0.049 A 
ATOM     42  C   UNL A   1      39.753  32.588  30.313  1.00  0.00     0.074 A 
ATOM     43  C   UNL A   1      45.994  32.133  29.316  1.00  0.00     0.029 A 
ATOM     44  N   UNL A   1      43.808  31.751  29.451  1.00  0.00    -0.354 N 
ATOM     45  N   UNL A   1      41.024  32.429  30.033  1.00  0.00    -0.248 NA
ATOM     46  C   UNL A   1      39.442  33.866  30.970  1.00  0.00     0.031 C 
ATOM     47  C   UNL A   1      45.375  33.276  29.833  1.00  0.00     0.029 A 
ATOM     48  C   UNL A   1      44.012  33.040  29.910  1.00  0.00     0.049 A 
ATOM     49  H   UNL A   1      42.932  31.307  29.387  1.00  0.00     0.167 HD
ATOM     50  C   UNL A   1      41.657  33.597  30.446  1.00  0.00     0.074 A 
ATOM     51  C   UNL A   1      40.628  34.461  30.985  1.00  0.00     0.031 C 
ATOM     52  C   UNL A   1      42.975  33.918  30.391  1.00  0.00     0.034 A 
BRANCH  39  53
ATOM     53  C   UNL A   1      46.566  29.327  28.345  1.00  0.00     0.023 A 
ATOM     54  C   UNL A   1      47.135  29.492  27.066  1.00  0.00     0.012 A 
ATOM     55  C   UNL A   1      47.314  28.703  29.361  1.00  0.00     0.148 A 
ATOM     56  C   UNL A   1      48.414  29.010  26.792  1.00  0.00     0.002 A 
ATOM     57  C   UNL A   1      48.603  28.260  29.092  1.00  0.00     0.091 A 
ATOM     58  F   UNL A   1      46.743  28.526  30.562  1.00  0.00    -0.205 F 
ATOM     59  C   UNL A   1      49.151  28.403  27.807  1.00  0.00     0.022 A 
BRANCH  57  60
ATOM     60  S   UNL A   1      49.642  27.531  30.362  1.00  0.00     0.127 S 
ATOM     61  O   UNL A   1      50.725  26.958  29.566  1.00  0.00    -0.237 OA
ATOM     62  O   UNL A   1      50.025  28.696  31.162  1.00  0.00    -0.237 OA
ATOM     63  O   UNL A   1      48.794  26.576  31.061  1.00  0.00    -0.744 OA
ENDBRANCH  57  60
ENDBRANCH  39  53
BRANCH  40  64
ATOM     64  C   UNL A   1      37.206  32.031  30.414  1.00  0.00     0.023 A 
ATOM     65  C   UNL A   1      36.754  31.761  31.719  1.00  0.00     0.012 A 
ATOM     66  C   UNL A   1      36.352  32.693  29.510  1.00  0.00     0.148 A 
ATOM     67  C   UNL A   1      35.466  32.127  32.112  1.00  0.00     0.002 A 
ATOM     68  C   UNL A   1      35.090  33.101  29.925  1.00  0.00     0.091 A 
ATOM     69  F   UNL A   1      36.801  32.928  28.269  1.00  0.00    -0.205 F 
ATOM     70  C   UNL A   1      34.639  32.806  31.221  1.00  0.00     0.022 A 
BRANCH  68  71
ATOM     71  S   UNL A   1      34.005  34.093  28.891  1.00  0.00     0.127 S 
ATOM     72  O   UNL A   1      33.494  33.098  27.952  1.00  0.00    -0.237 OA
ATOM     73  O   UNL A   1      33.029  34.581  29.865  1.00  0.00    -0.237 OA
ATOM     74  O   UNL A   1      34.849  35.129  28.311  1.00  0.00    -0.744 OA
ENDBRANCH  68  71
ENDBRANCH  40  64
BRANCH  52  75
ATOM     75  C   UNL A   1      43.400  35.274  30.893  1.00  0.00     0.023 A 
ATOM     76  C   UNL A   1      43.842  35.421  32.222  1.00  0.00     0.012 A 
ATOM     77  C   UNL A   1      43.476  36.373  30.015  1.00  0.00     0.148 A 
ATOM     78  C   UNL A   1      44.337  36.644  32.674  1.00  0.00     0.002 A 
ATOM     79  C   UNL A   1      44.012  37.577  30.458  1.00  0.00     0.091 A 
ATOM     80  F   UNL A   1      43.034  36.219  28.758  1.00  0.00    -0.205 F 
ATOM     81  C   UNL A   1      44.436  37.716  31.790  1.00  0.00     0.022 A 
BRANCH  79  82
ATOM     82  S   UNL A   1      44.268  38.980  29.366  1.00  0.00     0.127 S 
ATOM     83  O   UNL A   1      45.207  38.432  28.389  1.00  0.00    -0.237 OA
ATOM     84  O   UNL A   1      42.921  39.223  28.848  1.00  0.00    -0.237 OA
ATOM     85  O   UNL A   1      44.792  40.050  30.205  1.00  0.00    -0.744 OA
ENDBRANCH  79  82
ENDBRANCH  52  75
ENDBRANCH  26  27
ENDBRANCH  19  21
ENDBRANCH  18  19
ENDBRANCH  17  18
ENDBRANCH   1  17
TORSDOF 17
ENDMDL
MODEL 2
REMARK VINA RESULT:      -9.6      1.503      2.007
REMARK SMILES O=C(CCCc1csc2ccccc12)OCCOC(=O)c1ccc(-c2c3nc(c(-c4cccc(S(=O)(=O)[O-])c4F)c4ccc([nH]4)c(-c4cccc(S(=O)(=O)[O-])c4F)c4nc(c(-c5cccc(S(=O)(=O)[O-])c5F)c5ccc2[nH]5)C=C4)C=C3)cc1
REMARK SMILES IDX 16 1 15 2 2 3 1 4 3 5 4 6 5 7 6 8 7 9 14 10 8 11 9 12 13 13
REMARK SMILES IDX 10 14 12 15 11 16 17 17 18 18 19 19 20 20 21 21 22 22 83 23
REMARK SMILES IDX 23 24 82 25 24 26 25 27 26 28 76 29 27 30 81 31 75 32 77 33
REMARK SMILES IDX 28 34 80 35 74 36 73 37 29 39 61 40 41 41 60 42 42 43 45 44
REMARK SMILES IDX 59 45 78 46 43 47 44 48 58 50 79 51 46 52 30 53 31 54 39 55
REMARK SMILES IDX 32 56 34 57 40 58 33 59 35 60 36 61 37 62 38 63 62 64 63 65
REMARK SMILES IDX 71 66 64 67 66 68 72 69 65 70 67 71 68 72 69 73 70 74 47 75
REMARK SMILES IDX 48 76 56 77 49 78 51 79 57 80 50 81 52 82 53 83 54 84 55 85
REMARK H PARENT 77 38 45 49
REMARK Flexibility Score: inf
ROOT
ATOM      1  C   UNL A   1      42.159  19.976  26.231  1.00  0.00     0.274 C 
ENDROOT
BRANCH   1   2
ATOM      2  O   UNL A   1      42.911  19.364  25.168  1.00  0.00    -0.462 OA
BRANCH   2   3
ATOM      3  C   UNL A   1      44.267  19.314  25.215  1.00  0.00     0.305 C 
ATOM      4  O   UNL A   1      44.853  18.236  25.234  1.00  0.00    -0.252 OA
BRANCH   3   5
ATOM      5  C   UNL A   1      45.004  20.622  25.400  1.00  0.00     0.123 C 
BRANCH   5   6
ATOM      6  C   UNL A   1      44.829  21.621  24.256  1.00  0.00     0.016 C 
BRANCH   6   7
ATOM      7  C   UNL A   1      44.421  23.037  24.680  1.00  0.00     0.037 C 
BRANCH   7   8
ATOM      8  C   UNL A   1      45.170  23.636  25.852  1.00  0.00    -0.029 A 
ATOM      9  C   UNL A   1      46.472  24.101  25.823  1.00  0.00     0.069 A 
ATOM     10  C   UNL A   1      44.596  23.791  27.179  1.00  0.00    -0.004 A 
ATOM     11  S   UNL A   1      47.047  24.573  27.355  1.00  0.00    -0.144 S 
ATOM     12  C   UNL A   1      45.534  24.262  28.103  1.00  0.00     0.035 A 
ATOM     13  C   UNL A   1      43.288  23.513  27.658  1.00  0.00     0.010 A 
ATOM     14  C   UNL A   1      45.212  24.437  29.464  1.00  0.00     0.019 A 
ATOM     15  C   UNL A   1      42.960  23.699  29.005  1.00  0.00     0.001 A 
ATOM     16  C   UNL A   1      43.917  24.152  29.899  1.00  0.00     0.001 A 
ENDBRANCH   7   8
ENDBRANCH   6   7
ENDBRANCH   5   6
ENDBRANCH   3   5
ENDBRANCH   2   3
ENDBRANCH   1   2
BRANCH   1  17
ATOM     17  C   UNL A   1      41.250  21.106  25.748  1.00  0.00     0.275 C 
BRANCH  17  18
ATOM     18  O   UNL A   1      40.586  21.738  26.853  1.00  0.00    -0.458 OA
BRANCH  18  19
ATOM     19  C   UNL A   1      39.472  22.444  26.528  1.00  0.00     0.338 C 
ATOM     20  O   UNL A   1      38.435  21.996  26.084  1.00  0.00    -0.246 OA
BRANCH  19  21
ATOM     21  C   UNL A   1      39.639  23.856  26.954  1.00  0.00     0.060 A 
ATOM     22  C   UNL A   1      40.149  24.760  26.012  1.00  0.00     0.016 A 
ATOM     23  C   UNL A   1      39.297  24.296  28.236  1.00  0.00     0.016 A 
ATOM     24  C   UNL A   1      40.357  26.095  26.361  1.00  0.00     0.010 A 
ATOM     25  C   UNL A   1      39.508  25.633  28.585  1.00  0.00     0.010 A 
ATOM     26  C   UNL A   1      40.070  26.530  27.661  1.00  0.00    -0.014 A 
BRANCH  26  27
ATOM     27  C   UNL A   1      40.501  27.875  28.110  1.00  0.00     0.031 A 
ATOM     28  C   UNL A   1      41.971  28.178  28.170  1.00  0.00     0.074 A 
ATOM     29  C   UNL A   1      39.607  28.799  28.503  1.00  0.00     0.049 A 
ATOM     30  N   UNL A   1      42.577  29.263  28.575  1.00  0.00    -0.248 NA
ATOM     31  C   UNL A   1      42.879  27.110  27.723  1.00  0.00     0.031 C 
ATOM     32  C   UNL A   1      38.156  28.622  28.511  1.00  0.00     0.029 A 
ATOM     33  N   UNL A   1      39.799  30.061  29.011  1.00  0.00    -0.354 N 
ATOM     34  C   UNL A   1      43.936  29.000  28.460  1.00  0.00     0.074 A 
ATOM     35  C   UNL A   1      44.066  27.649  27.959  1.00  0.00     0.031 C 
ATOM     36  C   UNL A   1      37.590  29.718  29.045  1.00  0.00     0.029 A 
ATOM     37  C   UNL A   1      38.638  30.665  29.429  1.00  0.00     0.049 A 
ATOM     38  H   UNL A   1      40.683  30.490  29.069  1.00  0.00     0.167 HD
ATOM     39  C   UNL A   1      44.983  29.813  28.732  1.00  0.00     0.034 A 
ATOM     40  C   UNL A   1      38.444  31.836  30.071  1.00  0.00     0.034 A 
ATOM     41  C   UNL A   1      44.858  31.160  29.214  1.00  0.00     0.049 A 
ATOM     42  C   UNL A   1      39.624  32.725  30.371  1.00  0.00     0.074 A 
ATOM     43  C   UNL A   1      45.860  32.085  29.448  1.00  0.00     0.029 A 
ATOM     44  N   UNL A   1      43.662  31.768  29.557  1.00  0.00    -0.354 N 
ATOM     45  N   UNL A   1      40.893  32.529  30.106  1.00  0.00    -0.248 NA
ATOM     46  C   UNL A   1      39.343  34.012  31.025  1.00  0.00     0.031 C 
ATOM     47  C   UNL A   1      45.269  33.246  29.958  1.00  0.00     0.029 A 
ATOM     48  C   UNL A   1      43.899  33.051  30.019  1.00  0.00     0.049 A 
ATOM     49  H   UNL A   1      42.774  31.350  29.483  1.00  0.00     0.167 HD
ATOM     50  C   UNL A   1      41.556  33.677  30.527  1.00  0.00     0.074 A 
ATOM     51  C   UNL A   1      40.546  34.572  31.054  1.00  0.00     0.031 C 
ATOM     52  C   UNL A   1      42.883  33.959  30.488  1.00  0.00     0.034 A 
BRANCH  39  53
ATOM     53  C   UNL A   1      46.360  29.263  28.483  1.00  0.00     0.023 A 
ATOM     54  C   UNL A   1      47.019  29.557  27.273  1.00  0.00     0.012 A 
ATOM     55  C   UNL A   1      47.008  28.472  29.451  1.00  0.00     0.148 A 
ATOM     56  C   UNL A   1      48.287  29.042  27.012  1.00  0.00     0.002 A 
ATOM     57  C   UNL A   1      48.289  27.994  29.200  1.00  0.00     0.091 A 
ATOM     58  F   UNL A   1      46.353  28.176  30.582  1.00  0.00    -0.205 F 
ATOM     59  C   UNL A   1      48.926  28.268  27.979  1.00  0.00     0.022 A 
BRANCH  57  60
ATOM     60  S   UNL A   1      49.206  27.050  30.421  1.00  0.00     0.127 S 
ATOM     61  O   UNL A   1      49.083  27.898  31.605  1.00  0.00    -0.237 OA
ATOM     62  O   UNL A   1      48.447  25.799  30.487  1.00  0.00    -0.237 OA
ATOM     63  O   UNL A   1      50.550  26.907  29.879  1.00  0.00    -0.744 OA
ENDBRANCH  57  60
ENDBRANCH  39  53
BRANCH  40  64
ATOM     64  C   UNL A   1      37.061  32.244  30.442  1.00  0.00     0.023 A 
ATOM     65  C   UNL A   1      36.610  32.054  31.762  1.00  0.00     0.012 A 
ATOM     66  C   UNL A   1      36.212  32.866  29.506  1.00  0.00     0.148 A 
ATOM     67  C   UNL A   1      35.329  32.460  32.138  1.00  0.00     0.002 A 
ATOM     68  C   UNL A   1      34.959  33.316  29.901  1.00  0.00     0.091 A 
ATOM     69  F   UNL A   1      36.660  33.025  28.252  1.00  0.00    -0.205 F 
ATOM     70  C   UNL A   1      34.508  33.100  31.214  1.00  0.00     0.022 A 
BRANCH  68  71
ATOM     71  S   UNL A   1      33.883  34.263  28.817  1.00  0.00     0.127 S 
ATOM     72  O   UNL A   1      33.485  33.257  27.836  1.00  0.00    -0.237 OA
ATOM     73  O   UNL A   1      32.825  34.682  29.737  1.00  0.00    -0.237 OA
ATOM     74  O   UNL A   1      34.701  35.354  28.303  1.00  0.00    -0.744 OA
ENDBRANCH  68  71
ENDBRANCH  40  64
BRANCH  52  75
ATOM     75  C   UNL A   1      43.342  35.301  30.995  1.00  0.00     0.023 A 
ATOM     76  C   UNL A   1      43.604  36.342  30.083  1.00  0.00     0.012 A 
ATOM     77  C   UNL A   1      43.398  35.566  32.378  1.00  0.00     0.148 A 
ATOM     78  C   UNL A   1      43.929  37.619  30.538  1.00  0.00     0.002 A 
ATOM     79  C   UNL A   1      43.680  36.851  32.826  1.00  0.00     0.091 A 
ATOM     80  F   UNL A   1      43.164  34.558  33.231  1.00  0.00    -0.205 F 
ATOM     81  C   UNL A   1      43.953  37.878  31.907  1.00  0.00     0.022 A 
BRANCH  79  82
ATOM     82  S   UNL A   1      43.636  37.299  34.565  1.00  0.00     0.127 S 
ATOM     83  O   UNL A   1      42.261  36.960  34.928  1.00  0.00    -0.237 OA
ATOM     84  O   UNL A   1      44.653  36.419  35.141  1.00  0.00    -0.237 OA
ATOM     85  O   UNL A   1      43.966  38.717  34.622  1.00  0.00    -0.744 OA
ENDBRANCH  79  82
ENDBRANCH  52  75
ENDBRANCH  26  27
ENDBRANCH  19  21
ENDBRANCH  18  19
ENDBRANCH  17  18
ENDBRANCH   1  17
TORSDOF 17
ENDMDL
MODEL 3
REMARK VINA RESULT:      -9.4      5.136      9.381
REMARK SMILES O=C(CCCc1csc2ccccc12)OCCOC(=O)c1ccc(-c2c3nc(c(-c4cccc(S(=O)(=O)[O-])c4F)c4ccc([nH]4)c(-c4cccc(S(=O)(=O)[O-])c4F)c4nc(c(-c5cccc(S(=O)(=O)[O-])c5F)c5ccc2[nH]5)C=C4)C=C3)cc1
REMARK SMILES IDX 16 1 15 2 2 3 1 4 3 5 4 6 5 7 6 8 7 9 14 10 8 11 9 12 13 13
REMARK SMILES IDX 10 14 12 15 11 16 17 17 18 18 19 19 20 20 21 21 22 22 83 23
REMARK SMILES IDX 23 24 82 25 24 26 25 27 26 28 76 29 27 30 81 31 75 32 77 33
REMARK SMILES IDX 28 34 80 35 74 36 73 37 29 39 61 40 41 41 60 42 42 43 45 44
REMARK SMILES IDX 59 45 78 46 43 47 44 48 58 50 79 51 46 52 30 53 31 54 39 55
REMARK SMILES IDX 32 56 34 57 40 58 33 59 35 60 36 61 37 62 38 63 62 64 63 65
REMARK SMILES IDX 71 66 64 67 66 68 72 69 65 70 67 71 68 72 69 73 70 74 47 75
REMARK SMILES IDX 48 76 56 77 49 78 51 79 57 80 50 81 52 82 53 83 54 84 55 85
REMARK H PARENT 77 38 45 49
REMARK Flexibility Score: inf
ROOT
ATOM      1  C   UNL A   1      32.793  29.328  24.706  1.00  0.00     0.274 C 
ENDROOT
BRANCH   1   2
ATOM      2  O   UNL A   1      32.304  28.102  24.133  1.00  0.00    -0.462 OA
BRANCH   2   3
ATOM      3  C   UNL A   1      31.898  27.078  24.927  1.00  0.00     0.305 C 
ATOM      4  O   UNL A   1      30.719  26.740  24.959  1.00  0.00    -0.252 OA
BRANCH   3   5
ATOM      5  C   UNL A   1      32.919  26.484  25.872  1.00  0.00     0.123 C 
BRANCH   5   6
ATOM      6  C   UNL A   1      34.164  25.915  25.192  1.00  0.00     0.016 C 
BRANCH   6   7
ATOM      7  C   UNL A   1      33.897  25.059  23.947  1.00  0.00     0.037 C 
BRANCH   7   8
ATOM      8  C   UNL A   1      33.734  23.571  24.171  1.00  0.00    -0.029 A 
ATOM      9  C   UNL A   1      32.533  22.885  24.191  1.00  0.00     0.069 A 
ATOM     10  C   UNL A   1      34.849  22.665  24.401  1.00  0.00    -0.004 A 
ATOM     11  S   UNL A   1      32.706  21.245  24.614  1.00  0.00    -0.144 S 
ATOM     12  C   UNL A   1      34.417  21.367  24.692  1.00  0.00     0.035 A 
ATOM     13  C   UNL A   1      36.249  22.905  24.406  1.00  0.00     0.010 A 
ATOM     14  C   UNL A   1      35.325  20.334  25.002  1.00  0.00     0.019 A 
ATOM     15  C   UNL A   1      37.153  21.880  24.699  1.00  0.00     0.001 A 
ATOM     16  C   UNL A   1      36.693  20.608  25.000  1.00  0.00     0.001 A 
ENDBRANCH   7   8
ENDBRANCH   6   7
ENDBRANCH   5   6
ENDBRANCH   3   5
ENDBRANCH   2   3
ENDBRANCH   1   2
BRANCH   1  17
ATOM     17  C   UNL A   1      31.772  30.015  25.612  1.00  0.00     0.275 C 
BRANCH  17  18
ATOM     18  O   UNL A   1      32.294  30.184  26.938  1.00  0.00    -0.458 OA
BRANCH  18  19
ATOM     19  C   UNL A   1      32.925  31.365  27.162  1.00  0.00     0.338 C 
ATOM     20  O   UNL A   1      32.442  32.475  27.063  1.00  0.00    -0.246 OA
BRANCH  19  21
ATOM     21  C   UNL A   1      34.277  31.107  27.718  1.00  0.00     0.060 A 
ATOM     22  C   UNL A   1      34.627  29.775  27.978  1.00  0.00     0.016 A 
ATOM     23  C   UNL A   1      35.191  32.135  27.970  1.00  0.00     0.016 A 
ATOM     24  C   UNL A   1      35.872  29.470  28.528  1.00  0.00     0.010 A 
ATOM     25  C   UNL A   1      36.438  31.829  28.523  1.00  0.00     0.010 A 
ATOM     26  C   UNL A   1      36.771  30.500  28.836  1.00  0.00    -0.014 A 
BRANCH  26  27
ATOM     27  C   UNL A   1      37.990  30.214  29.628  1.00  0.00     0.031 A 
ATOM     28  C   UNL A   1      38.986  29.228  29.087  1.00  0.00     0.074 A 
ATOM     29  C   UNL A   1      38.191  30.783  30.829  1.00  0.00     0.049 A 
ATOM     30  N   UNL A   1      40.093  28.789  29.626  1.00  0.00    -0.248 NA
ATOM     31  C   UNL A   1      38.687  28.651  27.767  1.00  0.00     0.031 C 
ATOM     32  C   UNL A   1      37.293  31.739  31.473  1.00  0.00     0.029 A 
ATOM     33  N   UNL A   1      39.204  30.603  31.739  1.00  0.00    -0.354 N 
ATOM     34  C   UNL A   1      40.609  27.865  28.727  1.00  0.00     0.074 A 
ATOM     35  C   UNL A   1      39.688  27.797  27.612  1.00  0.00     0.031 C 
ATOM     36  C   UNL A   1      37.770  32.026  32.696  1.00  0.00     0.029 A 
ATOM     37  C   UNL A   1      38.999  31.263  32.925  1.00  0.00     0.049 A 
ATOM     38  H   UNL A   1      40.001  30.053  31.558  1.00  0.00     0.167 HD
ATOM     39  C   UNL A   1      41.754  27.148  28.809  1.00  0.00     0.034 A 
ATOM     40  C   UNL A   1      39.705  31.237  34.075  1.00  0.00     0.034 A 
ATOM     41  C   UNL A   1      42.678  27.225  29.905  1.00  0.00     0.049 A 
ATOM     42  C   UNL A   1      40.974  30.427  34.151  1.00  0.00     0.074 A 
ATOM     43  C   UNL A   1      43.900  26.591  30.043  1.00  0.00     0.029 A 
ATOM     44  N   UNL A   1      42.476  27.962  31.060  1.00  0.00    -0.354 N 
ATOM     45  N   UNL A   1      41.534  29.683  33.227  1.00  0.00    -0.248 NA
ATOM     46  C   UNL A   1      41.728  30.480  35.412  1.00  0.00     0.031 C 
ATOM     47  C   UNL A   1      44.425  26.927  31.296  1.00  0.00     0.029 A 
ATOM     48  C   UNL A   1      43.540  27.787  31.926  1.00  0.00     0.049 A 
ATOM     49  H   UNL A   1      41.690  28.528  31.238  1.00  0.00     0.167 HD
ATOM     50  C   UNL A   1      42.719  29.210  33.781  1.00  0.00     0.074 A 
ATOM     51  C   UNL A   1      42.803  29.760  35.118  1.00  0.00     0.031 C 
ATOM     52  C   UNL A   1      43.647  28.385  33.233  1.00  0.00     0.034 A 
BRANCH  39  53
ATOM     53  C   UNL A   1      42.075  26.234  27.659  1.00  0.00     0.023 A 
ATOM     54  C   UNL A   1      42.784  26.736  26.549  1.00  0.00     0.012 A 
ATOM     55  C   UNL A   1      41.693  24.880  27.683  1.00  0.00     0.148 A 
ATOM     56  C   UNL A   1      43.076  25.913  25.463  1.00  0.00     0.002 A 
ATOM     57  C   UNL A   1      42.021  24.055  26.613  1.00  0.00     0.091 A 
ATOM     58  F   UNL A   1      40.990  24.429  28.732  1.00  0.00    -0.205 F 
ATOM     59  C   UNL A   1      42.702  24.572  25.499  1.00  0.00     0.022 A 
BRANCH  57  60
ATOM     60  S   UNL A   1      41.638  22.302  26.614  1.00  0.00     0.127 S 
ATOM     61  O   UNL A   1      42.278  21.858  25.377  1.00  0.00    -0.237 OA
ATOM     62  O   UNL A   1      42.292  21.837  27.838  1.00  0.00    -0.237 OA
ATOM     63  O   UNL A   1      40.185  22.218  26.643  1.00  0.00    -0.744 OA
ENDBRANCH  57  60
ENDBRANCH  39  53
BRANCH  40  64
ATOM     64  C   UNL A   1      39.234  32.038  35.240  1.00  0.00     0.023 A 
ATOM     65  C   UNL A   1      38.341  31.463  36.163  1.00  0.00     0.012 A 
ATOM     66  C   UNL A   1      39.709  33.345  35.461  1.00  0.00     0.148 A 
ATOM     67  C   UNL A   1      37.914  32.185  37.279  1.00  0.00     0.002 A 
ATOM     68  C   UNL A   1      39.322  34.038  36.601  1.00  0.00     0.091 A 
ATOM     69  F   UNL A   1      40.550  33.875  34.560  1.00  0.00    -0.205 F 
ATOM     70  C   UNL A   1      38.412  33.465  37.504  1.00  0.00     0.022 A 
BRANCH  68  71
ATOM     71  S   UNL A   1      40.008  35.639  37.041  1.00  0.00     0.127 S 
ATOM     72  O   UNL A   1      39.652  36.448  35.878  1.00  0.00    -0.237 OA
ATOM     73  O   UNL A   1      39.267  35.955  38.263  1.00  0.00    -0.237 OA
ATOM     74  O   UNL A   1      41.434  35.417  37.241  1.00  0.00    -0.744 OA
ENDBRANCH  68  71
ENDBRANCH  40  64
BRANCH  52  75
ATOM     75  C   UNL A   1      44.865  28.039  34.050  1.00  0.00     0.023 A 
ATOM     76  C   UNL A   1      45.969  28.914  34.064  1.00  0.00     0.012 A 
ATOM     77  C   UNL A   1      44.867  26.911  34.894  1.00  0.00     0.148 A 
ATOM     78  C   UNL A   1      47.062  28.662  34.894  1.00  0.00     0.002 A 
ATOM     79  C   UNL A   1      45.939  26.690  35.751  1.00  0.00     0.091 A 
ATOM     80  F   UNL A   1      43.815  26.081  34.853  1.00  0.00    -0.205 F 
ATOM     81  C   UNL A   1      47.041  27.561  35.746  1.00  0.00     0.022 A 
BRANCH  79  82
ATOM     82  S   UNL A   1      45.956  25.354  36.952  1.00  0.00     0.127 S 
ATOM     83  O   UNL A   1      47.216  25.596  37.653  1.00  0.00    -0.237 OA
ATOM     84  O   UNL A   1      44.756  25.629  37.743  1.00  0.00    -0.237 OA
ATOM     85  O   UNL A   1      45.897  24.120  36.179  1.00  0.00    -0.744 OA
ENDBRANCH  79  82
ENDBRANCH  52  75
ENDBRANCH  26  27
ENDBRANCH  19  21
ENDBRANCH  18  19
ENDBRANCH  17  18
ENDBRANCH   1  17
TORSDOF 17
ENDMDL
