MODEL 1
REMARK VINA RESULT:     -10.7      0.000      0.000
REMARK SMILES CCC[C@H](Cc1ccn(-c2ccccc2)n1)C(=O)OCCOC(=O)c1ccc(-c2c3nc(c(-c4cccc(S(=O)(=O)[O-])c4F)c4ccc([nH]4)c(-c4cccc(S(=O)(=O)[O-])c4F)c4nc(c(-c5cccc(S(=O)(=O)[O-])c5F)c5ccc2[nH]5)C=C4)C=C3)cc1
REMARK SMILES IDX 20 1 19 2 17 3 18 4 4 5 3 6 2 7 1 8 5 9 6 10 7 11 16 12 8 13
REMARK SMILES IDX 9 14 10 15 11 16 15 17 12 18 14 19 13 20 21 21 22 22 23 23
REMARK SMILES IDX 24 24 25 25 26 26 87 27 27 28 86 29 28 30 29 31 30 32 80 33
REMARK SMILES IDX 31 34 85 35 79 36 81 37 32 38 84 39 78 40 77 41 33 43 65 44
REMARK SMILES IDX 45 45 64 46 46 47 49 48 63 49 82 50 47 51 48 52 62 54 83 55
REMARK SMILES IDX 50 56 34 57 35 58 43 59 36 60 38 61 44 62 37 63 39 64 40 65
REMARK SMILES IDX 41 66 42 67 66 68 67 69 75 70 68 71 70 72 76 73 69 74 71 75
REMARK SMILES IDX 72 76 73 77 74 78 51 79 52 80 60 81 53 82 55 83 61 84 54 85
REMARK SMILES IDX 56 86 57 87 58 88 59 89
REMARK H PARENT 81 42 49 53
REMARK Flexibility Score: inf
ROOT
ATOM      1  C   UNL A   1      36.250  21.513  25.162  1.00  0.00     0.274 C 
ENDROOT
BRANCH   1   2
ATOM      2  O   UNL A   1      35.317  21.419  24.058  1.00  0.00    -0.462 OA
BRANCH   2   3
ATOM      3  C   UNL A   1      34.911  22.602  23.525  1.00  0.00     0.309 C 
ATOM      4  O   UNL A   1      35.635  23.349  22.870  1.00  0.00    -0.252 OA
BRANCH   3   5
ATOM      5  C   UNL A   1      33.496  23.010  23.916  1.00  0.00     0.105 C 
BRANCH   5   6
ATOM      6  C   UNL A   1      32.736  21.706  24.212  1.00  0.00     0.015 C 
BRANCH   6   7
ATOM      7  C   UNL A   1      31.755  21.773  25.385  1.00  0.00    -0.003 C 
ATOM      8  C   UNL A   1      32.225  22.629  26.549  1.00  0.00     0.004 C 
ENDBRANCH   6   7
ENDBRANCH   5   6
BRANCH   5   9
ATOM      9  C   UNL A   1      32.776  23.965  22.933  1.00  0.00     0.073 C 
BRANCH   9  10
ATOM     10  C   UNL A   1      32.206  25.223  23.564  1.00  0.00     0.064 A 
ATOM     11  C   UNL A   1      30.858  25.643  23.657  1.00  0.00     0.046 A 
ATOM     12  N   UNL A   1      33.023  26.136  24.117  1.00  0.00    -0.173 NA
ATOM     13  C   UNL A   1      30.880  26.753  24.462  1.00  0.00     0.115 A 
ATOM     14  N   UNL A   1      32.198  27.000  24.775  1.00  0.00    -0.241 N 
BRANCH  14  15
ATOM     15  C   UNL A   1      32.676  28.024  25.636  1.00  0.00     0.065 A 
ATOM     16  C   UNL A   1      31.972  29.236  25.751  1.00  0.00     0.028 A 
ATOM     17  C   UNL A   1      33.860  27.842  26.358  1.00  0.00     0.028 A 
ATOM     18  C   UNL A   1      32.461  30.259  26.563  1.00  0.00     0.002 A 
ATOM     19  C   UNL A   1      34.367  28.890  27.135  1.00  0.00     0.002 A 
ATOM     20  C   UNL A   1      33.670  30.095  27.236  1.00  0.00     0.000 A 
ENDBRANCH  14  15
ENDBRANCH   9  10
ENDBRANCH   5   9
ENDBRANCH   3   5
ENDBRANCH   2   3
ENDBRANCH   1   2
BRANCH   1  21
ATOM     21  C   UNL A   1      37.454  20.580  25.019  1.00  0.00     0.275 C 
BRANCH  21  22
ATOM     22  O   UNL A   1      38.630  21.155  25.590  1.00  0.00    -0.458 OA
BRANCH  22  23
ATOM     23  C   UNL A   1      39.632  20.258  25.705  1.00  0.00     0.338 C 
ATOM     24  O   UNL A   1      39.572  19.070  25.442  1.00  0.00    -0.246 OA
BRANCH  23  25
ATOM     25  C   UNL A   1      40.812  20.829  26.343  1.00  0.00     0.060 A 
ATOM     26  C   UNL A   1      40.795  20.824  27.742  1.00  0.00     0.016 A 
ATOM     27  C   UNL A   1      41.582  21.722  25.600  1.00  0.00     0.016 A 
ATOM     28  C   UNL A   1      41.342  21.891  28.407  1.00  0.00     0.010 A 
ATOM     29  C   UNL A   1      42.120  22.796  26.265  1.00  0.00     0.010 A 
ATOM     30  C   UNL A   1      41.898  22.911  27.640  1.00  0.00    -0.014 A 
BRANCH  30  31
ATOM     31  C   UNL A   1      42.221  24.149  28.313  1.00  0.00     0.031 A 
ATOM     32  C   UNL A   1      41.241  25.225  28.073  1.00  0.00     0.074 A 
ATOM     33  C   UNL A   1      43.236  24.202  29.195  1.00  0.00     0.049 A 
ATOM     34  N   UNL A   1      41.429  26.384  27.534  1.00  0.00    -0.248 NA
ATOM     35  C   UNL A   1      39.831  24.897  28.343  1.00  0.00     0.031 C 
ATOM     36  C   UNL A   1      44.018  23.063  29.698  1.00  0.00     0.029 A 
ATOM     37  N   UNL A   1      43.651  25.238  29.976  1.00  0.00    -0.354 N 
ATOM     38  C   UNL A   1      40.192  27.014  27.629  1.00  0.00     0.074 A 
ATOM     39  C   UNL A   1      39.217  25.995  27.909  1.00  0.00     0.031 C 
ATOM     40  C   UNL A   1      44.586  23.410  30.873  1.00  0.00     0.029 A 
ATOM     41  C   UNL A   1      44.313  24.814  31.122  1.00  0.00     0.049 A 
ATOM     42  H   UNL A   1      43.498  26.184  29.751  1.00  0.00     0.167 HD
ATOM     43  C   UNL A   1      40.088  28.356  27.804  1.00  0.00     0.034 A 
ATOM     44  C   UNL A   1      44.505  25.541  32.247  1.00  0.00     0.034 A 
ATOM     45  C   UNL A   1      41.310  29.045  27.509  1.00  0.00     0.049 A 
ATOM     46  C   UNL A   1      44.306  26.967  31.909  1.00  0.00     0.074 A 
ATOM     47  C   UNL A   1      42.077  29.283  26.392  1.00  0.00     0.029 A 
ATOM     48  N   UNL A   1      42.081  29.339  28.604  1.00  0.00    -0.354 N 
ATOM     49  N   UNL A   1      45.084  27.646  31.114  1.00  0.00    -0.248 NA
ATOM     50  C   UNL A   1      43.027  27.596  32.213  1.00  0.00     0.031 C 
ATOM     51  C   UNL A   1      43.411  29.441  26.868  1.00  0.00     0.029 A 
ATOM     52  C   UNL A   1      43.405  29.289  28.256  1.00  0.00     0.049 A 
ATOM     53  H   UNL A   1      41.738  29.554  29.500  1.00  0.00     0.167 HD
ATOM     54  C   UNL A   1      44.237  28.547  30.488  1.00  0.00     0.074 A 
ATOM     55  C   UNL A   1      43.050  28.597  31.330  1.00  0.00     0.031 C 
ATOM     56  C   UNL A   1      44.450  28.923  29.192  1.00  0.00     0.034 A 
BRANCH  43  57
ATOM     57  C   UNL A   1      39.018  28.994  28.655  1.00  0.00     0.023 A 
ATOM     58  C   UNL A   1      38.196  29.966  28.052  1.00  0.00     0.012 A 
ATOM     59  C   UNL A   1      38.958  28.886  30.065  1.00  0.00     0.148 A 
ATOM     60  C   UNL A   1      37.359  30.787  28.815  1.00  0.00     0.002 A 
ATOM     61  C   UNL A   1      38.052  29.630  30.805  1.00  0.00     0.091 A 
ATOM     62  F   UNL A   1      39.879  28.171  30.725  1.00  0.00    -0.205 F 
ATOM     63  C   UNL A   1      37.268  30.604  30.190  1.00  0.00     0.022 A 
BRANCH  61  64
ATOM     64  S   UNL A   1      37.860  29.346  32.568  1.00  0.00     0.127 S 
ATOM     65  O   UNL A   1      36.636  30.083  32.855  1.00  0.00    -0.237 OA
ATOM     66  O   UNL A   1      37.738  27.888  32.633  1.00  0.00    -0.237 OA
ATOM     67  O   UNL A   1      39.089  29.862  33.160  1.00  0.00    -0.744 OA
ENDBRANCH  61  64
ENDBRANCH  43  57
BRANCH  44  68
ATOM     68  C   UNL A   1      44.585  25.071  33.648  1.00  0.00     0.023 A 
ATOM     69  C   UNL A   1      43.400  24.810  34.358  1.00  0.00     0.012 A 
ATOM     70  C   UNL A   1      45.811  24.636  34.204  1.00  0.00     0.148 A 
ATOM     71  C   UNL A   1      43.427  24.111  35.569  1.00  0.00     0.002 A 
ATOM     72  C   UNL A   1      45.835  23.954  35.416  1.00  0.00     0.091 A 
ATOM     73  F   UNL A   1      46.938  24.811  33.502  1.00  0.00    -0.205 F 
ATOM     74  C   UNL A   1      44.642  23.678  36.095  1.00  0.00     0.022 A 
BRANCH  72  75
ATOM     75  S   UNL A   1      47.363  23.359  36.154  1.00  0.00     0.127 S 
ATOM     76  O   UNL A   1      47.874  22.468  35.110  1.00  0.00    -0.237 OA
ATOM     77  O   UNL A   1      48.118  24.597  36.326  1.00  0.00    -0.237 OA
ATOM     78  O   UNL A   1      46.973  22.676  37.381  1.00  0.00    -0.744 OA
ENDBRANCH  72  75
ENDBRANCH  44  68
BRANCH  56  79
ATOM     79  C   UNL A   1      45.820  28.682  28.614  1.00  0.00     0.023 A 
ATOM     80  C   UNL A   1      46.900  29.554  28.856  1.00  0.00     0.012 A 
ATOM     81  C   UNL A   1      46.057  27.478  27.929  1.00  0.00     0.148 A 
ATOM     82  C   UNL A   1      48.182  29.250  28.395  1.00  0.00     0.002 A 
ATOM     83  C   UNL A   1      47.344  27.154  27.518  1.00  0.00     0.091 A 
ATOM     84  F   UNL A   1      45.021  26.653  27.714  1.00  0.00    -0.205 F 
ATOM     85  C   UNL A   1      48.407  28.045  27.735  1.00  0.00     0.022 A 
BRANCH  83  86
ATOM     86  S   UNL A   1      47.725  25.554  26.804  1.00  0.00     0.127 S 
ATOM     87  O   UNL A   1      49.174  25.628  26.634  1.00  0.00    -0.237 OA
ATOM     88  O   UNL A   1      47.277  24.629  27.849  1.00  0.00    -0.237 OA
ATOM     89  O   UNL A   1      46.947  25.474  25.573  1.00  0.00    -0.744 OA
ENDBRANCH  83  86
ENDBRANCH  56  79
ENDBRANCH  30  31
ENDBRANCH  23  25
ENDBRANCH  22  23
ENDBRANCH  21  22
ENDBRANCH   1  21
TORSDOF 19
ENDMDL
MODEL 2
REMARK VINA RESULT:     -10.3      3.133      7.589
REMARK SMILES CCC[C@H](Cc1ccn(-c2ccccc2)n1)C(=O)OCCOC(=O)c1ccc(-c2c3nc(c(-c4cccc(S(=O)(=O)[O-])c4F)c4ccc([nH]4)c(-c4cccc(S(=O)(=O)[O-])c4F)c4nc(c(-c5cccc(S(=O)(=O)[O-])c5F)c5ccc2[nH]5)C=C4)C=C3)cc1
REMARK SMILES IDX 20 1 19 2 17 3 18 4 4 5 3 6 2 7 1 8 5 9 6 10 7 11 16 12 8 13
REMARK SMILES IDX 9 14 10 15 11 16 15 17 12 18 14 19 13 20 21 21 22 22 23 23
REMARK SMILES IDX 24 24 25 25 26 26 87 27 27 28 86 29 28 30 29 31 30 32 80 33
REMARK SMILES IDX 31 34 85 35 79 36 81 37 32 38 84 39 78 40 77 41 33 43 65 44
REMARK SMILES IDX 45 45 64 46 46 47 49 48 63 49 82 50 47 51 48 52 62 54 83 55
REMARK SMILES IDX 50 56 34 57 35 58 43 59 36 60 38 61 44 62 37 63 39 64 40 65
REMARK SMILES IDX 41 66 42 67 66 68 67 69 75 70 68 71 70 72 76 73 69 74 71 75
REMARK SMILES IDX 72 76 73 77 74 78 51 79 52 80 60 81 53 82 55 83 61 84 54 85
REMARK SMILES IDX 56 86 57 87 58 88 59 89
REMARK H PARENT 81 42 49 53
REMARK Flexibility Score: inf
ROOT
ATOM      1  C   UNL A   1      33.784  29.408  26.871  1.00  0.00     0.274 C 
ENDROOT
BRANCH   1   2
ATOM      2  O   UNL A   1      32.339  29.434  26.772  1.00  0.00    -0.462 OA
BRANCH   2   3
ATOM      3  C   UNL A   1      31.708  28.260  27.043  1.00  0.00     0.309 C 
ATOM      4  O   UNL A   1      31.437  27.867  28.175  1.00  0.00    -0.252 OA
BRANCH   3   5
ATOM      5  C   UNL A   1      31.468  27.384  25.819  1.00  0.00     0.105 C 
BRANCH   5   6
ATOM      6  C   UNL A   1      30.977  28.322  24.704  1.00  0.00     0.015 C 
BRANCH   6   7
ATOM      7  C   UNL A   1      30.067  27.674  23.658  1.00  0.00    -0.003 C 
ATOM      8  C   UNL A   1      29.323  28.660  22.774  1.00  0.00     0.004 C 
ENDBRANCH   6   7
ENDBRANCH   5   6
BRANCH   5   9
ATOM      9  C   UNL A   1      30.579  26.137  26.049  1.00  0.00     0.073 C 
BRANCH   9  10
ATOM     10  C   UNL A   1      31.284  24.805  25.865  1.00  0.00     0.064 A 
ATOM     11  C   UNL A   1      30.729  23.508  25.766  1.00  0.00     0.046 A 
ATOM     12  N   UNL A   1      32.626  24.750  25.798  1.00  0.00    -0.173 NA
ATOM     13  C   UNL A   1      31.780  22.688  25.441  1.00  0.00     0.115 A 
ATOM     14  N   UNL A   1      32.910  23.474  25.410  1.00  0.00    -0.241 N 
BRANCH  14  15
ATOM     15  C   UNL A   1      34.218  23.044  25.058  1.00  0.00     0.065 A 
ATOM     16  C   UNL A   1      34.513  21.672  24.980  1.00  0.00     0.028 A 
ATOM     17  C   UNL A   1      35.225  23.983  24.809  1.00  0.00     0.028 A 
ATOM     18  C   UNL A   1      35.807  21.247  24.676  1.00  0.00     0.002 A 
ATOM     19  C   UNL A   1      36.530  23.548  24.550  1.00  0.00     0.002 A 
ATOM     20  C   UNL A   1      36.820  22.184  24.485  1.00  0.00     0.000 A 
ENDBRANCH  14  15
ENDBRANCH   9  10
ENDBRANCH   5   9
ENDBRANCH   3   5
ENDBRANCH   2   3
ENDBRANCH   1   2
BRANCH   1  21
ATOM     21  C   UNL A   1      34.372  30.678  27.486  1.00  0.00     0.275 C 
BRANCH  21  22
ATOM     22  O   UNL A   1      35.799  30.638  27.500  1.00  0.00    -0.458 OA
BRANCH  22  23
ATOM     23  C   UNL A   1      36.330  31.612  28.271  1.00  0.00     0.338 C 
ATOM     24  O   UNL A   1      36.224  32.812  28.093  1.00  0.00    -0.246 OA
BRANCH  23  25
ATOM     25  C   UNL A   1      37.207  31.078  29.306  1.00  0.00     0.060 A 
ATOM     26  C   UNL A   1      38.315  31.875  29.617  1.00  0.00     0.016 A 
ATOM     27  C   UNL A   1      37.175  29.704  29.539  1.00  0.00     0.016 A 
ATOM     28  C   UNL A   1      39.502  31.257  29.914  1.00  0.00     0.010 A 
ATOM     29  C   UNL A   1      38.366  29.086  29.825  1.00  0.00     0.010 A 
ATOM     30  C   UNL A   1      39.524  29.865  29.903  1.00  0.00    -0.014 A 
BRANCH  30  31
ATOM     31  C   UNL A   1      40.817  29.219  29.940  1.00  0.00     0.031 A 
ATOM     32  C   UNL A   1      41.333  29.008  31.305  1.00  0.00     0.074 A 
ATOM     33  C   UNL A   1      41.365  28.726  28.814  1.00  0.00     0.049 A 
ATOM     34  N   UNL A   1      42.420  29.460  31.836  1.00  0.00    -0.248 NA
ATOM     35  C   UNL A   1      40.435  28.317  32.245  1.00  0.00     0.031 C 
ATOM     36  C   UNL A   1      40.721  28.629  27.496  1.00  0.00     0.029 A 
ATOM     37  N   UNL A   1      42.524  28.028  28.650  1.00  0.00    -0.354 N 
ATOM     38  C   UNL A   1      42.445  28.894  33.107  1.00  0.00     0.074 A 
ATOM     39  C   UNL A   1      41.120  28.408  33.381  1.00  0.00     0.031 C 
ATOM     40  C   UNL A   1      41.355  27.683  26.770  1.00  0.00     0.029 A 
ATOM     41  C   UNL A   1      42.506  27.217  27.521  1.00  0.00     0.049 A 
ATOM     42  H   UNL A   1      43.290  28.093  29.265  1.00  0.00     0.167 HD
ATOM     43  C   UNL A   1      43.611  28.561  33.716  1.00  0.00     0.034 A 
ATOM     44  C   UNL A   1      43.311  26.155  27.290  1.00  0.00     0.034 A 
ATOM     45  C   UNL A   1      44.749  29.176  33.098  1.00  0.00     0.049 A 
ATOM     46  C   UNL A   1      44.479  26.262  28.190  1.00  0.00     0.074 A 
ATOM     47  C   UNL A   1      45.232  30.456  32.946  1.00  0.00     0.029 A 
ATOM     48  N   UNL A   1      45.420  28.379  32.207  1.00  0.00    -0.354 N 
ATOM     49  N   UNL A   1      45.381  27.199  28.110  1.00  0.00    -0.248 NA
ATOM     50  C   UNL A   1      44.498  25.487  29.424  1.00  0.00     0.031 C 
ATOM     51  C   UNL A   1      45.991  30.440  31.740  1.00  0.00     0.029 A 
ATOM     52  C   UNL A   1      45.937  29.152  31.202  1.00  0.00     0.049 A 
ATOM     53  H   UNL A   1      45.516  27.403  32.279  1.00  0.00     0.167 HD
ATOM     54  C   UNL A   1      45.777  27.413  29.421  1.00  0.00     0.074 A 
ATOM     55  C   UNL A   1      45.350  26.222  30.143  1.00  0.00     0.031 C 
ATOM     56  C   UNL A   1      46.127  28.660  29.852  1.00  0.00     0.034 A 
BRANCH  43  57
ATOM     57  C   UNL A   1      43.764  27.342  34.592  1.00  0.00     0.023 A 
ATOM     58  C   UNL A   1      44.149  27.544  35.932  1.00  0.00     0.012 A 
ATOM     59  C   UNL A   1      43.810  26.016  34.102  1.00  0.00     0.148 A 
ATOM     60  C   UNL A   1      44.560  26.478  36.739  1.00  0.00     0.002 A 
ATOM     61  C   UNL A   1      44.120  24.951  34.936  1.00  0.00     0.091 A 
ATOM     62  F   UNL A   1      43.703  25.779  32.788  1.00  0.00    -0.205 F 
ATOM     63  C   UNL A   1      44.524  25.177  36.250  1.00  0.00     0.022 A 
BRANCH  61  64
ATOM     64  S   UNL A   1      43.993  23.260  34.344  1.00  0.00     0.127 S 
ATOM     65  O   UNL A   1      44.755  22.536  35.355  1.00  0.00    -0.237 OA
ATOM     66  O   UNL A   1      42.547  23.032  34.373  1.00  0.00    -0.237 OA
ATOM     67  O   UNL A   1      44.558  23.297  33.000  1.00  0.00    -0.744 OA
ENDBRANCH  61  64
ENDBRANCH  43  57
BRANCH  44  68
ATOM     68  C   UNL A   1      43.012  24.916  26.539  1.00  0.00     0.023 A 
ATOM     69  C   UNL A   1      43.899  24.483  25.537  1.00  0.00     0.012 A 
ATOM     70  C   UNL A   1      42.001  24.025  26.971  1.00  0.00     0.148 A 
ATOM     71  C   UNL A   1      43.805  23.195  25.001  1.00  0.00     0.002 A 
ATOM     72  C   UNL A   1      41.902  22.750  26.424  1.00  0.00     0.091 A 
ATOM     73  F   UNL A   1      41.199  24.396  27.977  1.00  0.00    -0.205 F 
ATOM     74  C   UNL A   1      42.812  22.327  25.448  1.00  0.00     0.022 A 
BRANCH  72  75
ATOM     75  S   UNL A   1      40.652  21.571  26.956  1.00  0.00     0.127 S 
ATOM     76  O   UNL A   1      40.944  21.446  28.385  1.00  0.00    -0.237 OA
ATOM     77  O   UNL A   1      39.415  22.281  26.643  1.00  0.00    -0.237 OA
ATOM     78  O   UNL A   1      40.899  20.356  26.189  1.00  0.00    -0.744 OA
ENDBRANCH  72  75
ENDBRANCH  44  68
BRANCH  56  79
ATOM     79  C   UNL A   1      46.480  29.684  28.805  1.00  0.00     0.023 A 
ATOM     80  C   UNL A   1      47.772  29.773  28.248  1.00  0.00     0.012 A 
ATOM     81  C   UNL A   1      45.452  30.479  28.270  1.00  0.00     0.148 A 
ATOM     82  C   UNL A   1      48.042  30.661  27.206  1.00  0.00     0.002 A 
ATOM     83  C   UNL A   1      45.712  31.322  27.196  1.00  0.00     0.091 A 
ATOM     84  F   UNL A   1      44.225  30.377  28.803  1.00  0.00    -0.205 F 
ATOM     85  C   UNL A   1      47.010  31.428  26.672  1.00  0.00     0.022 A 
BRANCH  83  86
ATOM     86  S   UNL A   1      44.397  32.217  26.368  1.00  0.00     0.127 S 
ATOM     87  O   UNL A   1      45.068  32.708  25.166  1.00  0.00    -0.237 OA
ATOM     88  O   UNL A   1      43.405  31.166  26.130  1.00  0.00    -0.237 OA
ATOM     89  O   UNL A   1      43.959  33.240  27.310  1.00  0.00    -0.744 OA
ENDBRANCH  83  86
ENDBRANCH  56  79
ENDBRANCH  30  31
ENDBRANCH  23  25
ENDBRANCH  22  23
ENDBRANCH  21  22
ENDBRANCH   1  21
TORSDOF 19
ENDMDL
MODEL 3
REMARK VINA RESULT:     -10.0      3.858      7.870
REMARK SMILES CCC[C@H](Cc1ccn(-c2ccccc2)n1)C(=O)OCCOC(=O)c1ccc(-c2c3nc(c(-c4cccc(S(=O)(=O)[O-])c4F)c4ccc([nH]4)c(-c4cccc(S(=O)(=O)[O-])c4F)c4nc(c(-c5cccc(S(=O)(=O)[O-])c5F)c5ccc2[nH]5)C=C4)C=C3)cc1
REMARK SMILES IDX 20 1 19 2 17 3 18 4 4 5 3 6 2 7 1 8 5 9 6 10 7 11 16 12 8 13
REMARK SMILES IDX 9 14 10 15 11 16 15 17 12 18 14 19 13 20 21 21 22 22 23 23
REMARK SMILES IDX 24 24 25 25 26 26 87 27 27 28 86 29 28 30 29 31 30 32 80 33
REMARK SMILES IDX 31 34 85 35 79 36 81 37 32 38 84 39 78 40 77 41 33 43 65 44
REMARK SMILES IDX 45 45 64 46 46 47 49 48 63 49 82 50 47 51 48 52 62 54 83 55
REMARK SMILES IDX 50 56 34 57 35 58 43 59 36 60 38 61 44 62 37 63 39 64 40 65
REMARK SMILES IDX 41 66 42 67 66 68 67 69 75 70 68 71 70 72 76 73 69 74 71 75
REMARK SMILES IDX 72 76 73 77 74 78 51 79 52 80 60 81 53 82 55 83 61 84 54 85
REMARK SMILES IDX 56 86 57 87 58 88 59 89
REMARK H PARENT 81 42 49 53
REMARK Flexibility Score: inf
ROOT
ATOM      1  C   UNL A   1      36.718  23.352  25.247  1.00  0.00     0.274 C 
ENDROOT
BRANCH   1   2
ATOM      2  O   UNL A   1      36.035  22.228  24.641  1.00  0.00    -0.462 OA
BRANCH   2   3
ATOM      3  C   UNL A   1      35.093  22.541  23.711  1.00  0.00     0.309 C 
ATOM      4  O   UNL A   1      35.320  23.180  22.686  1.00  0.00    -0.252 OA
BRANCH   3   5
ATOM      5  C   UNL A   1      33.674  22.144  24.103  1.00  0.00     0.105 C 
BRANCH   5   6
ATOM      6  C   UNL A   1      33.696  20.623  24.326  1.00  0.00     0.015 C 
BRANCH   6   7
ATOM      7  C   UNL A   1      32.359  19.911  24.106  1.00  0.00    -0.003 C 
ATOM      8  C   UNL A   1      32.435  18.396  24.180  1.00  0.00     0.004 C 
ENDBRANCH   6   7
ENDBRANCH   5   6
BRANCH   5   9
ATOM      9  C   UNL A   1      32.553  22.640  23.158  1.00  0.00     0.073 C 
BRANCH   9  10
ATOM     10  C   UNL A   1      31.888  23.938  23.579  1.00  0.00     0.064 A 
ATOM     11  C   UNL A   1      30.557  24.369  23.369  1.00  0.00     0.046 A 
ATOM     12  N   UNL A   1      32.592  24.883  24.228  1.00  0.00    -0.173 NA
ATOM     13  C   UNL A   1      30.434  25.529  24.090  1.00  0.00     0.115 A 
ATOM     14  N   UNL A   1      31.665  25.791  24.649  1.00  0.00    -0.241 N 
BRANCH  14  15
ATOM     15  C   UNL A   1      31.975  26.867  25.522  1.00  0.00     0.065 A 
ATOM     16  C   UNL A   1      31.211  27.077  26.684  1.00  0.00     0.028 A 
ATOM     17  C   UNL A   1      33.028  27.738  25.222  1.00  0.00     0.028 A 
ATOM     18  C   UNL A   1      31.487  28.158  27.521  1.00  0.00     0.002 A 
ATOM     19  C   UNL A   1      33.269  28.844  26.043  1.00  0.00     0.002 A 
ATOM     20  C   UNL A   1      32.500  29.055  27.188  1.00  0.00     0.000 A 
ENDBRANCH  14  15
ENDBRANCH   9  10
ENDBRANCH   5   9
ENDBRANCH   3   5
ENDBRANCH   2   3
ENDBRANCH   1   2
BRANCH   1  21
ATOM     21  C   UNL A   1      37.948  22.946  26.061  1.00  0.00     0.275 C 
BRANCH  21  22
ATOM     22  O   UNL A   1      38.749  24.080  26.395  1.00  0.00    -0.458 OA
BRANCH  22  23
ATOM     23  C   UNL A   1      39.908  23.728  26.991  1.00  0.00     0.338 C 
ATOM     24  O   UNL A   1      40.159  22.651  27.504  1.00  0.00    -0.246 OA
BRANCH  23  25
ATOM     25  C   UNL A   1      40.831  24.850  27.107  1.00  0.00     0.060 A 
ATOM     26  C   UNL A   1      41.618  24.859  28.264  1.00  0.00     0.016 A 
ATOM     27  C   UNL A   1      40.544  26.004  26.379  1.00  0.00     0.016 A 
ATOM     28  C   UNL A   1      41.898  26.064  28.856  1.00  0.00     0.010 A 
ATOM     29  C   UNL A   1      40.814  27.209  26.978  1.00  0.00     0.010 A 
ATOM     30  C   UNL A   1      41.391  27.211  28.251  1.00  0.00    -0.014 A 
BRANCH  30  31
ATOM     31  C   UNL A   1      41.444  28.441  29.008  1.00  0.00     0.031 A 
ATOM     32  C   UNL A   1      42.491  29.373  28.549  1.00  0.00     0.074 A 
ATOM     33  C   UNL A   1      40.493  28.724  29.918  1.00  0.00     0.049 A 
ATOM     34  N   UNL A   1      43.497  29.846  29.206  1.00  0.00    -0.248 NA
ATOM     35  C   UNL A   1      42.489  29.703  27.113  1.00  0.00     0.031 C 
ATOM     36  C   UNL A   1      39.259  27.964  30.158  1.00  0.00     0.029 A 
ATOM     37  N   UNL A   1      40.325  29.845  30.673  1.00  0.00    -0.354 N 
ATOM     38  C   UNL A   1      44.107  30.727  28.319  1.00  0.00     0.074 A 
ATOM     39  C   UNL A   1      43.600  30.427  27.007  1.00  0.00     0.031 C 
ATOM     40  C   UNL A   1      38.361  28.772  30.762  1.00  0.00     0.029 A 
ATOM     41  C   UNL A   1      39.003  30.039  31.057  1.00  0.00     0.049 A 
ATOM     42  H   UNL A   1      41.061  30.451  30.920  1.00  0.00     0.167 HD
ATOM     43  C   UNL A   1      44.728  31.855  28.748  1.00  0.00     0.034 A 
ATOM     44  C   UNL A   1      38.456  31.205  31.470  1.00  0.00     0.034 A 
ATOM     45  C   UNL A   1      44.999  31.831  30.156  1.00  0.00     0.049 A 
ATOM     46  C   UNL A   1      39.555  32.110  31.870  1.00  0.00     0.074 A 
ATOM     47  C   UNL A   1      45.801  31.104  31.005  1.00  0.00     0.029 A 
ATOM     48  N   UNL A   1      44.080  32.491  30.928  1.00  0.00    -0.354 N 
ATOM     49  N   UNL A   1      40.340  31.902  32.890  1.00  0.00    -0.248 NA
ATOM     50  C   UNL A   1      40.011  33.130  30.934  1.00  0.00     0.031 C 
ATOM     51  C   UNL A   1      45.142  31.125  32.269  1.00  0.00     0.029 A 
ATOM     52  C   UNL A   1      43.961  31.860  32.137  1.00  0.00     0.049 A 
ATOM     53  H   UNL A   1      43.582  33.295  30.657  1.00  0.00     0.167 HD
ATOM     54  C   UNL A   1      41.561  32.431  32.501  1.00  0.00     0.074 A 
ATOM     55  C   UNL A   1      41.249  33.324  31.394  1.00  0.00     0.031 C 
ATOM     56  C   UNL A   1      42.732  31.858  32.906  1.00  0.00     0.034 A 
BRANCH  43  57
ATOM     57  C   UNL A   1      44.699  33.154  27.982  1.00  0.00     0.023 A 
ATOM     58  C   UNL A   1      45.885  33.564  27.342  1.00  0.00     0.012 A 
ATOM     59  C   UNL A   1      43.659  34.109  28.082  1.00  0.00     0.148 A 
ATOM     60  C   UNL A   1      46.027  34.859  26.832  1.00  0.00     0.002 A 
ATOM     61  C   UNL A   1      43.767  35.356  27.484  1.00  0.00     0.091 A 
ATOM     62  F   UNL A   1      42.611  33.881  28.885  1.00  0.00    -0.205 F 
ATOM     63  C   UNL A   1      44.960  35.749  26.881  1.00  0.00     0.022 A 
BRANCH  61  64
ATOM     64  S   UNL A   1      42.369  36.483  27.463  1.00  0.00     0.127 S 
ATOM     65  O   UNL A   1      42.232  36.810  28.877  1.00  0.00    -0.237 OA
ATOM     66  O   UNL A   1      42.865  37.571  26.618  1.00  0.00    -0.237 OA
ATOM     67  O   UNL A   1      41.286  35.715  26.860  1.00  0.00    -0.744 OA
ENDBRANCH  61  64
ENDBRANCH  43  57
BRANCH  44  68
ATOM     68  C   UNL A   1      37.069  31.689  31.292  1.00  0.00     0.023 A 
ATOM     69  C   UNL A   1      36.327  32.092  32.416  1.00  0.00     0.012 A 
ATOM     70  C   UNL A   1      36.562  31.996  30.007  1.00  0.00     0.148 A 
ATOM     71  C   UNL A   1      35.132  32.805  32.272  1.00  0.00     0.002 A 
ATOM     72  C   UNL A   1      35.366  32.693  29.868  1.00  0.00     0.091 A 
ATOM     73  F   UNL A   1      37.296  31.686  28.931  1.00  0.00    -0.205 F 
ATOM     74  C   UNL A   1      34.655  33.111  30.999  1.00  0.00     0.022 A 
BRANCH  72  75
ATOM     75  S   UNL A   1      34.691  33.130  28.259  1.00  0.00     0.127 S 
ATOM     76  O   UNL A   1      34.333  31.819  27.716  1.00  0.00    -0.237 OA
ATOM     77  O   UNL A   1      33.555  33.971  28.627  1.00  0.00    -0.237 OA
ATOM     78  O   UNL A   1      35.771  33.797  27.543  1.00  0.00    -0.744 OA
ENDBRANCH  72  75
ENDBRANCH  44  68
BRANCH  56  79
ATOM     79  C   UNL A   1      42.680  30.931  34.093  1.00  0.00     0.023 A 
ATOM     80  C   UNL A   1      42.784  31.403  35.417  1.00  0.00     0.012 A 
ATOM     81  C   UNL A   1      42.379  29.576  33.874  1.00  0.00     0.148 A 
ATOM     82  C   UNL A   1      42.627  30.535  36.499  1.00  0.00     0.002 A 
ATOM     83  C   UNL A   1      42.170  28.727  34.953  1.00  0.00     0.091 A 
ATOM     84  F   UNL A   1      42.274  29.144  32.608  1.00  0.00    -0.205 F 
ATOM     85  C   UNL A   1      42.309  29.200  36.268  1.00  0.00     0.022 A 
BRANCH  83  86
ATOM     86  S   UNL A   1      41.609  27.040  34.724  1.00  0.00     0.127 S 
ATOM     87  O   UNL A   1      40.464  27.213  33.834  1.00  0.00    -0.237 OA
ATOM     88  O   UNL A   1      42.775  26.404  34.105  1.00  0.00    -0.237 OA
ATOM     89  O   UNL A   1      41.303  26.538  36.058  1.00  0.00    -0.744 OA
ENDBRANCH  83  86
ENDBRANCH  56  79
ENDBRANCH  30  31
ENDBRANCH  23  25
ENDBRANCH  22  23
ENDBRANCH  21  22
ENDBRANCH   1  21
TORSDOF 19
ENDMDL
