MODEL 1
REMARK VINA RESULT:     -12.0      0.000      0.000
REMARK SMILES Cc1cc(C)cc(-c2ccc([C@@H](C)C(=O)OCCOC(=O)c3ccc(-c4c5nc(c(-c6cccc(S(=O)(=O)[O-])c6F)c6ccc([nH]6)c(-c6cccc(S(=O)(=O)[O-])c6F)c6nc(c(-c7cccc(S(=O)(=O)[O-])c7F)c7ccc4[nH]7)C=C6)C=C5)cc3)cc2F)c1
REMARK SMILES IDX 18 1 17 2 16 3 14 4 15 5 12 6 13 7 11 8 8 9 9 10 86 11 10 12
REMARK SMILES IDX 85 13 87 14 7 15 1 16 2 17 3 18 88 19 4 20 5 21 6 22 19 23
REMARK SMILES IDX 20 24 21 25 22 26 23 27 84 28 24 29 83 30 25 31 26 32 27 33
REMARK SMILES IDX 77 34 28 35 82 36 76 37 78 38 29 39 81 40 75 41 74 42 30 44
REMARK SMILES IDX 62 45 42 46 61 47 43 48 46 49 60 50 79 51 44 52 45 53 59 55
REMARK SMILES IDX 80 56 47 57 31 58 32 59 40 60 33 61 35 62 41 63 34 64 36 65
REMARK SMILES IDX 37 66 38 67 39 68 63 69 64 70 72 71 65 72 67 73 73 74 66 75
REMARK SMILES IDX 68 76 69 77 70 78 71 79 48 80 49 81 57 82 50 83 52 84 58 85
REMARK SMILES IDX 51 86 53 87 54 88 55 89 56 90
REMARK H PARENT 78 43 46 54
REMARK Flexibility Score: inf
ROOT
ATOM      1  C   UNL A   1      31.401  31.398  26.191  1.00  0.00     0.275 C 
ENDROOT
BRANCH   1   2
ATOM      2  C   UNL A   1      30.997  30.461  25.051  1.00  0.00     0.274 C 
BRANCH   2   3
ATOM      3  O   UNL A   1      31.459  29.116  25.288  1.00  0.00    -0.462 OA
BRANCH   3   4
ATOM      4  C   UNL A   1      31.719  28.358  24.191  1.00  0.00     0.313 C 
ATOM      5  O   UNL A   1      30.855  27.888  23.458  1.00  0.00    -0.252 OA
BRANCH   4   6
ATOM      6  C   UNL A   1      33.201  28.076  23.974  1.00  0.00     0.126 C 
ATOM      7  C   UNL A   1      33.646  28.672  22.637  1.00  0.00     0.025 C 
BRANCH   6   8
ATOM      8  C   UNL A   1      33.643  26.629  24.135  1.00  0.00    -0.031 A 
ATOM      9  C   UNL A   1      34.394  23.895  24.405  1.00  0.00     0.017 A 
ATOM     10  C   UNL A   1      34.453  24.779  25.496  1.00  0.00     0.012 A 
ATOM     11  C   UNL A   1      33.975  24.415  23.177  1.00  0.00     0.131 A 
ATOM     12  C   UNL A   1      34.083  26.121  25.364  1.00  0.00     0.005 A 
ATOM     13  C   UNL A   1      33.598  25.753  23.040  1.00  0.00     0.044 A 
ATOM     14  F   UNL A   1      33.887  23.621  22.098  1.00  0.00    -0.206 F 
BRANCH   9  15
ATOM     15  C   UNL A   1      34.721  22.472  24.581  1.00  0.00    -0.015 A 
ATOM     16  C   UNL A   1      37.767  20.195  24.944  1.00  0.00     0.044 C 
ATOM     17  C   UNL A   1      36.346  20.666  24.848  1.00  0.00    -0.050 A 
ATOM     18  C   UNL A   1      35.298  19.742  24.943  1.00  0.00     0.006 A 
ATOM     19  C   UNL A   1      36.049  22.024  24.664  1.00  0.00     0.012 A 
ATOM     20  C   UNL A   1      33.966  20.159  24.852  1.00  0.00    -0.050 A 
ATOM     21  C   UNL A   1      32.853  19.160  24.947  1.00  0.00     0.044 C 
ATOM     22  C   UNL A   1      33.691  21.520  24.673  1.00  0.00     0.012 A 
ENDBRANCH   9  15
ENDBRANCH   6   8
ENDBRANCH   4   6
ENDBRANCH   3   4
ENDBRANCH   2   3
ENDBRANCH   1   2
BRANCH   1  23
ATOM     23  O   UNL A   1      32.724  31.100  26.671  1.00  0.00    -0.458 OA
BRANCH  23  24
ATOM     24  C   UNL A   1      33.354  32.131  27.282  1.00  0.00     0.338 C 
ATOM     25  O   UNL A   1      32.917  33.251  27.476  1.00  0.00    -0.246 OA
BRANCH  24  26
ATOM     26  C   UNL A   1      34.643  31.674  27.820  1.00  0.00     0.060 A 
ATOM     27  C   UNL A   1      34.736  30.349  28.246  1.00  0.00     0.016 A 
ATOM     28  C   UNL A   1      35.712  32.552  27.994  1.00  0.00     0.016 A 
ATOM     29  C   UNL A   1      35.888  29.897  28.880  1.00  0.00     0.010 A 
ATOM     30  C   UNL A   1      36.878  32.092  28.618  1.00  0.00     0.010 A 
ATOM     31  C   UNL A   1      36.963  30.769  29.085  1.00  0.00    -0.014 A 
BRANCH  31  32
ATOM     32  C   UNL A   1      38.154  30.291  29.826  1.00  0.00     0.031 A 
ATOM     33  C   UNL A   1      38.409  30.769  31.227  1.00  0.00     0.074 A 
ATOM     34  C   UNL A   1      38.988  29.405  29.249  1.00  0.00     0.049 A 
ATOM     35  N   UNL A   1      39.398  30.474  32.029  1.00  0.00    -0.248 NA
ATOM     36  C   UNL A   1      37.424  31.698  31.803  1.00  0.00     0.031 C 
ATOM     37  C   UNL A   1      38.831  28.860  27.900  1.00  0.00     0.029 A 
ATOM     38  N   UNL A   1      40.131  28.811  29.721  1.00  0.00    -0.354 N 
ATOM     39  C   UNL A   1      39.174  31.202  33.191  1.00  0.00     0.074 A 
ATOM     40  C   UNL A   1      37.958  31.959  32.989  1.00  0.00     0.031 C 
ATOM     41  C   UNL A   1      39.840  28.009  27.653  1.00  0.00     0.029 A 
ATOM     42  C   UNL A   1      40.732  27.973  28.810  1.00  0.00     0.049 A 
ATOM     43  H   UNL A   1      40.487  28.968  30.625  1.00  0.00     0.167 HD
ATOM     44  C   UNL A   1      39.907  31.220  34.329  1.00  0.00     0.034 A 
ATOM     45  C   UNL A   1      41.876  27.266  28.894  1.00  0.00     0.034 A 
ATOM     46  C   UNL A   1      41.088  30.429  34.542  1.00  0.00     0.049 A 
ATOM     47  C   UNL A   1      42.676  27.313  30.167  1.00  0.00     0.074 A 
ATOM     48  C   UNL A   1      41.874  30.354  35.679  1.00  0.00     0.029 A 
ATOM     49  N   UNL A   1      41.652  29.577  33.606  1.00  0.00    -0.354 N 
ATOM     50  N   UNL A   1      42.403  27.939  31.286  1.00  0.00    -0.248 NA
ATOM     51  C   UNL A   1      43.928  26.543  30.201  1.00  0.00     0.031 C 
ATOM     52  C   UNL A   1      42.921  29.462  35.426  1.00  0.00     0.029 A 
ATOM     53  C   UNL A   1      42.780  28.975  34.135  1.00  0.00     0.049 A 
ATOM     54  H   UNL A   1      41.302  29.423  32.699  1.00  0.00     0.167 HD
ATOM     55  C   UNL A   1      43.433  27.621  32.164  1.00  0.00     0.074 A 
ATOM     56  C   UNL A   1      44.328  26.731  31.453  1.00  0.00     0.031 C 
ATOM     57  C   UNL A   1      43.631  28.046  33.435  1.00  0.00     0.034 A 
BRANCH  44  58
ATOM     58  C   UNL A   1      39.429  32.089  35.461  1.00  0.00     0.023 A 
ATOM     59  C   UNL A   1      38.584  31.538  36.444  1.00  0.00     0.012 A 
ATOM     60  C   UNL A   1      39.887  33.413  35.601  1.00  0.00     0.148 A 
ATOM     61  C   UNL A   1      38.190  32.297  37.545  1.00  0.00     0.002 A 
ATOM     62  C   UNL A   1      39.518  34.153  36.719  1.00  0.00     0.091 A 
ATOM     63  F   UNL A   1      40.672  33.924  34.641  1.00  0.00    -0.205 F 
ATOM     64  C   UNL A   1      38.665  33.598  37.688  1.00  0.00     0.022 A 
BRANCH  62  65
ATOM     65  S   UNL A   1      40.136  35.811  37.028  1.00  0.00     0.127 S 
ATOM     66  O   UNL A   1      39.677  36.523  35.835  1.00  0.00    -0.237 OA
ATOM     67  O   UNL A   1      39.438  36.178  38.262  1.00  0.00    -0.237 OA
ATOM     68  O   UNL A   1      41.579  35.684  37.164  1.00  0.00    -0.744 OA
ENDBRANCH  62  65
ENDBRANCH  44  58
BRANCH  45  69
ATOM     69  C   UNL A   1      42.292  26.408  27.748  1.00  0.00     0.023 A 
ATOM     70  C   UNL A   1      43.247  26.895  26.834  1.00  0.00     0.012 A 
ATOM     71  C   UNL A   1      41.806  25.094  27.601  1.00  0.00     0.148 A 
ATOM     72  C   UNL A   1      43.703  26.091  25.789  1.00  0.00     0.002 A 
ATOM     73  C   UNL A   1      42.306  24.281  26.590  1.00  0.00     0.091 A 
ATOM     74  F   UNL A   1      40.880  24.658  28.465  1.00  0.00    -0.205 F 
ATOM     75  C   UNL A   1      43.245  24.781  25.676  1.00  0.00     0.022 A 
BRANCH  73  76
ATOM     76  S   UNL A   1      41.878  22.540  26.461  1.00  0.00     0.127 S 
ATOM     77  O   UNL A   1      42.474  22.179  25.177  1.00  0.00    -0.237 OA
ATOM     78  O   UNL A   1      42.548  21.973  27.632  1.00  0.00    -0.237 OA
ATOM     79  O   UNL A   1      40.424  22.490  26.522  1.00  0.00    -0.744 OA
ENDBRANCH  73  76
ENDBRANCH  45  69
BRANCH  57  80
ATOM     80  C   UNL A   1      44.853  27.560  34.166  1.00  0.00     0.023 A 
ATOM     81  C   UNL A   1      46.042  28.311  34.094  1.00  0.00     0.012 A 
ATOM     82  C   UNL A   1      44.785  26.445  35.027  1.00  0.00     0.148 A 
ATOM     83  C   UNL A   1      47.149  27.955  34.863  1.00  0.00     0.002 A 
ATOM     84  C   UNL A   1      45.880  26.122  35.819  1.00  0.00     0.091 A 
ATOM     85  F   UNL A   1      43.647  25.737  35.067  1.00  0.00    -0.205 F 
ATOM     86  C   UNL A   1      47.064  26.872  35.735  1.00  0.00     0.022 A 
BRANCH  84  87
ATOM     87  S   UNL A   1      45.833  24.804  37.041  1.00  0.00     0.127 S 
ATOM     88  O   UNL A   1      44.668  25.180  37.839  1.00  0.00    -0.237 OA
ATOM     89  O   UNL A   1      45.644  23.615  36.207  1.00  0.00    -0.237 OA
ATOM     90  O   UNL A   1      47.111  24.856  37.738  1.00  0.00    -0.744 OA
ENDBRANCH  84  87
ENDBRANCH  57  80
ENDBRANCH  31  32
ENDBRANCH  24  26
ENDBRANCH  23  24
ENDBRANCH   1  23
TORSDOF 16
ENDMDL
MODEL 2
REMARK VINA RESULT:     -11.9      4.862     10.457
REMARK SMILES Cc1cc(C)cc(-c2ccc([C@@H](C)C(=O)OCCOC(=O)c3ccc(-c4c5nc(c(-c6cccc(S(=O)(=O)[O-])c6F)c6ccc([nH]6)c(-c6cccc(S(=O)(=O)[O-])c6F)c6nc(c(-c7cccc(S(=O)(=O)[O-])c7F)c7ccc4[nH]7)C=C6)C=C5)cc3)cc2F)c1
REMARK SMILES IDX 18 1 17 2 16 3 14 4 15 5 12 6 13 7 11 8 8 9 9 10 86 11 10 12
REMARK SMILES IDX 85 13 87 14 7 15 1 16 2 17 3 18 88 19 4 20 5 21 6 22 19 23
REMARK SMILES IDX 20 24 21 25 22 26 23 27 84 28 24 29 83 30 25 31 26 32 27 33
REMARK SMILES IDX 77 34 28 35 82 36 76 37 78 38 29 39 81 40 75 41 74 42 30 44
REMARK SMILES IDX 62 45 42 46 61 47 43 48 46 49 60 50 79 51 44 52 45 53 59 55
REMARK SMILES IDX 80 56 47 57 31 58 32 59 40 60 33 61 35 62 41 63 34 64 36 65
REMARK SMILES IDX 37 66 38 67 39 68 63 69 64 70 72 71 65 72 67 73 73 74 66 75
REMARK SMILES IDX 68 76 69 77 70 78 71 79 48 80 49 81 57 82 50 83 52 84 58 85
REMARK SMILES IDX 51 86 53 87 54 88 55 89 56 90
REMARK H PARENT 78 43 46 54
REMARK Flexibility Score: inf
ROOT
ATOM      1  C   UNL A   1      37.331  20.008  24.810  1.00  0.00     0.275 C 
ENDROOT
BRANCH   1   2
ATOM      2  C   UNL A   1      35.803  20.085  24.827  1.00  0.00     0.274 C 
BRANCH   2   3
ATOM      3  O   UNL A   1      35.334  20.972  25.862  1.00  0.00    -0.462 OA
BRANCH   3   4
ATOM      4  C   UNL A   1      34.537  22.000  25.468  1.00  0.00     0.313 C 
ATOM      5  O   UNL A   1      34.096  22.132  24.331  1.00  0.00    -0.252 OA
BRANCH   4   6
ATOM      6  C   UNL A   1      34.282  23.035  26.557  1.00  0.00     0.126 C 
ATOM      7  C   UNL A   1      33.596  22.367  27.749  1.00  0.00     0.025 C 
BRANCH   6   8
ATOM      8  C   UNL A   1      33.573  24.310  26.123  1.00  0.00    -0.031 A 
ATOM      9  C   UNL A   1      32.305  26.740  25.352  1.00  0.00     0.017 A 
ATOM     10  C   UNL A   1      31.603  25.739  26.044  1.00  0.00     0.012 A 
ATOM     11  C   UNL A   1      33.643  26.486  25.034  1.00  0.00     0.131 A 
ATOM     12  C   UNL A   1      32.225  24.546  26.425  1.00  0.00     0.005 A 
ATOM     13  C   UNL A   1      34.272  25.300  25.417  1.00  0.00     0.044 A 
ATOM     14  F   UNL A   1      34.372  27.406  24.382  1.00  0.00    -0.206 F 
BRANCH   9  15
ATOM     15  C   UNL A   1      31.652  28.016  25.022  1.00  0.00    -0.015 A 
ATOM     16  C   UNL A   1      29.340  29.519  22.376  1.00  0.00     0.044 C 
ATOM     17  C   UNL A   1      30.212  29.376  23.589  1.00  0.00    -0.050 A 
ATOM     18  C   UNL A   1      30.401  30.469  24.444  1.00  0.00     0.006 A 
ATOM     19  C   UNL A   1      30.842  28.158  23.884  1.00  0.00     0.012 A 
ATOM     20  C   UNL A   1      31.213  30.359  25.578  1.00  0.00    -0.050 A 
ATOM     21  C   UNL A   1      31.415  31.538  26.481  1.00  0.00     0.044 C 
ATOM     22  C   UNL A   1      31.828  29.133  25.856  1.00  0.00     0.012 A 
ENDBRANCH   9  15
ENDBRANCH   6   8
ENDBRANCH   4   6
ENDBRANCH   3   4
ENDBRANCH   2   3
ENDBRANCH   1   2
BRANCH   1  23
ATOM     23  O   UNL A   1      37.921  21.174  25.410  1.00  0.00    -0.458 OA
BRANCH  23  24
ATOM     24  C   UNL A   1      39.096  20.956  26.046  1.00  0.00     0.338 C 
ATOM     25  O   UNL A   1      39.713  19.908  26.115  1.00  0.00    -0.246 OA
BRANCH  24  26
ATOM     26  C   UNL A   1      39.624  22.226  26.562  1.00  0.00     0.060 A 
ATOM     27  C   UNL A   1      39.052  23.408  26.088  1.00  0.00     0.016 A 
ATOM     28  C   UNL A   1      40.723  22.265  27.421  1.00  0.00     0.016 A 
ATOM     29  C   UNL A   1      39.593  24.638  26.441  1.00  0.00     0.010 A 
ATOM     30  C   UNL A   1      41.257  23.505  27.790  1.00  0.00     0.010 A 
ATOM     31  C   UNL A   1      40.710  24.697  27.284  1.00  0.00    -0.014 A 
BRANCH  31  32
ATOM     32  C   UNL A   1      41.318  26.013  27.593  1.00  0.00     0.031 A 
ATOM     33  C   UNL A   1      42.688  26.347  27.075  1.00  0.00     0.074 A 
ATOM     34  C   UNL A   1      40.624  26.915  28.312  1.00  0.00     0.049 A 
ATOM     35  N   UNL A   1      43.388  27.437  27.249  1.00  0.00    -0.248 NA
ATOM     36  C   UNL A   1      43.358  25.326  26.255  1.00  0.00     0.031 C 
ATOM     37  C   UNL A   1      39.281  26.706  28.852  1.00  0.00     0.029 A 
ATOM     38  N   UNL A   1      40.954  28.186  28.713  1.00  0.00    -0.354 N 
ATOM     39  C   UNL A   1      44.592  27.224  26.589  1.00  0.00     0.074 A 
ATOM     40  C   UNL A   1      44.531  25.897  26.016  1.00  0.00     0.031 C 
ATOM     41  C   UNL A   1      38.899  27.811  29.513  1.00  0.00     0.029 A 
ATOM     42  C   UNL A   1      39.981  28.792  29.473  1.00  0.00     0.049 A 
ATOM     43  H   UNL A   1      41.805  28.622  28.480  1.00  0.00     0.167 HD
ATOM     44  C   UNL A   1      45.642  28.067  26.456  1.00  0.00     0.034 A 
ATOM     45  C   UNL A   1      39.966  29.996  30.077  1.00  0.00     0.034 A 
ATOM     46  C   UNL A   1      45.678  29.403  26.987  1.00  0.00     0.049 A 
ATOM     47  C   UNL A   1      41.152  30.909  29.923  1.00  0.00     0.074 A 
ATOM     48  C   UNL A   1      46.685  30.344  26.869  1.00  0.00     0.029 A 
ATOM     49  N   UNL A   1      44.666  29.989  27.729  1.00  0.00    -0.354 N 
ATOM     50  N   UNL A   1      42.245  30.725  29.223  1.00  0.00    -0.248 NA
ATOM     51  C   UNL A   1      41.098  32.203  30.619  1.00  0.00     0.031 C 
ATOM     52  C   UNL A   1      46.286  31.497  27.551  1.00  0.00     0.029 A 
ATOM     53  C   UNL A   1      45.025  31.277  28.084  1.00  0.00     0.049 A 
ATOM     54  H   UNL A   1      43.816  29.553  27.970  1.00  0.00     0.167 HD
ATOM     55  C   UNL A   1      42.997  31.883  29.375  1.00  0.00     0.074 A 
ATOM     56  C   UNL A   1      42.227  32.774  30.218  1.00  0.00     0.031 C 
ATOM     57  C   UNL A   1      44.224  32.174  28.878  1.00  0.00     0.034 A 
BRANCH  44  58
ATOM     58  C   UNL A   1      46.830  27.594  25.665  1.00  0.00     0.023 A 
ATOM     59  C   UNL A   1      46.868  27.818  24.274  1.00  0.00     0.012 A 
ATOM     60  C   UNL A   1      47.944  27.015  26.304  1.00  0.00     0.148 A 
ATOM     61  C   UNL A   1      47.990  27.460  23.529  1.00  0.00     0.002 A 
ATOM     62  C   UNL A   1      49.073  26.692  25.560  1.00  0.00     0.091 A 
ATOM     63  F   UNL A   1      47.878  26.790  27.625  1.00  0.00    -0.205 F 
ATOM     64  C   UNL A   1      49.095  26.909  24.172  1.00  0.00     0.022 A 
BRANCH  62  65
ATOM     65  S   UNL A   1      50.572  26.045  26.309  1.00  0.00     0.127 S 
ATOM     66  O   UNL A   1      50.929  27.122  27.233  1.00  0.00    -0.237 OA
ATOM     67  O   UNL A   1      50.093  24.823  26.956  1.00  0.00    -0.237 OA
ATOM     68  O   UNL A   1      51.506  25.825  25.214  1.00  0.00    -0.744 OA
ENDBRANCH  62  65
ENDBRANCH  44  58
BRANCH  45  69
ATOM     69  C   UNL A   1      38.754  30.421  30.835  1.00  0.00     0.023 A 
ATOM     70  C   UNL A   1      38.702  30.209  32.226  1.00  0.00     0.012 A 
ATOM     71  C   UNL A   1      37.692  31.095  30.201  1.00  0.00     0.148 A 
ATOM     72  C   UNL A   1      37.609  30.654  32.971  1.00  0.00     0.002 A 
ATOM     73  C   UNL A   1      36.633  31.583  30.958  1.00  0.00     0.091 A 
ATOM     74  F   UNL A   1      37.748  31.265  28.873  1.00  0.00    -0.205 F 
ATOM     75  C   UNL A   1      36.583  31.353  32.341  1.00  0.00     0.022 A 
BRANCH  73  76
ATOM     76  S   UNL A   1      35.344  32.617  30.249  1.00  0.00     0.127 S 
ATOM     77  O   UNL A   1      34.433  32.776  31.379  1.00  0.00    -0.237 OA
ATOM     78  O   UNL A   1      36.087  33.823  29.882  1.00  0.00    -0.237 OA
ATOM     79  O   UNL A   1      34.823  31.867  29.114  1.00  0.00    -0.744 OA
ENDBRANCH  73  76
ENDBRANCH  45  69
BRANCH  57  80
ATOM     80  C   UNL A   1      44.830  33.510  29.213  1.00  0.00     0.023 A 
ATOM     81  C   UNL A   1      45.646  33.628  30.354  1.00  0.00     0.012 A 
ATOM     82  C   UNL A   1      44.704  34.603  28.333  1.00  0.00     0.148 A 
ATOM     83  C   UNL A   1      46.323  34.818  30.618  1.00  0.00     0.002 A 
ATOM     84  C   UNL A   1      45.414  35.771  28.581  1.00  0.00     0.091 A 
ATOM     85  F   UNL A   1      43.908  34.472  27.260  1.00  0.00    -0.205 F 
ATOM     86  C   UNL A   1      46.220  35.883  29.726  1.00  0.00     0.022 A 
BRANCH  84  87
ATOM     87  S   UNL A   1      45.418  37.161  27.441  1.00  0.00     0.127 S 
ATOM     88  O   UNL A   1      46.177  36.620  26.315  1.00  0.00    -0.237 OA
ATOM     89  O   UNL A   1      43.990  37.352  27.179  1.00  0.00    -0.237 OA
ATOM     90  O   UNL A   1      46.054  38.262  28.151  1.00  0.00    -0.744 OA
ENDBRANCH  84  87
ENDBRANCH  57  80
ENDBRANCH  31  32
ENDBRANCH  24  26
ENDBRANCH  23  24
ENDBRANCH   1  23
TORSDOF 16
ENDMDL
MODEL 3
REMARK VINA RESULT:     -11.9      3.784      7.106
REMARK SMILES Cc1cc(C)cc(-c2ccc([C@@H](C)C(=O)OCCOC(=O)c3ccc(-c4c5nc(c(-c6cccc(S(=O)(=O)[O-])c6F)c6ccc([nH]6)c(-c6cccc(S(=O)(=O)[O-])c6F)c6nc(c(-c7cccc(S(=O)(=O)[O-])c7F)c7ccc4[nH]7)C=C6)C=C5)cc3)cc2F)c1
REMARK SMILES IDX 18 1 17 2 16 3 14 4 15 5 12 6 13 7 11 8 8 9 9 10 86 11 10 12
REMARK SMILES IDX 85 13 87 14 7 15 1 16 2 17 3 18 88 19 4 20 5 21 6 22 19 23
REMARK SMILES IDX 20 24 21 25 22 26 23 27 84 28 24 29 83 30 25 31 26 32 27 33
REMARK SMILES IDX 77 34 28 35 82 36 76 37 78 38 29 39 81 40 75 41 74 42 30 44
REMARK SMILES IDX 62 45 42 46 61 47 43 48 46 49 60 50 79 51 44 52 45 53 59 55
REMARK SMILES IDX 80 56 47 57 31 58 32 59 40 60 33 61 35 62 41 63 34 64 36 65
REMARK SMILES IDX 37 66 38 67 39 68 63 69 64 70 72 71 65 72 67 73 73 74 66 75
REMARK SMILES IDX 68 76 69 77 70 78 71 79 48 80 49 81 57 82 50 83 52 84 58 85
REMARK SMILES IDX 51 86 53 87 54 88 55 89 56 90
REMARK H PARENT 78 43 46 54
REMARK Flexibility Score: inf
ROOT
ATOM      1  C   UNL A   1      34.171  33.468  28.305  1.00  0.00     0.275 C 
ENDROOT
BRANCH   1   2
ATOM      2  C   UNL A   1      33.786  34.522  29.344  1.00  0.00     0.274 C 
BRANCH   2   3
ATOM      3  O   UNL A   1      33.653  33.941  30.657  1.00  0.00    -0.462 OA
BRANCH   3   4
ATOM      4  C   UNL A   1      34.468  34.434  31.627  1.00  0.00     0.313 C 
ATOM      5  O   UNL A   1      34.402  35.578  32.065  1.00  0.00    -0.252 OA
BRANCH   4   6
ATOM      6  C   UNL A   1      35.538  33.453  32.091  1.00  0.00     0.126 C 
ATOM      7  C   UNL A   1      35.576  33.422  33.619  1.00  0.00     0.025 C 
BRANCH   6   8
ATOM      8  C   UNL A   1      36.922  33.628  31.483  1.00  0.00    -0.031 A 
ATOM      9  C   UNL A   1      39.511  34.036  30.371  1.00  0.00     0.017 A 
ATOM     10  C   UNL A   1      38.458  33.523  29.596  1.00  0.00     0.012 A 
ATOM     11  C   UNL A   1      39.246  34.315  31.715  1.00  0.00     0.131 A 
ATOM     12  C   UNL A   1      37.185  33.323  30.141  1.00  0.00     0.005 A 
ATOM     13  C   UNL A   1      37.976  34.125  32.264  1.00  0.00     0.044 A 
ATOM     14  F   UNL A   1      40.207  34.817  32.506  1.00  0.00    -0.206 F 
BRANCH   9  15
ATOM     15  C   UNL A   1      40.823  34.304  29.761  1.00  0.00    -0.015 A 
ATOM     16  C   UNL A   1      44.413  33.000  29.858  1.00  0.00     0.044 C 
ATOM     17  C   UNL A   1      43.203  33.810  29.499  1.00  0.00    -0.050 A 
ATOM     18  C   UNL A   1      43.306  34.835  28.550  1.00  0.00     0.006 A 
ATOM     19  C   UNL A   1      41.961  33.555  30.100  1.00  0.00     0.012 A 
ATOM     20  C   UNL A   1      42.191  35.605  28.203  1.00  0.00    -0.050 A 
ATOM     21  C   UNL A   1      42.316  36.704  27.192  1.00  0.00     0.044 C 
ATOM     22  C   UNL A   1      40.961  35.330  28.811  1.00  0.00     0.012 A 
ENDBRANCH   9  15
ENDBRANCH   6   8
ENDBRANCH   4   6
ENDBRANCH   3   4
ENDBRANCH   2   3
ENDBRANCH   1   2
BRANCH   1  23
ATOM     23  O   UNL A   1      34.223  32.153  28.886  1.00  0.00    -0.458 OA
BRANCH  23  24
ATOM     24  C   UNL A   1      34.440  31.149  28.005  1.00  0.00     0.338 C 
ATOM     25  O   UNL A   1      33.771  30.870  27.026  1.00  0.00    -0.246 OA
BRANCH  24  26
ATOM     26  C   UNL A   1      35.712  30.482  28.317  1.00  0.00     0.060 A 
ATOM     27  C   UNL A   1      35.782  29.734  29.492  1.00  0.00     0.016 A 
ATOM     28  C   UNL A   1      36.845  30.665  27.524  1.00  0.00     0.016 A 
ATOM     29  C   UNL A   1      36.992  29.188  29.904  1.00  0.00     0.010 A 
ATOM     30  C   UNL A   1      38.060  30.102  27.930  1.00  0.00     0.010 A 
ATOM     31  C   UNL A   1      38.145  29.380  29.133  1.00  0.00    -0.014 A 
BRANCH  31  32
ATOM     32  C   UNL A   1      39.441  28.853  29.623  1.00  0.00     0.031 A 
ATOM     33  C   UNL A   1      40.080  29.447  30.845  1.00  0.00     0.074 A 
ATOM     34  C   UNL A   1      40.025  27.821  28.985  1.00  0.00     0.049 A 
ATOM     35  N   UNL A   1      41.211  29.130  31.417  1.00  0.00    -0.248 NA
ATOM     36  C   UNL A   1      39.353  30.538  31.513  1.00  0.00     0.031 C 
ATOM     37  C   UNL A   1      39.488  27.155  27.798  1.00  0.00     0.029 A 
ATOM     38  N   UNL A   1      41.196  27.155  29.243  1.00  0.00    -0.354 N 
ATOM     39  C   UNL A   1      41.350  30.000  32.492  1.00  0.00     0.074 A 
ATOM     40  C   UNL A   1      40.190  30.864  32.490  1.00  0.00     0.031 C 
ATOM     41  C   UNL A   1      40.327  26.173  27.431  1.00  0.00     0.029 A 
ATOM     42  C   UNL A   1      41.476  26.161  28.334  1.00  0.00     0.049 A 
ATOM     43  H   UNL A   1      41.781  27.367  30.006  1.00  0.00     0.167 HD
ATOM     44  C   UNL A   1      42.345  30.057  33.408  1.00  0.00     0.034 A 
ATOM     45  C   UNL A   1      42.541  25.342  28.232  1.00  0.00     0.034 A 
ATOM     46  C   UNL A   1      43.472  29.165  33.434  1.00  0.00     0.049 A 
ATOM     47  C   UNL A   1      43.638  25.435  29.258  1.00  0.00     0.074 A 
ATOM     48  C   UNL A   1      44.510  29.124  34.347  1.00  0.00     0.029 A 
ATOM     49  N   UNL A   1      43.708  28.158  32.511  1.00  0.00    -0.354 N 
ATOM     50  N   UNL A   1      43.710  26.205  30.317  1.00  0.00    -0.248 NA
ATOM     51  C   UNL A   1      44.790  24.536  29.092  1.00  0.00     0.031 C 
ATOM     52  C   UNL A   1      45.382  28.098  33.970  1.00  0.00     0.029 A 
ATOM     53  C   UNL A   1      44.879  27.493  32.828  1.00  0.00     0.049 A 
ATOM     54  H   UNL A   1      43.129  27.948  31.743  1.00  0.00     0.167 HD
ATOM     55  C   UNL A   1      44.899  25.869  30.955  1.00  0.00     0.074 A 
ATOM     56  C   UNL A   1      45.507  24.812  30.175  1.00  0.00     0.031 C 
ATOM     57  C   UNL A   1      45.445  26.404  32.074  1.00  0.00     0.034 A 
BRANCH  44  58
ATOM     58  C   UNL A   1      42.243  31.091  34.496  1.00  0.00     0.023 A 
ATOM     59  C   UNL A   1      41.690  30.731  35.740  1.00  0.00     0.012 A 
ATOM     60  C   UNL A   1      42.775  32.384  34.320  1.00  0.00     0.148 A 
ATOM     61  C   UNL A   1      41.654  31.647  36.791  1.00  0.00     0.002 A 
ATOM     62  C   UNL A   1      42.767  33.280  35.383  1.00  0.00     0.091 A 
ATOM     63  F   UNL A   1      43.275  32.712  33.119  1.00  0.00    -0.205 F 
ATOM     64  C   UNL A   1      42.202  32.915  36.616  1.00  0.00     0.022 A 
BRANCH  62  65
ATOM     65  S   UNL A   1      43.513  34.911  35.277  1.00  0.00     0.127 S 
ATOM     66  O   UNL A   1      44.894  34.581  34.926  1.00  0.00    -0.237 OA
ATOM     67  O   UNL A   1      42.743  35.535  34.199  1.00  0.00    -0.237 OA
ATOM     68  O   UNL A   1      43.329  35.523  36.585  1.00  0.00    -0.744 OA
ENDBRANCH  62  65
ENDBRANCH  44  58
BRANCH  45  69
ATOM     69  C   UNL A   1      42.582  24.324  27.144  1.00  0.00     0.023 A 
ATOM     70  C   UNL A   1      43.337  24.585  25.984  1.00  0.00     0.012 A 
ATOM     71  C   UNL A   1      41.941  23.077  27.282  1.00  0.00     0.148 A 
ATOM     72  C   UNL A   1      43.445  23.625  24.978  1.00  0.00     0.002 A 
ATOM     73  C   UNL A   1      42.099  22.106  26.301  1.00  0.00     0.091 A 
ATOM     74  F   UNL A   1      41.207  22.857  28.382  1.00  0.00    -0.205 F 
ATOM     75  C   UNL A   1      42.840  22.382  25.142  1.00  0.00     0.022 A 
BRANCH  73  76
ATOM     76  S   UNL A   1      41.474  20.432  26.498  1.00  0.00     0.127 S 
ATOM     77  O   UNL A   1      40.033  20.632  26.366  1.00  0.00    -0.237 OA
ATOM     78  O   UNL A   1      42.105  19.736  25.376  1.00  0.00    -0.237 OA
ATOM     79  O   UNL A   1      41.937  19.995  27.808  1.00  0.00    -0.744 OA
ENDBRANCH  73  76
ENDBRANCH  45  69
BRANCH  57  80
ATOM     80  C   UNL A   1      46.767  25.864  32.547  1.00  0.00     0.023 A 
ATOM     81  C   UNL A   1      47.955  26.507  32.149  1.00  0.00     0.012 A 
ATOM     82  C   UNL A   1      46.826  24.815  33.487  1.00  0.00     0.148 A 
ATOM     83  C   UNL A   1      49.184  26.109  32.674  1.00  0.00     0.002 A 
ATOM     84  C   UNL A   1      48.050  24.451  34.036  1.00  0.00     0.091 A 
ATOM     85  F   UNL A   1      45.683  24.207  33.839  1.00  0.00    -0.205 F 
ATOM     86  C   UNL A   1      49.230  25.093  33.627  1.00  0.00     0.022 A 
BRANCH  84  87
ATOM     87  S   UNL A   1      48.197  23.220  35.337  1.00  0.00     0.127 S 
ATOM     88  O   UNL A   1      49.638  23.222  35.587  1.00  0.00    -0.237 OA
ATOM     89  O   UNL A   1      47.391  23.804  36.410  1.00  0.00    -0.237 OA
ATOM     90  O   UNL A   1      47.662  21.984  34.784  1.00  0.00    -0.744 OA
ENDBRANCH  84  87
ENDBRANCH  57  80
ENDBRANCH  31  32
ENDBRANCH  24  26
ENDBRANCH  23  24
ENDBRANCH   1  23
TORSDOF 16
ENDMDL
