MODEL 1
REMARK VINA RESULT:     -13.0      0.000      0.000
REMARK SMILES O=C(OCCOC(=O)c1nnn(-c2ccccc2C(F)(F)F)c1-c1cccc(Cl)c1)c1ccc(-c2c3nc(c(-c4cccc(S(=O)(=O)[O-])c4F)c4ccc([nH]4)c(-c4cccc(S(=O)(=O)[O-])c4F)c4nc(c(-c5cccc(S(=O)(=O)[O-])c5F)c5ccc2[nH]5)C=C4)C=C3)cc1
REMARK SMILES IDX 4 1 3 2 2 3 1 4 31 5 32 6 93 7 33 8 92 9 34 10 35 11 36 12
REMARK SMILES IDX 86 13 37 14 91 15 85 16 87 17 38 18 90 19 84 20 83 21 39 23
REMARK SMILES IDX 71 24 51 25 70 26 52 27 55 28 69 29 88 30 53 31 54 32 68 34
REMARK SMILES IDX 89 35 56 36 40 37 41 38 49 39 42 40 44 41 50 42 43 43 45 44
REMARK SMILES IDX 46 45 47 46 48 47 72 48 73 49 81 50 74 51 76 52 82 53 75 54
REMARK SMILES IDX 77 55 78 56 79 57 80 58 57 59 58 60 66 61 59 62 61 63 67 64
REMARK SMILES IDX 60 65 62 66 63 67 64 68 65 69 5 70 6 71 7 72 8 73 9 74 10 75
REMARK SMILES IDX 23 76 11 77 12 78 24 79 25 80 30 81 26 82 28 83 27 84 29 85
REMARK SMILES IDX 13 86 14 87 18 88 15 89 17 90 16 91 19 92 20 93 21 94 22 95
REMARK H PARENT 87 22 55 33
REMARK Flexibility Score: inf
ROOT
ATOM      1  C   UNL A   1      31.336  29.048  27.309  1.00  0.00     0.275 C 
ENDROOT
BRANCH   1   2
ATOM      2  O   UNL A   1      31.907  29.986  26.373  1.00  0.00    -0.458 OA
BRANCH   2   3
ATOM      3  C   UNL A   1      32.210  31.232  26.807  1.00  0.00     0.338 C 
ATOM      4  O   UNL A   1      31.419  32.157  26.850  1.00  0.00    -0.246 OA
BRANCH   3   5
ATOM      5  C   UNL A   1      33.608  31.295  27.297  1.00  0.00     0.060 A 
ATOM      6  C   UNL A   1      34.445  30.175  27.221  1.00  0.00     0.016 A 
ATOM      7  C   UNL A   1      34.091  32.498  27.825  1.00  0.00     0.016 A 
ATOM      8  C   UNL A   1      35.734  30.240  27.721  1.00  0.00     0.010 A 
ATOM      9  C   UNL A   1      35.387  32.563  28.336  1.00  0.00     0.010 A 
ATOM     10  C   UNL A   1      36.195  31.424  28.304  1.00  0.00    -0.014 A 
BRANCH  10  11
ATOM     11  C   UNL A   1      37.551  31.396  28.841  1.00  0.00     0.031 A 
ATOM     12  C   UNL A   1      38.297  30.115  28.725  1.00  0.00     0.074 A 
ATOM     13  C   UNL A   1      38.152  32.461  29.404  1.00  0.00     0.049 A 
ATOM     14  N   UNL A   1      38.667  29.325  29.682  1.00  0.00    -0.248 NA
ATOM     15  C   UNL A   1      38.633  29.635  27.381  1.00  0.00     0.031 C 
ATOM     16  C   UNL A   1      37.735  33.862  29.344  1.00  0.00     0.029 A 
ATOM     17  N   UNL A   1      39.349  32.509  30.060  1.00  0.00    -0.354 N 
ATOM     18  C   UNL A   1      39.463  28.349  29.084  1.00  0.00     0.074 A 
ATOM     19  C   UNL A   1      39.309  28.519  27.660  1.00  0.00     0.031 C 
ATOM     20  C   UNL A   1      38.772  34.641  29.726  1.00  0.00     0.029 A 
ATOM     21  C   UNL A   1      39.859  33.792  30.188  1.00  0.00     0.049 A 
ATOM     22  H   UNL A   1      39.806  31.710  30.409  1.00  0.00     0.167 HD
ATOM     23  C   UNL A   1      40.335  27.586  29.799  1.00  0.00     0.034 A 
ATOM     24  C   UNL A   1      41.108  34.128  30.580  1.00  0.00     0.034 A 
ATOM     25  C   UNL A   1      40.094  27.660  31.215  1.00  0.00     0.049 A 
ATOM     26  C   UNL A   1      41.682  32.988  31.330  1.00  0.00     0.074 A 
ATOM     27  C   UNL A   1      39.037  27.384  32.058  1.00  0.00     0.029 A 
ATOM     28  N   UNL A   1      41.002  28.360  31.970  1.00  0.00    -0.354 N 
ATOM     29  N   UNL A   1      41.298  32.625  32.522  1.00  0.00    -0.248 NA
ATOM     30  C   UNL A   1      42.511  32.029  30.621  1.00  0.00     0.031 C 
ATOM     31  C   UNL A   1      39.161  28.316  33.130  1.00  0.00     0.029 A 
ATOM     32  C   UNL A   1      40.291  29.096  32.877  1.00  0.00     0.049 A 
ATOM     33  H   UNL A   1      41.982  28.336  31.876  1.00  0.00     0.167 HD
ATOM     34  C   UNL A   1      41.468  31.248  32.538  1.00  0.00     0.074 A 
ATOM     35  C   UNL A   1      42.351  30.966  31.411  1.00  0.00     0.031 C 
ATOM     36  C   UNL A   1      40.645  30.442  33.274  1.00  0.00     0.034 A 
BRANCH  23  37
ATOM     37  C   UNL A   1      41.619  26.985  29.273  1.00  0.00     0.023 A 
ATOM     38  C   UNL A   1      42.730  27.850  29.118  1.00  0.00     0.012 A 
ATOM     39  C   UNL A   1      41.713  25.711  28.674  1.00  0.00     0.148 A 
ATOM     40  C   UNL A   1      43.848  27.487  28.361  1.00  0.00     0.002 A 
ATOM     41  C   UNL A   1      42.865  25.323  27.994  1.00  0.00     0.091 A 
ATOM     42  F   UNL A   1      40.644  24.908  28.639  1.00  0.00    -0.205 F 
ATOM     43  C   UNL A   1      43.920  26.218  27.805  1.00  0.00     0.022 A 
BRANCH  41  44
ATOM     44  S   UNL A   1      43.043  23.662  27.334  1.00  0.00     0.127 S 
ATOM     45  O   UNL A   1      44.467  23.623  27.016  1.00  0.00    -0.237 OA
ATOM     46  O   UNL A   1      42.638  22.837  28.473  1.00  0.00    -0.237 OA
ATOM     47  O   UNL A   1      42.120  23.607  26.206  1.00  0.00    -0.744 OA
ENDBRANCH  41  44
ENDBRANCH  23  37
BRANCH  24  48
ATOM     48  C   UNL A   1      41.920  35.311  30.223  1.00  0.00     0.023 A 
ATOM     49  C   UNL A   1      42.857  35.816  31.144  1.00  0.00     0.012 A 
ATOM     50  C   UNL A   1      41.963  35.789  28.895  1.00  0.00     0.148 A 
ATOM     51  C   UNL A   1      43.823  36.749  30.750  1.00  0.00     0.002 A 
ATOM     52  C   UNL A   1      42.916  36.727  28.511  1.00  0.00     0.091 A 
ATOM     53  F   UNL A   1      41.134  35.256  27.987  1.00  0.00    -0.205 F 
ATOM     54  C   UNL A   1      43.856  37.201  29.434  1.00  0.00     0.022 A 
BRANCH  52  55
ATOM     55  S   UNL A   1      43.016  37.346  26.826  1.00  0.00     0.127 S 
ATOM     56  O   UNL A   1      41.790  38.138  26.716  1.00  0.00    -0.237 OA
ATOM     57  O   UNL A   1      44.249  38.127  26.863  1.00  0.00    -0.237 OA
ATOM     58  O   UNL A   1      43.034  36.162  25.976  1.00  0.00    -0.744 OA
ENDBRANCH  52  55
ENDBRANCH  24  48
BRANCH  36  59
ATOM     59  C   UNL A   1      39.787  31.067  34.345  1.00  0.00     0.023 A 
ATOM     60  C   UNL A   1      40.233  31.192  35.677  1.00  0.00     0.012 A 
ATOM     61  C   UNL A   1      38.587  31.699  33.972  1.00  0.00     0.148 A 
ATOM     62  C   UNL A   1      39.486  31.899  36.621  1.00  0.00     0.002 A 
ATOM     63  C   UNL A   1      37.873  32.447  34.902  1.00  0.00     0.091 A 
ATOM     64  F   UNL A   1      38.170  31.582  32.700  1.00  0.00    -0.205 F 
ATOM     65  C   UNL A   1      38.312  32.538  36.231  1.00  0.00     0.022 A 
BRANCH  63  66
ATOM     66  S   UNL A   1      36.440  33.415  34.415  1.00  0.00     0.127 S 
ATOM     67  O   UNL A   1      35.878  33.808  35.705  1.00  0.00    -0.237 OA
ATOM     68  O   UNL A   1      37.037  34.511  33.650  1.00  0.00    -0.237 OA
ATOM     69  O   UNL A   1      35.618  32.516  33.611  1.00  0.00    -0.744 OA
ENDBRANCH  63  66
ENDBRANCH  36  59
ENDBRANCH  10  11
ENDBRANCH   3   5
ENDBRANCH   2   3
ENDBRANCH   1   2
BRANCH   1  70
ATOM     70  C   UNL A   1      31.794  27.595  27.213  1.00  0.00     0.275 C 
BRANCH  70  71
ATOM     71  O   UNL A   1      31.204  26.987  26.053  1.00  0.00    -0.457 OA
BRANCH  71  72
ATOM     72  C   UNL A   1      30.654  25.752  26.253  1.00  0.00     0.361 C 
ATOM     73  O   UNL A   1      29.478  25.540  26.512  1.00  0.00    -0.244 OA
BRANCH  72  74
ATOM     74  C   UNL A   1      31.669  24.727  26.321  1.00  0.00     0.198 A 
ATOM     75  N   UNL A   1      31.830  23.855  27.364  1.00  0.00    -0.122 NA
ATOM     76  C   UNL A   1      32.613  24.468  25.341  1.00  0.00     0.109 A 
ATOM     77  N   UNL A   1      32.868  23.072  27.084  1.00  0.00    -0.061 NA
ATOM     78  N   UNL A   1      33.446  23.549  25.962  1.00  0.00    -0.211 N 
BRANCH  76  79
ATOM     79  C   UNL A   1      32.766  25.002  23.993  1.00  0.00     0.004 A 
ATOM     80  C   UNL A   1      32.384  24.237  22.879  1.00  0.00     0.010 A 
ATOM     81  C   UNL A   1      33.274  26.291  23.791  1.00  0.00     0.031 A 
ATOM     82  C   UNL A   1      32.542  24.739  21.587  1.00  0.00     0.002 A 
ATOM     83  C   UNL A   1      33.428  26.786  22.498  1.00  0.00     0.041 A 
ATOM     84  C   UNL A   1      33.070  26.014  21.395  1.00  0.00     0.020 A 
ATOM     85  Cl  UNL A   1      34.076  28.363  22.264  1.00  0.00    -0.084 Cl
ENDBRANCH  76  79
BRANCH  78  86
ATOM     86  C   UNL A   1      34.721  23.120  25.535  1.00  0.00     0.079 A 
ATOM     87  C   UNL A   1      35.766  24.056  25.574  1.00  0.00     0.029 A 
ATOM     88  C   UNL A   1      34.965  21.776  25.182  1.00  0.00     0.081 A 
ATOM     89  C   UNL A   1      37.078  23.629  25.373  1.00  0.00     0.002 A 
ATOM     90  C   UNL A   1      36.301  21.373  24.998  1.00  0.00     0.015 A 
ATOM     91  C   UNL A   1      37.348  22.287  25.110  1.00  0.00     0.001 A 
BRANCH  88  92
ATOM     92  C   UNL A   1      33.887  20.756  24.888  1.00  0.00     0.418 C 
ATOM     93  F   UNL A   1      34.395  19.624  24.319  1.00  0.00    -0.166 F 
ATOM     94  F   UNL A   1      33.254  20.331  26.018  1.00  0.00    -0.166 F 
ATOM     95  F   UNL A   1      32.910  21.169  24.041  1.00  0.00    -0.166 F 
ENDBRANCH  88  92
ENDBRANCH  78  86
ENDBRANCH  72  74
ENDBRANCH  71  72
ENDBRANCH  70  71
ENDBRANCH   1  70
TORSDOF 17
ENDMDL
MODEL 2
REMARK VINA RESULT:     -12.8      3.101      7.381
REMARK SMILES O=C(OCCOC(=O)c1nnn(-c2ccccc2C(F)(F)F)c1-c1cccc(Cl)c1)c1ccc(-c2c3nc(c(-c4cccc(S(=O)(=O)[O-])c4F)c4ccc([nH]4)c(-c4cccc(S(=O)(=O)[O-])c4F)c4nc(c(-c5cccc(S(=O)(=O)[O-])c5F)c5ccc2[nH]5)C=C4)C=C3)cc1
REMARK SMILES IDX 4 1 3 2 2 3 1 4 31 5 32 6 93 7 33 8 92 9 34 10 35 11 36 12
REMARK SMILES IDX 86 13 37 14 91 15 85 16 87 17 38 18 90 19 84 20 83 21 39 23
REMARK SMILES IDX 71 24 51 25 70 26 52 27 55 28 69 29 88 30 53 31 54 32 68 34
REMARK SMILES IDX 89 35 56 36 40 37 41 38 49 39 42 40 44 41 50 42 43 43 45 44
REMARK SMILES IDX 46 45 47 46 48 47 72 48 73 49 81 50 74 51 76 52 82 53 75 54
REMARK SMILES IDX 77 55 78 56 79 57 80 58 57 59 58 60 66 61 59 62 61 63 67 64
REMARK SMILES IDX 60 65 62 66 63 67 64 68 65 69 5 70 6 71 7 72 8 73 9 74 10 75
REMARK SMILES IDX 23 76 11 77 12 78 24 79 25 80 30 81 26 82 28 83 27 84 29 85
REMARK SMILES IDX 13 86 14 87 18 88 15 89 17 90 16 91 19 92 20 93 21 94 22 95
REMARK H PARENT 87 22 55 33
REMARK Flexibility Score: inf
ROOT
ATOM      1  C   UNL A   1      32.324  29.332  27.230  1.00  0.00     0.275 C 
ENDROOT
BRANCH   1   2
ATOM      2  O   UNL A   1      33.270  30.203  26.575  1.00  0.00    -0.458 OA
BRANCH   2   3
ATOM      3  C   UNL A   1      33.877  31.168  27.307  1.00  0.00     0.338 C 
ATOM      4  O   UNL A   1      33.366  32.233  27.600  1.00  0.00    -0.246 OA
BRANCH   3   5
ATOM      5  C   UNL A   1      35.211  30.717  27.770  1.00  0.00     0.060 A 
ATOM      6  C   UNL A   1      35.509  29.353  27.881  1.00  0.00     0.016 A 
ATOM      7  C   UNL A   1      36.184  31.676  28.081  1.00  0.00     0.016 A 
ATOM      8  C   UNL A   1      36.747  28.953  28.354  1.00  0.00     0.010 A 
ATOM      9  C   UNL A   1      37.428  31.273  28.565  1.00  0.00     0.010 A 
ATOM     10  C   UNL A   1      37.695  29.911  28.723  1.00  0.00    -0.014 A 
BRANCH  10  11
ATOM     11  C   UNL A   1      38.958  29.404  29.248  1.00  0.00     0.031 A 
ATOM     12  C   UNL A   1      39.296  29.760  30.651  1.00  0.00     0.074 A 
ATOM     13  C   UNL A   1      39.800  28.626  28.543  1.00  0.00     0.049 A 
ATOM     14  N   UNL A   1      40.255  30.526  31.064  1.00  0.00    -0.248 NA
ATOM     15  C   UNL A   1      38.440  29.235  31.719  1.00  0.00     0.031 C 
ATOM     16  C   UNL A   1      39.531  27.916  27.292  1.00  0.00     0.029 A 
ATOM     17  N   UNL A   1      41.059  28.218  28.880  1.00  0.00    -0.354 N 
ATOM     18  C   UNL A   1      40.256  30.421  32.454  1.00  0.00     0.074 A 
ATOM     19  C   UNL A   1      39.050  29.713  32.806  1.00  0.00     0.031 C 
ATOM     20  C   UNL A   1      40.495  26.987  27.103  1.00  0.00     0.029 A 
ATOM     21  C   UNL A   1      41.510  27.139  28.134  1.00  0.00     0.049 A 
ATOM     22  H   UNL A   1      41.595  28.648  29.585  1.00  0.00     0.167 HD
ATOM     23  C   UNL A   1      41.337  30.763  33.207  1.00  0.00     0.034 A 
ATOM     24  C   UNL A   1      42.602  26.384  28.387  1.00  0.00     0.034 A 
ATOM     25  C   UNL A   1      42.298  31.535  32.466  1.00  0.00     0.049 A 
ATOM     26  C   UNL A   1      43.515  27.164  29.252  1.00  0.00     0.074 A 
ATOM     27  C   UNL A   1      42.294  32.734  31.783  1.00  0.00     0.029 A 
ATOM     28  N   UNL A   1      43.472  30.913  32.122  1.00  0.00    -0.354 N 
ATOM     29  N   UNL A   1      44.201  28.199  28.853  1.00  0.00    -0.248 NA
ATOM     30  C   UNL A   1      43.451  26.974  30.691  1.00  0.00     0.031 C 
ATOM     31  C   UNL A   1      43.236  32.565  30.726  1.00  0.00     0.029 A 
ATOM     32  C   UNL A   1      43.760  31.276  30.835  1.00  0.00     0.049 A 
ATOM     33  H   UNL A   1      44.007  30.316  32.694  1.00  0.00     0.167 HD
ATOM     34  C   UNL A   1      44.282  29.015  29.972  1.00  0.00     0.074 A 
ATOM     35  C   UNL A   1      43.942  28.148  31.094  1.00  0.00     0.031 C 
ATOM     36  C   UNL A   1      44.326  30.376  29.853  1.00  0.00     0.034 A 
BRANCH  23  37
ATOM     37  C   UNL A   1      41.708  30.163  34.545  1.00  0.00     0.023 A 
ATOM     38  C   UNL A   1      42.246  31.032  35.525  1.00  0.00     0.012 A 
ATOM     39  C   UNL A   1      41.815  28.778  34.792  1.00  0.00     0.148 A 
ATOM     40  C   UNL A   1      42.905  30.548  36.659  1.00  0.00     0.002 A 
ATOM     41  C   UNL A   1      42.396  28.303  35.965  1.00  0.00     0.091 A 
ATOM     42  F   UNL A   1      41.479  27.901  33.839  1.00  0.00    -0.205 F 
ATOM     43  C   UNL A   1      42.972  29.181  36.885  1.00  0.00     0.022 A 
BRANCH  41  44
ATOM     44  S   UNL A   1      42.428  26.547  36.345  1.00  0.00     0.127 S 
ATOM     45  O   UNL A   1      42.867  26.555  37.736  1.00  0.00    -0.237 OA
ATOM     46  O   UNL A   1      41.029  26.166  36.136  1.00  0.00    -0.237 OA
ATOM     47  O   UNL A   1      43.348  25.971  35.372  1.00  0.00    -0.744 OA
ENDBRANCH  41  44
ENDBRANCH  23  37
BRANCH  24  48
ATOM     48  C   UNL A   1      42.859  24.964  28.066  1.00  0.00     0.023 A 
ATOM     49  C   UNL A   1      42.028  23.967  28.611  1.00  0.00     0.012 A 
ATOM     50  C   UNL A   1      43.750  24.601  27.032  1.00  0.00     0.148 A 
ATOM     51  C   UNL A   1      42.064  22.655  28.125  1.00  0.00     0.002 A 
ATOM     52  C   UNL A   1      43.792  23.293  26.561  1.00  0.00     0.091 A 
ATOM     53  F   UNL A   1      44.485  25.556  26.446  1.00  0.00    -0.205 F 
ATOM     54  C   UNL A   1      42.942  22.319  27.099  1.00  0.00     0.022 A 
BRANCH  52  55
ATOM     55  S   UNL A   1      44.898  22.795  25.234  1.00  0.00     0.127 S 
ATOM     56  O   UNL A   1      46.147  22.542  25.953  1.00  0.00    -0.237 OA
ATOM     57  O   UNL A   1      44.235  21.601  24.719  1.00  0.00    -0.237 OA
ATOM     58  O   UNL A   1      44.956  23.935  24.327  1.00  0.00    -0.744 OA
ENDBRANCH  52  55
ENDBRANCH  24  48
BRANCH  36  59
ATOM     59  C   UNL A   1      44.648  30.977  28.508  1.00  0.00     0.023 A 
ATOM     60  C   UNL A   1      43.649  31.216  27.542  1.00  0.00     0.012 A 
ATOM     61  C   UNL A   1      45.943  31.476  28.279  1.00  0.00     0.148 A 
ATOM     62  C   UNL A   1      43.941  31.902  26.362  1.00  0.00     0.002 A 
ATOM     63  C   UNL A   1      46.217  32.205  27.126  1.00  0.00     0.091 A 
ATOM     64  F   UNL A   1      46.888  31.253  29.206  1.00  0.00    -0.205 F 
ATOM     65  C   UNL A   1      45.222  32.408  26.159  1.00  0.00     0.022 A 
BRANCH  63  66
ATOM     66  S   UNL A   1      47.806  33.010  26.891  1.00  0.00     0.127 S 
ATOM     67  O   UNL A   1      47.533  33.910  25.772  1.00  0.00    -0.237 OA
ATOM     68  O   UNL A   1      48.021  33.680  28.174  1.00  0.00    -0.237 OA
ATOM     69  O   UNL A   1      48.752  31.933  26.623  1.00  0.00    -0.744 OA
ENDBRANCH  63  66
ENDBRANCH  36  59
ENDBRANCH  10  11
ENDBRANCH   3   5
ENDBRANCH   2   3
ENDBRANCH   1   2
BRANCH   1  70
ATOM     70  C   UNL A   1      31.530  28.372  26.349  1.00  0.00     0.275 C 
BRANCH  70  71
ATOM     71  O   UNL A   1      31.294  27.152  27.069  1.00  0.00    -0.457 OA
BRANCH  71  72
ATOM     72  C   UNL A   1      30.808  26.114  26.324  1.00  0.00     0.361 C 
ATOM     73  O   UNL A   1      29.687  26.064  25.835  1.00  0.00    -0.244 OA
BRANCH  72  74
ATOM     74  C   UNL A   1      31.703  24.981  26.348  1.00  0.00     0.198 A 
ATOM     75  N   UNL A   1      31.787  24.071  27.367  1.00  0.00    -0.122 NA
ATOM     76  C   UNL A   1      32.593  24.643  25.341  1.00  0.00     0.109 A 
ATOM     77  N   UNL A   1      32.725  23.186  27.046  1.00  0.00    -0.061 NA
ATOM     78  N   UNL A   1      33.330  23.622  25.922  1.00  0.00    -0.211 N 
BRANCH  76  79
ATOM     79  C   UNL A   1      32.777  25.189  24.001  1.00  0.00     0.004 A 
ATOM     80  C   UNL A   1      32.353  24.466  22.876  1.00  0.00     0.010 A 
ATOM     81  C   UNL A   1      33.358  26.450  23.821  1.00  0.00     0.031 A 
ATOM     82  C   UNL A   1      32.541  24.979  21.591  1.00  0.00     0.002 A 
ATOM     83  C   UNL A   1      33.542  26.957  22.537  1.00  0.00     0.041 A 
ATOM     84  C   UNL A   1      33.141  26.225  21.421  1.00  0.00     0.020 A 
ATOM     85  Cl  UNL A   1      34.279  28.498  22.328  1.00  0.00    -0.084 Cl
ENDBRANCH  76  79
BRANCH  78  86
ATOM     86  C   UNL A   1      34.541  23.065  25.457  1.00  0.00     0.079 A 
ATOM     87  C   UNL A   1      35.702  23.842  25.583  1.00  0.00     0.029 A 
ATOM     88  C   UNL A   1      34.605  21.739  24.980  1.00  0.00     0.081 A 
ATOM     89  C   UNL A   1      36.946  23.261  25.343  1.00  0.00     0.002 A 
ATOM     90  C   UNL A   1      35.876  21.176  24.760  1.00  0.00     0.015 A 
ATOM     91  C   UNL A   1      37.036  21.926  24.957  1.00  0.00     0.001 A 
BRANCH  88  92
ATOM     92  C   UNL A   1      33.403  20.906  24.594  1.00  0.00     0.418 C 
ATOM     93  F   UNL A   1      32.685  21.481  23.585  1.00  0.00    -0.166 F 
ATOM     94  F   UNL A   1      33.753  19.676  24.123  1.00  0.00    -0.166 F 
ATOM     95  F   UNL A   1      32.502  20.687  25.587  1.00  0.00    -0.166 F 
ENDBRANCH  88  92
ENDBRANCH  78  86
ENDBRANCH  72  74
ENDBRANCH  71  72
ENDBRANCH  70  71
ENDBRANCH   1  70
TORSDOF 17
ENDMDL
MODEL 3
REMARK VINA RESULT:     -12.8      3.690      7.090
REMARK SMILES O=C(OCCOC(=O)c1nnn(-c2ccccc2C(F)(F)F)c1-c1cccc(Cl)c1)c1ccc(-c2c3nc(c(-c4cccc(S(=O)(=O)[O-])c4F)c4ccc([nH]4)c(-c4cccc(S(=O)(=O)[O-])c4F)c4nc(c(-c5cccc(S(=O)(=O)[O-])c5F)c5ccc2[nH]5)C=C4)C=C3)cc1
REMARK SMILES IDX 4 1 3 2 2 3 1 4 31 5 32 6 93 7 33 8 92 9 34 10 35 11 36 12
REMARK SMILES IDX 86 13 37 14 91 15 85 16 87 17 38 18 90 19 84 20 83 21 39 23
REMARK SMILES IDX 71 24 51 25 70 26 52 27 55 28 69 29 88 30 53 31 54 32 68 34
REMARK SMILES IDX 89 35 56 36 40 37 41 38 49 39 42 40 44 41 50 42 43 43 45 44
REMARK SMILES IDX 46 45 47 46 48 47 72 48 73 49 81 50 74 51 76 52 82 53 75 54
REMARK SMILES IDX 77 55 78 56 79 57 80 58 57 59 58 60 66 61 59 62 61 63 67 64
REMARK SMILES IDX 60 65 62 66 63 67 64 68 65 69 5 70 6 71 7 72 8 73 9 74 10 75
REMARK SMILES IDX 23 76 11 77 12 78 24 79 25 80 30 81 26 82 28 83 27 84 29 85
REMARK SMILES IDX 13 86 14 87 18 88 15 89 17 90 16 91 19 92 20 93 21 94 22 95
REMARK H PARENT 87 22 55 33
REMARK Flexibility Score: inf
ROOT
ATOM      1  C   UNL A   1      36.490  21.876  25.819  1.00  0.00     0.275 C 
ENDROOT
BRANCH   1   2
ATOM      2  O   UNL A   1      37.814  22.131  25.306  1.00  0.00    -0.458 OA
BRANCH   2   3
ATOM      3  C   UNL A   1      38.875  21.935  26.125  1.00  0.00     0.338 C 
ATOM      4  O   UNL A   1      39.423  20.861  26.296  1.00  0.00    -0.246 OA
BRANCH   3   5
ATOM      5  C   UNL A   1      39.326  23.217  26.718  1.00  0.00     0.060 A 
ATOM      6  C   UNL A   1      38.627  24.405  26.475  1.00  0.00     0.016 A 
ATOM      7  C   UNL A   1      40.458  23.224  27.543  1.00  0.00     0.016 A 
ATOM      8  C   UNL A   1      39.087  25.599  27.004  1.00  0.00     0.010 A 
ATOM      9  C   UNL A   1      40.926  24.427  28.070  1.00  0.00     0.010 A 
ATOM     10  C   UNL A   1      40.251  25.615  27.777  1.00  0.00    -0.014 A 
BRANCH  10  11
ATOM     11  C   UNL A   1      40.688  26.918  28.263  1.00  0.00     0.031 A 
ATOM     12  C   UNL A   1      42.014  27.404  27.794  1.00  0.00     0.074 A 
ATOM     13  C   UNL A   1      39.952  27.695  29.079  1.00  0.00     0.049 A 
ATOM     14  N   UNL A   1      43.087  27.579  28.498  1.00  0.00    -0.248 NA
ATOM     15  C   UNL A   1      42.176  27.687  26.365  1.00  0.00     0.031 C 
ATOM     16  C   UNL A   1      38.532  27.562  29.404  1.00  0.00     0.029 A 
ATOM     17  N   UNL A   1      40.318  28.854  29.702  1.00  0.00    -0.354 N 
ATOM     18  C   UNL A   1      44.006  28.189  27.646  1.00  0.00     0.074 A 
ATOM     19  C   UNL A   1      43.436  28.122  26.323  1.00  0.00     0.031 C 
ATOM     20  C   UNL A   1      38.103  28.717  29.962  1.00  0.00     0.029 A 
ATOM     21  C   UNL A   1      39.242  29.600  30.159  1.00  0.00     0.049 A 
ATOM     22  H   UNL A   1      41.255  29.134  29.816  1.00  0.00     0.167 HD
ATOM     23  C   UNL A   1      45.088  28.869  28.114  1.00  0.00     0.034 A 
ATOM     24  C   UNL A   1      39.276  30.876  30.605  1.00  0.00     0.034 A 
ATOM     25  C   UNL A   1      45.347  28.597  29.503  1.00  0.00     0.049 A 
ATOM     26  C   UNL A   1      40.664  31.189  31.011  1.00  0.00     0.074 A 
ATOM     27  C   UNL A   1      45.623  27.477  30.260  1.00  0.00     0.029 A 
ATOM     28  N   UNL A   1      45.067  29.597  30.401  1.00  0.00    -0.354 N 
ATOM     29  N   UNL A   1      41.248  30.700  32.069  1.00  0.00    -0.248 NA
ATOM     30  C   UNL A   1      41.545  31.840  30.056  1.00  0.00     0.031 C 
ATOM     31  C   UNL A   1      45.054  27.743  31.541  1.00  0.00     0.029 A 
ATOM     32  C   UNL A   1      44.473  29.011  31.485  1.00  0.00     0.049 A 
ATOM     33  H   UNL A   1      45.258  30.556  30.286  1.00  0.00     0.167 HD
ATOM     34  C   UNL A   1      42.585  30.597  31.712  1.00  0.00     0.074 A 
ATOM     35  C   UNL A   1      42.726  31.447  30.536  1.00  0.00     0.031 C 
ATOM     36  C   UNL A   1      43.379  29.607  32.221  1.00  0.00     0.034 A 
BRANCH  23  37
ATOM     37  C   UNL A   1      45.769  30.030  27.423  1.00  0.00     0.023 A 
ATOM     38  C   UNL A   1      47.176  30.134  27.555  1.00  0.00     0.012 A 
ATOM     39  C   UNL A   1      45.092  31.150  26.898  1.00  0.00     0.148 A 
ATOM     40  C   UNL A   1      47.861  31.310  27.235  1.00  0.00     0.002 A 
ATOM     41  C   UNL A   1      45.791  32.287  26.501  1.00  0.00     0.091 A 
ATOM     42  F   UNL A   1      43.754  31.183  26.900  1.00  0.00    -0.205 F 
ATOM     43  C   UNL A   1      47.169  32.385  26.698  1.00  0.00     0.022 A 
BRANCH  41  44
ATOM     44  S   UNL A   1      44.952  33.670  25.719  1.00  0.00     0.127 S 
ATOM     45  O   UNL A   1      44.165  34.201  26.827  1.00  0.00    -0.237 OA
ATOM     46  O   UNL A   1      46.076  34.508  25.298  1.00  0.00    -0.237 OA
ATOM     47  O   UNL A   1      44.208  33.080  24.613  1.00  0.00    -0.744 OA
ENDBRANCH  41  44
ENDBRANCH  23  37
BRANCH  24  48
ATOM     48  C   UNL A   1      38.225  31.916  30.562  1.00  0.00     0.023 A 
ATOM     49  C   UNL A   1      37.460  32.084  29.394  1.00  0.00     0.012 A 
ATOM     50  C   UNL A   1      37.800  32.567  31.741  1.00  0.00     0.148 A 
ATOM     51  C   UNL A   1      36.293  32.856  29.402  1.00  0.00     0.002 A 
ATOM     52  C   UNL A   1      36.646  33.345  31.743  1.00  0.00     0.091 A 
ATOM     53  F   UNL A   1      38.469  32.347  32.881  1.00  0.00    -0.205 F 
ATOM     54  C   UNL A   1      35.884  33.483  30.577  1.00  0.00     0.022 A 
BRANCH  52  55
ATOM     55  S   UNL A   1      36.060  34.174  33.226  1.00  0.00     0.127 S 
ATOM     56  O   UNL A   1      35.049  35.086  32.690  1.00  0.00    -0.237 OA
ATOM     57  O   UNL A   1      35.528  33.060  34.005  1.00  0.00    -0.237 OA
ATOM     58  O   UNL A   1      37.227  34.845  33.785  1.00  0.00    -0.744 OA
ENDBRANCH  52  55
ENDBRANCH  24  48
BRANCH  36  59
ATOM     59  C   UNL A   1      42.905  28.849  33.436  1.00  0.00     0.023 A 
ATOM     60  C   UNL A   1      41.882  27.881  33.356  1.00  0.00     0.012 A 
ATOM     61  C   UNL A   1      43.619  28.981  34.640  1.00  0.00     0.148 A 
ATOM     62  C   UNL A   1      41.555  27.090  34.460  1.00  0.00     0.002 A 
ATOM     63  C   UNL A   1      43.326  28.154  35.720  1.00  0.00     0.091 A 
ATOM     64  F   UNL A   1      44.597  29.899  34.708  1.00  0.00    -0.205 F 
ATOM     65  C   UNL A   1      42.286  27.217  35.638  1.00  0.00     0.022 A 
BRANCH  63  66
ATOM     66  S   UNL A   1      44.337  28.171  37.206  1.00  0.00     0.127 S 
ATOM     67  O   UNL A   1      43.765  27.073  37.981  1.00  0.00    -0.237 OA
ATOM     68  O   UNL A   1      45.681  27.916  36.684  1.00  0.00    -0.237 OA
ATOM     69  O   UNL A   1      44.170  29.504  37.774  1.00  0.00    -0.744 OA
ENDBRANCH  63  66
ENDBRANCH  36  59
ENDBRANCH  10  11
ENDBRANCH   3   5
ENDBRANCH   2   3
ENDBRANCH   1   2
BRANCH   1  70
ATOM     70  C   UNL A   1      35.310  22.376  24.990  1.00  0.00     0.275 C 
BRANCH  70  71
ATOM     71  O   UNL A   1      34.920  23.678  25.457  1.00  0.00    -0.457 OA
BRANCH  71  72
ATOM     72  C   UNL A   1      33.688  23.747  26.044  1.00  0.00     0.361 C 
ATOM     73  O   UNL A   1      33.405  23.289  27.143  1.00  0.00    -0.244 OA
BRANCH  72  74
ATOM     74  C   UNL A   1      32.693  24.251  25.126  1.00  0.00     0.198 A 
ATOM     75  N   UNL A   1      32.080  23.510  24.152  1.00  0.00    -0.122 NA
ATOM     76  C   UNL A   1      32.204  25.547  25.107  1.00  0.00     0.109 A 
ATOM     77  N   UNL A   1      31.242  24.308  23.500  1.00  0.00    -0.061 NA
ATOM     78  N   UNL A   1      31.442  25.565  23.949  1.00  0.00    -0.211 N 
BRANCH  76  79
ATOM     79  C   UNL A   1      32.414  26.664  26.023  1.00  0.00     0.004 A 
ATOM     80  C   UNL A   1      31.362  27.127  26.829  1.00  0.00     0.010 A 
ATOM     81  C   UNL A   1      33.670  27.274  26.125  1.00  0.00     0.031 A 
ATOM     82  C   UNL A   1      31.555  28.204  27.695  1.00  0.00     0.002 A 
ATOM     83  C   UNL A   1      33.856  28.348  26.993  1.00  0.00     0.041 A 
ATOM     84  C   UNL A   1      32.803  28.819  27.774  1.00  0.00     0.020 A 
ATOM     85  Cl  UNL A   1      35.398  29.103  27.092  1.00  0.00    -0.084 Cl
ENDBRANCH  76  79
BRANCH  78  86
ATOM     86  C   UNL A   1      30.911  26.692  23.287  1.00  0.00     0.079 A 
ATOM     87  C   UNL A   1      29.557  26.991  23.500  1.00  0.00     0.029 A 
ATOM     88  C   UNL A   1      31.730  27.550  22.523  1.00  0.00     0.081 A 
ATOM     89  C   UNL A   1      29.042  28.205  23.049  1.00  0.00     0.002 A 
ATOM     90  C   UNL A   1      31.186  28.774  22.093  1.00  0.00     0.015 A 
ATOM     91  C   UNL A   1      29.859  29.105  22.368  1.00  0.00     0.001 A 
BRANCH  88  92
ATOM     92  C   UNL A   1      33.124  27.207  22.046  1.00  0.00     0.418 C 
ATOM     93  F   UNL A   1      33.128  26.131  21.206  1.00  0.00    -0.166 F 
ATOM     94  F   UNL A   1      33.692  28.218  21.331  1.00  0.00    -0.166 F 
ATOM     95  F   UNL A   1      34.013  26.892  23.025  1.00  0.00    -0.166 F 
ENDBRANCH  88  92
ENDBRANCH  78  86
ENDBRANCH  72  74
ENDBRANCH  71  72
ENDBRANCH  70  71
ENDBRANCH   1  70
TORSDOF 17
ENDMDL
