MODEL 1
REMARK VINA RESULT:     -11.8      0.000      0.000
REMARK SMILES CS(=O)(=O)Nc1cc(C(=O)OCCOC(=O)c2ccc(-c3c4nc(c(-c5cccc(S(=O)(=O)[O-])c5F)c5ccc([nH]5)c(-c5cccc(S(=O)(=O)[O-])c5F)c5nc(c(-c6cccc(S(=O)(=O)[O-])c6F)c6ccc3[nH]6)C=C5)C=C4)cc2)ccc1N1CC[NH+](CC(=O)N2CCCC2)CC1
REMARK SMILES IDX 12 1 11 2 9 3 10 4 8 5 6 6 7 7 82 8 81 9 80 10 5 11 2 13
REMARK SMILES IDX 1 14 3 15 4 16 83 17 84 18 96 19 85 20 95 21 86 22 87 24
REMARK SMILES IDX 88 25 89 26 90 27 91 28 94 29 92 30 93 31 13 32 14 33 15 34
REMARK SMILES IDX 16 35 17 36 18 37 79 38 19 39 78 40 20 41 21 42 22 43 72 44
REMARK SMILES IDX 23 45 77 46 71 47 73 48 24 49 76 50 70 51 69 52 25 54 57 55
REMARK SMILES IDX 37 56 56 57 38 58 41 59 55 60 74 61 39 62 40 63 54 65 75 66
REMARK SMILES IDX 42 67 26 68 27 69 35 70 28 71 30 72 36 73 29 74 31 75 32 76
REMARK SMILES IDX 33 77 34 78 58 79 59 80 67 81 60 82 62 83 68 84 61 85 63 86
REMARK SMILES IDX 64 87 65 88 66 89 43 90 44 91 52 92 45 93 47 94 53 95 46 96
REMARK SMILES IDX 48 97 49 98 50 99 51 100
REMARK H PARENT 5 12 86 23 73 53 41 64
REMARK Flexibility Score: inf
ROOT
ATOM      1  C   UNL A   1      36.224  19.545  24.900  1.00  0.00     0.275 C 
ENDROOT
BRANCH   1   2
ATOM      2  O   UNL A   1      35.645  20.865  24.977  1.00  0.00    -0.458 OA
BRANCH   2   3
ATOM      3  C   UNL A   1      34.331  20.908  25.312  1.00  0.00     0.338 C 
ATOM      4  O   UNL A   1      33.580  19.954  25.436  1.00  0.00    -0.246 OA
BRANCH   3   5
ATOM      5  C   UNL A   1      33.920  22.288  25.654  1.00  0.00     0.062 A 
ATOM      6  C   UNL A   1      33.954  24.629  24.989  1.00  0.00     0.073 A 
ATOM      7  C   UNL A   1      34.445  23.325  24.882  1.00  0.00     0.044 A 
ATOM      8  C   UNL A   1      33.065  24.975  26.036  1.00  0.00     0.062 A 
ATOM      9  C   UNL A   1      32.610  23.915  26.856  1.00  0.00     0.029 A 
ATOM     10  C   UNL A   1      32.987  22.582  26.640  1.00  0.00     0.018 A 
BRANCH   6  11
ATOM     11  N   UNL A   1      34.119  25.370  23.779  1.00  0.00    -0.282 N 
ATOM     12  H   UNL A   1      34.763  26.114  23.809  1.00  0.00     0.180 HD
BRANCH  11  13
ATOM     13  S   UNL A   1      33.353  25.126  22.336  1.00  0.00     0.229 S 
ATOM     14  C   UNL A   1      31.607  25.004  22.634  1.00  0.00     0.183 C 
ATOM     15  O   UNL A   1      33.834  23.847  21.853  1.00  0.00    -0.207 OA
ATOM     16  O   UNL A   1      33.581  26.324  21.556  1.00  0.00    -0.207 OA
ENDBRANCH  11  13
ENDBRANCH   6  11
BRANCH   8  17
ATOM     17  N   UNL A   1      32.608  26.280  26.246  1.00  0.00    -0.359 N 
ATOM     18  C   UNL A   1      31.226  26.646  25.841  1.00  0.00     0.178 C 
ATOM     19  C   UNL A   1      33.572  27.346  25.960  1.00  0.00     0.178 C 
ATOM     20  C   UNL A   1      30.813  28.052  26.362  1.00  0.00     0.284 C 
ATOM     21  C   UNL A   1      33.142  28.656  26.647  1.00  0.00     0.284 C 
ATOM     22  N   UNL A   1      31.810  29.132  26.264  1.00  0.00    -0.324 N 
ATOM     23  H   UNL A   1      31.512  29.820  26.955  1.00  0.00     0.348 HD
BRANCH  22  24
ATOM     24  C   UNL A   1      31.786  29.958  25.049  1.00  0.00     0.363 C 
BRANCH  24  25
ATOM     25  C   UNL A   1      31.000  29.406  23.857  1.00  0.00     0.277 C 
ATOM     26  O   UNL A   1      31.440  28.436  23.228  1.00  0.00    -0.268 OA
ATOM     27  N   UNL A   1      29.780  29.969  23.533  1.00  0.00    -0.338 N 
ATOM     28  C   UNL A   1      29.158  31.190  24.039  1.00  0.00     0.119 C 
ATOM     29  C   UNL A   1      28.929  29.326  22.548  1.00  0.00     0.119 C 
ATOM     30  C   UNL A   1      27.730  31.148  23.514  1.00  0.00     0.023 C 
ATOM     31  C   UNL A   1      27.852  30.347  22.224  1.00  0.00     0.023 C 
ENDBRANCH  24  25
ENDBRANCH  22  24
ENDBRANCH   8  17
ENDBRANCH   3   5
ENDBRANCH   2   3
ENDBRANCH   1   2
BRANCH   1  32
ATOM     32  C   UNL A   1      37.742  19.611  24.726  1.00  0.00     0.275 C 
BRANCH  32  33
ATOM     33  O   UNL A   1      38.279  20.756  25.412  1.00  0.00    -0.458 OA
BRANCH  33  34
ATOM     34  C   UNL A   1      39.423  20.543  26.102  1.00  0.00     0.338 C 
ATOM     35  O   UNL A   1      40.049  19.502  26.201  1.00  0.00    -0.246 OA
BRANCH  34  36
ATOM     36  C   UNL A   1      39.893  21.811  26.680  1.00  0.00     0.060 A 
ATOM     37  C   UNL A   1      39.427  22.995  26.116  1.00  0.00     0.016 A 
ATOM     38  C   UNL A   1      40.886  21.846  27.654  1.00  0.00     0.016 A 
ATOM     39  C   UNL A   1      39.995  24.219  26.458  1.00  0.00     0.010 A 
ATOM     40  C   UNL A   1      41.404  23.085  28.057  1.00  0.00     0.010 A 
ATOM     41  C   UNL A   1      40.995  24.284  27.437  1.00  0.00    -0.014 A 
BRANCH  41  42
ATOM     42  C   UNL A   1      41.651  25.582  27.775  1.00  0.00     0.031 A 
ATOM     43  C   UNL A   1      40.890  26.630  28.550  1.00  0.00     0.074 A 
ATOM     44  C   UNL A   1      42.919  25.837  27.393  1.00  0.00     0.049 A 
ATOM     45  N   UNL A   1      41.198  27.881  28.780  1.00  0.00    -0.248 NA
ATOM     46  C   UNL A   1      39.600  26.219  29.132  1.00  0.00     0.031 C 
ATOM     47  C   UNL A   1      43.795  24.908  26.677  1.00  0.00     0.029 A 
ATOM     48  N   UNL A   1      43.693  26.963  27.547  1.00  0.00    -0.354 N 
ATOM     49  C   UNL A   1      40.118  28.423  29.470  1.00  0.00     0.074 A 
ATOM     50  C   UNL A   1      39.145  27.364  29.624  1.00  0.00     0.031 C 
ATOM     51  C   UNL A   1      44.984  25.494  26.468  1.00  0.00     0.029 A 
ATOM     52  C   UNL A   1      44.936  26.863  26.965  1.00  0.00     0.049 A 
ATOM     53  H   UNL A   1      43.386  27.767  28.028  1.00  0.00     0.167 HD
ATOM     54  C   UNL A   1      39.958  29.680  29.946  1.00  0.00     0.034 A 
ATOM     55  C   UNL A   1      45.915  27.778  26.812  1.00  0.00     0.034 A 
ATOM     56  C   UNL A   1      40.957  30.712  29.861  1.00  0.00     0.049 A 
ATOM     57  C   UNL A   1      45.705  29.170  27.343  1.00  0.00     0.074 A 
ATOM     58  C   UNL A   1      40.889  32.016  30.320  1.00  0.00     0.029 A 
ATOM     59  N   UNL A   1      42.216  30.550  29.303  1.00  0.00    -0.354 N 
ATOM     60  N   UNL A   1      44.684  29.659  28.005  1.00  0.00    -0.248 NA
ATOM     61  C   UNL A   1      46.790  30.137  27.118  1.00  0.00     0.031 C 
ATOM     62  C   UNL A   1      42.106  32.645  30.035  1.00  0.00     0.029 A 
ATOM     63  C   UNL A   1      42.937  31.727  29.414  1.00  0.00     0.049 A 
ATOM     64  H   UNL A   1      42.548  29.721  28.889  1.00  0.00     0.167 HD
ATOM     65  C   UNL A   1      45.018  30.974  28.304  1.00  0.00     0.074 A 
ATOM     66  C   UNL A   1      46.345  31.202  27.771  1.00  0.00     0.031 C 
ATOM     67  C   UNL A   1      44.283  31.917  28.944  1.00  0.00     0.034 A 
BRANCH  54  68
ATOM     68  C   UNL A   1      38.661  30.012  30.639  1.00  0.00     0.023 A 
ATOM     69  C   UNL A   1      38.463  29.616  31.976  1.00  0.00     0.012 A 
ATOM     70  C   UNL A   1      37.669  30.777  29.991  1.00  0.00     0.148 A 
ATOM     71  C   UNL A   1      37.288  29.950  32.650  1.00  0.00     0.002 A 
ATOM     72  C   UNL A   1      36.519  31.142  30.682  1.00  0.00     0.091 A 
ATOM     73  F   UNL A   1      37.868  31.130  28.712  1.00  0.00    -0.205 F 
ATOM     74  C   UNL A   1      36.323  30.721  32.007  1.00  0.00     0.022 A 
BRANCH  72  75
ATOM     75  S   UNL A   1      35.250  32.195  29.969  1.00  0.00     0.127 S 
ATOM     76  O   UNL A   1      34.315  32.328  31.085  1.00  0.00    -0.237 OA
ATOM     77  O   UNL A   1      36.000  33.412  29.654  1.00  0.00    -0.237 OA
ATOM     78  O   UNL A   1      34.739  31.480  28.808  1.00  0.00    -0.744 OA
ENDBRANCH  72  75
ENDBRANCH  54  68
BRANCH  55  79
ATOM     79  C   UNL A   1      47.193  27.407  26.135  1.00  0.00     0.023 A 
ATOM     80  C   UNL A   1      47.363  27.709  24.769  1.00  0.00     0.012 A 
ATOM     81  C   UNL A   1      48.237  26.764  26.828  1.00  0.00     0.148 A 
ATOM     82  C   UNL A   1      48.535  27.350  24.101  1.00  0.00     0.002 A 
ATOM     83  C   UNL A   1      49.425  26.464  26.172  1.00  0.00     0.091 A 
ATOM     84  F   UNL A   1      48.050  26.456  28.120  1.00  0.00    -0.205 F 
ATOM     85  C   UNL A   1      49.569  26.740  24.804  1.00  0.00     0.022 A 
BRANCH  83  86
ATOM     86  S   UNL A   1      50.852  25.804  27.042  1.00  0.00     0.127 S 
ATOM     87  O   UNL A   1      50.359  24.501  27.480  1.00  0.00    -0.237 OA
ATOM     88  O   UNL A   1      51.864  25.755  25.985  1.00  0.00    -0.237 OA
ATOM     89  O   UNL A   1      51.140  26.766  28.096  1.00  0.00    -0.744 OA
ENDBRANCH  83  86
ENDBRANCH  55  79
BRANCH  67  90
ATOM     90  C   UNL A   1      44.909  33.271  29.149  1.00  0.00     0.023 A 
ATOM     91  C   UNL A   1      45.677  33.518  30.304  1.00  0.00     0.012 A 
ATOM     92  C   UNL A   1      44.800  34.271  28.162  1.00  0.00     0.148 A 
ATOM     93  C   UNL A   1      46.302  34.752  30.487  1.00  0.00     0.002 A 
ATOM     94  C   UNL A   1      45.463  35.480  28.330  1.00  0.00     0.091 A 
ATOM     95  F   UNL A   1      44.049  34.021  27.079  1.00  0.00    -0.205 F 
ATOM     96  C   UNL A   1      46.204  35.726  29.497  1.00  0.00     0.022 A 
BRANCH  94  97
ATOM     97  S   UNL A   1      45.469  36.758  27.068  1.00  0.00     0.127 S 
ATOM     98  O   UNL A   1      46.049  36.049  25.929  1.00  0.00    -0.237 OA
ATOM     99  O   UNL A   1      44.045  37.068  26.932  1.00  0.00    -0.237 OA
ATOM    100  O   UNL A   1      46.274  37.847  27.603  1.00  0.00    -0.744 OA
ENDBRANCH  94  97
ENDBRANCH  67  90
ENDBRANCH  41  42
ENDBRANCH  34  36
ENDBRANCH  33  34
ENDBRANCH  32  33
ENDBRANCH   1  32
TORSDOF 19
ENDMDL
MODEL 2
REMARK VINA RESULT:     -11.6      5.139     10.689
REMARK SMILES CS(=O)(=O)Nc1cc(C(=O)OCCOC(=O)c2ccc(-c3c4nc(c(-c5cccc(S(=O)(=O)[O-])c5F)c5ccc([nH]5)c(-c5cccc(S(=O)(=O)[O-])c5F)c5nc(c(-c6cccc(S(=O)(=O)[O-])c6F)c6ccc3[nH]6)C=C5)C=C4)cc2)ccc1N1CC[NH+](CC(=O)N2CCCC2)CC1
REMARK SMILES IDX 12 1 11 2 9 3 10 4 8 5 6 6 7 7 82 8 81 9 80 10 5 11 2 13
REMARK SMILES IDX 1 14 3 15 4 16 83 17 84 18 96 19 85 20 95 21 86 22 87 24
REMARK SMILES IDX 88 25 89 26 90 27 91 28 94 29 92 30 93 31 13 32 14 33 15 34
REMARK SMILES IDX 16 35 17 36 18 37 79 38 19 39 78 40 20 41 21 42 22 43 72 44
REMARK SMILES IDX 23 45 77 46 71 47 73 48 24 49 76 50 70 51 69 52 25 54 57 55
REMARK SMILES IDX 37 56 56 57 38 58 41 59 55 60 74 61 39 62 40 63 54 65 75 66
REMARK SMILES IDX 42 67 26 68 27 69 35 70 28 71 30 72 36 73 29 74 31 75 32 76
REMARK SMILES IDX 33 77 34 78 58 79 59 80 67 81 60 82 62 83 68 84 61 85 63 86
REMARK SMILES IDX 64 87 65 88 66 89 43 90 44 91 52 92 45 93 47 94 53 95 46 96
REMARK SMILES IDX 48 97 49 98 50 99 51 100
REMARK H PARENT 5 12 86 23 73 53 41 64
REMARK Flexibility Score: inf
ROOT
ATOM      1  C   UNL A   1      31.043  31.723  26.337  1.00  0.00     0.275 C 
ENDROOT
BRANCH   1   2
ATOM      2  O   UNL A   1      31.975  30.728  25.864  1.00  0.00    -0.458 OA
BRANCH   2   3
ATOM      3  C   UNL A   1      31.451  29.774  25.053  1.00  0.00     0.338 C 
ATOM      4  O   UNL A   1      30.446  29.873  24.368  1.00  0.00    -0.246 OA
BRANCH   3   5
ATOM      5  C   UNL A   1      32.341  28.592  24.987  1.00  0.00     0.062 A 
ATOM      6  C   UNL A   1      32.825  26.377  25.871  1.00  0.00     0.073 A 
ATOM      7  C   UNL A   1      32.187  27.616  25.972  1.00  0.00     0.044 A 
ATOM      8  C   UNL A   1      33.814  26.161  24.882  1.00  0.00     0.062 A 
ATOM      9  C   UNL A   1      34.008  27.201  23.941  1.00  0.00     0.029 A 
ATOM     10  C   UNL A   1      33.249  28.380  23.958  1.00  0.00     0.018 A 
BRANCH   6  11
ATOM     11  N   UNL A   1      32.111  25.344  26.552  1.00  0.00    -0.282 N 
ATOM     12  H   UNL A   1      32.531  24.991  27.368  1.00  0.00     0.180 HD
BRANCH  11  13
ATOM     13  S   UNL A   1      30.663  24.671  26.128  1.00  0.00     0.229 S 
ATOM     14  C   UNL A   1      30.875  23.784  24.604  1.00  0.00     0.183 C 
ATOM     15  O   UNL A   1      29.770  25.789  25.896  1.00  0.00    -0.207 OA
ATOM     16  O   UNL A   1      30.356  23.704  27.158  1.00  0.00    -0.207 OA
ENDBRANCH  11  13
ENDBRANCH   6  11
BRANCH   8  17
ATOM     17  N   UNL A   1      34.548  24.974  24.785  1.00  0.00    -0.359 N 
ATOM     18  C   UNL A   1      34.174  23.963  23.762  1.00  0.00     0.178 C 
ATOM     19  C   UNL A   1      34.935  24.360  26.058  1.00  0.00     0.178 C 
ATOM     20  C   UNL A   1      35.232  22.829  23.641  1.00  0.00     0.284 C 
ATOM     21  C   UNL A   1      36.090  23.364  25.843  1.00  0.00     0.284 C 
ATOM     22  N   UNL A   1      35.794  22.289  24.891  1.00  0.00    -0.324 N 
ATOM     23  H   UNL A   1      36.678  21.864  24.612  1.00  0.00     0.348 HD
BRANCH  22  24
ATOM     24  C   UNL A   1      35.121  21.124  25.481  1.00  0.00     0.363 C 
BRANCH  24  25
ATOM     25  C   UNL A   1      35.519  19.751  24.934  1.00  0.00     0.277 C 
ATOM     26  O   UNL A   1      36.714  19.442  24.859  1.00  0.00    -0.268 OA
ATOM     27  N   UNL A   1      34.530  18.851  24.581  1.00  0.00    -0.338 N 
ATOM     28  C   UNL A   1      33.089  19.060  24.452  1.00  0.00     0.119 C 
ATOM     29  C   UNL A   1      34.883  17.479  24.266  1.00  0.00     0.119 C 
ATOM     30  C   UNL A   1      32.505  17.664  24.295  1.00  0.00     0.023 C 
ATOM     31  C   UNL A   1      33.636  16.879  23.641  1.00  0.00     0.023 C 
ENDBRANCH  24  25
ENDBRANCH  22  24
ENDBRANCH   8  17
ENDBRANCH   3   5
ENDBRANCH   2   3
ENDBRANCH   1   2
BRANCH   1  32
ATOM     32  C   UNL A   1      31.761  33.005  26.759  1.00  0.00     0.275 C 
BRANCH  32  33
ATOM     33  O   UNL A   1      33.157  32.746  26.996  1.00  0.00    -0.458 OA
BRANCH  33  34
ATOM     34  C   UNL A   1      33.721  33.447  28.006  1.00  0.00     0.338 C 
ATOM     35  O   UNL A   1      33.272  34.429  28.572  1.00  0.00    -0.246 OA
BRANCH  34  36
ATOM     36  C   UNL A   1      34.971  32.794  28.421  1.00  0.00     0.060 A 
ATOM     37  C   UNL A   1      34.878  31.587  29.107  1.00  0.00     0.016 A 
ATOM     38  C   UNL A   1      36.205  33.421  28.279  1.00  0.00     0.016 A 
ATOM     39  C   UNL A   1      35.995  31.028  29.724  1.00  0.00     0.010 A 
ATOM     40  C   UNL A   1      37.345  32.820  28.832  1.00  0.00     0.010 A 
ATOM     41  C   UNL A   1      37.249  31.637  29.595  1.00  0.00    -0.014 A 
BRANCH  41  42
ATOM     42  C   UNL A   1      38.444  31.080  30.295  1.00  0.00     0.031 A 
ATOM     43  C   UNL A   1      39.305  30.047  29.609  1.00  0.00     0.074 A 
ATOM     44  C   UNL A   1      38.768  31.485  31.540  1.00  0.00     0.049 A 
ATOM     45  N   UNL A   1      40.262  29.302  30.100  1.00  0.00    -0.248 NA
ATOM     46  C   UNL A   1      39.041  29.808  28.179  1.00  0.00     0.031 C 
ATOM     47  C   UNL A   1      38.060  32.505  32.315  1.00  0.00     0.029 A 
ATOM     48  N   UNL A   1      39.777  31.077  32.381  1.00  0.00    -0.354 N 
ATOM     49  C   UNL A   1      40.668  28.465  29.066  1.00  0.00     0.074 A 
ATOM     50  C   UNL A   1      39.853  28.792  27.917  1.00  0.00     0.031 C 
ATOM     51  C   UNL A   1      38.662  32.654  33.505  1.00  0.00     0.029 A 
ATOM     52  C   UNL A   1      39.751  31.691  33.613  1.00  0.00     0.049 A 
ATOM     53  H   UNL A   1      40.455  30.409  32.126  1.00  0.00     0.167 HD
ATOM     54  C   UNL A   1      41.639  27.521  29.068  1.00  0.00     0.034 A 
ATOM     55  C   UNL A   1      40.492  31.480  34.719  1.00  0.00     0.034 A 
ATOM     56  C   UNL A   1      42.501  27.249  30.188  1.00  0.00     0.049 A 
ATOM     57  C   UNL A   1      41.558  30.418  34.695  1.00  0.00     0.074 A 
ATOM     58  C   UNL A   1      43.520  26.315  30.283  1.00  0.00     0.029 A 
ATOM     59  N   UNL A   1      42.466  27.926  31.397  1.00  0.00    -0.354 N 
ATOM     60  N   UNL A   1      41.936  29.647  33.705  1.00  0.00    -0.248 NA
ATOM     61  C   UNL A   1      42.312  30.206  35.941  1.00  0.00     0.031 C 
ATOM     62  C   UNL A   1      44.097  26.425  31.552  1.00  0.00     0.029 A 
ATOM     63  C   UNL A   1      43.449  27.437  32.241  1.00  0.00     0.049 A 
ATOM     64  H   UNL A   1      41.835  28.647  31.622  1.00  0.00     0.167 HD
ATOM     65  C   UNL A   1      42.990  28.886  34.196  1.00  0.00     0.074 A 
ATOM     66  C   UNL A   1      43.207  29.302  35.565  1.00  0.00     0.031 C 
ATOM     67  C   UNL A   1      43.701  27.912  33.575  1.00  0.00     0.034 A 
BRANCH  54  68
ATOM     68  C   UNL A   1      41.853  26.726  27.806  1.00  0.00     0.023 A 
ATOM     69  C   UNL A   1      42.479  27.332  26.698  1.00  0.00     0.012 A 
ATOM     70  C   UNL A   1      41.499  25.363  27.740  1.00  0.00     0.148 A 
ATOM     71  C   UNL A   1      42.725  26.602  25.535  1.00  0.00     0.002 A 
ATOM     72  C   UNL A   1      41.786  24.632  26.592  1.00  0.00     0.091 A 
ATOM     73  F   UNL A   1      40.889  24.809  28.797  1.00  0.00    -0.205 F 
ATOM     74  C   UNL A   1      42.389  25.252  25.487  1.00  0.00     0.022 A 
BRANCH  72  75
ATOM     75  S   UNL A   1      41.460  22.870  26.457  1.00  0.00     0.127 S 
ATOM     76  O   UNL A   1      42.070  22.361  27.684  1.00  0.00    -0.237 OA
ATOM     77  O   UNL A   1      39.997  22.827  26.441  1.00  0.00    -0.237 OA
ATOM     78  O   UNL A   1      42.094  22.437  25.220  1.00  0.00    -0.744 OA
ENDBRANCH  72  75
ENDBRANCH  54  68
BRANCH  55  79
ATOM     79  C   UNL A   1      40.262  32.298  35.947  1.00  0.00     0.023 A 
ATOM     80  C   UNL A   1      41.125  33.376  36.230  1.00  0.00     0.012 A 
ATOM     81  C   UNL A   1      39.200  32.023  36.830  1.00  0.00     0.148 A 
ATOM     82  C   UNL A   1      40.953  34.142  37.384  1.00  0.00     0.002 A 
ATOM     83  C   UNL A   1      38.997  32.828  37.946  1.00  0.00     0.091 A 
ATOM     84  F   UNL A   1      38.404  30.977  36.564  1.00  0.00    -0.205 F 
ATOM     85  C   UNL A   1      39.883  33.876  38.234  1.00  0.00     0.022 A 
BRANCH  83  86
ATOM     86  S   UNL A   1      37.564  32.634  39.011  1.00  0.00     0.127 S 
ATOM     87  O   UNL A   1      37.745  31.275  39.514  1.00  0.00    -0.237 OA
ATOM     88  O   UNL A   1      37.770  33.690  40.005  1.00  0.00    -0.237 OA
ATOM     89  O   UNL A   1      36.410  32.848  38.149  1.00  0.00    -0.744 OA
ENDBRANCH  83  86
ENDBRANCH  55  79
BRANCH  67  90
ATOM     90  C   UNL A   1      44.815  27.258  34.350  1.00  0.00     0.023 A 
ATOM     91  C   UNL A   1      46.079  27.877  34.414  1.00  0.00     0.012 A 
ATOM     92  C   UNL A   1      44.586  26.072  35.075  1.00  0.00     0.148 A 
ATOM     93  C   UNL A   1      47.107  27.308  35.164  1.00  0.00     0.002 A 
ATOM     94  C   UNL A   1      45.602  25.537  35.857  1.00  0.00     0.091 A 
ATOM     95  F   UNL A   1      43.381  25.490  34.986  1.00  0.00    -0.205 F 
ATOM     96  C   UNL A   1      46.866  26.147  35.894  1.00  0.00     0.022 A 
BRANCH  94  97
ATOM     97  S   UNL A   1      45.354  24.096  36.902  1.00  0.00     0.127 S 
ATOM     98  O   UNL A   1      46.717  23.813  37.348  1.00  0.00    -0.237 OA
ATOM     99  O   UNL A   1      44.468  24.617  37.944  1.00  0.00    -0.237 OA
ATOM    100  O   UNL A   1      44.751  23.081  36.050  1.00  0.00    -0.744 OA
ENDBRANCH  94  97
ENDBRANCH  67  90
ENDBRANCH  41  42
ENDBRANCH  34  36
ENDBRANCH  33  34
ENDBRANCH  32  33
ENDBRANCH   1  32
TORSDOF 19
ENDMDL
MODEL 3
REMARK VINA RESULT:     -11.4      2.190      2.730
REMARK SMILES CS(=O)(=O)Nc1cc(C(=O)OCCOC(=O)c2ccc(-c3c4nc(c(-c5cccc(S(=O)(=O)[O-])c5F)c5ccc([nH]5)c(-c5cccc(S(=O)(=O)[O-])c5F)c5nc(c(-c6cccc(S(=O)(=O)[O-])c6F)c6ccc3[nH]6)C=C5)C=C4)cc2)ccc1N1CC[NH+](CC(=O)N2CCCC2)CC1
REMARK SMILES IDX 12 1 11 2 9 3 10 4 8 5 6 6 7 7 82 8 81 9 80 10 5 11 2 13
REMARK SMILES IDX 1 14 3 15 4 16 83 17 84 18 96 19 85 20 95 21 86 22 87 24
REMARK SMILES IDX 88 25 89 26 90 27 91 28 94 29 92 30 93 31 13 32 14 33 15 34
REMARK SMILES IDX 16 35 17 36 18 37 79 38 19 39 78 40 20 41 21 42 22 43 72 44
REMARK SMILES IDX 23 45 77 46 71 47 73 48 24 49 76 50 70 51 69 52 25 54 57 55
REMARK SMILES IDX 37 56 56 57 38 58 41 59 55 60 74 61 39 62 40 63 54 65 75 66
REMARK SMILES IDX 42 67 26 68 27 69 35 70 28 71 30 72 36 73 29 74 31 75 32 76
REMARK SMILES IDX 33 77 34 78 58 79 59 80 67 81 60 82 62 83 68 84 61 85 63 86
REMARK SMILES IDX 64 87 65 88 66 89 43 90 44 91 52 92 45 93 47 94 53 95 46 96
REMARK SMILES IDX 48 97 49 98 50 99 51 100
REMARK H PARENT 5 12 86 23 73 53 41 64
REMARK Flexibility Score: inf
ROOT
ATOM      1  C   UNL A   1      36.424  19.951  25.014  1.00  0.00     0.275 C 
ENDROOT
BRANCH   1   2
ATOM      2  O   UNL A   1      35.869  21.242  24.685  1.00  0.00    -0.458 OA
BRANCH   2   3
ATOM      3  C   UNL A   1      34.531  21.265  24.466  1.00  0.00     0.338 C 
ATOM      4  O   UNL A   1      33.748  20.346  24.646  1.00  0.00    -0.246 OA
BRANCH   3   5
ATOM      5  C   UNL A   1      34.081  22.625  24.092  1.00  0.00     0.062 A 
ATOM      6  C   UNL A   1      32.205  24.172  23.981  1.00  0.00     0.073 A 
ATOM      7  C   UNL A   1      32.708  22.875  24.108  1.00  0.00     0.044 A 
ATOM      8  C   UNL A   1      33.062  25.238  23.614  1.00  0.00     0.062 A 
ATOM      9  C   UNL A   1      34.443  24.939  23.525  1.00  0.00     0.029 A 
ATOM     10  C   UNL A   1      34.956  23.666  23.810  1.00  0.00     0.018 A 
BRANCH   6  11
ATOM     11  N   UNL A   1      30.937  24.326  24.621  1.00  0.00    -0.282 N 
ATOM     12  H   UNL A   1      30.148  24.087  24.085  1.00  0.00     0.180 HD
BRANCH  11  13
ATOM     13  S   UNL A   1      30.642  24.861  26.156  1.00  0.00     0.229 S 
ATOM     14  C   UNL A   1      29.456  23.778  26.915  1.00  0.00     0.183 C 
ATOM     15  O   UNL A   1      30.044  26.172  26.002  1.00  0.00    -0.207 OA
ATOM     16  O   UNL A   1      31.889  24.716  26.875  1.00  0.00    -0.207 OA
ENDBRANCH  11  13
ENDBRANCH   6  11
BRANCH   8  17
ATOM     17  N   UNL A   1      32.603  26.540  23.387  1.00  0.00    -0.359 N 
ATOM     18  C   UNL A   1      32.736  27.561  24.459  1.00  0.00     0.178 C 
ATOM     19  C   UNL A   1      31.331  26.650  22.669  1.00  0.00     0.178 C 
ATOM     20  C   UNL A   1      32.397  28.992  23.955  1.00  0.00     0.284 C 
ATOM     21  C   UNL A   1      31.166  28.066  22.085  1.00  0.00     0.284 C 
ATOM     22  N   UNL A   1      31.223  29.142  23.078  1.00  0.00    -0.324 N 
ATOM     23  H   UNL A   1      31.384  30.019  22.582  1.00  0.00     0.348 HD
BRANCH  22  24
ATOM     24  C   UNL A   1      29.938  29.441  23.723  1.00  0.00     0.363 C 
BRANCH  24  25
ATOM     25  C   UNL A   1      29.451  30.891  23.648  1.00  0.00     0.277 C 
ATOM     26  O   UNL A   1      29.632  31.649  24.608  1.00  0.00    -0.268 OA
ATOM     27  N   UNL A   1      28.862  31.347  22.484  1.00  0.00    -0.338 N 
ATOM     28  C   UNL A   1      28.425  30.595  21.309  1.00  0.00     0.119 C 
ATOM     29  C   UNL A   1      28.591  32.764  22.321  1.00  0.00     0.119 C 
ATOM     30  C   UNL A   1      28.102  31.655  20.266  1.00  0.00     0.023 C 
ATOM     31  C   UNL A   1      27.689  32.860  21.102  1.00  0.00     0.023 C 
ENDBRANCH  24  25
ENDBRANCH  22  24
ENDBRANCH   8  17
ENDBRANCH   3   5
ENDBRANCH   2   3
ENDBRANCH   1   2
BRANCH   1  32
ATOM     32  C   UNL A   1      37.952  19.972  24.972  1.00  0.00     0.275 C 
BRANCH  32  33
ATOM     33  O   UNL A   1      38.460  21.124  25.668  1.00  0.00    -0.458 OA
BRANCH  33  34
ATOM     34  C   UNL A   1      39.645  20.955  26.298  1.00  0.00     0.338 C 
ATOM     35  O   UNL A   1      40.331  19.947  26.334  1.00  0.00    -0.246 OA
BRANCH  34  36
ATOM     36  C   UNL A   1      40.072  22.228  26.897  1.00  0.00     0.060 A 
ATOM     37  C   UNL A   1      39.570  23.405  26.350  1.00  0.00     0.016 A 
ATOM     38  C   UNL A   1      41.059  22.280  27.876  1.00  0.00     0.016 A 
ATOM     39  C   UNL A   1      40.097  24.642  26.713  1.00  0.00     0.010 A 
ATOM     40  C   UNL A   1      41.536  23.529  28.300  1.00  0.00     0.010 A 
ATOM     41  C   UNL A   1      41.090  24.723  27.696  1.00  0.00    -0.014 A 
BRANCH  41  42
ATOM     42  C   UNL A   1      41.703  26.036  28.056  1.00  0.00     0.031 A 
ATOM     43  C   UNL A   1      40.878  27.082  28.767  1.00  0.00     0.074 A 
ATOM     44  C   UNL A   1      42.989  26.307  27.752  1.00  0.00     0.049 A 
ATOM     45  N   UNL A   1      41.150  28.341  28.998  1.00  0.00    -0.248 NA
ATOM     46  C   UNL A   1      39.560  26.658  29.272  1.00  0.00     0.031 C 
ATOM     47  C   UNL A   1      43.923  25.384  27.106  1.00  0.00     0.029 A 
ATOM     48  N   UNL A   1      43.733  27.449  27.939  1.00  0.00    -0.354 N 
ATOM     49  C   UNL A   1      40.021  28.873  29.611  1.00  0.00     0.074 A 
ATOM     50  C   UNL A   1      39.056  27.801  29.718  1.00  0.00     0.031 C 
ATOM     51  C   UNL A   1      45.114  25.986  26.965  1.00  0.00     0.029 A 
ATOM     52  C   UNL A   1      45.012  27.362  27.438  1.00  0.00     0.049 A 
ATOM     53  H   UNL A   1      43.383  28.253  28.388  1.00  0.00     0.167 HD
ATOM     54  C   UNL A   1      39.810  30.134  30.058  1.00  0.00     0.034 A 
ATOM     55  C   UNL A   1      45.984  28.290  27.335  1.00  0.00     0.034 A 
ATOM     56  C   UNL A   1      40.797  31.181  30.021  1.00  0.00     0.049 A 
ATOM     57  C   UNL A   1      45.719  29.686  27.832  1.00  0.00     0.074 A 
ATOM     58  C   UNL A   1      40.679  32.490  30.457  1.00  0.00     0.029 A 
ATOM     59  N   UNL A   1      42.091  31.033  29.547  1.00  0.00    -0.354 N 
ATOM     60  N   UNL A   1      44.651  30.166  28.421  1.00  0.00    -0.248 NA
ATOM     61  C   UNL A   1      46.801  30.668  27.662  1.00  0.00     0.031 C 
ATOM     62  C   UNL A   1      41.901  33.135  30.241  1.00  0.00     0.029 A 
ATOM     63  C   UNL A   1      42.785  32.223  29.686  1.00  0.00     0.049 A 
ATOM     64  H   UNL A   1      42.462  30.204  29.166  1.00  0.00     0.167 HD
ATOM     65  C   UNL A   1      44.944  31.491  28.722  1.00  0.00     0.074 A 
ATOM     66  C   UNL A   1      46.298  31.734  28.270  1.00  0.00     0.031 C 
ATOM     67  C   UNL A   1      44.155  32.429  29.300  1.00  0.00     0.034 A 
BRANCH  54  68
ATOM     68  C   UNL A   1      38.467  30.454  30.662  1.00  0.00     0.023 A 
ATOM     69  C   UNL A   1      38.199  30.092  31.997  1.00  0.00     0.012 A 
ATOM     70  C   UNL A   1      37.499  31.174  29.933  1.00  0.00     0.148 A 
ATOM     71  C   UNL A   1      36.978  30.416  32.589  1.00  0.00     0.002 A 
ATOM     72  C   UNL A   1      36.301  31.530  30.544  1.00  0.00     0.091 A 
ATOM     73  F   UNL A   1      37.765  31.495  28.659  1.00  0.00    -0.205 F 
ATOM     74  C   UNL A   1      36.036  31.143  31.867  1.00  0.00     0.022 A 
BRANCH  72  75
ATOM     75  S   UNL A   1      35.052  32.529  29.725  1.00  0.00     0.127 S 
ATOM     76  O   UNL A   1      34.500  31.580  28.759  1.00  0.00    -0.237 OA
ATOM     77  O   UNL A   1      34.154  32.865  30.830  1.00  0.00    -0.237 OA
ATOM     78  O   UNL A   1      35.758  33.665  29.150  1.00  0.00    -0.744 OA
ENDBRANCH  72  75
ENDBRANCH  54  68
BRANCH  55  79
ATOM     79  C   UNL A   1      47.308  27.932  26.745  1.00  0.00     0.023 A 
ATOM     80  C   UNL A   1      48.418  27.756  27.596  1.00  0.00     0.012 A 
ATOM     81  C   UNL A   1      47.477  27.762  25.358  1.00  0.00     0.148 A 
ATOM     82  C   UNL A   1      49.675  27.448  27.072  1.00  0.00     0.002 A 
ATOM     83  C   UNL A   1      48.718  27.396  24.848  1.00  0.00     0.091 A 
ATOM     84  F   UNL A   1      46.420  27.962  24.557  1.00  0.00    -0.205 F 
ATOM     85  C   UNL A   1      49.822  27.256  25.702  1.00  0.00     0.022 A 
BRANCH  83  86
ATOM     86  S   UNL A   1      48.954  26.998  23.112  1.00  0.00     0.127 S 
ATOM     87  O   UNL A   1      48.441  28.198  22.457  1.00  0.00    -0.237 OA
ATOM     88  O   UNL A   1      50.405  26.824  23.028  1.00  0.00    -0.237 OA
ATOM     89  O   UNL A   1      48.195  25.774  22.890  1.00  0.00    -0.744 OA
ENDBRANCH  83  86
ENDBRANCH  55  79
BRANCH  67  90
ATOM     90  C   UNL A   1      44.745  33.797  29.525  1.00  0.00     0.023 A 
ATOM     91  C   UNL A   1      44.595  34.793  28.541  1.00  0.00     0.012 A 
ATOM     92  C   UNL A   1      45.380  34.114  30.742  1.00  0.00     0.148 A 
ATOM     93  C   UNL A   1      45.096  36.077  28.753  1.00  0.00     0.002 A 
ATOM     94  C   UNL A   1      45.835  35.408  30.965  1.00  0.00     0.091 A 
ATOM     95  F   UNL A   1      45.528  33.146  31.659  1.00  0.00    -0.205 F 
ATOM     96  C   UNL A   1      45.704  36.387  29.967  1.00  0.00     0.022 A 
BRANCH  94  97
ATOM     97  S   UNL A   1      46.548  35.922  32.531  1.00  0.00     0.127 S 
ATOM     98  O   UNL A   1      47.729  35.066  32.617  1.00  0.00    -0.237 OA
ATOM     99  O   UNL A   1      46.837  37.337  32.291  1.00  0.00    -0.237 OA
ATOM    100  O   UNL A   1      45.524  35.679  33.537  1.00  0.00    -0.744 OA
ENDBRANCH  94  97
ENDBRANCH  67  90
ENDBRANCH  41  42
ENDBRANCH  34  36
ENDBRANCH  33  34
ENDBRANCH  32  33
ENDBRANCH   1  32
TORSDOF 19
ENDMDL
