MODEL 1
REMARK VINA RESULT:     -12.9      0.000      0.000
REMARK SMILES CC(=O)NS(=O)(=O)c1ccc(-c2ccn(C(F)F)c(=O)c2)cc1C(=O)OCCOC(=O)c1ccc(-c2c3nc(c(-c4cccc(S(=O)(=O)[O-])c4F)c4ccc([nH]4)c(-c4cccc(S(=O)(=O)[O-])c4F)c4nc(c(-c5cccc(S(=O)(=O)[O-])c5F)c5ccc2[nH]5)C=C4)C=C3)cc1
REMARK SMILES IDX 28 1 27 2 26 3 24 4 25 5 23 6 8 7 9 8 10 9 22 10 11 11 5 12
REMARK SMILES IDX 6 13 7 14 4 15 1 16 2 17 3 18 12 20 13 21 21 22 14 23 19 24
REMARK SMILES IDX 15 25 20 26 16 27 17 28 18 29 29 30 30 31 31 32 32 33 33 34
REMARK SMILES IDX 94 35 34 36 93 37 35 38 36 39 37 40 87 41 38 42 92 43 86 44
REMARK SMILES IDX 88 45 39 46 91 47 85 48 84 49 40 51 72 52 52 53 71 54 53 55
REMARK SMILES IDX 56 56 70 57 89 58 54 59 55 60 69 62 90 63 57 64 41 65 42 66
REMARK SMILES IDX 50 67 43 68 45 69 51 70 44 71 46 72 47 73 48 74 49 75 73 76
REMARK SMILES IDX 74 77 82 78 75 79 77 80 83 81 76 82 78 83 79 84 80 85 81 86
REMARK SMILES IDX 58 87 59 88 67 89 60 90 62 91 68 92 61 93 63 94 64 95 65 96
REMARK SMILES IDX 66 97
REMARK H PARENT 4 19 88 50 56 61
REMARK Flexibility Score: inf
ROOT
ATOM      1  C   UNL A   1      36.985  21.631  24.267  1.00  0.00     0.275 C 
ENDROOT
BRANCH   1   2
ATOM      2  C   UNL A   1      36.743  22.943  23.529  1.00  0.00     0.275 C 
BRANCH   2   3
ATOM      3  O   UNL A   1      35.848  23.793  24.280  1.00  0.00    -0.458 OA
BRANCH   3   4
ATOM      4  C   UNL A   1      34.628  23.989  23.752  1.00  0.00     0.339 C 
ATOM      5  O   UNL A   1      34.379  24.641  22.750  1.00  0.00    -0.246 OA
BRANCH   4   6
ATOM      6  C   UNL A   1      33.543  23.264  24.468  1.00  0.00     0.081 A 
ATOM      7  C   UNL A   1      32.483  23.839  25.175  1.00  0.00     0.102 A 
ATOM      8  C   UNL A   1      31.379  23.046  25.535  1.00  0.00     0.024 A 
ATOM      9  C   UNL A   1      31.413  21.659  25.374  1.00  0.00     0.010 A 
ATOM     10  C   UNL A   1      33.548  21.865  24.295  1.00  0.00     0.025 A 
ATOM     11  C   UNL A   1      32.533  21.052  24.811  1.00  0.00    -0.017 A 
BRANCH   7  12
ATOM     12  S   UNL A   1      32.563  25.510  25.757  1.00  0.00     0.264 S 
ATOM     13  O   UNL A   1      33.950  25.804  26.042  1.00  0.00    -0.201 OA
ATOM     14  O   UNL A   1      31.500  25.727  26.710  1.00  0.00    -0.201 OA
BRANCH  12  15
ATOM     15  N   UNL A   1      32.174  26.444  24.425  1.00  0.00    -0.249 N 
ATOM     16  C   UNL A   1      29.674  26.210  24.388  1.00  0.00     0.115 C 
ATOM     17  C   UNL A   1      30.920  27.033  24.179  1.00  0.00     0.230 C 
ATOM     18  O   UNL A   1      30.884  28.122  23.620  1.00  0.00    -0.274 OA
ATOM     19  H   UNL A   1      32.882  26.596  23.758  1.00  0.00     0.183 HD
ENDBRANCH  12  15
ENDBRANCH   7  12
BRANCH  11  20
ATOM     20  C   UNL A   1      32.692  19.587  24.796  1.00  0.00    -0.011 A 
ATOM     21  C   UNL A   1      32.536  18.785  25.998  1.00  0.00     0.027 A 
ATOM     22  C   UNL A   1      32.994  18.974  23.641  1.00  0.00     0.080 A 
ATOM     23  C   UNL A   1      32.735  17.462  25.966  1.00  0.00     0.095 A 
ATOM     24  C   UNL A   1      33.174  17.496  23.580  1.00  0.00     0.255 A 
ATOM     25  N   UNL A   1      33.068  16.823  24.786  1.00  0.00    -0.258 N 
ATOM     26  O   UNL A   1      33.394  16.990  22.485  1.00  0.00    -0.269 OA
BRANCH  25  27
ATOM     27  C   UNL A   1      33.278  15.395  24.765  1.00  0.00     0.451 C 
ATOM     28  F   UNL A   1      34.449  15.086  25.378  1.00  0.00    -0.185 F 
ATOM     29  F   UNL A   1      32.284  14.751  25.421  1.00  0.00    -0.185 F 
ENDBRANCH  25  27
ENDBRANCH  11  20
ENDBRANCH   4   6
ENDBRANCH   3   4
ENDBRANCH   2   3
ENDBRANCH   1   2
BRANCH   1  30
ATOM     30  O   UNL A   1      37.339  21.911  25.631  1.00  0.00    -0.458 OA
BRANCH  30  31
ATOM     31  C   UNL A   1      38.621  21.660  25.973  1.00  0.00     0.338 C 
ATOM     32  O   UNL A   1      39.265  20.646  25.767  1.00  0.00    -0.246 OA
BRANCH  31  33
ATOM     33  C   UNL A   1      39.189  22.844  26.638  1.00  0.00     0.060 A 
ATOM     34  C   UNL A   1      38.599  24.091  26.439  1.00  0.00     0.016 A 
ATOM     35  C   UNL A   1      40.378  22.737  27.355  1.00  0.00     0.016 A 
ATOM     36  C   UNL A   1      39.241  25.248  26.876  1.00  0.00     0.010 A 
ATOM     37  C   UNL A   1      40.975  23.892  27.871  1.00  0.00     0.010 A 
ATOM     38  C   UNL A   1      40.443  25.166  27.598  1.00  0.00    -0.014 A 
BRANCH  38  39
ATOM     39  C   UNL A   1      41.171  26.399  28.015  1.00  0.00     0.031 A 
ATOM     40  C   UNL A   1      40.456  27.467  28.806  1.00  0.00     0.074 A 
ATOM     41  C   UNL A   1      42.467  26.581  27.689  1.00  0.00     0.049 A 
ATOM     42  N   UNL A   1      40.853  28.676  29.111  1.00  0.00    -0.248 NA
ATOM     43  C   UNL A   1      39.112  27.136  29.314  1.00  0.00     0.031 C 
ATOM     44  C   UNL A   1      43.293  25.636  26.939  1.00  0.00     0.029 A 
ATOM     45  N   UNL A   1      43.315  27.635  27.939  1.00  0.00    -0.354 N 
ATOM     46  C   UNL A   1      39.777  29.281  29.751  1.00  0.00     0.074 A 
ATOM     47  C   UNL A   1      38.721  28.295  29.825  1.00  0.00     0.031 C 
ATOM     48  C   UNL A   1      44.532  26.135  26.812  1.00  0.00     0.029 A 
ATOM     49  C   UNL A   1      44.571  27.470  27.399  1.00  0.00     0.049 A 
ATOM     50  H   UNL A   1      43.049  28.431  28.454  1.00  0.00     0.167 HD
ATOM     51  C   UNL A   1      39.677  30.540  30.240  1.00  0.00     0.034 A 
ATOM     52  C   UNL A   1      45.626  28.308  27.344  1.00  0.00     0.034 A 
ATOM     53  C   UNL A   1      40.752  31.494  30.252  1.00  0.00     0.049 A 
ATOM     54  C   UNL A   1      45.507  29.682  27.940  1.00  0.00     0.074 A 
ATOM     55  C   UNL A   1      40.757  32.779  30.766  1.00  0.00     0.029 A 
ATOM     56  N   UNL A   1      42.020  31.264  29.744  1.00  0.00    -0.354 N 
ATOM     57  N   UNL A   1      44.491  30.222  28.570  1.00  0.00    -0.248 NA
ATOM     58  C   UNL A   1      46.678  30.564  27.821  1.00  0.00     0.031 C 
ATOM     59  C   UNL A   1      42.033  33.321  30.581  1.00  0.00     0.029 A 
ATOM     60  C   UNL A   1      42.821  32.374  29.949  1.00  0.00     0.049 A 
ATOM     61  H   UNL A   1      42.309  30.432  29.302  1.00  0.00     0.167 HD
ATOM     62  C   UNL A   1      44.901  31.501  28.926  1.00  0.00     0.074 A 
ATOM     63  C   UNL A   1      46.270  31.644  28.474  1.00  0.00     0.031 C 
ATOM     64  C   UNL A   1      44.197  32.481  29.542  1.00  0.00     0.034 A 
BRANCH  51  65
ATOM     65  C   UNL A   1      38.361  30.956  30.839  1.00  0.00     0.023 A 
ATOM     66  C   UNL A   1      38.113  30.721  32.206  1.00  0.00     0.012 A 
ATOM     67  C   UNL A   1      37.396  31.631  30.067  1.00  0.00     0.148 A 
ATOM     68  C   UNL A   1      36.915  31.134  32.790  1.00  0.00     0.002 A 
ATOM     69  C   UNL A   1      36.219  32.071  30.664  1.00  0.00     0.091 A 
ATOM     70  F   UNL A   1      37.637  31.819  28.761  1.00  0.00    -0.205 F 
ATOM     71  C   UNL A   1      35.974  31.816  32.022  1.00  0.00     0.022 A 
BRANCH  69  72
ATOM     72  S   UNL A   1      34.986  33.018  29.763  1.00  0.00     0.127 S 
ATOM     73  O   UNL A   1      35.805  34.064  29.154  1.00  0.00    -0.237 OA
ATOM     74  O   UNL A   1      34.459  32.031  28.820  1.00  0.00    -0.237 OA
ATOM     75  O   UNL A   1      34.028  33.465  30.764  1.00  0.00    -0.744 OA
ENDBRANCH  69  72
ENDBRANCH  51  65
BRANCH  52  76
ATOM     76  C   UNL A   1      46.897  27.851  26.715  1.00  0.00     0.023 A 
ATOM     77  C   UNL A   1      47.870  27.215  27.509  1.00  0.00     0.012 A 
ATOM     78  C   UNL A   1      47.121  27.982  25.332  1.00  0.00     0.148 A 
ATOM     79  C   UNL A   1      49.045  26.725  26.937  1.00  0.00     0.002 A 
ATOM     80  C   UNL A   1      48.265  27.436  24.758  1.00  0.00     0.091 A 
ATOM     81  F   UNL A   1      46.202  28.620  24.592  1.00  0.00    -0.205 F 
ATOM     82  C   UNL A   1      49.235  26.819  25.561  1.00  0.00     0.022 A 
BRANCH  80  83
ATOM     83  S   UNL A   1      48.480  27.381  22.975  1.00  0.00     0.127 S 
ATOM     84  O   UNL A   1      48.336  25.956  22.698  1.00  0.00    -0.237 OA
ATOM     85  O   UNL A   1      47.378  28.217  22.498  1.00  0.00    -0.237 OA
ATOM     86  O   UNL A   1      49.800  27.954  22.741  1.00  0.00    -0.744 OA
ENDBRANCH  80  83
ENDBRANCH  52  76
BRANCH  64  87
ATOM     87  C   UNL A   1      44.891  33.795  29.774  1.00  0.00     0.023 A 
ATOM     88  C   UNL A   1      45.613  33.992  30.966  1.00  0.00     0.012 A 
ATOM     89  C   UNL A   1      44.890  34.801  28.789  1.00  0.00     0.148 A 
ATOM     90  C   UNL A   1      46.310  35.179  31.183  1.00  0.00     0.002 A 
ATOM     91  C   UNL A   1      45.617  35.968  28.997  1.00  0.00     0.091 A 
ATOM     92  F   UNL A   1      44.175  34.604  27.671  1.00  0.00    -0.205 F 
ATOM     93  C   UNL A   1      46.323  36.162  30.196  1.00  0.00     0.022 A 
BRANCH  91  94
ATOM     94  S   UNL A   1      45.743  37.242  27.737  1.00  0.00     0.127 S 
ATOM     95  O   UNL A   1      46.836  38.065  28.250  1.00  0.00    -0.237 OA
ATOM     96  O   UNL A   1      46.070  36.471  26.536  1.00  0.00    -0.237 OA
ATOM     97  O   UNL A   1      44.433  37.880  27.697  1.00  0.00    -0.744 OA
ENDBRANCH  91  94
ENDBRANCH  64  87
ENDBRANCH  38  39
ENDBRANCH  31  33
ENDBRANCH  30  31
ENDBRANCH   1  30
TORSDOF 18
ENDMDL
MODEL 2
REMARK VINA RESULT:     -12.7      6.540     10.908
REMARK SMILES CC(=O)NS(=O)(=O)c1ccc(-c2ccn(C(F)F)c(=O)c2)cc1C(=O)OCCOC(=O)c1ccc(-c2c3nc(c(-c4cccc(S(=O)(=O)[O-])c4F)c4ccc([nH]4)c(-c4cccc(S(=O)(=O)[O-])c4F)c4nc(c(-c5cccc(S(=O)(=O)[O-])c5F)c5ccc2[nH]5)C=C4)C=C3)cc1
REMARK SMILES IDX 28 1 27 2 26 3 24 4 25 5 23 6 8 7 9 8 10 9 22 10 11 11 5 12
REMARK SMILES IDX 6 13 7 14 4 15 1 16 2 17 3 18 12 20 13 21 21 22 14 23 19 24
REMARK SMILES IDX 15 25 20 26 16 27 17 28 18 29 29 30 30 31 31 32 32 33 33 34
REMARK SMILES IDX 94 35 34 36 93 37 35 38 36 39 37 40 87 41 38 42 92 43 86 44
REMARK SMILES IDX 88 45 39 46 91 47 85 48 84 49 40 51 72 52 52 53 71 54 53 55
REMARK SMILES IDX 56 56 70 57 89 58 54 59 55 60 69 62 90 63 57 64 41 65 42 66
REMARK SMILES IDX 50 67 43 68 45 69 51 70 44 71 46 72 47 73 48 74 49 75 73 76
REMARK SMILES IDX 74 77 82 78 75 79 77 80 83 81 76 82 78 83 79 84 80 85 81 86
REMARK SMILES IDX 58 87 59 88 67 89 60 90 62 91 68 92 61 93 63 94 64 95 65 96
REMARK SMILES IDX 66 97
REMARK H PARENT 4 19 88 50 56 61
REMARK Flexibility Score: inf
ROOT
ATOM      1  C   UNL A   1      33.057  33.472  27.884  1.00  0.00     0.275 C 
ENDROOT
BRANCH   1   2
ATOM      2  C   UNL A   1      33.446  34.471  28.968  1.00  0.00     0.275 C 
BRANCH   2   3
ATOM      3  O   UNL A   1      34.832  34.308  29.340  1.00  0.00    -0.458 OA
BRANCH   3   4
ATOM      4  C   UNL A   1      35.074  33.548  30.421  1.00  0.00     0.339 C 
ATOM      5  O   UNL A   1      34.484  32.520  30.718  1.00  0.00    -0.246 OA
BRANCH   4   6
ATOM      6  C   UNL A   1      36.215  34.027  31.247  1.00  0.00     0.081 A 
ATOM      7  C   UNL A   1      36.152  34.490  32.565  1.00  0.00     0.102 A 
ATOM      8  C   UNL A   1      37.337  34.618  33.311  1.00  0.00     0.024 A 
ATOM      9  C   UNL A   1      38.585  34.482  32.699  1.00  0.00     0.010 A 
ATOM     10  C   UNL A   1      37.484  33.874  30.654  1.00  0.00     0.025 A 
ATOM     11  C   UNL A   1      38.664  34.173  31.344  1.00  0.00    -0.017 A 
BRANCH   7  12
ATOM     12  S   UNL A   1      34.630  35.057  33.271  1.00  0.00     0.264 S 
ATOM     13  O   UNL A   1      34.944  35.665  34.545  1.00  0.00    -0.201 OA
ATOM     14  O   UNL A   1      33.627  34.030  33.114  1.00  0.00    -0.201 OA
BRANCH  12  15
ATOM     15  N   UNL A   1      34.146  36.318  32.284  1.00  0.00    -0.249 N 
ATOM     16  C   UNL A   1      31.650  36.200  32.547  1.00  0.00     0.115 C 
ATOM     17  C   UNL A   1      32.917  36.999  32.375  1.00  0.00     0.230 C 
ATOM     18  O   UNL A   1      32.891  38.196  32.116  1.00  0.00    -0.274 OA
ATOM     19  H   UNL A   1      34.772  36.608  31.582  1.00  0.00     0.183 HD
ENDBRANCH  12  15
ENDBRANCH   7  12
BRANCH  11  20
ATOM     20  C   UNL A   1      39.946  34.208  30.617  1.00  0.00    -0.011 A 
ATOM     21  C   UNL A   1      41.060  33.349  30.982  1.00  0.00     0.027 A 
ATOM     22  C   UNL A   1      40.092  35.061  29.591  1.00  0.00     0.080 A 
ATOM     23  C   UNL A   1      42.229  33.437  30.338  1.00  0.00     0.095 A 
ATOM     24  C   UNL A   1      41.373  35.137  28.834  1.00  0.00     0.255 A 
ATOM     25  N   UNL A   1      42.398  34.327  29.293  1.00  0.00    -0.258 N 
ATOM     26  O   UNL A   1      41.425  35.896  27.871  1.00  0.00    -0.269 OA
BRANCH  25  27
ATOM     27  C   UNL A   1      43.664  34.410  28.604  1.00  0.00     0.451 C 
ATOM     28  F   UNL A   1      44.677  34.085  29.447  1.00  0.00    -0.185 F 
ATOM     29  F   UNL A   1      43.702  33.550  27.559  1.00  0.00    -0.185 F 
ENDBRANCH  25  27
ENDBRANCH  11  20
ENDBRANCH   4   6
ENDBRANCH   3   4
ENDBRANCH   2   3
ENDBRANCH   1   2
BRANCH   1  30
ATOM     30  O   UNL A   1      34.241  32.826  27.386  1.00  0.00    -0.458 OA
BRANCH  30  31
ATOM     31  C   UNL A   1      34.197  31.478  27.325  1.00  0.00     0.338 C 
ATOM     32  O   UNL A   1      33.331  30.780  26.825  1.00  0.00    -0.246 OA
BRANCH  31  33
ATOM     33  C   UNL A   1      35.410  30.922  27.945  1.00  0.00     0.060 A 
ATOM     34  C   UNL A   1      35.335  29.716  28.638  1.00  0.00     0.016 A 
ATOM     35  C   UNL A   1      36.592  31.659  27.947  1.00  0.00     0.016 A 
ATOM     36  C   UNL A   1      36.410  29.284  29.412  1.00  0.00     0.010 A 
ATOM     37  C   UNL A   1      37.701  31.178  28.652  1.00  0.00     0.010 A 
ATOM     38  C   UNL A   1      37.610  30.011  29.433  1.00  0.00    -0.014 A 
BRANCH  38  39
ATOM     39  C   UNL A   1      38.745  29.593  30.308  1.00  0.00     0.031 A 
ATOM     40  C   UNL A   1      38.833  30.104  31.725  1.00  0.00     0.074 A 
ATOM     41  C   UNL A   1      39.705  28.765  29.847  1.00  0.00     0.049 A 
ATOM     42  N   UNL A   1      39.818  30.002  32.580  1.00  0.00    -0.248 NA
ATOM     43  C   UNL A   1      37.663  30.833  32.247  1.00  0.00     0.031 C 
ATOM     44  C   UNL A   1      39.749  28.182  28.506  1.00  0.00     0.029 A 
ATOM     45  N   UNL A   1      40.838  28.279  30.457  1.00  0.00    -0.354 N 
ATOM     46  C   UNL A   1      39.432  30.737  33.696  1.00  0.00     0.074 A 
ATOM     47  C   UNL A   1      38.106  31.250  33.425  1.00  0.00     0.031 C 
ATOM     48  C   UNL A   1      40.833  27.399  28.401  1.00  0.00     0.029 A 
ATOM     49  C   UNL A   1      41.606  27.484  29.636  1.00  0.00     0.049 A 
ATOM     50  H   UNL A   1      41.077  28.481  31.391  1.00  0.00     0.167 HD
ATOM     51  C   UNL A   1      40.113  30.961  34.844  1.00  0.00     0.034 A 
ATOM     52  C   UNL A   1      42.813  26.917  29.833  1.00  0.00     0.034 A 
ATOM     53  C   UNL A   1      41.391  30.380  35.157  1.00  0.00     0.049 A 
ATOM     54  C   UNL A   1      43.527  27.138  31.137  1.00  0.00     0.074 A 
ATOM     55  C   UNL A   1      42.137  30.514  36.315  1.00  0.00     0.029 A 
ATOM     56  N   UNL A   1      42.103  29.538  34.319  1.00  0.00    -0.354 N 
ATOM     57  N   UNL A   1      43.128  27.809  32.191  1.00  0.00    -0.248 NA
ATOM     58  C   UNL A   1      44.854  26.523  31.282  1.00  0.00     0.031 C 
ATOM     59  C   UNL A   1      43.296  29.743  36.181  1.00  0.00     0.029 A 
ATOM     60  C   UNL A   1      43.272  29.130  34.939  1.00  0.00     0.049 A 
ATOM     61  H   UNL A   1      41.821  29.270  33.414  1.00  0.00     0.167 HD
ATOM     62  C   UNL A   1      44.151  27.693  33.124  1.00  0.00     0.074 A 
ATOM     63  C   UNL A   1      45.172  26.858  32.526  1.00  0.00     0.031 C 
ATOM     64  C   UNL A   1      44.252  28.256  34.353  1.00  0.00     0.034 A 
BRANCH  51  65
ATOM     65  C   UNL A   1      39.475  31.852  35.875  1.00  0.00     0.023 A 
ATOM     66  C   UNL A   1      38.491  31.327  36.736  1.00  0.00     0.012 A 
ATOM     67  C   UNL A   1      39.890  33.189  36.032  1.00  0.00     0.148 A 
ATOM     68  C   UNL A   1      37.915  32.127  37.723  1.00  0.00     0.002 A 
ATOM     69  C   UNL A   1      39.336  33.969  37.041  1.00  0.00     0.091 A 
ATOM     70  F   UNL A   1      40.806  33.679  35.184  1.00  0.00    -0.205 F 
ATOM     71  C   UNL A   1      38.344  33.442  37.883  1.00  0.00     0.022 A 
BRANCH  69  72
ATOM     72  S   UNL A   1      39.884  35.651  37.358  1.00  0.00     0.127 S 
ATOM     73  O   UNL A   1      41.320  35.463  37.551  1.00  0.00    -0.237 OA
ATOM     74  O   UNL A   1      39.520  36.339  36.119  1.00  0.00    -0.237 OA
ATOM     75  O   UNL A   1      39.139  36.091  38.529  1.00  0.00    -0.744 OA
ENDBRANCH  69  72
ENDBRANCH  51  65
BRANCH  52  76
ATOM     76  C   UNL A   1      43.409  26.065  28.766  1.00  0.00     0.023 A 
ATOM     77  C   UNL A   1      42.980  24.730  28.629  1.00  0.00     0.012 A 
ATOM     78  C   UNL A   1      44.345  26.580  27.850  1.00  0.00     0.148 A 
ATOM     79  C   UNL A   1      43.477  23.926  27.603  1.00  0.00     0.002 A 
ATOM     80  C   UNL A   1      44.789  25.793  26.793  1.00  0.00     0.091 A 
ATOM     81  F   UNL A   1      44.771  27.841  28.012  1.00  0.00    -0.205 F 
ATOM     82  C   UNL A   1      44.367  24.460  26.675  1.00  0.00     0.022 A 
BRANCH  80  83
ATOM     83  S   UNL A   1      45.803  26.479  25.478  1.00  0.00     0.127 S 
ATOM     84  O   UNL A   1      45.984  25.326  24.603  1.00  0.00    -0.237 OA
ATOM     85  O   UNL A   1      44.946  27.535  24.938  1.00  0.00    -0.237 OA
ATOM     86  O   UNL A   1      46.999  26.974  26.149  1.00  0.00    -0.744 OA
ENDBRANCH  80  83
ENDBRANCH  52  76
BRANCH  64  87
ATOM     87  C   UNL A   1      45.503  27.983  35.142  1.00  0.00     0.023 A 
ATOM     88  C   UNL A   1      46.589  28.873  35.041  1.00  0.00     0.012 A 
ATOM     89  C   UNL A   1      45.577  26.896  36.033  1.00  0.00     0.148 A 
ATOM     90  C   UNL A   1      47.740  28.673  35.802  1.00  0.00     0.002 A 
ATOM     91  C   UNL A   1      46.714  26.724  36.815  1.00  0.00     0.091 A 
ATOM     92  F   UNL A   1      44.541  26.046  36.096  1.00  0.00    -0.205 F 
ATOM     93  C   UNL A   1      47.799  27.608  36.696  1.00  0.00     0.022 A 
BRANCH  91  94
ATOM     94  S   UNL A   1      46.827  25.420  38.045  1.00  0.00     0.127 S 
ATOM     95  O   UNL A   1      45.666  25.699  38.886  1.00  0.00    -0.237 OA
ATOM     96  O   UNL A   1      46.716  24.206  37.234  1.00  0.00    -0.237 OA
ATOM     97  O   UNL A   1      48.127  25.596  38.680  1.00  0.00    -0.744 OA
ENDBRANCH  91  94
ENDBRANCH  64  87
ENDBRANCH  38  39
ENDBRANCH  31  33
ENDBRANCH  30  31
ENDBRANCH   1  30
TORSDOF 18
ENDMDL
MODEL 3
REMARK VINA RESULT:     -12.7      5.438      9.780
REMARK SMILES CC(=O)NS(=O)(=O)c1ccc(-c2ccn(C(F)F)c(=O)c2)cc1C(=O)OCCOC(=O)c1ccc(-c2c3nc(c(-c4cccc(S(=O)(=O)[O-])c4F)c4ccc([nH]4)c(-c4cccc(S(=O)(=O)[O-])c4F)c4nc(c(-c5cccc(S(=O)(=O)[O-])c5F)c5ccc2[nH]5)C=C4)C=C3)cc1
REMARK SMILES IDX 28 1 27 2 26 3 24 4 25 5 23 6 8 7 9 8 10 9 22 10 11 11 5 12
REMARK SMILES IDX 6 13 7 14 4 15 1 16 2 17 3 18 12 20 13 21 21 22 14 23 19 24
REMARK SMILES IDX 15 25 20 26 16 27 17 28 18 29 29 30 30 31 31 32 32 33 33 34
REMARK SMILES IDX 94 35 34 36 93 37 35 38 36 39 37 40 87 41 38 42 92 43 86 44
REMARK SMILES IDX 88 45 39 46 91 47 85 48 84 49 40 51 72 52 52 53 71 54 53 55
REMARK SMILES IDX 56 56 70 57 89 58 54 59 55 60 69 62 90 63 57 64 41 65 42 66
REMARK SMILES IDX 50 67 43 68 45 69 51 70 44 71 46 72 47 73 48 74 49 75 73 76
REMARK SMILES IDX 74 77 82 78 75 79 77 80 83 81 76 82 78 83 79 84 80 85 81 86
REMARK SMILES IDX 58 87 59 88 67 89 60 90 62 91 68 92 61 93 63 94 64 95 65 96
REMARK SMILES IDX 66 97
REMARK H PARENT 4 19 88 50 56 61
REMARK Flexibility Score: inf
ROOT
ATOM      1  C   UNL A   1      32.062  29.450  26.110  1.00  0.00     0.275 C 
ENDROOT
BRANCH   1   2
ATOM      2  C   UNL A   1      31.900  28.385  25.031  1.00  0.00     0.275 C 
BRANCH   2   3
ATOM      3  O   UNL A   1      32.864  27.325  25.212  1.00  0.00    -0.458 OA
BRANCH   3   4
ATOM      4  C   UNL A   1      33.493  26.896  24.105  1.00  0.00     0.339 C 
ATOM      5  O   UNL A   1      33.953  27.607  23.224  1.00  0.00    -0.246 OA
BRANCH   4   6
ATOM      6  C   UNL A   1      33.665  25.419  24.048  1.00  0.00     0.081 A 
ATOM      7  C   UNL A   1      32.735  24.491  23.572  1.00  0.00     0.102 A 
ATOM      8  C   UNL A   1      33.149  23.175  23.297  1.00  0.00     0.024 A 
ATOM      9  C   UNL A   1      34.417  22.730  23.677  1.00  0.00     0.010 A 
ATOM     10  C   UNL A   1      34.948  24.955  24.404  1.00  0.00     0.025 A 
ATOM     11  C   UNL A   1      35.303  23.607  24.297  1.00  0.00    -0.017 A 
BRANCH   7  12
ATOM     12  S   UNL A   1      31.015  24.892  23.446  1.00  0.00     0.264 S 
ATOM     13  O   UNL A   1      30.320  23.694  23.029  1.00  0.00    -0.201 OA
ATOM     14  O   UNL A   1      30.876  26.159  22.767  1.00  0.00    -0.201 OA
BRANCH  12  15
ATOM     15  N   UNL A   1      30.523  25.166  25.021  1.00  0.00    -0.249 N 
ATOM     16  C   UNL A   1      30.737  22.862  25.998  1.00  0.00     0.115 C 
ATOM     17  C   UNL A   1      30.847  24.360  26.129  1.00  0.00     0.230 C 
ATOM     18  O   UNL A   1      31.015  24.899  27.215  1.00  0.00    -0.274 OA
ATOM     19  H   UNL A   1      29.962  25.958  25.187  1.00  0.00     0.183 HD
ENDBRANCH  12  15
ENDBRANCH   7  12
BRANCH  11  20
ATOM     20  C   UNL A   1      36.571  23.136  24.883  1.00  0.00    -0.011 A 
ATOM     21  C   UNL A   1      37.043  21.774  24.702  1.00  0.00     0.027 A 
ATOM     22  C   UNL A   1      37.310  23.989  25.610  1.00  0.00     0.080 A 
ATOM     23  C   UNL A   1      38.173  21.360  25.287  1.00  0.00     0.095 A 
ATOM     24  C   UNL A   1      38.594  23.555  26.230  1.00  0.00     0.255 A 
ATOM     25  N   UNL A   1      38.932  22.223  26.056  1.00  0.00    -0.258 N 
ATOM     26  O   UNL A   1      39.251  24.396  26.835  1.00  0.00    -0.269 OA
BRANCH  25  27
ATOM     27  C   UNL A   1      40.150  21.764  26.680  1.00  0.00     0.451 C 
ATOM     28  F   UNL A   1      40.090  21.963  28.021  1.00  0.00    -0.185 F 
ATOM     29  F   UNL A   1      40.332  20.439  26.465  1.00  0.00    -0.185 F 
ENDBRANCH  25  27
ENDBRANCH  11  20
ENDBRANCH   4   6
ENDBRANCH   3   4
ENDBRANCH   2   3
ENDBRANCH   1   2
BRANCH   1  30
ATOM     30  O   UNL A   1      33.438  29.860  26.172  1.00  0.00    -0.458 OA
BRANCH  30  31
ATOM     31  C   UNL A   1      33.717  30.868  27.026  1.00  0.00     0.338 C 
ATOM     32  O   UNL A   1      33.028  31.838  27.288  1.00  0.00    -0.246 OA
BRANCH  31  33
ATOM     33  C   UNL A   1      35.021  30.619  27.663  1.00  0.00     0.060 A 
ATOM     34  C   UNL A   1      35.311  29.349  28.158  1.00  0.00     0.016 A 
ATOM     35  C   UNL A   1      35.902  31.676  27.882  1.00  0.00     0.016 A 
ATOM     36  C   UNL A   1      36.438  29.147  28.952  1.00  0.00     0.010 A 
ATOM     37  C   UNL A   1      37.078  31.450  28.604  1.00  0.00     0.010 A 
ATOM     38  C   UNL A   1      37.339  30.197  29.190  1.00  0.00    -0.014 A 
BRANCH  38  39
ATOM     39  C   UNL A   1      38.514  30.010  30.091  1.00  0.00     0.031 A 
ATOM     40  C   UNL A   1      39.654  29.117  29.666  1.00  0.00     0.074 A 
ATOM     41  C   UNL A   1      38.572  30.624  31.290  1.00  0.00     0.049 A 
ATOM     42  N   UNL A   1      40.672  28.687  30.367  1.00  0.00    -0.248 NA
ATOM     43  C   UNL A   1      39.644  28.636  28.273  1.00  0.00     0.031 C 
ATOM     44  C   UNL A   1      37.553  31.523  31.832  1.00  0.00     0.029 A 
ATOM     45  N   UNL A   1      39.527  30.573  32.278  1.00  0.00    -0.354 N 
ATOM     46  C   UNL A   1      41.363  27.810  29.538  1.00  0.00     0.074 A 
ATOM     47  C   UNL A   1      40.669  27.795  28.268  1.00  0.00     0.031 C 
ATOM     48  C   UNL A   1      37.946  31.961  33.037  1.00  0.00     0.029 A 
ATOM     49  C   UNL A   1      39.205  31.314  33.393  1.00  0.00     0.049 A 
ATOM     50  H   UNL A   1      40.362  30.057  32.195  1.00  0.00     0.167 HD
ATOM     51  C   UNL A   1      42.475  27.086  29.805  1.00  0.00     0.034 A 
ATOM     52  C   UNL A   1      39.826  31.432  34.584  1.00  0.00     0.034 A 
ATOM     53  C   UNL A   1      43.221  27.165  31.032  1.00  0.00     0.049 A 
ATOM     54  C   UNL A   1      41.088  30.658  34.837  1.00  0.00     0.074 A 
ATOM     55  C   UNL A   1      44.387  26.502  31.375  1.00  0.00     0.029 A 
ATOM     56  N   UNL A   1      42.887  27.969  32.110  1.00  0.00    -0.354 N 
ATOM     57  N   UNL A   1      41.742  29.861  34.027  1.00  0.00    -0.248 NA
ATOM     58  C   UNL A   1      41.702  30.802  36.166  1.00  0.00     0.031 C 
ATOM     59  C   UNL A   1      44.765  26.916  32.656  1.00  0.00     0.029 A 
ATOM     60  C   UNL A   1      43.833  27.834  33.111  1.00  0.00     0.049 A 
ATOM     61  H   UNL A   1      42.094  28.550  32.156  1.00  0.00     0.167 HD
ATOM     62  C   UNL A   1      42.844  29.411  34.745  1.00  0.00     0.074 A 
ATOM     63  C   UNL A   1      42.791  30.053  36.042  1.00  0.00     0.031 C 
ATOM     64  C   UNL A   1      43.796  28.520  34.375  1.00  0.00     0.034 A 
BRANCH  51  65
ATOM     65  C   UNL A   1      42.983  26.161  28.732  1.00  0.00     0.023 A 
ATOM     66  C   UNL A   1      42.455  24.859  28.628  1.00  0.00     0.012 A 
ATOM     67  C   UNL A   1      43.936  26.599  27.792  1.00  0.00     0.148 A 
ATOM     68  C   UNL A   1      42.885  23.999  27.617  1.00  0.00     0.002 A 
ATOM     69  C   UNL A   1      44.334  25.748  26.766  1.00  0.00     0.091 A 
ATOM     70  F   UNL A   1      44.449  27.831  27.924  1.00  0.00    -0.205 F 
ATOM     71  C   UNL A   1      43.815  24.447  26.681  1.00  0.00     0.022 A 
BRANCH  69  72
ATOM     72  S   UNL A   1      45.475  26.271  25.479  1.00  0.00     0.127 S 
ATOM     73  O   UNL A   1      45.452  25.120  24.579  1.00  0.00    -0.237 OA
ATOM     74  O   UNL A   1      44.825  27.470  24.951  1.00  0.00    -0.237 OA
ATOM     75  O   UNL A   1      46.739  26.521  26.157  1.00  0.00    -0.744 OA
ENDBRANCH  69  72
ENDBRANCH  51  65
BRANCH  52  76
ATOM     76  C   UNL A   1      39.263  32.344  35.619  1.00  0.00     0.023 A 
ATOM     77  C   UNL A   1      38.321  31.845  36.540  1.00  0.00     0.012 A 
ATOM     78  C   UNL A   1      39.697  33.678  35.740  1.00  0.00     0.148 A 
ATOM     79  C   UNL A   1      37.819  32.660  37.556  1.00  0.00     0.002 A 
ATOM     80  C   UNL A   1      39.241  34.465  36.791  1.00  0.00     0.091 A 
ATOM     81  F   UNL A   1      40.567  34.151  34.836  1.00  0.00    -0.205 F 
ATOM     82  C   UNL A   1      38.291  33.963  37.693  1.00  0.00     0.022 A 
BRANCH  80  83
ATOM     83  S   UNL A   1      39.938  36.089  37.113  1.00  0.00     0.127 S 
ATOM     84  O   UNL A   1      39.130  36.547  38.239  1.00  0.00    -0.237 OA
ATOM     85  O   UNL A   1      41.329  35.776  37.440  1.00  0.00    -0.237 OA
ATOM     86  O   UNL A   1      39.775  36.820  35.863  1.00  0.00    -0.744 OA
ENDBRANCH  80  83
ENDBRANCH  52  76
BRANCH  64  87
ATOM     87  C   UNL A   1      44.866  28.190  35.379  1.00  0.00     0.023 A 
ATOM     88  C   UNL A   1      46.088  28.888  35.339  1.00  0.00     0.012 A 
ATOM     89  C   UNL A   1      44.639  27.247  36.399  1.00  0.00     0.148 A 
ATOM     90  C   UNL A   1      47.076  28.640  36.290  1.00  0.00     0.002 A 
ATOM     91  C   UNL A   1      45.615  27.031  37.366  1.00  0.00     0.091 A 
ATOM     92  F   UNL A   1      43.478  26.574  36.404  1.00  0.00    -0.205 F 
ATOM     93  C   UNL A   1      46.837  27.722  37.309  1.00  0.00     0.022 A 
BRANCH  91  94
ATOM     94  S   UNL A   1      45.345  25.920  38.751  1.00  0.00     0.127 S 
ATOM     95  O   UNL A   1      44.226  26.563  39.437  1.00  0.00    -0.237 OA
ATOM     96  O   UNL A   1      45.011  24.659  38.089  1.00  0.00    -0.237 OA
ATOM     97  O   UNL A   1      46.606  25.895  39.481  1.00  0.00    -0.744 OA
ENDBRANCH  91  94
ENDBRANCH  64  87
ENDBRANCH  38  39
ENDBRANCH  31  33
ENDBRANCH  30  31
ENDBRANCH   1  30
TORSDOF 18
ENDMDL
