MODEL 1
REMARK VINA RESULT:     -10.9      0.000      0.000
REMARK SMILES CC[C@](C)(NC(=O)CCOc1ccc(Cl)c(Cl)c1)C(=O)OCCOC(=O)c1ccc(-c2c3nc(c(-c4cccc(S(=O)(=O)[O-])c4F)c4ccc([nH]4)c(-c4cccc(S(=O)(=O)[O-])c4F)c4nc(c(-c5cccc(S(=O)(=O)[O-])c5F)c5ccc2[nH]5)C=C4)C=C3)cc1
REMARK SMILES IDX 22 1 21 2 19 3 20 4 3 5 4 6 2 7 1 8 5 9 6 10 7 12 8 13 9 14
REMARK SMILES IDX 10 15 11 16 12 17 18 18 13 19 16 20 14 21 17 22 15 23 23 24
REMARK SMILES IDX 24 25 25 26 26 27 27 28 28 29 89 30 29 31 88 32 30 33 31 34
REMARK SMILES IDX 32 35 82 36 33 37 87 38 81 39 83 40 34 41 86 42 80 43 79 44
REMARK SMILES IDX 35 46 67 47 47 48 66 49 48 50 51 51 65 52 84 53 49 54 50 55
REMARK SMILES IDX 64 57 85 58 52 59 36 60 37 61 45 62 38 63 40 64 46 65 39 66
REMARK SMILES IDX 41 67 42 68 43 69 44 70 68 71 69 72 77 73 70 74 72 75 78 76
REMARK SMILES IDX 71 77 73 78 74 79 75 80 76 81 53 82 54 83 62 84 55 85 57 86
REMARK SMILES IDX 63 87 56 88 58 89 59 90 60 91 61 92
REMARK H PARENT 5 11 83 45 51 56
REMARK Flexibility Score: inf
ROOT
ATOM      1  C   UNL A   1      31.645  28.364  26.506  1.00  0.00     0.274 C 
ENDROOT
BRANCH   1   2
ATOM      2  O   UNL A   1      32.159  27.970  25.213  1.00  0.00    -0.460 OA
BRANCH   2   3
ATOM      3  C   UNL A   1      31.227  27.442  24.374  1.00  0.00     0.331 C 
ATOM      4  O   UNL A   1      30.340  26.679  24.744  1.00  0.00    -0.249 OA
BRANCH   3   5
ATOM      5  C   UNL A   1      31.418  27.829  22.881  1.00  0.00     0.135 C 
ATOM      6  C   UNL A   1      32.474  28.938  22.832  1.00  0.00     0.047 C 
BRANCH   5   7
ATOM      7  C   UNL A   1      30.044  28.380  22.376  1.00  0.00     0.037 C 
ATOM      8  C   UNL A   1      29.949  29.860  22.024  1.00  0.00     0.007 C 
ENDBRANCH   5   7
BRANCH   5   9
ATOM      9  N   UNL A   1      31.786  26.770  21.886  1.00  0.00    -0.340 N 
ATOM     10  C   UNL A   1      32.942  26.102  21.630  1.00  0.00     0.224 C 
ATOM     11  H   UNL A   1      31.040  26.504  21.302  1.00  0.00     0.164 HD
ATOM     12  O   UNL A   1      33.091  25.639  20.495  1.00  0.00    -0.275 OA
BRANCH  10  13
ATOM     13  C   UNL A   1      33.942  25.830  22.719  1.00  0.00     0.141 C 
BRANCH  13  14
ATOM     14  C   UNL A   1      33.441  24.859  23.782  1.00  0.00     0.239 C 
BRANCH  14  15
ATOM     15  O   UNL A   1      32.635  23.824  23.213  1.00  0.00    -0.493 OA
BRANCH  15  16
ATOM     16  C   UNL A   1      32.850  22.522  23.557  1.00  0.00     0.120 A 
ATOM     17  C   UNL A   1      32.042  21.437  23.239  1.00  0.00     0.048 A 
ATOM     18  C   UNL A   1      34.037  22.306  24.266  1.00  0.00     0.068 A 
ATOM     19  C   UNL A   1      32.439  20.142  23.587  1.00  0.00     0.026 A 
ATOM     20  C   UNL A   1      34.452  21.013  24.594  1.00  0.00     0.063 A 
ATOM     21  C   UNL A   1      33.650  19.924  24.250  1.00  0.00     0.059 A 
ATOM     22  Cl  UNL A   1      35.979  20.832  25.378  1.00  0.00    -0.083 Cl
ATOM     23  Cl  UNL A   1      34.097  18.291  24.587  1.00  0.00    -0.083 Cl
ENDBRANCH  15  16
ENDBRANCH  14  15
ENDBRANCH  13  14
ENDBRANCH  10  13
ENDBRANCH   5   9
ENDBRANCH   3   5
ENDBRANCH   2   3
ENDBRANCH   1   2
BRANCH   1  24
ATOM     24  C   UNL A   1      31.546  29.882  26.667  1.00  0.00     0.275 C 
BRANCH  24  25
ATOM     25  O   UNL A   1      32.735  30.545  26.189  1.00  0.00    -0.458 OA
BRANCH  25  26
ATOM     26  C   UNL A   1      33.242  31.477  27.024  1.00  0.00     0.338 C 
ATOM     27  O   UNL A   1      32.732  32.547  27.315  1.00  0.00    -0.246 OA
BRANCH  26  28
ATOM     28  C   UNL A   1      34.562  31.095  27.546  1.00  0.00     0.060 A 
ATOM     29  C   UNL A   1      34.855  29.769  27.870  1.00  0.00     0.016 A 
ATOM     30  C   UNL A   1      35.441  32.120  27.907  1.00  0.00     0.016 A 
ATOM     31  C   UNL A   1      35.990  29.485  28.636  1.00  0.00     0.010 A 
ATOM     32  C   UNL A   1      36.607  31.824  28.615  1.00  0.00     0.010 A 
ATOM     33  C   UNL A   1      36.877  30.509  29.020  1.00  0.00    -0.014 A 
BRANCH  33  34
ATOM     34  C   UNL A   1      38.119  30.202  29.781  1.00  0.00     0.031 A 
ATOM     35  C   UNL A   1      39.180  29.283  29.230  1.00  0.00     0.074 A 
ATOM     36  C   UNL A   1      38.265  30.729  31.012  1.00  0.00     0.049 A 
ATOM     37  N   UNL A   1      40.254  28.823  29.821  1.00  0.00    -0.248 NA
ATOM     38  C   UNL A   1      39.013  28.812  27.846  1.00  0.00     0.031 C 
ATOM     39  C   UNL A   1      37.295  31.608  31.663  1.00  0.00     0.029 A 
ATOM     40  N   UNL A   1      39.270  30.597  31.936  1.00  0.00    -0.354 N 
ATOM     41  C   UNL A   1      40.863  27.970  28.907  1.00  0.00     0.074 A 
ATOM     42  C   UNL A   1      40.046  27.989  27.711  1.00  0.00     0.031 C 
ATOM     43  C   UNL A   1      37.764  31.966  32.865  1.00  0.00     0.029 A 
ATOM     44  C   UNL A   1      39.033  31.286  33.103  1.00  0.00     0.049 A 
ATOM     45  H   UNL A   1      40.082  30.063  31.781  1.00  0.00     0.167 HD
ATOM     46  C   UNL A   1      42.001  27.247  29.052  1.00  0.00     0.034 A 
ATOM     47  C   UNL A   1      39.736  31.348  34.250  1.00  0.00     0.034 A 
ATOM     48  C   UNL A   1      42.840  27.278  30.223  1.00  0.00     0.049 A 
ATOM     49  C   UNL A   1      41.011  30.569  34.366  1.00  0.00     0.074 A 
ATOM     50  C   UNL A   1      44.030  26.604  30.446  1.00  0.00     0.029 A 
ATOM     51  N   UNL A   1      42.592  28.029  31.361  1.00  0.00    -0.354 N 
ATOM     52  N   UNL A   1      41.597  29.813  33.469  1.00  0.00    -0.248 NA
ATOM     53  C   UNL A   1      41.727  30.651  35.646  1.00  0.00     0.031 C 
ATOM     54  C   UNL A   1      44.501  26.948  31.718  1.00  0.00     0.029 A 
ATOM     55  C   UNL A   1      43.603  27.837  32.288  1.00  0.00     0.049 A 
ATOM     56  H   UNL A   1      41.811  28.614  31.491  1.00  0.00     0.167 HD
ATOM     57  C   UNL A   1      42.745  29.325  34.075  1.00  0.00     0.074 A 
ATOM     58  C   UNL A   1      42.796  29.904  35.403  1.00  0.00     0.031 C 
ATOM     59  C   UNL A   1      43.657  28.447  33.591  1.00  0.00     0.034 A 
BRANCH  46  60
ATOM     60  C   UNL A   1      42.449  26.382  27.903  1.00  0.00     0.023 A 
ATOM     61  C   UNL A   1      43.458  26.852  27.039  1.00  0.00     0.012 A 
ATOM     62  C   UNL A   1      41.963  25.068  27.748  1.00  0.00     0.148 A 
ATOM     63  C   UNL A   1      43.972  26.031  26.035  1.00  0.00     0.002 A 
ATOM     64  C   UNL A   1      42.500  24.245  26.763  1.00  0.00     0.091 A 
ATOM     65  F   UNL A   1      40.986  24.646  28.563  1.00  0.00    -0.205 F 
ATOM     66  C   UNL A   1      43.503  24.725  25.905  1.00  0.00     0.022 A 
BRANCH  64  67
ATOM     67  S   UNL A   1      42.003  22.527  26.572  1.00  0.00     0.127 S 
ATOM     68  O   UNL A   1      42.488  21.939  27.819  1.00  0.00    -0.237 OA
ATOM     69  O   UNL A   1      40.547  22.627  26.472  1.00  0.00    -0.237 OA
ATOM     70  O   UNL A   1      42.657  22.061  25.356  1.00  0.00    -0.744 OA
ENDBRANCH  64  67
ENDBRANCH  46  60
BRANCH  47  71
ATOM     71  C   UNL A   1      39.245  32.221  35.351  1.00  0.00     0.023 A 
ATOM     72  C   UNL A   1      38.405  31.678  36.340  1.00  0.00     0.012 A 
ATOM     73  C   UNL A   1      39.703  33.545  35.491  1.00  0.00     0.148 A 
ATOM     74  C   UNL A   1      38.033  32.437  37.450  1.00  0.00     0.002 A 
ATOM     75  C   UNL A   1      39.388  34.270  36.635  1.00  0.00     0.091 A 
ATOM     76  F   UNL A   1      40.480  34.063  34.528  1.00  0.00    -0.205 F 
ATOM     77  C   UNL A   1      38.542  33.725  37.610  1.00  0.00     0.022 A 
BRANCH  75  78
ATOM     78  S   UNL A   1      40.189  35.845  36.963  1.00  0.00     0.127 S 
ATOM     79  O   UNL A   1      39.719  36.666  35.853  1.00  0.00    -0.237 OA
ATOM     80  O   UNL A   1      39.648  36.215  38.273  1.00  0.00    -0.237 OA
ATOM     81  O   UNL A   1      41.612  35.529  36.984  1.00  0.00    -0.744 OA
ENDBRANCH  75  78
ENDBRANCH  47  71
BRANCH  59  82
ATOM     82  C   UNL A   1      44.772  28.041  34.513  1.00  0.00     0.023 A 
ATOM     83  C   UNL A   1      46.019  28.686  34.399  1.00  0.00     0.012 A 
ATOM     84  C   UNL A   1      44.583  27.066  35.510  1.00  0.00     0.148 A 
ATOM     85  C   UNL A   1      47.071  28.349  35.247  1.00  0.00     0.002 A 
ATOM     86  C   UNL A   1      45.630  26.757  36.373  1.00  0.00     0.091 A 
ATOM     87  F   UNL A   1      43.398  26.444  35.587  1.00  0.00    -0.205 F 
ATOM     88  C   UNL A   1      46.875  27.391  36.240  1.00  0.00     0.022 A 
BRANCH  86  89
ATOM     89  S   UNL A   1      45.429  25.578  37.715  1.00  0.00     0.127 S 
ATOM     90  O   UNL A   1      45.026  24.371  36.997  1.00  0.00    -0.237 OA
ATOM     91  O   UNL A   1      46.773  25.522  38.294  1.00  0.00    -0.237 OA
ATOM     92  O   UNL A   1      44.426  26.161  38.595  1.00  0.00    -0.744 OA
ENDBRANCH  86  89
ENDBRANCH  59  82
ENDBRANCH  33  34
ENDBRANCH  26  28
ENDBRANCH  25  26
ENDBRANCH  24  25
ENDBRANCH   1  24
TORSDOF 20
ENDMDL
MODEL 2
REMARK VINA RESULT:     -10.5      1.767      2.217
REMARK SMILES CC[C@](C)(NC(=O)CCOc1ccc(Cl)c(Cl)c1)C(=O)OCCOC(=O)c1ccc(-c2c3nc(c(-c4cccc(S(=O)(=O)[O-])c4F)c4ccc([nH]4)c(-c4cccc(S(=O)(=O)[O-])c4F)c4nc(c(-c5cccc(S(=O)(=O)[O-])c5F)c5ccc2[nH]5)C=C4)C=C3)cc1
REMARK SMILES IDX 22 1 21 2 19 3 20 4 3 5 4 6 2 7 1 8 5 9 6 10 7 12 8 13 9 14
REMARK SMILES IDX 10 15 11 16 12 17 18 18 13 19 16 20 14 21 17 22 15 23 23 24
REMARK SMILES IDX 24 25 25 26 26 27 27 28 28 29 89 30 29 31 88 32 30 33 31 34
REMARK SMILES IDX 32 35 82 36 33 37 87 38 81 39 83 40 34 41 86 42 80 43 79 44
REMARK SMILES IDX 35 46 67 47 47 48 66 49 48 50 51 51 65 52 84 53 49 54 50 55
REMARK SMILES IDX 64 57 85 58 52 59 36 60 37 61 45 62 38 63 40 64 46 65 39 66
REMARK SMILES IDX 41 67 42 68 43 69 44 70 68 71 69 72 77 73 70 74 72 75 78 76
REMARK SMILES IDX 71 77 73 78 74 79 75 80 76 81 53 82 54 83 62 84 55 85 57 86
REMARK SMILES IDX 63 87 56 88 58 89 59 90 60 91 61 92
REMARK H PARENT 5 11 83 45 51 56
REMARK Flexibility Score: inf
ROOT
ATOM      1  C   UNL A   1      31.793  28.904  27.185  1.00  0.00     0.274 C 
ENDROOT
BRANCH   1   2
ATOM      2  O   UNL A   1      32.106  28.078  26.041  1.00  0.00    -0.460 OA
BRANCH   2   3
ATOM      3  C   UNL A   1      31.111  27.224  25.675  1.00  0.00     0.331 C 
ATOM      4  O   UNL A   1      30.365  26.672  26.478  1.00  0.00    -0.249 OA
BRANCH   3   5
ATOM      5  C   UNL A   1      31.038  26.944  24.148  1.00  0.00     0.135 C 
ATOM      6  C   UNL A   1      32.435  27.202  23.573  1.00  0.00     0.047 C 
BRANCH   5   7
ATOM      7  C   UNL A   1      30.018  27.966  23.547  1.00  0.00     0.037 C 
ATOM      8  C   UNL A   1      30.510  28.917  22.462  1.00  0.00     0.007 C 
ENDBRANCH   5   7
BRANCH   5   9
ATOM      9  N   UNL A   1      30.557  25.609  23.665  1.00  0.00    -0.340 N 
ATOM     10  C   UNL A   1      30.819  24.333  24.058  1.00  0.00     0.224 C 
ATOM     11  H   UNL A   1      29.924  25.667  22.914  1.00  0.00     0.164 HD
ATOM     12  O   UNL A   1      30.662  23.439  23.223  1.00  0.00    -0.275 OA
BRANCH  10  13
ATOM     13  C   UNL A   1      31.164  24.014  25.486  1.00  0.00     0.141 C 
BRANCH  13  14
ATOM     14  C   UNL A   1      31.238  22.519  25.780  1.00  0.00     0.239 C 
BRANCH  14  15
ATOM     15  O   UNL A   1      32.298  22.212  26.689  1.00  0.00    -0.493 OA
BRANCH  15  16
ATOM     16  C   UNL A   1      33.505  21.792  26.214  1.00  0.00     0.120 A 
ATOM     17  C   UNL A   1      33.760  20.608  25.530  1.00  0.00     0.048 A 
ATOM     18  C   UNL A   1      34.551  22.696  26.427  1.00  0.00     0.068 A 
ATOM     19  C   UNL A   1      35.038  20.353  25.024  1.00  0.00     0.026 A 
ATOM     20  C   UNL A   1      35.824  22.459  25.903  1.00  0.00     0.063 A 
ATOM     21  C   UNL A   1      36.068  21.281  25.194  1.00  0.00     0.059 A 
ATOM     22  Cl  UNL A   1      37.027  23.676  26.125  1.00  0.00    -0.083 Cl
ATOM     23  Cl  UNL A   1      37.600  20.919  24.485  1.00  0.00    -0.083 Cl
ENDBRANCH  15  16
ENDBRANCH  14  15
ENDBRANCH  13  14
ENDBRANCH  10  13
ENDBRANCH   5   9
ENDBRANCH   3   5
ENDBRANCH   2   3
ENDBRANCH   1   2
BRANCH   1  24
ATOM     24  C   UNL A   1      31.848  30.399  26.869  1.00  0.00     0.275 C 
BRANCH  24  25
ATOM     25  O   UNL A   1      33.183  30.819  26.518  1.00  0.00    -0.458 OA
BRANCH  25  26
ATOM     26  C   UNL A   1      33.783  31.625  27.420  1.00  0.00     0.338 C 
ATOM     27  O   UNL A   1      33.345  32.674  27.863  1.00  0.00    -0.246 OA
BRANCH  26  28
ATOM     28  C   UNL A   1      35.110  31.128  27.811  1.00  0.00     0.060 A 
ATOM     29  C   UNL A   1      35.314  29.784  28.130  1.00  0.00     0.016 A 
ATOM     30  C   UNL A   1      36.112  32.071  28.058  1.00  0.00     0.016 A 
ATOM     31  C   UNL A   1      36.492  29.405  28.780  1.00  0.00     0.010 A 
ATOM     32  C   UNL A   1      37.314  31.676  28.647  1.00  0.00     0.010 A 
ATOM     33  C   UNL A   1      37.504  30.346  29.049  1.00  0.00    -0.014 A 
BRANCH  33  34
ATOM     34  C   UNL A   1      38.786  29.934  29.684  1.00  0.00     0.031 A 
ATOM     35  C   UNL A   1      39.711  28.939  29.031  1.00  0.00     0.074 A 
ATOM     36  C   UNL A   1      39.094  30.437  30.896  1.00  0.00     0.049 A 
ATOM     37  N   UNL A   1      40.797  28.389  29.513  1.00  0.00    -0.248 NA
ATOM     38  C   UNL A   1      39.371  28.495  27.669  1.00  0.00     0.031 C 
ATOM     39  C   UNL A   1      38.266  31.385  31.640  1.00  0.00     0.029 A 
ATOM     40  N   UNL A   1      40.171  30.217  31.717  1.00  0.00    -0.354 N 
ATOM     41  C   UNL A   1      41.243  27.498  28.542  1.00  0.00     0.074 A 
ATOM     42  C   UNL A   1      40.318  27.593  27.432  1.00  0.00     0.031 C 
ATOM     43  C   UNL A   1      38.878  31.693  32.791  1.00  0.00     0.029 A 
ATOM     44  C   UNL A   1      40.105  30.911  32.901  1.00  0.00     0.049 A 
ATOM     45  H   UNL A   1      40.918  29.620  31.481  1.00  0.00     0.167 HD
ATOM     46  C   UNL A   1      42.328  26.685  28.574  1.00  0.00     0.034 A 
ATOM     47  C   UNL A   1      40.920  30.906  33.974  1.00  0.00     0.034 A 
ATOM     48  C   UNL A   1      43.278  26.638  29.656  1.00  0.00     0.049 A 
ATOM     49  C   UNL A   1      42.133  30.027  33.963  1.00  0.00     0.074 A 
ATOM     50  C   UNL A   1      44.426  25.869  29.761  1.00  0.00     0.029 A 
ATOM     51  N   UNL A   1      43.203  27.397  30.814  1.00  0.00    -0.354 N 
ATOM     52  N   UNL A   1      42.566  29.235  33.012  1.00  0.00    -0.248 NA
ATOM     53  C   UNL A   1      42.975  30.040  35.167  1.00  0.00     0.031 C 
ATOM     54  C   UNL A   1      45.045  26.164  30.981  1.00  0.00     0.029 A 
ATOM     55  C   UNL A   1      44.281  27.116  31.637  1.00  0.00     0.049 A 
ATOM     56  H   UNL A   1      42.488  28.041  31.021  1.00  0.00     0.167 HD
ATOM     57  C   UNL A   1      43.725  28.651  33.502  1.00  0.00     0.074 A 
ATOM     58  C   UNL A   1      43.952  29.213  34.819  1.00  0.00     0.031 C 
ATOM     59  C   UNL A   1      44.511  27.708  32.929  1.00  0.00     0.034 A 
BRANCH  46  60
ATOM     60  C   UNL A   1      42.590  25.798  27.385  1.00  0.00     0.023 A 
ATOM     61  C   UNL A   1      43.400  26.275  26.335  1.00  0.00     0.012 A 
ATOM     62  C   UNL A   1      42.141  24.463  27.360  1.00  0.00     0.148 A 
ATOM     63  C   UNL A   1      43.752  25.438  25.275  1.00  0.00     0.002 A 
ATOM     64  C   UNL A   1      42.519  23.626  26.314  1.00  0.00     0.091 A 
ATOM     65  F   UNL A   1      41.351  24.033  28.355  1.00  0.00    -0.205 F 
ATOM     66  C   UNL A   1      43.323  24.112  25.271  1.00  0.00     0.022 A 
BRANCH  64  67
ATOM     67  S   UNL A   1      42.069  21.886  26.267  1.00  0.00     0.127 S 
ATOM     68  O   UNL A   1      42.911  21.391  25.179  1.00  0.00    -0.237 OA
ATOM     69  O   UNL A   1      42.460  21.420  27.598  1.00  0.00    -0.237 OA
ATOM     70  O   UNL A   1      40.633  21.857  26.020  1.00  0.00    -0.744 OA
ENDBRANCH  64  67
ENDBRANCH  46  60
BRANCH  47  71
ATOM     71  C   UNL A   1      40.611  31.806  35.119  1.00  0.00     0.023 A 
ATOM     72  C   UNL A   1      41.332  33.006  35.267  1.00  0.00     0.012 A 
ATOM     73  C   UNL A   1      39.532  31.543  35.984  1.00  0.00     0.148 A 
ATOM     74  C   UNL A   1      40.979  33.928  36.253  1.00  0.00     0.002 A 
ATOM     75  C   UNL A   1      39.142  32.498  36.916  1.00  0.00     0.091 A 
ATOM     76  F   UNL A   1      38.870  30.384  35.853  1.00  0.00    -0.205 F 
ATOM     77  C   UNL A   1      39.871  33.686  37.063  1.00  0.00     0.022 A 
BRANCH  75  78
ATOM     78  S   UNL A   1      37.605  32.305  37.828  1.00  0.00     0.127 S 
ATOM     79  O   UNL A   1      36.640  32.945  36.941  1.00  0.00    -0.237 OA
ATOM     80  O   UNL A   1      37.473  30.851  37.933  1.00  0.00    -0.237 OA
ATOM     81  O   UNL A   1      37.856  32.966  39.103  1.00  0.00    -0.744 OA
ENDBRANCH  75  78
ENDBRANCH  47  71
BRANCH  59  82
ATOM     82  C   UNL A   1      45.675  27.206  33.737  1.00  0.00     0.023 A 
ATOM     83  C   UNL A   1      46.921  27.852  33.611  1.00  0.00     0.012 A 
ATOM     84  C   UNL A   1      45.536  26.138  34.642  1.00  0.00     0.148 A 
ATOM     85  C   UNL A   1      48.018  27.426  34.356  1.00  0.00     0.002 A 
ATOM     86  C   UNL A   1      46.629  25.738  35.404  1.00  0.00     0.091 A 
ATOM     87  F   UNL A   1      44.350  25.518  34.729  1.00  0.00    -0.205 F 
ATOM     88  C   UNL A   1      47.871  26.375  35.259  1.00  0.00     0.022 A 
BRANCH  86  89
ATOM     89  S   UNL A   1      46.495  24.433  36.633  1.00  0.00     0.127 S 
ATOM     90  O   UNL A   1      45.424  24.936  37.490  1.00  0.00    -0.237 OA
ATOM     91  O   UNL A   1      46.132  23.269  35.824  1.00  0.00    -0.237 OA
ATOM     92  O   UNL A   1      47.812  24.344  37.248  1.00  0.00    -0.744 OA
ENDBRANCH  86  89
ENDBRANCH  59  82
ENDBRANCH  33  34
ENDBRANCH  26  28
ENDBRANCH  25  26
ENDBRANCH  24  25
ENDBRANCH   1  24
TORSDOF 20
ENDMDL
MODEL 3
REMARK VINA RESULT:     -10.1      1.941      7.860
REMARK SMILES CC[C@](C)(NC(=O)CCOc1ccc(Cl)c(Cl)c1)C(=O)OCCOC(=O)c1ccc(-c2c3nc(c(-c4cccc(S(=O)(=O)[O-])c4F)c4ccc([nH]4)c(-c4cccc(S(=O)(=O)[O-])c4F)c4nc(c(-c5cccc(S(=O)(=O)[O-])c5F)c5ccc2[nH]5)C=C4)C=C3)cc1
REMARK SMILES IDX 22 1 21 2 19 3 20 4 3 5 4 6 2 7 1 8 5 9 6 10 7 12 8 13 9 14
REMARK SMILES IDX 10 15 11 16 12 17 18 18 13 19 16 20 14 21 17 22 15 23 23 24
REMARK SMILES IDX 24 25 25 26 26 27 27 28 28 29 89 30 29 31 88 32 30 33 31 34
REMARK SMILES IDX 32 35 82 36 33 37 87 38 81 39 83 40 34 41 86 42 80 43 79 44
REMARK SMILES IDX 35 46 67 47 47 48 66 49 48 50 51 51 65 52 84 53 49 54 50 55
REMARK SMILES IDX 64 57 85 58 52 59 36 60 37 61 45 62 38 63 40 64 46 65 39 66
REMARK SMILES IDX 41 67 42 68 43 69 44 70 68 71 69 72 77 73 70 74 72 75 78 76
REMARK SMILES IDX 71 77 73 78 74 79 75 80 76 81 53 82 54 83 62 84 55 85 57 86
REMARK SMILES IDX 63 87 56 88 58 89 59 90 60 91 61 92
REMARK H PARENT 5 11 83 45 51 56
REMARK Flexibility Score: inf
ROOT
ATOM      1  C   UNL A   1      32.418  30.909  26.866  1.00  0.00     0.274 C 
ENDROOT
BRANCH   1   2
ATOM      2  O   UNL A   1      31.411  30.005  26.359  1.00  0.00    -0.460 OA
BRANCH   2   3
ATOM      3  C   UNL A   1      31.646  28.692  26.630  1.00  0.00     0.331 C 
ATOM      4  O   UNL A   1      31.493  28.194  27.741  1.00  0.00    -0.249 OA
BRANCH   3   5
ATOM      5  C   UNL A   1      32.199  27.880  25.426  1.00  0.00     0.135 C 
ATOM      6  C   UNL A   1      31.184  26.773  25.122  1.00  0.00     0.047 C 
BRANCH   5   7
ATOM      7  C   UNL A   1      33.553  27.249  25.888  1.00  0.00     0.037 C 
ATOM      8  C   UNL A   1      34.600  28.169  26.505  1.00  0.00     0.007 C 
ENDBRANCH   5   7
BRANCH   5   9
ATOM      9  N   UNL A   1      32.533  28.590  24.148  1.00  0.00    -0.340 N 
ATOM     10  C   UNL A   1      32.684  28.165  22.865  1.00  0.00     0.224 C 
ATOM     11  H   UNL A   1      32.670  29.558  24.261  1.00  0.00     0.164 HD
ATOM     12  O   UNL A   1      33.391  28.849  22.120  1.00  0.00    -0.275 OA
BRANCH  10  13
ATOM     13  C   UNL A   1      31.920  26.980  22.343  1.00  0.00     0.141 C 
BRANCH  13  14
ATOM     14  C   UNL A   1      32.803  25.916  21.700  1.00  0.00     0.239 C 
BRANCH  14  15
ATOM     15  O   UNL A   1      33.828  25.473  22.593  1.00  0.00    -0.493 OA
BRANCH  15  16
ATOM     16  C   UNL A   1      33.755  24.234  23.159  1.00  0.00     0.120 A 
ATOM     17  C   UNL A   1      32.799  23.259  22.895  1.00  0.00     0.048 A 
ATOM     18  C   UNL A   1      34.790  23.951  24.056  1.00  0.00     0.068 A 
ATOM     19  C   UNL A   1      32.903  21.998  23.489  1.00  0.00     0.026 A 
ATOM     20  C   UNL A   1      34.914  22.685  24.633  1.00  0.00     0.063 A 
ATOM     21  C   UNL A   1      33.967  21.701  24.346  1.00  0.00     0.059 A 
ATOM     22  Cl  UNL A   1      36.279  22.393  25.647  1.00  0.00    -0.083 Cl
ATOM     23  Cl  UNL A   1      34.058  20.102  24.988  1.00  0.00    -0.083 Cl
ENDBRANCH  15  16
ENDBRANCH  14  15
ENDBRANCH  13  14
ENDBRANCH  10  13
ENDBRANCH   5   9
ENDBRANCH   3   5
ENDBRANCH   2   3
ENDBRANCH   1   2
BRANCH   1  24
ATOM     24  C   UNL A   1      31.886  32.327  27.083  1.00  0.00     0.275 C 
BRANCH  24  25
ATOM     25  O   UNL A   1      32.930  33.313  26.947  1.00  0.00    -0.458 OA
BRANCH  25  26
ATOM     26  C   UNL A   1      33.156  34.061  28.048  1.00  0.00     0.338 C 
ATOM     27  O   UNL A   1      32.546  35.063  28.384  1.00  0.00    -0.246 OA
BRANCH  26  28
ATOM     28  C   UNL A   1      34.297  33.566  28.830  1.00  0.00     0.060 A 
ATOM     29  C   UNL A   1      35.611  33.767  28.399  1.00  0.00     0.016 A 
ATOM     30  C   UNL A   1      34.031  32.710  29.902  1.00  0.00     0.016 A 
ATOM     31  C   UNL A   1      36.646  33.037  28.990  1.00  0.00     0.010 A 
ATOM     32  C   UNL A   1      35.076  32.032  30.532  1.00  0.00     0.010 A 
ATOM     33  C   UNL A   1      36.390  32.159  30.061  1.00  0.00    -0.014 A 
BRANCH  33  34
ATOM     34  C   UNL A   1      37.498  31.428  30.735  1.00  0.00     0.031 A 
ATOM     35  C   UNL A   1      37.871  31.700  32.169  1.00  0.00     0.074 A 
ATOM     36  C   UNL A   1      38.209  30.535  30.017  1.00  0.00     0.049 A 
ATOM     37  N   UNL A   1      38.886  31.236  32.855  1.00  0.00    -0.248 NA
ATOM     38  C   UNL A   1      37.004  32.613  32.931  1.00  0.00     0.031 C 
ATOM     39  C   UNL A   1      37.962  30.208  28.613  1.00  0.00     0.029 A 
ATOM     40  N   UNL A   1      39.282  29.753  30.359  1.00  0.00    -0.354 N 
ATOM     41  C   UNL A   1      38.813  31.838  34.108  1.00  0.00     0.074 A 
ATOM     42  C   UNL A   1      37.642  32.689  34.093  1.00  0.00     0.031 C 
ATOM     43  C   UNL A   1      38.833  29.269  28.222  1.00  0.00     0.029 A 
ATOM     44  C   UNL A   1      39.746  28.979  29.322  1.00  0.00     0.049 A 
ATOM     45  H   UNL A   1      39.682  29.745  31.259  1.00  0.00     0.167 HD
ATOM     46  C   UNL A   1      39.643  31.685  35.169  1.00  0.00     0.034 A 
ATOM     47  C   UNL A   1      40.803  28.147  29.245  1.00  0.00     0.034 A 
ATOM     48  C   UNL A   1      40.773  30.792  35.197  1.00  0.00     0.049 A 
ATOM     49  C   UNL A   1      41.679  27.969  30.448  1.00  0.00     0.074 A 
ATOM     50  C   UNL A   1      41.651  30.547  36.240  1.00  0.00     0.029 A 
ATOM     51  N   UNL A   1      41.177  29.987  34.143  1.00  0.00    -0.354 N 
ATOM     52  N   UNL A   1      41.559  28.504  31.638  1.00  0.00    -0.248 NA
ATOM     53  C   UNL A   1      42.832  27.070  30.303  1.00  0.00     0.031 C 
ATOM     54  C   UNL A   1      42.584  29.593  35.818  1.00  0.00     0.029 A 
ATOM     55  C   UNL A   1      42.288  29.245  34.510  1.00  0.00     0.049 A 
ATOM     56  H   UNL A   1      40.738  29.948  33.263  1.00  0.00     0.167 HD
ATOM     57  C   UNL A   1      42.622  28.015  32.384  1.00  0.00     0.074 A 
ATOM     58  C   UNL A   1      43.352  27.105  31.524  1.00  0.00     0.031 C 
ATOM     59  C   UNL A   1      42.982  28.318  33.654  1.00  0.00     0.034 A 
BRANCH  46  60
ATOM     60  C   UNL A   1      39.348  32.466  36.424  1.00  0.00     0.023 A 
ATOM     61  C   UNL A   1      39.936  33.734  36.600  1.00  0.00     0.012 A 
ATOM     62  C   UNL A   1      38.405  32.003  37.364  1.00  0.00     0.148 A 
ATOM     63  C   UNL A   1      39.594  34.527  37.696  1.00  0.00     0.002 A 
ATOM     64  C   UNL A   1      38.049  32.811  38.439  1.00  0.00     0.091 A 
ATOM     65  F   UNL A   1      37.874  30.784  37.193  1.00  0.00    -0.205 F 
ATOM     66  C   UNL A   1      38.644  34.072  38.608  1.00  0.00     0.022 A 
BRANCH  64  67
ATOM     67  S   UNL A   1      36.781  32.332  39.621  1.00  0.00     0.127 S 
ATOM     68  O   UNL A   1      37.257  31.018  40.049  1.00  0.00    -0.237 OA
ATOM     69  O   UNL A   1      36.884  33.378  40.639  1.00  0.00    -0.237 OA
ATOM     70  O   UNL A   1      35.528  32.340  38.878  1.00  0.00    -0.744 OA
ENDBRANCH  64  67
ENDBRANCH  46  60
BRANCH  47  71
ATOM     71  C   UNL A   1      41.043  27.401  27.980  1.00  0.00     0.023 A 
ATOM     72  C   UNL A   1      41.692  28.046  26.911  1.00  0.00     0.012 A 
ATOM     73  C   UNL A   1      40.746  26.029  27.874  1.00  0.00     0.148 A 
ATOM     74  C   UNL A   1      42.043  27.335  25.762  1.00  0.00     0.002 A 
ATOM     75  C   UNL A   1      41.163  25.312  26.758  1.00  0.00     0.091 A 
ATOM     76  F   UNL A   1      40.101  25.430  28.887  1.00  0.00    -0.205 F 
ATOM     77  C   UNL A   1      41.800  25.965  25.694  1.00  0.00     0.022 A 
BRANCH  75  78
ATOM     78  S   UNL A   1      41.047  23.519  26.732  1.00  0.00     0.127 S 
ATOM     79  O   UNL A   1      41.510  23.162  28.068  1.00  0.00    -0.237 OA
ATOM     80  O   UNL A   1      39.620  23.292  26.495  1.00  0.00    -0.237 OA
ATOM     81  O   UNL A   1      41.898  23.118  25.618  1.00  0.00    -0.744 OA
ENDBRANCH  75  78
ENDBRANCH  47  71
BRANCH  59  82
ATOM     82  C   UNL A   1      44.237  27.680  34.179  1.00  0.00     0.023 A 
ATOM     83  C   UNL A   1      45.462  28.361  34.030  1.00  0.00     0.012 A 
ATOM     84  C   UNL A   1      44.208  26.442  34.849  1.00  0.00     0.148 A 
ATOM     85  C   UNL A   1      46.644  27.808  34.519  1.00  0.00     0.002 A 
ATOM     86  C   UNL A   1      45.388  25.911  35.360  1.00  0.00     0.091 A 
ATOM     87  F   UNL A   1      43.038  25.796  34.957  1.00  0.00    -0.205 F 
ATOM     88  C   UNL A   1      46.606  26.588  35.191  1.00  0.00     0.022 A 
BRANCH  86  89
ATOM     89  S   UNL A   1      45.406  24.375  36.292  1.00  0.00     0.127 S 
ATOM     90  O   UNL A   1      46.812  24.272  36.675  1.00  0.00    -0.237 OA
ATOM     91  O   UNL A   1      44.493  24.664  37.400  1.00  0.00    -0.237 OA
ATOM     92  O   UNL A   1      44.920  23.357  35.371  1.00  0.00    -0.744 OA
ENDBRANCH  86  89
ENDBRANCH  59  82
ENDBRANCH  33  34
ENDBRANCH  26  28
ENDBRANCH  25  26
ENDBRANCH  24  25
ENDBRANCH   1  24
TORSDOF 20
ENDMDL
