MODEL 1
REMARK VINA RESULT:     -11.4      0.000      0.000
REMARK SMILES C[C@@H]1CCC[C@]1(Sc1ccc(F)cc1)C(=O)OCCOC(=O)c1ccc(-c2c3nc(c(-c4cccc(S(=O)(=O)[O-])c4F)c4ccc([nH]4)c(-c4cccc(S(=O)(=O)[O-])c4F)c4nc(c(-c5cccc(S(=O)(=O)[O-])c5F)c5ccc2[nH]5)C=C4)C=C3)cc1
REMARK SMILES IDX 19 1 18 2 17 3 15 4 16 5 6 6 1 7 2 8 3 9 4 10 5 11 7 12 8 13
REMARK SMILES IDX 9 14 14 15 10 16 13 17 11 18 12 19 20 20 21 21 22 22 23 23
REMARK SMILES IDX 24 24 85 25 25 26 84 27 26 28 27 29 28 30 78 31 29 32 83 33
REMARK SMILES IDX 77 34 79 35 30 36 82 37 76 38 75 39 31 41 63 42 43 43 62 44
REMARK SMILES IDX 44 45 47 46 61 47 80 48 45 49 46 50 60 52 81 53 48 54 32 55
REMARK SMILES IDX 33 56 41 57 34 58 36 59 42 60 35 61 37 62 38 63 39 64 40 65
REMARK SMILES IDX 64 66 65 67 73 68 66 69 68 70 74 71 67 72 69 73 70 74 71 75
REMARK SMILES IDX 72 76 49 77 50 78 58 79 51 80 53 81 59 82 52 83 54 84 55 85
REMARK SMILES IDX 56 86 57 87
REMARK H PARENT 79 40 47 51
REMARK Flexibility Score: inf
ROOT
ATOM      1  C   UNL A   1      31.894  29.296  24.967  1.00  0.00     0.275 C 
ENDROOT
BRANCH   1   2
ATOM      2  C   UNL A   1      32.133  28.567  23.644  1.00  0.00     0.274 C 
BRANCH   2   3
ATOM      3  O   UNL A   1      32.762  27.287  23.864  1.00  0.00    -0.461 OA
BRANCH   3   4
ATOM      4  C   UNL A   1      32.169  26.224  23.252  1.00  0.00     0.322 C 
ATOM      5  O   UNL A   1      31.668  26.276  22.131  1.00  0.00    -0.251 OA
BRANCH   4   6
ATOM      6  C   UNL A   1      32.081  24.972  24.153  1.00  0.00     0.120 C 
ATOM      7  C   UNL A   1      29.922  25.945  25.281  1.00  0.00     0.010 C 
ATOM      8  C   UNL A   1      30.737  24.705  24.886  1.00  0.00     0.014 C 
ATOM      9  C   UNL A   1      31.128  23.964  26.181  1.00  0.00     0.005 C 
ATOM     10  C   UNL A   1      32.576  24.314  26.484  1.00  0.00     0.002 C 
ATOM     11  C   UNL A   1      33.074  25.149  25.315  1.00  0.00     0.030 C 
BRANCH   6  12
ATOM     12  S   UNL A   1      32.518  23.589  22.938  1.00  0.00    -0.107 SA
BRANCH  12  13
ATOM     13  C   UNL A   1      34.002  22.865  23.579  1.00  0.00     0.009 A 
ATOM     14  C   UNL A   1      35.233  23.472  23.311  1.00  0.00     0.018 A 
ATOM     15  C   UNL A   1      33.953  21.746  24.419  1.00  0.00     0.018 A 
ATOM     16  C   UNL A   1      36.411  22.929  23.821  1.00  0.00     0.040 A 
ATOM     17  C   UNL A   1      35.132  21.204  24.935  1.00  0.00     0.040 A 
ATOM     18  C   UNL A   1      36.351  21.797  24.626  1.00  0.00     0.123 A 
ATOM     19  F   UNL A   1      37.484  21.279  25.117  1.00  0.00    -0.207 F 
ENDBRANCH  12  13
ENDBRANCH   6  12
ENDBRANCH   4   6
ENDBRANCH   3   4
ENDBRANCH   2   3
ENDBRANCH   1   2
BRANCH   1  20
ATOM     20  O   UNL A   1      33.083  30.009  25.345  1.00  0.00    -0.458 OA
BRANCH  20  21
ATOM     21  C   UNL A   1      32.981  30.791  26.447  1.00  0.00     0.338 C 
ATOM     22  O   UNL A   1      32.036  31.504  26.741  1.00  0.00    -0.246 OA
BRANCH  21  23
ATOM     23  C   UNL A   1      34.189  30.646  27.295  1.00  0.00     0.060 A 
ATOM     24  C   UNL A   1      34.982  31.746  27.624  1.00  0.00     0.016 A 
ATOM     25  C   UNL A   1      34.583  29.372  27.704  1.00  0.00     0.016 A 
ATOM     26  C   UNL A   1      36.208  31.570  28.268  1.00  0.00     0.010 A 
ATOM     27  C   UNL A   1      35.758  29.211  28.448  1.00  0.00     0.010 A 
ATOM     28  C   UNL A   1      36.604  30.302  28.712  1.00  0.00    -0.014 A 
BRANCH  28  29
ATOM     29  C   UNL A   1      37.882  30.101  29.456  1.00  0.00     0.031 A 
ATOM     30  C   UNL A   1      38.968  29.227  28.881  1.00  0.00     0.074 A 
ATOM     31  C   UNL A   1      38.056  30.644  30.679  1.00  0.00     0.049 A 
ATOM     32  N   UNL A   1      40.028  28.732  29.467  1.00  0.00    -0.248 NA
ATOM     33  C   UNL A   1      38.832  28.840  27.466  1.00  0.00     0.031 C 
ATOM     34  C   UNL A   1      37.097  31.512  31.363  1.00  0.00     0.029 A 
ATOM     35  N   UNL A   1      39.092  30.526  31.576  1.00  0.00    -0.354 N 
ATOM     36  C   UNL A   1      40.630  27.903  28.528  1.00  0.00     0.074 A 
ATOM     37  C   UNL A   1      39.833  27.982  27.322  1.00  0.00     0.031 C 
ATOM     38  C   UNL A   1      37.589  31.858  32.560  1.00  0.00     0.029 A 
ATOM     39  C   UNL A   1      38.857  31.168  32.771  1.00  0.00     0.049 A 
ATOM     40  H   UNL A   1      39.920  30.031  31.383  1.00  0.00     0.167 HD
ATOM     41  C   UNL A   1      41.748  27.150  28.657  1.00  0.00     0.034 A 
ATOM     42  C   UNL A   1      39.546  31.165  33.930  1.00  0.00     0.034 A 
ATOM     43  C   UNL A   1      42.595  27.152  29.820  1.00  0.00     0.049 A 
ATOM     44  C   UNL A   1      40.808  30.360  34.035  1.00  0.00     0.074 A 
ATOM     45  C   UNL A   1      43.790  26.481  30.010  1.00  0.00     0.029 A 
ATOM     46  N   UNL A   1      42.351  27.870  30.979  1.00  0.00    -0.354 N 
ATOM     47  N   UNL A   1      41.387  29.619  33.122  1.00  0.00    -0.248 NA
ATOM     48  C   UNL A   1      41.517  30.392  35.323  1.00  0.00     0.031 C 
ATOM     49  C   UNL A   1      44.267  26.789  31.288  1.00  0.00     0.029 A 
ATOM     50  C   UNL A   1      43.372  27.657  31.890  1.00  0.00     0.049 A 
ATOM     51  H   UNL A   1      41.567  28.446  31.134  1.00  0.00     0.167 HD
ATOM     52  C   UNL A   1      42.526  29.098  33.721  1.00  0.00     0.074 A 
ATOM     53  C   UNL A   1      42.576  29.634  35.066  1.00  0.00     0.031 C 
ATOM     54  C   UNL A   1      43.435  28.231  33.210  1.00  0.00     0.034 A 
BRANCH  41  55
ATOM     55  C   UNL A   1      42.153  26.277  27.500  1.00  0.00     0.023 A 
ATOM     56  C   UNL A   1      42.985  26.796  26.489  1.00  0.00     0.012 A 
ATOM     57  C   UNL A   1      41.786  24.917  27.463  1.00  0.00     0.148 A 
ATOM     58  C   UNL A   1      43.431  25.981  25.448  1.00  0.00     0.002 A 
ATOM     59  C   UNL A   1      42.264  24.101  26.443  1.00  0.00     0.091 A 
ATOM     60  F   UNL A   1      40.972  24.447  28.418  1.00  0.00    -0.205 F 
ATOM     61  C   UNL A   1      43.082  24.633  25.433  1.00  0.00     0.022 A 
BRANCH  59  62
ATOM     62  S   UNL A   1      41.930  22.335  26.388  1.00  0.00     0.127 S 
ATOM     63  O   UNL A   1      40.478  22.314  26.224  1.00  0.00    -0.237 OA
ATOM     64  O   UNL A   1      42.682  21.911  25.206  1.00  0.00    -0.237 OA
ATOM     65  O   UNL A   1      42.431  21.797  27.646  1.00  0.00    -0.744 OA
ENDBRANCH  59  62
ENDBRANCH  41  55
BRANCH  42  66
ATOM     66  C   UNL A   1      39.038  31.980  35.071  1.00  0.00     0.023 A 
ATOM     67  C   UNL A   1      38.171  31.389  36.007  1.00  0.00     0.012 A 
ATOM     68  C   UNL A   1      39.507  33.290  35.299  1.00  0.00     0.148 A 
ATOM     69  C   UNL A   1      37.785  32.083  37.154  1.00  0.00     0.002 A 
ATOM     70  C   UNL A   1      39.174  33.950  36.475  1.00  0.00     0.091 A 
ATOM     71  F   UNL A   1      40.311  33.844  34.380  1.00  0.00    -0.205 F 
ATOM     72  C   UNL A   1      38.303  33.353  37.399  1.00  0.00     0.022 A 
BRANCH  70  73
ATOM     73  S   UNL A   1      39.939  35.505  36.950  1.00  0.00     0.127 S 
ATOM     74  O   UNL A   1      39.279  35.788  38.221  1.00  0.00    -0.237 OA
ATOM     75  O   UNL A   1      41.350  35.129  37.057  1.00  0.00    -0.237 OA
ATOM     76  O   UNL A   1      39.650  36.430  35.863  1.00  0.00    -0.744 OA
ENDBRANCH  70  73
ENDBRANCH  42  66
BRANCH  54  77
ATOM     77  C   UNL A   1      44.566  27.793  34.099  1.00  0.00     0.023 A 
ATOM     78  C   UNL A   1      45.730  28.583  34.171  1.00  0.00     0.012 A 
ATOM     79  C   UNL A   1      44.440  26.668  34.937  1.00  0.00     0.148 A 
ATOM     80  C   UNL A   1      46.757  28.254  35.054  1.00  0.00     0.002 A 
ATOM     81  C   UNL A   1      45.450  26.366  35.841  1.00  0.00     0.091 A 
ATOM     82  F   UNL A   1      43.332  25.917  34.837  1.00  0.00    -0.205 F 
ATOM     83  C   UNL A   1      46.612  27.154  35.897  1.00  0.00     0.022 A 
BRANCH  81  84
ATOM     84  S   UNL A   1      45.306  25.021  37.024  1.00  0.00     0.127 S 
ATOM     85  O   UNL A   1      45.252  23.855  36.145  1.00  0.00    -0.237 OA
ATOM     86  O   UNL A   1      46.542  25.145  37.797  1.00  0.00    -0.237 OA
ATOM     87  O   UNL A   1      44.094  25.292  37.786  1.00  0.00    -0.744 OA
ENDBRANCH  81  84
ENDBRANCH  54  77
ENDBRANCH  28  29
ENDBRANCH  21  23
ENDBRANCH  20  21
ENDBRANCH   1  20
TORSDOF 16
ENDMDL
MODEL 2
REMARK VINA RESULT:     -11.3      5.000      9.873
REMARK SMILES C[C@@H]1CCC[C@]1(Sc1ccc(F)cc1)C(=O)OCCOC(=O)c1ccc(-c2c3nc(c(-c4cccc(S(=O)(=O)[O-])c4F)c4ccc([nH]4)c(-c4cccc(S(=O)(=O)[O-])c4F)c4nc(c(-c5cccc(S(=O)(=O)[O-])c5F)c5ccc2[nH]5)C=C4)C=C3)cc1
REMARK SMILES IDX 19 1 18 2 17 3 15 4 16 5 6 6 1 7 2 8 3 9 4 10 5 11 7 12 8 13
REMARK SMILES IDX 9 14 14 15 10 16 13 17 11 18 12 19 20 20 21 21 22 22 23 23
REMARK SMILES IDX 24 24 85 25 25 26 84 27 26 28 27 29 28 30 78 31 29 32 83 33
REMARK SMILES IDX 77 34 79 35 30 36 82 37 76 38 75 39 31 41 63 42 43 43 62 44
REMARK SMILES IDX 44 45 47 46 61 47 80 48 45 49 46 50 60 52 81 53 48 54 32 55
REMARK SMILES IDX 33 56 41 57 34 58 36 59 42 60 35 61 37 62 38 63 39 64 40 65
REMARK SMILES IDX 64 66 65 67 73 68 66 69 68 70 74 71 67 72 69 73 70 74 71 75
REMARK SMILES IDX 72 76 49 77 50 78 58 79 51 80 53 81 59 82 52 83 54 84 55 85
REMARK SMILES IDX 56 86 57 87
REMARK H PARENT 79 40 47 51
REMARK Flexibility Score: inf
ROOT
ATOM      1  C   UNL A   1      36.099  21.425  24.493  1.00  0.00     0.275 C 
ENDROOT
BRANCH   1   2
ATOM      2  C   UNL A   1      36.443  22.562  23.530  1.00  0.00     0.274 C 
BRANCH   2   3
ATOM      3  O   UNL A   1      35.575  23.696  23.737  1.00  0.00    -0.461 OA
BRANCH   3   4
ATOM      4  C   UNL A   1      34.336  23.601  23.179  1.00  0.00     0.322 C 
ATOM      5  O   UNL A   1      34.140  23.362  21.990  1.00  0.00    -0.251 OA
BRANCH   4   6
ATOM      6  C   UNL A   1      33.195  23.940  24.165  1.00  0.00     0.120 C 
ATOM      7  C   UNL A   1      32.367  21.454  24.050  1.00  0.00     0.010 C 
ATOM      8  C   UNL A   1      32.466  22.756  24.858  1.00  0.00     0.014 C 
ATOM      9  C   UNL A   1      31.033  23.264  25.116  1.00  0.00     0.005 C 
ATOM     10  C   UNL A   1      30.763  24.383  24.122  1.00  0.00     0.002 C 
ATOM     11  C   UNL A   1      32.065  24.619  23.372  1.00  0.00     0.030 C 
BRANCH   6  12
ATOM     12  S   UNL A   1      34.078  25.060  25.408  1.00  0.00    -0.107 SA
BRANCH  12  13
ATOM     13  C   UNL A   1      33.269  26.629  25.270  1.00  0.00     0.009 A 
ATOM     14  C   UNL A   1      32.304  26.988  26.218  1.00  0.00     0.018 A 
ATOM     15  C   UNL A   1      33.639  27.548  24.282  1.00  0.00     0.018 A 
ATOM     16  C   UNL A   1      31.667  28.226  26.139  1.00  0.00     0.040 A 
ATOM     17  C   UNL A   1      33.006  28.791  24.205  1.00  0.00     0.040 A 
ATOM     18  C   UNL A   1      32.022  29.115  25.131  1.00  0.00     0.123 A 
ATOM     19  F   UNL A   1      31.411  30.305  25.060  1.00  0.00    -0.207 F 
ENDBRANCH  12  13
ENDBRANCH   6  12
ENDBRANCH   4   6
ENDBRANCH   3   4
ENDBRANCH   2   3
ENDBRANCH   1   2
BRANCH   1  20
ATOM     20  O   UNL A   1      36.761  21.642  25.750  1.00  0.00    -0.458 OA
BRANCH  20  21
ATOM     21  C   UNL A   1      38.096  21.410  25.766  1.00  0.00     0.338 C 
ATOM     22  O   UNL A   1      38.659  20.406  25.362  1.00  0.00    -0.246 OA
BRANCH  21  23
ATOM     23  C   UNL A   1      38.815  22.580  26.327  1.00  0.00     0.060 A 
ATOM     24  C   UNL A   1      38.354  23.881  26.124  1.00  0.00     0.016 A 
ATOM     25  C   UNL A   1      40.019  22.378  27.002  1.00  0.00     0.016 A 
ATOM     26  C   UNL A   1      39.133  24.977  26.501  1.00  0.00     0.010 A 
ATOM     27  C   UNL A   1      40.744  23.476  27.480  1.00  0.00     0.010 A 
ATOM     28  C   UNL A   1      40.329  24.791  27.207  1.00  0.00    -0.014 A 
BRANCH  28  29
ATOM     29  C   UNL A   1      41.147  25.950  27.673  1.00  0.00     0.031 A 
ATOM     30  C   UNL A   1      40.528  27.019  28.537  1.00  0.00     0.074 A 
ATOM     31  C   UNL A   1      42.429  26.088  27.276  1.00  0.00     0.049 A 
ATOM     32  N   UNL A   1      40.985  28.207  28.837  1.00  0.00    -0.248 NA
ATOM     33  C   UNL A   1      39.210  26.720  29.124  1.00  0.00     0.031 C 
ATOM     34  C   UNL A   1      43.164  25.136  26.443  1.00  0.00     0.029 A 
ATOM     35  N   UNL A   1      43.335  27.098  27.499  1.00  0.00    -0.354 N 
ATOM     36  C   UNL A   1      39.977  28.832  29.562  1.00  0.00     0.074 A 
ATOM     37  C   UNL A   1      38.893  27.881  29.682  1.00  0.00     0.031 C 
ATOM     38  C   UNL A   1      44.405  25.596  26.235  1.00  0.00     0.029 A 
ATOM     39  C   UNL A   1      44.531  26.916  26.843  1.00  0.00     0.049 A 
ATOM     40  H   UNL A   1      43.147  27.876  28.073  1.00  0.00     0.167 HD
ATOM     41  C   UNL A   1      39.959  30.081  30.083  1.00  0.00     0.034 A 
ATOM     42  C   UNL A   1      45.595  27.731  26.693  1.00  0.00     0.034 A 
ATOM     43  C   UNL A   1      41.076  30.987  30.051  1.00  0.00     0.049 A 
ATOM     44  C   UNL A   1      45.572  29.095  27.320  1.00  0.00     0.074 A 
ATOM     45  C   UNL A   1      41.176  32.244  30.623  1.00  0.00     0.029 A 
ATOM     46  N   UNL A   1      42.289  30.732  29.433  1.00  0.00    -0.354 N 
ATOM     47  N   UNL A   1      44.629  29.651  28.041  1.00  0.00    -0.248 NA
ATOM     48  C   UNL A   1      46.757  29.942  27.121  1.00  0.00     0.031 C 
ATOM     49  C   UNL A   1      42.450  32.751  30.345  1.00  0.00     0.029 A 
ATOM     50  C   UNL A   1      43.144  31.807  29.607  1.00  0.00     0.049 A 
ATOM     51  H   UNL A   1      42.511  29.907  28.941  1.00  0.00     0.167 HD
ATOM     52  C   UNL A   1      45.104  30.910  28.384  1.00  0.00     0.074 A 
ATOM     53  C   UNL A   1      46.434  31.023  27.820  1.00  0.00     0.031 C 
ATOM     54  C   UNL A   1      44.482  31.893  29.080  1.00  0.00     0.034 A 
BRANCH  41  55
ATOM     55  C   UNL A   1      38.704  30.546  30.772  1.00  0.00     0.023 A 
ATOM     56  C   UNL A   1      38.575  30.400  32.167  1.00  0.00     0.012 A 
ATOM     57  C   UNL A   1      37.692  31.209  30.049  1.00  0.00     0.148 A 
ATOM     58  C   UNL A   1      37.451  30.891  32.830  1.00  0.00     0.002 A 
ATOM     59  C   UNL A   1      36.592  31.729  30.722  1.00  0.00     0.091 A 
ATOM     60  F   UNL A   1      37.819  31.315  28.719  1.00  0.00    -0.205 F 
ATOM     61  C   UNL A   1      36.467  31.566  32.111  1.00  0.00     0.022 A 
BRANCH  59  62
ATOM     62  S   UNL A   1      35.316  32.682  29.888  1.00  0.00     0.127 S 
ATOM     63  O   UNL A   1      34.360  32.909  30.970  1.00  0.00    -0.237 OA
ATOM     64  O   UNL A   1      36.046  33.877  29.460  1.00  0.00    -0.237 OA
ATOM     65  O   UNL A   1      34.844  31.842  28.796  1.00  0.00    -0.744 OA
ENDBRANCH  59  62
ENDBRANCH  41  55
BRANCH  42  66
ATOM     66  C   UNL A   1      46.772  27.243  25.919  1.00  0.00     0.023 A 
ATOM     67  C   UNL A   1      46.874  27.557  24.551  1.00  0.00     0.012 A 
ATOM     68  C   UNL A   1      47.843  26.583  26.555  1.00  0.00     0.148 A 
ATOM     69  C   UNL A   1      48.025  27.230  23.832  1.00  0.00     0.002 A 
ATOM     70  C   UNL A   1      49.011  26.321  25.851  1.00  0.00     0.091 A 
ATOM     71  F   UNL A   1      47.713  26.271  27.853  1.00  0.00    -0.205 F 
ATOM     72  C   UNL A   1      49.100  26.633  24.486  1.00  0.00     0.022 A 
BRANCH  70  73
ATOM     73  S   UNL A   1      50.502  25.724  26.658  1.00  0.00     0.127 S 
ATOM     74  O   UNL A   1      50.768  26.788  27.621  1.00  0.00    -0.237 OA
ATOM     75  O   UNL A   1      50.046  24.462  27.243  1.00  0.00    -0.237 OA
ATOM     76  O   UNL A   1      51.485  25.568  25.596  1.00  0.00    -0.744 OA
ENDBRANCH  70  73
ENDBRANCH  42  66
BRANCH  54  77
ATOM     77  C   UNL A   1      45.219  33.189  29.277  1.00  0.00     0.023 A 
ATOM     78  C   UNL A   1      46.075  33.332  30.386  1.00  0.00     0.012 A 
ATOM     79  C   UNL A   1      45.149  34.218  28.318  1.00  0.00     0.148 A 
ATOM     80  C   UNL A   1      46.841  34.485  30.546  1.00  0.00     0.002 A 
ATOM     81  C   UNL A   1      45.943  35.349  28.463  1.00  0.00     0.091 A 
ATOM     82  F   UNL A   1      44.311  34.071  27.280  1.00  0.00    -0.205 F 
ATOM     83  C   UNL A   1      46.785  35.488  29.579  1.00  0.00     0.022 A 
BRANCH  81  84
ATOM     84  S   UNL A   1      45.997  36.646  27.220  1.00  0.00     0.127 S 
ATOM     85  O   UNL A   1      46.814  37.661  27.883  1.00  0.00    -0.237 OA
ATOM     86  O   UNL A   1      46.650  35.977  26.094  1.00  0.00    -0.237 OA
ATOM     87  O   UNL A   1      44.610  37.016  26.974  1.00  0.00    -0.744 OA
ENDBRANCH  81  84
ENDBRANCH  54  77
ENDBRANCH  28  29
ENDBRANCH  21  23
ENDBRANCH  20  21
ENDBRANCH   1  20
TORSDOF 16
ENDMDL
MODEL 3
REMARK VINA RESULT:     -11.3      1.557      2.061
REMARK SMILES C[C@@H]1CCC[C@]1(Sc1ccc(F)cc1)C(=O)OCCOC(=O)c1ccc(-c2c3nc(c(-c4cccc(S(=O)(=O)[O-])c4F)c4ccc([nH]4)c(-c4cccc(S(=O)(=O)[O-])c4F)c4nc(c(-c5cccc(S(=O)(=O)[O-])c5F)c5ccc2[nH]5)C=C4)C=C3)cc1
REMARK SMILES IDX 19 1 18 2 17 3 15 4 16 5 6 6 1 7 2 8 3 9 4 10 5 11 7 12 8 13
REMARK SMILES IDX 9 14 14 15 10 16 13 17 11 18 12 19 20 20 21 21 22 22 23 23
REMARK SMILES IDX 24 24 85 25 25 26 84 27 26 28 27 29 28 30 78 31 29 32 83 33
REMARK SMILES IDX 77 34 79 35 30 36 82 37 76 38 75 39 31 41 63 42 43 43 62 44
REMARK SMILES IDX 44 45 47 46 61 47 80 48 45 49 46 50 60 52 81 53 48 54 32 55
REMARK SMILES IDX 33 56 41 57 34 58 36 59 42 60 35 61 37 62 38 63 39 64 40 65
REMARK SMILES IDX 64 66 65 67 73 68 66 69 68 70 74 71 67 72 69 73 70 74 71 75
REMARK SMILES IDX 72 76 49 77 50 78 58 79 51 80 53 81 59 82 52 83 54 84 55 85
REMARK SMILES IDX 56 86 57 87
REMARK H PARENT 79 40 47 51
REMARK Flexibility Score: inf
ROOT
ATOM      1  C   UNL A   1      31.822  30.455  25.911  1.00  0.00     0.275 C 
ENDROOT
BRANCH   1   2
ATOM      2  C   UNL A   1      31.423  29.227  25.092  1.00  0.00     0.274 C 
BRANCH   2   3
ATOM      3  O   UNL A   1      32.314  28.122  25.347  1.00  0.00    -0.461 OA
BRANCH   3   4
ATOM      4  C   UNL A   1      31.718  26.958  25.729  1.00  0.00     0.322 C 
ATOM      5  O   UNL A   1      31.282  26.754  26.859  1.00  0.00    -0.251 OA
BRANCH   4   6
ATOM      6  C   UNL A   1      31.747  25.869  24.632  1.00  0.00     0.120 C 
ATOM      7  C   UNL A   1      29.228  26.357  24.091  1.00  0.00     0.010 C 
ATOM      8  C   UNL A   1      30.593  25.864  23.592  1.00  0.00     0.014 C 
ATOM      9  C   UNL A   1      30.439  24.387  23.174  1.00  0.00     0.005 C 
ATOM     10  C   UNL A   1      31.001  23.536  24.301  1.00  0.00     0.002 C 
ATOM     11  C   UNL A   1      31.598  24.499  25.315  1.00  0.00     0.030 C 
BRANCH   6  12
ATOM     12  S   UNL A   1      33.432  26.177  23.828  1.00  0.00    -0.107 SA
BRANCH  12  13
ATOM     13  C   UNL A   1      34.427  24.789  24.298  1.00  0.00     0.009 A 
ATOM     14  C   UNL A   1      34.986  24.750  25.580  1.00  0.00     0.018 A 
ATOM     15  C   UNL A   1      34.590  23.695  23.441  1.00  0.00     0.018 A 
ATOM     16  C   UNL A   1      35.758  23.659  25.978  1.00  0.00     0.040 A 
ATOM     17  C   UNL A   1      35.358  22.598  23.840  1.00  0.00     0.040 A 
ATOM     18  C   UNL A   1      35.940  22.594  25.103  1.00  0.00     0.123 A 
ATOM     19  F   UNL A   1      36.678  21.546  25.489  1.00  0.00    -0.207 F 
ENDBRANCH  12  13
ENDBRANCH   6  12
ENDBRANCH   4   6
ENDBRANCH   3   4
ENDBRANCH   2   3
ENDBRANCH   1   2
BRANCH   1  20
ATOM     20  O   UNL A   1      33.133  30.260  26.464  1.00  0.00    -0.458 OA
BRANCH  20  21
ATOM     21  C   UNL A   1      33.607  31.265  27.239  1.00  0.00     0.338 C 
ATOM     22  O   UNL A   1      33.027  32.304  27.507  1.00  0.00    -0.246 OA
BRANCH  21  23
ATOM     23  C   UNL A   1      34.951  30.922  27.763  1.00  0.00     0.060 A 
ATOM     24  C   UNL A   1      35.295  29.606  28.075  1.00  0.00     0.016 A 
ATOM     25  C   UNL A   1      35.861  31.947  28.023  1.00  0.00     0.016 A 
ATOM     26  C   UNL A   1      36.494  29.323  28.733  1.00  0.00     0.010 A 
ATOM     27  C   UNL A   1      37.110  31.646  28.580  1.00  0.00     0.010 A 
ATOM     28  C   UNL A   1      37.431  30.336  28.974  1.00  0.00    -0.014 A 
BRANCH  28  29
ATOM     29  C   UNL A   1      38.744  30.045  29.621  1.00  0.00     0.031 A 
ATOM     30  C   UNL A   1      39.705  29.071  28.987  1.00  0.00     0.074 A 
ATOM     31  C   UNL A   1      39.060  30.599  30.810  1.00  0.00     0.049 A 
ATOM     32  N   UNL A   1      40.764  28.502  29.501  1.00  0.00    -0.248 NA
ATOM     33  C   UNL A   1      39.423  28.665  27.599  1.00  0.00     0.031 C 
ATOM     34  C   UNL A   1      38.235  31.559  31.543  1.00  0.00     0.029 A 
ATOM     35  N   UNL A   1      40.152  30.414  31.626  1.00  0.00    -0.354 N 
ATOM     36  C   UNL A   1      41.219  27.605  28.542  1.00  0.00     0.074 A 
ATOM     37  C   UNL A   1      40.336  27.724  27.401  1.00  0.00     0.031 C 
ATOM     38  C   UNL A   1      38.848  31.889  32.687  1.00  0.00     0.029 A 
ATOM     39  C   UNL A   1      40.069  31.100  32.816  1.00  0.00     0.049 A 
ATOM     40  H   UNL A   1      40.919  29.847  31.382  1.00  0.00     0.167 HD
ATOM     41  C   UNL A   1      42.278  26.764  28.604  1.00  0.00     0.034 A 
ATOM     42  C   UNL A   1      40.847  31.065  33.917  1.00  0.00     0.034 A 
ATOM     43  C   UNL A   1      43.215  26.721  29.696  1.00  0.00     0.049 A 
ATOM     44  C   UNL A   1      42.044  30.159  33.945  1.00  0.00     0.074 A 
ATOM     45  C   UNL A   1      44.362  25.956  29.810  1.00  0.00     0.029 A 
ATOM     46  N   UNL A   1      43.125  27.482  30.849  1.00  0.00    -0.354 N 
ATOM     47  N   UNL A   1      42.484  29.352  33.011  1.00  0.00    -0.248 NA
ATOM     48  C   UNL A   1      42.855  30.160  35.172  1.00  0.00     0.031 C 
ATOM     49  C   UNL A   1      44.965  26.251  31.037  1.00  0.00     0.029 A 
ATOM     50  C   UNL A   1      44.195  27.205  31.682  1.00  0.00     0.049 A 
ATOM     51  H   UNL A   1      42.406  28.125  31.049  1.00  0.00     0.167 HD
ATOM     52  C   UNL A   1      43.622  28.751  33.533  1.00  0.00     0.074 A 
ATOM     53  C   UNL A   1      43.824  29.312  34.853  1.00  0.00     0.031 C 
ATOM     54  C   UNL A   1      44.412  27.800  32.976  1.00  0.00     0.034 A 
BRANCH  41  55
ATOM     55  C   UNL A   1      42.516  25.834  27.444  1.00  0.00     0.023 A 
ATOM     56  C   UNL A   1      43.328  26.249  26.370  1.00  0.00     0.012 A 
ATOM     57  C   UNL A   1      42.010  24.519  27.462  1.00  0.00     0.148 A 
ATOM     58  C   UNL A   1      43.619  25.374  25.323  1.00  0.00     0.002 A 
ATOM     59  C   UNL A   1      42.336  23.641  26.434  1.00  0.00     0.091 A 
ATOM     60  F   UNL A   1      41.218  24.151  28.479  1.00  0.00    -0.205 F 
ATOM     61  C   UNL A   1      43.134  24.069  25.361  1.00  0.00     0.022 A 
BRANCH  59  62
ATOM     62  S   UNL A   1      41.821  21.919  26.441  1.00  0.00     0.127 S 
ATOM     63  O   UNL A   1      42.649  21.358  25.375  1.00  0.00    -0.237 OA
ATOM     64  O   UNL A   1      42.190  21.487  27.790  1.00  0.00    -0.237 OA
ATOM     65  O   UNL A   1      40.387  21.932  26.185  1.00  0.00    -0.744 OA
ENDBRANCH  59  62
ENDBRANCH  41  55
BRANCH  42  66
ATOM     66  C   UNL A   1      40.502  31.945  35.070  1.00  0.00     0.023 A 
ATOM     67  C   UNL A   1      41.036  33.245  35.128  1.00  0.00     0.012 A 
ATOM     68  C   UNL A   1      39.555  31.546  36.035  1.00  0.00     0.148 A 
ATOM     69  C   UNL A   1      40.627  34.136  36.121  1.00  0.00     0.002 A 
ATOM     70  C   UNL A   1      39.102  32.459  36.979  1.00  0.00     0.091 A 
ATOM     71  F   UNL A   1      39.078  30.294  35.976  1.00  0.00    -0.205 F 
ATOM     72  C   UNL A   1      39.646  33.751  37.032  1.00  0.00     0.022 A 
BRANCH  70  73
ATOM     73  S   UNL A   1      37.716  32.104  38.067  1.00  0.00     0.127 S 
ATOM     74  O   UNL A   1      37.402  30.724  37.711  1.00  0.00    -0.237 OA
ATOM     75  O   UNL A   1      38.316  32.279  39.391  1.00  0.00    -0.237 OA
ATOM     76  O   UNL A   1      36.698  33.093  37.738  1.00  0.00    -0.744 OA
ENDBRANCH  70  73
ENDBRANCH  42  66
BRANCH  54  77
ATOM     77  C   UNL A   1      45.572  27.289  33.785  1.00  0.00     0.023 A 
ATOM     78  C   UNL A   1      46.791  27.995  33.763  1.00  0.00     0.012 A 
ATOM     79  C   UNL A   1      45.429  26.181  34.644  1.00  0.00     0.148 A 
ATOM     80  C   UNL A   1      47.854  27.599  34.572  1.00  0.00     0.002 A 
ATOM     81  C   UNL A   1      46.480  25.815  35.475  1.00  0.00     0.091 A 
ATOM     82  F   UNL A   1      44.267  25.510  34.634  1.00  0.00    -0.205 F 
ATOM     83  C   UNL A   1      47.695  26.518  35.437  1.00  0.00     0.022 A 
BRANCH  81  84
ATOM     84  S   UNL A   1      46.328  24.490  36.681  1.00  0.00     0.127 S 
ATOM     85  O   UNL A   1      45.212  24.958  37.500  1.00  0.00    -0.237 OA
ATOM     86  O   UNL A   1      46.024  23.332  35.840  1.00  0.00    -0.237 OA
ATOM     87  O   UNL A   1      47.619  24.419  37.354  1.00  0.00    -0.744 OA
ENDBRANCH  81  84
ENDBRANCH  54  77
ENDBRANCH  28  29
ENDBRANCH  21  23
ENDBRANCH  20  21
ENDBRANCH   1  20
TORSDOF 16
ENDMDL
