MODEL 1
REMARK VINA RESULT:     -12.3      0.000      0.000
REMARK SMILES O=C(OCCOC(=O)[C@@H]1CC(=O)N(c2ccc(Cl)cc2C(=O)c2ccccc2)C1)c1ccc(-c2c3nc(c(-c4cccc(S(=O)(=O)[O-])c4F)c4ccc([nH]4)c(-c4cccc(S(=O)(=O)[O-])c4F)c4nc(c(-c5cccc(S(=O)(=O)[O-])c5F)c5ccc2[nH]5)C=C4)C=C3)cc1
REMARK SMILES IDX 4 1 3 2 2 3 1 4 30 5 31 6 92 7 32 8 91 9 33 10 34 11 35 12
REMARK SMILES IDX 85 13 36 14 90 15 84 16 86 17 37 18 89 19 83 20 82 21 38 23
REMARK SMILES IDX 70 24 50 25 69 26 51 27 54 28 68 29 87 30 52 31 53 32 67 34
REMARK SMILES IDX 88 35 55 36 39 37 40 38 48 39 41 40 43 41 49 42 42 43 44 44
REMARK SMILES IDX 45 45 46 46 47 47 71 48 72 49 80 50 73 51 75 52 81 53 74 54
REMARK SMILES IDX 76 55 77 56 78 57 79 58 56 59 57 60 65 61 58 62 60 63 66 64
REMARK SMILES IDX 59 65 61 66 62 67 63 68 64 69 5 70 6 71 7 72 8 73 9 74 10 75
REMARK SMILES IDX 29 76 11 77 13 78 12 79 14 80 15 81 20 82 16 83 19 84 17 85
REMARK SMILES IDX 18 86 21 87 22 88 23 89 24 90 28 91 25 92 27 93 26 94
REMARK H PARENT 86 22 54 33
REMARK Flexibility Score: inf
ROOT
ATOM      1  C   UNL A   1      31.570  32.765  26.905  1.00  0.00     0.275 C 
ENDROOT
BRANCH   1   2
ATOM      2  O   UNL A   1      32.826  33.378  27.236  1.00  0.00    -0.458 OA
BRANCH   2   3
ATOM      3  C   UNL A   1      33.351  33.568  28.474  1.00  0.00     0.338 C 
ATOM      4  O   UNL A   1      32.872  34.409  29.227  1.00  0.00    -0.246 OA
BRANCH   3   5
ATOM      5  C   UNL A   1      34.644  32.931  28.841  1.00  0.00     0.060 A 
ATOM      6  C   UNL A   1      34.745  31.761  29.593  1.00  0.00     0.016 A 
ATOM      7  C   UNL A   1      35.820  33.526  28.347  1.00  0.00     0.016 A 
ATOM      8  C   UNL A   1      35.950  31.086  29.687  1.00  0.00     0.010 A 
ATOM      9  C   UNL A   1      37.059  32.898  28.516  1.00  0.00     0.010 A 
ATOM     10  C   UNL A   1      37.113  31.662  29.173  1.00  0.00    -0.014 A 
BRANCH  10  11
ATOM     11  C   UNL A   1      38.363  31.112  29.717  1.00  0.00     0.031 A 
ATOM     12  C   UNL A   1      38.650  31.516  31.132  1.00  0.00     0.074 A 
ATOM     13  C   UNL A   1      39.052  30.147  29.088  1.00  0.00     0.049 A 
ATOM     14  N   UNL A   1      39.469  30.983  31.991  1.00  0.00    -0.248 NA
ATOM     15  C   UNL A   1      37.833  32.621  31.675  1.00  0.00     0.031 C 
ATOM     16  C   UNL A   1      38.765  29.620  27.754  1.00  0.00     0.029 A 
ATOM     17  N   UNL A   1      40.126  29.411  29.511  1.00  0.00    -0.354 N 
ATOM     18  C   UNL A   1      39.256  31.678  33.172  1.00  0.00     0.074 A 
ATOM     19  C   UNL A   1      38.226  32.658  32.933  1.00  0.00     0.031 C 
ATOM     20  C   UNL A   1      39.656  28.654  27.460  1.00  0.00     0.029 A 
ATOM     21  C   UNL A   1      40.574  28.498  28.585  1.00  0.00     0.049 A 
ATOM     22  H   UNL A   1      40.540  29.523  30.398  1.00  0.00     0.167 HD
ATOM     23  C   UNL A   1      39.875  31.519  34.359  1.00  0.00     0.034 A 
ATOM     24  C   UNL A   1      41.614  27.644  28.658  1.00  0.00     0.034 A 
ATOM     25  C   UNL A   1      40.960  30.608  34.548  1.00  0.00     0.049 A 
ATOM     26  C   UNL A   1      42.385  27.588  29.954  1.00  0.00     0.074 A 
ATOM     27  C   UNL A   1      41.744  30.422  35.666  1.00  0.00     0.029 A 
ATOM     28  N   UNL A   1      41.445  29.763  33.559  1.00  0.00    -0.354 N 
ATOM     29  N   UNL A   1      42.143  28.210  31.086  1.00  0.00    -0.248 NA
ATOM     30  C   UNL A   1      43.549  26.694  30.000  1.00  0.00     0.031 C 
ATOM     31  C   UNL A   1      42.743  29.501  35.335  1.00  0.00     0.029 A 
ATOM     32  C   UNL A   1      42.538  29.067  34.032  1.00  0.00     0.049 A 
ATOM     33  H   UNL A   1      41.067  29.675  32.654  1.00  0.00     0.167 HD
ATOM     34  C   UNL A   1      43.091  27.747  31.990  1.00  0.00     0.074 A 
ATOM     35  C   UNL A   1      43.905  26.783  31.274  1.00  0.00     0.031 C 
ATOM     36  C   UNL A   1      43.284  28.083  33.290  1.00  0.00     0.034 A 
BRANCH  23  37
ATOM     37  C   UNL A   1      39.443  32.433  35.465  1.00  0.00     0.023 A 
ATOM     38  C   UNL A   1      38.386  32.064  36.325  1.00  0.00     0.012 A 
ATOM     39  C   UNL A   1      40.030  33.704  35.590  1.00  0.00     0.148 A 
ATOM     40  C   UNL A   1      37.897  32.967  37.268  1.00  0.00     0.002 A 
ATOM     41  C   UNL A   1      39.568  34.579  36.561  1.00  0.00     0.091 A 
ATOM     42  F   UNL A   1      40.995  34.046  34.726  1.00  0.00    -0.205 F 
ATOM     43  C   UNL A   1      38.492  34.221  37.390  1.00  0.00     0.022 A 
BRANCH  41  44
ATOM     44  S   UNL A   1      40.301  36.195  36.826  1.00  0.00     0.127 S 
ATOM     45  O   UNL A   1      39.985  36.872  35.569  1.00  0.00    -0.237 OA
ATOM     46  O   UNL A   1      39.554  36.677  37.987  1.00  0.00    -0.237 OA
ATOM     47  O   UNL A   1      41.718  35.961  37.064  1.00  0.00    -0.744 OA
ENDBRANCH  41  44
ENDBRANCH  23  37
BRANCH  24  48
ATOM     48  C   UNL A   1      41.988  26.778  27.501  1.00  0.00     0.023 A 
ATOM     49  C   UNL A   1      42.600  27.338  26.361  1.00  0.00     0.012 A 
ATOM     50  C   UNL A   1      41.698  25.399  27.507  1.00  0.00     0.148 A 
ATOM     51  C   UNL A   1      42.876  26.552  25.239  1.00  0.00     0.002 A 
ATOM     52  C   UNL A   1      42.017  24.612  26.406  1.00  0.00     0.091 A 
ATOM     53  F   UNL A   1      41.100  24.883  28.590  1.00  0.00    -0.205 F 
ATOM     54  C   UNL A   1      42.590  25.189  25.263  1.00  0.00     0.022 A 
BRANCH  52  55
ATOM     55  S   UNL A   1      41.767  22.833  26.388  1.00  0.00     0.127 S 
ATOM     56  O   UNL A   1      40.310  22.738  26.345  1.00  0.00    -0.237 OA
ATOM     57  O   UNL A   1      42.448  22.446  25.152  1.00  0.00    -0.237 OA
ATOM     58  O   UNL A   1      42.397  22.336  27.605  1.00  0.00    -0.744 OA
ENDBRANCH  52  55
ENDBRANCH  24  48
BRANCH  36  59
ATOM     59  C   UNL A   1      44.368  27.363  34.041  1.00  0.00     0.023 A 
ATOM     60  C   UNL A   1      45.677  27.877  34.069  1.00  0.00     0.012 A 
ATOM     61  C   UNL A   1      44.046  26.227  34.809  1.00  0.00     0.148 A 
ATOM     62  C   UNL A   1      46.663  27.248  34.828  1.00  0.00     0.002 A 
ATOM     63  C   UNL A   1      45.017  25.645  35.612  1.00  0.00     0.091 A 
ATOM     64  F   UNL A   1      42.795  25.747  34.751  1.00  0.00    -0.205 F 
ATOM     65  C   UNL A   1      46.329  26.144  35.610  1.00  0.00     0.022 A 
BRANCH  63  66
ATOM     66  S   UNL A   1      44.637  24.304  36.742  1.00  0.00     0.127 S 
ATOM     67  O   UNL A   1      43.524  24.864  37.505  1.00  0.00    -0.237 OA
ATOM     68  O   UNL A   1      44.269  23.223  35.827  1.00  0.00    -0.237 OA
ATOM     69  O   UNL A   1      45.857  24.061  37.501  1.00  0.00    -0.744 OA
ENDBRANCH  63  66
ENDBRANCH  36  59
ENDBRANCH  10  11
ENDBRANCH   3   5
ENDBRANCH   2   3
ENDBRANCH   1   2
BRANCH   1  70
ATOM     70  C   UNL A   1      31.607  31.282  26.509  1.00  0.00     0.274 C 
BRANCH  70  71
ATOM     71  O   UNL A   1      32.673  30.474  27.033  1.00  0.00    -0.462 OA
BRANCH  71  72
ATOM     72  C   UNL A   1      32.464  29.127  27.088  1.00  0.00     0.311 C 
ATOM     73  O   UNL A   1      31.381  28.603  27.296  1.00  0.00    -0.252 OA
BRANCH  72  74
ATOM     74  C   UNL A   1      33.738  28.373  26.747  1.00  0.00     0.128 C 
ATOM     75  C   UNL A   1      34.346  28.918  25.464  1.00  0.00     0.117 C 
ATOM     76  C   UNL A   1      33.562  26.902  26.464  1.00  0.00     0.141 C 
ATOM     77  C   UNL A   1      33.780  28.003  24.408  1.00  0.00     0.227 C 
ATOM     78  N   UNL A   1      33.313  26.839  25.046  1.00  0.00    -0.311 N 
ATOM     79  O   UNL A   1      33.781  28.269  23.220  1.00  0.00    -0.274 OA
BRANCH  78  80
ATOM     80  C   UNL A   1      32.935  25.651  24.362  1.00  0.00     0.055 A 
ATOM     81  C   UNL A   1      33.955  24.890  23.752  1.00  0.00     0.028 A 
ATOM     82  C   UNL A   1      31.620  25.150  24.278  1.00  0.00     0.048 A 
ATOM     83  C   UNL A   1      33.691  23.692  23.083  1.00  0.00     0.023 A 
ATOM     84  C   UNL A   1      31.360  23.941  23.599  1.00  0.00     0.035 A 
ATOM     85  C   UNL A   1      32.390  23.227  23.001  1.00  0.00     0.041 A 
ATOM     86  Cl  UNL A   1      32.048  21.778  22.140  1.00  0.00    -0.084 Cl
BRANCH  82  87
ATOM     87  C   UNL A   1      30.406  25.787  24.832  1.00  0.00     0.195 C 
ATOM     88  O   UNL A   1      29.988  25.378  25.915  1.00  0.00    -0.289 OA
BRANCH  87  89
ATOM     89  C   UNL A   1      29.626  26.839  24.133  1.00  0.00     0.023 A 
ATOM     90  C   UNL A   1      30.335  27.964  23.678  1.00  0.00     0.012 A 
ATOM     91  C   UNL A   1      28.249  26.756  23.919  1.00  0.00     0.012 A 
ATOM     92  C   UNL A   1      29.671  29.010  23.044  1.00  0.00     0.001 A 
ATOM     93  C   UNL A   1      27.587  27.809  23.283  1.00  0.00     0.001 A 
ATOM     94  C   UNL A   1      28.292  28.940  22.869  1.00  0.00     0.000 A 
ENDBRANCH  87  89
ENDBRANCH  82  87
ENDBRANCH  78  80
ENDBRANCH  72  74
ENDBRANCH  71  72
ENDBRANCH  70  71
ENDBRANCH   1  70
TORSDOF 17
ENDMDL
MODEL 2
REMARK VINA RESULT:     -12.3      1.579      2.162
REMARK SMILES O=C(OCCOC(=O)[C@@H]1CC(=O)N(c2ccc(Cl)cc2C(=O)c2ccccc2)C1)c1ccc(-c2c3nc(c(-c4cccc(S(=O)(=O)[O-])c4F)c4ccc([nH]4)c(-c4cccc(S(=O)(=O)[O-])c4F)c4nc(c(-c5cccc(S(=O)(=O)[O-])c5F)c5ccc2[nH]5)C=C4)C=C3)cc1
REMARK SMILES IDX 4 1 3 2 2 3 1 4 30 5 31 6 92 7 32 8 91 9 33 10 34 11 35 12
REMARK SMILES IDX 85 13 36 14 90 15 84 16 86 17 37 18 89 19 83 20 82 21 38 23
REMARK SMILES IDX 70 24 50 25 69 26 51 27 54 28 68 29 87 30 52 31 53 32 67 34
REMARK SMILES IDX 88 35 55 36 39 37 40 38 48 39 41 40 43 41 49 42 42 43 44 44
REMARK SMILES IDX 45 45 46 46 47 47 71 48 72 49 80 50 73 51 75 52 81 53 74 54
REMARK SMILES IDX 76 55 77 56 78 57 79 58 56 59 57 60 65 61 58 62 60 63 66 64
REMARK SMILES IDX 59 65 61 66 62 67 63 68 64 69 5 70 6 71 7 72 8 73 9 74 10 75
REMARK SMILES IDX 29 76 11 77 13 78 12 79 14 80 15 81 20 82 16 83 19 84 17 85
REMARK SMILES IDX 18 86 21 87 22 88 23 89 24 90 28 91 25 92 27 93 26 94
REMARK H PARENT 86 22 54 33
REMARK Flexibility Score: inf
ROOT
ATOM      1  C   UNL A   1      32.133  33.069  26.966  1.00  0.00     0.275 C 
ENDROOT
BRANCH   1   2
ATOM      2  O   UNL A   1      32.217  33.584  28.304  1.00  0.00    -0.458 OA
BRANCH   2   3
ATOM      3  C   UNL A   1      33.246  34.272  28.861  1.00  0.00     0.338 C 
ATOM      4  O   UNL A   1      33.219  35.497  28.909  1.00  0.00    -0.246 OA
BRANCH   3   5
ATOM      5  C   UNL A   1      34.511  33.569  29.207  1.00  0.00     0.060 A 
ATOM      6  C   UNL A   1      34.602  32.570  30.174  1.00  0.00     0.016 A 
ATOM      7  C   UNL A   1      35.660  33.907  28.467  1.00  0.00     0.016 A 
ATOM      8  C   UNL A   1      35.740  31.787  30.274  1.00  0.00     0.010 A 
ATOM      9  C   UNL A   1      36.845  33.181  28.624  1.00  0.00     0.010 A 
ATOM     10  C   UNL A   1      36.871  32.104  29.519  1.00  0.00    -0.014 A 
BRANCH  10  11
ATOM     11  C   UNL A   1      38.126  31.527  30.023  1.00  0.00     0.031 A 
ATOM     12  C   UNL A   1      38.468  31.924  31.427  1.00  0.00     0.074 A 
ATOM     13  C   UNL A   1      38.773  30.547  29.372  1.00  0.00     0.049 A 
ATOM     14  N   UNL A   1      39.302  31.374  32.259  1.00  0.00    -0.248 NA
ATOM     15  C   UNL A   1      37.693  33.046  31.996  1.00  0.00     0.031 C 
ATOM     16  C   UNL A   1      38.431  30.026  28.049  1.00  0.00     0.029 A 
ATOM     17  N   UNL A   1      39.844  29.788  29.761  1.00  0.00    -0.354 N 
ATOM     18  C   UNL A   1      39.143  32.073  33.447  1.00  0.00     0.074 A 
ATOM     19  C   UNL A   1      38.128  33.076  33.240  1.00  0.00     0.031 C 
ATOM     20  C   UNL A   1      39.291  29.041  27.726  1.00  0.00     0.029 A 
ATOM     21  C   UNL A   1      40.241  28.866  28.821  1.00  0.00     0.049 A 
ATOM     22  H   UNL A   1      40.289  29.891  30.633  1.00  0.00     0.167 HD
ATOM     23  C   UNL A   1      39.797  31.901  34.612  1.00  0.00     0.034 A 
ATOM     24  C   UNL A   1      41.265  27.989  28.860  1.00  0.00     0.034 A 
ATOM     25  C   UNL A   1      40.867  30.967  34.767  1.00  0.00     0.049 A 
ATOM     26  C   UNL A   1      42.076  27.917  30.131  1.00  0.00     0.074 A 
ATOM     27  C   UNL A   1      41.683  30.764  35.859  1.00  0.00     0.029 A 
ATOM     28  N   UNL A   1      41.302  30.112  33.763  1.00  0.00    -0.354 N 
ATOM     29  N   UNL A   1      41.885  28.543  31.270  1.00  0.00    -0.248 NA
ATOM     30  C   UNL A   1      43.221  26.997  30.139  1.00  0.00     0.031 C 
ATOM     31  C   UNL A   1      42.650  29.821  35.496  1.00  0.00     0.029 A 
ATOM     32  C   UNL A   1      42.393  29.392  34.201  1.00  0.00     0.049 A 
ATOM     33  H   UNL A   1      40.893  30.032  32.871  1.00  0.00     0.167 HD
ATOM     34  C   UNL A   1      42.851  28.060  32.143  1.00  0.00     0.074 A 
ATOM     35  C   UNL A   1      43.621  27.079  31.402  1.00  0.00     0.031 C 
ATOM     36  C   UNL A   1      43.093  28.392  33.435  1.00  0.00     0.034 A 
BRANCH  23  37
ATOM     37  C   UNL A   1      39.420  32.824  35.732  1.00  0.00     0.023 A 
ATOM     38  C   UNL A   1      39.927  34.140  35.774  1.00  0.00     0.012 A 
ATOM     39  C   UNL A   1      38.633  32.348  36.794  1.00  0.00     0.148 A 
ATOM     40  C   UNL A   1      39.685  34.954  36.880  1.00  0.00     0.002 A 
ATOM     41  C   UNL A   1      38.359  33.179  37.870  1.00  0.00     0.091 A 
ATOM     42  F   UNL A   1      38.209  31.077  36.752  1.00  0.00    -0.205 F 
ATOM     43  C   UNL A   1      38.896  34.475  37.923  1.00  0.00     0.022 A 
BRANCH  41  44
ATOM     44  S   UNL A   1      37.314  32.670  39.236  1.00  0.00     0.127 S 
ATOM     45  O   UNL A   1      37.546  33.745  40.200  1.00  0.00    -0.237 OA
ATOM     46  O   UNL A   1      35.988  32.676  38.619  1.00  0.00    -0.237 OA
ATOM     47  O   UNL A   1      37.794  31.358  39.645  1.00  0.00    -0.744 OA
ENDBRANCH  41  44
ENDBRANCH  23  37
BRANCH  24  48
ATOM     48  C   UNL A   1      41.582  27.115  27.693  1.00  0.00     0.023 A 
ATOM     49  C   UNL A   1      42.155  27.664  26.527  1.00  0.00     0.012 A 
ATOM     50  C   UNL A   1      41.276  25.740  27.715  1.00  0.00     0.148 A 
ATOM     51  C   UNL A   1      42.376  26.871  25.398  1.00  0.00     0.002 A 
ATOM     52  C   UNL A   1      41.542  24.946  26.605  1.00  0.00     0.091 A 
ATOM     53  F   UNL A   1      40.716  25.234  28.824  1.00  0.00    -0.205 F 
ATOM     54  C   UNL A   1      42.076  25.512  25.438  1.00  0.00     0.022 A 
BRANCH  52  55
ATOM     55  S   UNL A   1      41.271  23.170  26.603  1.00  0.00     0.127 S 
ATOM     56  O   UNL A   1      42.070  22.748  25.455  1.00  0.00    -0.237 OA
ATOM     57  O   UNL A   1      41.809  22.781  27.906  1.00  0.00    -0.237 OA
ATOM     58  O   UNL A   1      39.830  22.994  26.468  1.00  0.00    -0.744 OA
ENDBRANCH  52  55
ENDBRANCH  24  48
BRANCH  36  59
ATOM     59  C   UNL A   1      44.186  27.648  34.152  1.00  0.00     0.023 A 
ATOM     60  C   UNL A   1      45.475  28.202  34.255  1.00  0.00     0.012 A 
ATOM     61  C   UNL A   1      43.888  26.441  34.814  1.00  0.00     0.148 A 
ATOM     62  C   UNL A   1      46.465  27.546  34.984  1.00  0.00     0.002 A 
ATOM     63  C   UNL A   1      44.861  25.828  35.590  1.00  0.00     0.091 A 
ATOM     64  F   UNL A   1      42.657  25.926  34.684  1.00  0.00    -0.205 F 
ATOM     65  C   UNL A   1      46.154  26.369  35.663  1.00  0.00     0.022 A 
BRANCH  63  66
ATOM     66  S   UNL A   1      44.504  24.384  36.595  1.00  0.00     0.127 S 
ATOM     67  O   UNL A   1      45.845  23.946  36.972  1.00  0.00    -0.237 OA
ATOM     68  O   UNL A   1      43.716  24.954  37.688  1.00  0.00    -0.237 OA
ATOM     69  O   UNL A   1      43.765  23.469  35.734  1.00  0.00    -0.744 OA
ENDBRANCH  63  66
ENDBRANCH  36  59
ENDBRANCH  10  11
ENDBRANCH   3   5
ENDBRANCH   2   3
ENDBRANCH   1   2
BRANCH   1  70
ATOM     70  C   UNL A   1      32.261  31.548  26.802  1.00  0.00     0.274 C 
BRANCH  70  71
ATOM     71  O   UNL A   1      33.198  30.858  27.645  1.00  0.00    -0.462 OA
BRANCH  71  72
ATOM     72  C   UNL A   1      33.656  29.650  27.208  1.00  0.00     0.311 C 
ATOM     73  O   UNL A   1      34.516  28.991  27.772  1.00  0.00    -0.252 OA
BRANCH  72  74
ATOM     74  C   UNL A   1      32.874  29.189  25.991  1.00  0.00     0.128 C 
ATOM     75  C   UNL A   1      31.700  28.320  26.415  1.00  0.00     0.117 C 
ATOM     76  C   UNL A   1      33.636  28.314  25.026  1.00  0.00     0.141 C 
ATOM     77  C   UNL A   1      32.259  26.924  26.314  1.00  0.00     0.227 C 
ATOM     78  N   UNL A   1      33.409  26.974  25.504  1.00  0.00    -0.311 N 
ATOM     79  O   UNL A   1      31.744  25.956  26.843  1.00  0.00    -0.274 OA
BRANCH  78  80
ATOM     80  C   UNL A   1      34.068  25.826  24.983  1.00  0.00     0.055 A 
ATOM     81  C   UNL A   1      34.972  25.148  25.828  1.00  0.00     0.028 A 
ATOM     82  C   UNL A   1      33.858  25.287  23.698  1.00  0.00     0.048 A 
ATOM     83  C   UNL A   1      35.647  23.993  25.422  1.00  0.00     0.023 A 
ATOM     84  C   UNL A   1      34.543  24.122  23.294  1.00  0.00     0.035 A 
ATOM     85  C   UNL A   1      35.436  23.490  24.150  1.00  0.00     0.041 A 
ATOM     86  Cl  UNL A   1      36.295  22.096  23.625  1.00  0.00    -0.084 Cl
BRANCH  82  87
ATOM     87  C   UNL A   1      32.968  25.838  22.654  1.00  0.00     0.195 C 
ATOM     88  O   UNL A   1      33.420  25.949  21.515  1.00  0.00    -0.289 OA
BRANCH  87  89
ATOM     89  C   UNL A   1      31.589  26.327  22.909  1.00  0.00     0.023 A 
ATOM     90  C   UNL A   1      31.283  27.630  22.482  1.00  0.00     0.012 A 
ATOM     91  C   UNL A   1      30.611  25.559  23.544  1.00  0.00     0.012 A 
ATOM     92  C   UNL A   1      30.024  28.174  22.716  1.00  0.00     0.001 A 
ATOM     93  C   UNL A   1      29.349  26.110  23.777  1.00  0.00     0.001 A 
ATOM     94  C   UNL A   1      29.065  27.419  23.386  1.00  0.00     0.000 A 
ENDBRANCH  87  89
ENDBRANCH  82  87
ENDBRANCH  78  80
ENDBRANCH  72  74
ENDBRANCH  71  72
ENDBRANCH  70  71
ENDBRANCH   1  70
TORSDOF 17
ENDMDL
MODEL 3
REMARK VINA RESULT:     -12.3      4.751     10.172
REMARK SMILES O=C(OCCOC(=O)[C@@H]1CC(=O)N(c2ccc(Cl)cc2C(=O)c2ccccc2)C1)c1ccc(-c2c3nc(c(-c4cccc(S(=O)(=O)[O-])c4F)c4ccc([nH]4)c(-c4cccc(S(=O)(=O)[O-])c4F)c4nc(c(-c5cccc(S(=O)(=O)[O-])c5F)c5ccc2[nH]5)C=C4)C=C3)cc1
REMARK SMILES IDX 4 1 3 2 2 3 1 4 30 5 31 6 92 7 32 8 91 9 33 10 34 11 35 12
REMARK SMILES IDX 85 13 36 14 90 15 84 16 86 17 37 18 89 19 83 20 82 21 38 23
REMARK SMILES IDX 70 24 50 25 69 26 51 27 54 28 68 29 87 30 52 31 53 32 67 34
REMARK SMILES IDX 88 35 55 36 39 37 40 38 48 39 41 40 43 41 49 42 42 43 44 44
REMARK SMILES IDX 45 45 46 46 47 47 71 48 72 49 80 50 73 51 75 52 81 53 74 54
REMARK SMILES IDX 76 55 77 56 78 57 79 58 56 59 57 60 65 61 58 62 60 63 66 64
REMARK SMILES IDX 59 65 61 66 62 67 63 68 64 69 5 70 6 71 7 72 8 73 9 74 10 75
REMARK SMILES IDX 29 76 11 77 13 78 12 79 14 80 15 81 20 82 16 83 19 84 17 85
REMARK SMILES IDX 18 86 21 87 22 88 23 89 24 90 28 91 25 92 27 93 26 94
REMARK H PARENT 86 22 54 33
REMARK Flexibility Score: inf
ROOT
ATOM      1  C   UNL A   1      36.782  21.544  25.671  1.00  0.00     0.275 C 
ENDROOT
BRANCH   1   2
ATOM      2  O   UNL A   1      38.129  21.516  25.173  1.00  0.00    -0.458 OA
BRANCH   2   3
ATOM      3  C   UNL A   1      39.276  21.466  25.897  1.00  0.00     0.338 C 
ATOM      4  O   UNL A   1      39.776  20.385  26.193  1.00  0.00    -0.246 OA
BRANCH   3   5
ATOM      5  C   UNL A   1      39.809  22.700  26.534  1.00  0.00     0.060 A 
ATOM      6  C   UNL A   1      39.429  23.989  26.162  1.00  0.00     0.016 A 
ATOM      7  C   UNL A   1      40.704  22.538  27.608  1.00  0.00     0.016 A 
ATOM      8  C   UNL A   1      39.764  25.078  26.950  1.00  0.00     0.010 A 
ATOM      9  C   UNL A   1      41.123  23.642  28.358  1.00  0.00     0.010 A 
ATOM     10  C   UNL A   1      40.630  24.913  28.033  1.00  0.00    -0.014 A 
BRANCH  10  11
ATOM     11  C   UNL A   1      41.272  26.150  28.499  1.00  0.00     0.031 A 
ATOM     12  C   UNL A   1      42.655  26.368  27.964  1.00  0.00     0.074 A 
ATOM     13  C   UNL A   1      40.589  27.109  29.146  1.00  0.00     0.049 A 
ATOM     14  N   UNL A   1      43.359  27.461  27.920  1.00  0.00    -0.248 NA
ATOM     15  C   UNL A   1      43.293  25.207  27.309  1.00  0.00     0.031 C 
ATOM     16  C   UNL A   1      39.202  27.014  29.599  1.00  0.00     0.029 A 
ATOM     17  N   UNL A   1      40.970  28.374  29.504  1.00  0.00    -0.354 N 
ATOM     18  C   UNL A   1      44.511  27.121  27.226  1.00  0.00     0.074 A 
ATOM     19  C   UNL A   1      44.413  25.732  26.853  1.00  0.00     0.031 C 
ATOM     20  C   UNL A   1      38.852  28.170  30.195  1.00  0.00     0.029 A 
ATOM     21  C   UNL A   1      39.992  29.082  30.163  1.00  0.00     0.049 A 
ATOM     22  H   UNL A   1      41.861  28.744  29.308  1.00  0.00     0.167 HD
ATOM     23  C   UNL A   1      45.570  27.901  26.932  1.00  0.00     0.034 A 
ATOM     24  C   UNL A   1      40.036  30.327  30.678  1.00  0.00     0.034 A 
ATOM     25  C   UNL A   1      45.690  29.248  27.395  1.00  0.00     0.049 A 
ATOM     26  C   UNL A   1      41.295  31.132  30.458  1.00  0.00     0.074 A 
ATOM     27  C   UNL A   1      46.753  30.115  27.259  1.00  0.00     0.029 A 
ATOM     28  N   UNL A   1      44.717  29.903  28.138  1.00  0.00    -0.354 N 
ATOM     29  N   UNL A   1      42.359  30.823  29.753  1.00  0.00    -0.248 NA
ATOM     30  C   UNL A   1      41.349  32.465  31.072  1.00  0.00     0.031 C 
ATOM     31  C   UNL A   1      46.444  31.278  27.969  1.00  0.00     0.029 A 
ATOM     32  C   UNL A   1      45.163  31.159  28.490  1.00  0.00     0.049 A 
ATOM     33  H   UNL A   1      43.839  29.526  28.379  1.00  0.00     0.167 HD
ATOM     34  C   UNL A   1      43.187  31.937  29.798  1.00  0.00     0.074 A 
ATOM     35  C   UNL A   1      42.493  32.934  30.591  1.00  0.00     0.031 C 
ATOM     36  C   UNL A   1      44.410  32.130  29.243  1.00  0.00     0.034 A 
BRANCH  23  37
ATOM     37  C   UNL A   1      46.688  27.250  26.176  1.00  0.00     0.023 A 
ATOM     38  C   UNL A   1      47.517  26.298  26.805  1.00  0.00     0.012 A 
ATOM     39  C   UNL A   1      46.972  27.658  24.860  1.00  0.00     0.148 A 
ATOM     40  C   UNL A   1      48.636  25.791  26.145  1.00  0.00     0.002 A 
ATOM     41  C   UNL A   1      48.060  27.116  24.195  1.00  0.00     0.091 A 
ATOM     42  F   UNL A   1      46.199  28.603  24.307  1.00  0.00    -0.205 F 
ATOM     43  C   UNL A   1      48.903  26.195  24.840  1.00  0.00     0.022 A 
BRANCH  41  44
ATOM     44  S   UNL A   1      48.456  27.536  22.497  1.00  0.00     0.127 S 
ATOM     45  O   UNL A   1      49.704  28.282  22.661  1.00  0.00    -0.237 OA
ATOM     46  O   UNL A   1      48.607  26.215  21.887  1.00  0.00    -0.237 OA
ATOM     47  O   UNL A   1      47.330  28.315  22.000  1.00  0.00    -0.744 OA
ENDBRANCH  41  44
ENDBRANCH  23  37
BRANCH  24  48
ATOM     48  C   UNL A   1      38.881  30.895  31.433  1.00  0.00     0.023 A 
ATOM     49  C   UNL A   1      38.696  30.580  32.795  1.00  0.00     0.012 A 
ATOM     50  C   UNL A   1      37.932  31.716  30.792  1.00  0.00     0.148 A 
ATOM     51  C   UNL A   1      37.572  31.037  33.488  1.00  0.00     0.002 A 
ATOM     52  C   UNL A   1      36.840  32.207  31.499  1.00  0.00     0.091 A 
ATOM     53  F   UNL A   1      38.110  31.994  29.493  1.00  0.00    -0.205 F 
ATOM     54  C   UNL A   1      36.647  31.854  32.843  1.00  0.00     0.022 A 
BRANCH  52  55
ATOM     55  S   UNL A   1      35.649  33.338  30.771  1.00  0.00     0.127 S 
ATOM     56  O   UNL A   1      35.725  34.477  31.683  1.00  0.00    -0.237 OA
ATOM     57  O   UNL A   1      36.223  33.569  29.446  1.00  0.00    -0.237 OA
ATOM     58  O   UNL A   1      34.380  32.620  30.763  1.00  0.00    -0.744 OA
ENDBRANCH  52  55
ENDBRANCH  24  48
BRANCH  36  59
ATOM     59  C   UNL A   1      45.047  33.480  29.415  1.00  0.00     0.023 A 
ATOM     60  C   UNL A   1      45.924  33.722  30.489  1.00  0.00     0.012 A 
ATOM     61  C   UNL A   1      44.850  34.473  28.435  1.00  0.00     0.148 A 
ATOM     62  C   UNL A   1      46.571  34.951  30.604  1.00  0.00     0.002 A 
ATOM     63  C   UNL A   1      45.548  35.668  28.522  1.00  0.00     0.091 A 
ATOM     64  F   UNL A   1      43.997  34.222  27.432  1.00  0.00    -0.205 F 
ATOM     65  C   UNL A   1      46.396  35.916  29.613  1.00  0.00     0.022 A 
BRANCH  63  66
ATOM     66  S   UNL A   1      45.476  36.907  27.225  1.00  0.00     0.127 S 
ATOM     67  O   UNL A   1      46.191  38.023  27.840  1.00  0.00    -0.237 OA
ATOM     68  O   UNL A   1      46.191  36.251  26.130  1.00  0.00    -0.237 OA
ATOM     69  O   UNL A   1      44.060  37.136  26.968  1.00  0.00    -0.744 OA
ENDBRANCH  63  66
ENDBRANCH  36  59
ENDBRANCH  10  11
ENDBRANCH   3   5
ENDBRANCH   2   3
ENDBRANCH   1   2
BRANCH   1  70
ATOM     70  C   UNL A   1      35.663  21.280  24.652  1.00  0.00     0.274 C 
BRANCH  70  71
ATOM     71  O   UNL A   1      34.520  22.149  24.671  1.00  0.00    -0.462 OA
BRANCH  71  72
ATOM     72  C   UNL A   1      34.695  23.420  24.208  1.00  0.00     0.311 C 
ATOM     73  O   UNL A   1      34.870  23.710  23.034  1.00  0.00    -0.252 OA
BRANCH  72  74
ATOM     74  C   UNL A   1      34.534  24.427  25.333  1.00  0.00     0.128 C 
ATOM     75  C   UNL A   1      33.390  24.018  26.248  1.00  0.00     0.117 C 
ATOM     76  C   UNL A   1      34.166  25.825  24.902  1.00  0.00     0.141 C 
ATOM     77  C   UNL A   1      32.219  24.785  25.687  1.00  0.00     0.227 C 
ATOM     78  N   UNL A   1      32.725  25.825  24.886  1.00  0.00    -0.311 N 
ATOM     79  O   UNL A   1      31.060  24.518  25.942  1.00  0.00    -0.274 OA
BRANCH  78  80
ATOM     80  C   UNL A   1      31.940  26.901  24.386  1.00  0.00     0.055 A 
ATOM     81  C   UNL A   1      31.483  26.817  23.054  1.00  0.00     0.028 A 
ATOM     82  C   UNL A   1      31.547  28.030  25.133  1.00  0.00     0.048 A 
ATOM     83  C   UNL A   1      30.680  27.806  22.479  1.00  0.00     0.023 A 
ATOM     84  C   UNL A   1      30.738  29.025  24.547  1.00  0.00     0.035 A 
ATOM     85  C   UNL A   1      30.318  28.914  23.227  1.00  0.00     0.041 A 
ATOM     86  Cl  UNL A   1      29.369  30.158  22.515  1.00  0.00    -0.084 Cl
BRANCH  82  87
ATOM     87  C   UNL A   1      31.919  28.323  26.534  1.00  0.00     0.195 C 
ATOM     88  O   UNL A   1      31.232  27.824  27.425  1.00  0.00    -0.289 OA
BRANCH  87  89
ATOM     89  C   UNL A   1      33.024  29.232  26.928  1.00  0.00     0.023 A 
ATOM     90  C   UNL A   1      34.315  28.680  26.992  1.00  0.00     0.012 A 
ATOM     91  C   UNL A   1      32.833  30.582  27.231  1.00  0.00     0.012 A 
ATOM     92  C   UNL A   1      35.399  29.457  27.387  1.00  0.00     0.001 A 
ATOM     93  C   UNL A   1      33.925  31.358  27.628  1.00  0.00     0.001 A 
ATOM     94  C   UNL A   1      35.197  30.792  27.728  1.00  0.00     0.000 A 
ENDBRANCH  87  89
ENDBRANCH  82  87
ENDBRANCH  78  80
ENDBRANCH  72  74
ENDBRANCH  71  72
ENDBRANCH  70  71
ENDBRANCH   1  70
TORSDOF 17
ENDMDL
