MODEL 1
REMARK VINA RESULT:     -11.7      0.000      0.000
REMARK SMILES C[C@@H]([C@H]1CC=CS1)n1nccc1NC(=O)CC1(CC(=O)OCCOC(=O)c2ccc(-c3c4nc(c(-c5cccc(S(=O)(=O)[O-])c5F)c5ccc([nH]5)c(-c5cccc(S(=O)(=O)[O-])c5F)c5nc(c(-c6cccc(S(=O)(=O)[O-])c6F)c6ccc3[nH]6)C=C5)C=C4)cc2)CCCCC1
REMARK SMILES IDX 21 1 19 2 20 3 18 4 17 5 90 6 94 7 91 8 93 9 92 10 16 11
REMARK SMILES IDX 14 12 13 13 15 15 12 16 8 17 9 18 10 19 11 20 2 21 1 22 3 23
REMARK SMILES IDX 4 24 7 25 5 26 6 27 22 28 23 29 24 30 25 31 26 32 27 33
REMARK SMILES IDX 28 34 89 35 29 36 88 37 30 38 31 39 32 40 82 41 33 42 87 43
REMARK SMILES IDX 81 44 83 45 34 46 86 47 80 48 79 49 35 51 67 52 47 53 66 54
REMARK SMILES IDX 48 55 51 56 65 57 84 58 49 59 50 60 64 62 85 63 52 64 36 65
REMARK SMILES IDX 37 66 45 67 38 68 40 69 46 70 39 71 41 72 42 73 43 74 44 75
REMARK SMILES IDX 68 76 69 77 77 78 70 79 72 80 78 81 71 82 73 83 74 84 75 85
REMARK SMILES IDX 76 86 53 87 54 88 62 89 55 90 57 91 63 92 56 93 58 94 59 95
REMARK SMILES IDX 60 96 61 97
REMARK H PARENT 13 14 83 50 51 61
REMARK Flexibility Score: inf
ROOT
ATOM      1  O   UNL A   1      36.449  21.575  24.391  1.00  0.00    -0.462 OA
ENDROOT
BRANCH   1   2
ATOM      2  C   UNL A   1      36.198  22.783  23.842  1.00  0.00     0.306 C 
ATOM      3  O   UNL A   1      36.477  23.098  22.689  1.00  0.00    -0.252 OA
BRANCH   2   4
ATOM      4  C   UNL A   1      35.481  23.743  24.783  1.00  0.00     0.130 C 
BRANCH   4   5
ATOM      5  C   UNL A   1      34.009  24.234  24.586  1.00  0.00    -0.010 C 
ATOM      6  C   UNL A   1      33.445  24.503  26.008  1.00  0.00     0.008 C 
ATOM      7  C   UNL A   1      33.077  23.170  23.933  1.00  0.00     0.008 C 
ATOM      8  C   UNL A   1      33.189  23.264  26.864  1.00  0.00     0.001 C 
ATOM      9  C   UNL A   1      32.909  21.908  24.765  1.00  0.00     0.001 C 
ATOM     10  C   UNL A   1      32.326  22.249  26.130  1.00  0.00     0.000 C 
BRANCH   5  11
ATOM     11  C   UNL A   1      33.845  25.511  23.693  1.00  0.00     0.108 C 
BRANCH  11  12
ATOM     12  C   UNL A   1      33.433  26.889  24.190  1.00  0.00     0.226 C 
ATOM     13  N   UNL A   1      32.222  27.141  24.911  1.00  0.00    -0.311 N 
ATOM     14  H   UNL A   1      32.274  27.486  25.832  1.00  0.00     0.171 HD
ATOM     15  O   UNL A   1      34.029  27.902  23.856  1.00  0.00    -0.275 OA
BRANCH  13  16
ATOM     16  C   UNL A   1      30.976  26.910  24.342  1.00  0.00     0.131 A 
ATOM     17  N   UNL A   1      30.080  27.810  23.782  1.00  0.00    -0.246 N 
ATOM     18  N   UNL A   1      28.861  27.248  23.646  1.00  0.00    -0.179 NA
ATOM     19  C   UNL A   1      29.046  25.957  23.893  1.00  0.00     0.137 A 
ATOM     20  C   UNL A   1      30.374  25.675  24.217  1.00  0.00     0.068 A 
BRANCH  17  21
ATOM     21  C   UNL A   1      30.265  29.227  23.453  1.00  0.00     0.120 C 
ATOM     22  C   UNL A   1      31.082  29.383  22.154  1.00  0.00     0.034 C 
BRANCH  21  23
ATOM     23  C   UNL A   1      28.974  30.104  23.308  1.00  0.00     0.079 C 
ATOM     24  C   UNL A   1      29.062  31.509  23.943  1.00  0.00     0.045 C 
ATOM     25  S   UNL A   1      28.302  30.349  21.604  1.00  0.00    -0.128 SA
ATOM     26  C   UNL A   1      28.825  32.537  22.885  1.00  0.00    -0.019 C 
ATOM     27  C   UNL A   1      28.459  32.072  21.688  1.00  0.00     0.037 C 
ENDBRANCH  21  23
ENDBRANCH  17  21
ENDBRANCH  13  16
ENDBRANCH  11  12
ENDBRANCH   5  11
ENDBRANCH   4   5
ENDBRANCH   2   4
ENDBRANCH   1   2
BRANCH   1  28
ATOM     28  C   UNL A   1      37.528  21.502  25.342  1.00  0.00     0.274 C 
BRANCH  28  29
ATOM     29  C   UNL A   1      38.437  20.344  24.955  1.00  0.00     0.275 C 
BRANCH  29  30
ATOM     30  O   UNL A   1      39.171  19.806  26.067  1.00  0.00    -0.458 OA
BRANCH  30  31
ATOM     31  C   UNL A   1      40.508  19.764  25.899  1.00  0.00     0.338 C 
ATOM     32  O   UNL A   1      41.185  18.818  25.538  1.00  0.00    -0.246 OA
BRANCH  31  33
ATOM     33  C   UNL A   1      41.169  20.912  26.503  1.00  0.00     0.060 A 
ATOM     34  C   UNL A   1      40.849  21.150  27.844  1.00  0.00     0.016 A 
ATOM     35  C   UNL A   1      41.819  21.862  25.717  1.00  0.00     0.016 A 
ATOM     36  C   UNL A   1      41.024  22.410  28.359  1.00  0.00     0.010 A 
ATOM     37  C   UNL A   1      42.071  23.104  26.258  1.00  0.00     0.010 A 
ATOM     38  C   UNL A   1      41.638  23.379  27.561  1.00  0.00    -0.014 A 
BRANCH  38  39
ATOM     39  C   UNL A   1      42.189  24.528  28.268  1.00  0.00     0.031 A 
ATOM     40  C   UNL A   1      41.299  25.720  28.077  1.00  0.00     0.074 A 
ATOM     41  C   UNL A   1      43.235  24.411  29.109  1.00  0.00     0.049 A 
ATOM     42  N   UNL A   1      41.607  26.888  27.614  1.00  0.00    -0.248 NA
ATOM     43  C   UNL A   1      39.833  25.499  28.166  1.00  0.00     0.031 C 
ATOM     44  C   UNL A   1      43.947  23.173  29.445  1.00  0.00     0.029 A 
ATOM     45  N   UNL A   1      43.771  25.314  29.982  1.00  0.00    -0.354 N 
ATOM     46  C   UNL A   1      40.412  27.612  27.654  1.00  0.00     0.074 A 
ATOM     47  C   UNL A   1      39.352  26.653  27.711  1.00  0.00     0.031 C 
ATOM     48  C   UNL A   1      44.587  23.335  30.623  1.00  0.00     0.029 A 
ATOM     49  C   UNL A   1      44.409  24.706  31.068  1.00  0.00     0.049 A 
ATOM     50  H   UNL A   1      43.713  26.289  29.859  1.00  0.00     0.167 HD
ATOM     51  C   UNL A   1      40.414  28.915  28.042  1.00  0.00     0.034 A 
ATOM     52  C   UNL A   1      44.662  25.254  32.287  1.00  0.00     0.034 A 
ATOM     53  C   UNL A   1      41.715  29.496  27.831  1.00  0.00     0.049 A 
ATOM     54  C   UNL A   1      44.504  26.716  32.150  1.00  0.00     0.074 A 
ATOM     55  C   UNL A   1      42.541  29.694  26.745  1.00  0.00     0.029 A 
ATOM     56  N   UNL A   1      42.499  29.593  28.951  1.00  0.00    -0.354 N 
ATOM     57  N   UNL A   1      45.310  27.468  31.459  1.00  0.00    -0.248 NA
ATOM     58  C   UNL A   1      43.207  27.294  32.455  1.00  0.00     0.031 C 
ATOM     59  C   UNL A   1      43.864  29.533  27.248  1.00  0.00     0.029 A 
ATOM     60  C   UNL A   1      43.796  29.325  28.626  1.00  0.00     0.049 A 
ATOM     61  H   UNL A   1      42.175  29.821  29.852  1.00  0.00     0.167 HD
ATOM     62  C   UNL A   1      44.466  28.374  30.836  1.00  0.00     0.074 A 
ATOM     63  C   UNL A   1      43.220  28.318  31.597  1.00  0.00     0.031 C 
ATOM     64  C   UNL A   1      44.761  28.836  29.586  1.00  0.00     0.034 A 
BRANCH  51  65
ATOM     65  C   UNL A   1      39.446  29.486  29.077  1.00  0.00     0.023 A 
ATOM     66  C   UNL A   1      38.847  30.727  28.763  1.00  0.00     0.012 A 
ATOM     67  C   UNL A   1      39.327  29.056  30.423  1.00  0.00     0.148 A 
ATOM     68  C   UNL A   1      38.249  31.529  29.742  1.00  0.00     0.002 A 
ATOM     69  C   UNL A   1      38.673  29.823  31.381  1.00  0.00     0.091 A 
ATOM     70  F   UNL A   1      39.937  27.950  30.844  1.00  0.00    -0.205 F 
ATOM     71  C   UNL A   1      38.162  31.078  31.054  1.00  0.00     0.022 A 
BRANCH  69  72
ATOM     72  S   UNL A   1      38.507  29.268  33.086  1.00  0.00     0.127 S 
ATOM     73  O   UNL A   1      39.863  28.812  33.376  1.00  0.00    -0.237 OA
ATOM     74  O   UNL A   1      38.105  30.503  33.757  1.00  0.00    -0.237 OA
ATOM     75  O   UNL A   1      37.480  28.233  33.074  1.00  0.00    -0.744 OA
ENDBRANCH  69  72
ENDBRANCH  51  65
BRANCH  52  76
ATOM     76  C   UNL A   1      44.763  24.632  33.633  1.00  0.00     0.023 A 
ATOM     77  C   UNL A   1      43.589  24.175  34.275  1.00  0.00     0.012 A 
ATOM     78  C   UNL A   1      46.003  24.224  34.165  1.00  0.00     0.148 A 
ATOM     79  C   UNL A   1      43.651  23.312  35.377  1.00  0.00     0.002 A 
ATOM     80  C   UNL A   1      46.062  23.377  35.270  1.00  0.00     0.091 A 
ATOM     81  F   UNL A   1      47.127  24.583  33.533  1.00  0.00    -0.205 F 
ATOM     82  C   UNL A   1      44.888  22.907  35.871  1.00  0.00     0.022 A 
BRANCH  80  83
ATOM     83  S   UNL A   1      47.626  22.795  35.941  1.00  0.00     0.127 S 
ATOM     84  O   UNL A   1      48.214  22.112  34.790  1.00  0.00    -0.237 OA
ATOM     85  O   UNL A   1      48.278  24.048  36.313  1.00  0.00    -0.237 OA
ATOM     86  O   UNL A   1      47.276  21.912  37.047  1.00  0.00    -0.744 OA
ENDBRANCH  80  83
ENDBRANCH  52  76
BRANCH  64  87
ATOM     87  C   UNL A   1      46.172  28.660  29.091  1.00  0.00     0.023 A 
ATOM     88  C   UNL A   1      47.236  29.520  29.434  1.00  0.00     0.012 A 
ATOM     89  C   UNL A   1      46.446  27.502  28.346  1.00  0.00     0.148 A 
ATOM     90  C   UNL A   1      48.540  29.242  29.013  1.00  0.00     0.002 A 
ATOM     91  C   UNL A   1      47.749  27.199  27.980  1.00  0.00     0.091 A 
ATOM     92  F   UNL A   1      45.421  26.699  28.022  1.00  0.00    -0.205 F 
ATOM     93  C   UNL A   1      48.799  28.072  28.299  1.00  0.00     0.022 A 
BRANCH  91  94
ATOM     94  S   UNL A   1      48.143  25.645  27.183  1.00  0.00     0.127 S 
ATOM     95  O   UNL A   1      47.388  24.689  27.989  1.00  0.00    -0.237 OA
ATOM     96  O   UNL A   1      47.629  25.849  25.827  1.00  0.00    -0.237 OA
ATOM     97  O   UNL A   1      49.595  25.522  27.250  1.00  0.00    -0.744 OA
ENDBRANCH  91  94
ENDBRANCH  64  87
ENDBRANCH  38  39
ENDBRANCH  31  33
ENDBRANCH  30  31
ENDBRANCH  29  30
ENDBRANCH  28  29
ENDBRANCH   1  28
TORSDOF 20
ENDMDL
MODEL 2
REMARK VINA RESULT:     -11.6      1.243      1.901
REMARK SMILES C[C@@H]([C@H]1CC=CS1)n1nccc1NC(=O)CC1(CC(=O)OCCOC(=O)c2ccc(-c3c4nc(c(-c5cccc(S(=O)(=O)[O-])c5F)c5ccc([nH]5)c(-c5cccc(S(=O)(=O)[O-])c5F)c5nc(c(-c6cccc(S(=O)(=O)[O-])c6F)c6ccc3[nH]6)C=C5)C=C4)cc2)CCCCC1
REMARK SMILES IDX 21 1 19 2 20 3 18 4 17 5 90 6 94 7 91 8 93 9 92 10 16 11
REMARK SMILES IDX 14 12 13 13 15 15 12 16 8 17 9 18 10 19 11 20 2 21 1 22 3 23
REMARK SMILES IDX 4 24 7 25 5 26 6 27 22 28 23 29 24 30 25 31 26 32 27 33
REMARK SMILES IDX 28 34 89 35 29 36 88 37 30 38 31 39 32 40 82 41 33 42 87 43
REMARK SMILES IDX 81 44 83 45 34 46 86 47 80 48 79 49 35 51 67 52 47 53 66 54
REMARK SMILES IDX 48 55 51 56 65 57 84 58 49 59 50 60 64 62 85 63 52 64 36 65
REMARK SMILES IDX 37 66 45 67 38 68 40 69 46 70 39 71 41 72 42 73 43 74 44 75
REMARK SMILES IDX 68 76 69 77 77 78 70 79 72 80 78 81 71 82 73 83 74 84 75 85
REMARK SMILES IDX 76 86 53 87 54 88 62 89 55 90 57 91 63 92 56 93 58 94 59 95
REMARK SMILES IDX 60 96 61 97
REMARK H PARENT 13 14 83 50 51 61
REMARK Flexibility Score: inf
ROOT
ATOM      1  O   UNL A   1      36.928  21.654  25.655  1.00  0.00    -0.462 OA
ENDROOT
BRANCH   1   2
ATOM      2  C   UNL A   1      36.263  22.113  24.573  1.00  0.00     0.306 C 
ATOM      3  O   UNL A   1      36.794  22.457  23.521  1.00  0.00    -0.252 OA
BRANCH   2   4
ATOM      4  C   UNL A   1      34.750  22.132  24.749  1.00  0.00     0.130 C 
BRANCH   4   5
ATOM      5  C   UNL A   1      33.922  23.405  25.125  1.00  0.00    -0.010 C 
ATOM      6  C   UNL A   1      34.122  23.621  26.650  1.00  0.00     0.008 C 
ATOM      7  C   UNL A   1      32.390  23.244  24.897  1.00  0.00     0.008 C 
ATOM      8  C   UNL A   1      33.443  22.596  27.558  1.00  0.00     0.001 C 
ATOM      9  C   UNL A   1      31.753  22.157  25.749  1.00  0.00     0.001 C 
ATOM     10  C   UNL A   1      31.966  22.453  27.227  1.00  0.00     0.000 C 
BRANCH   5  11
ATOM     11  C   UNL A   1      34.309  24.707  24.343  1.00  0.00     0.108 C 
BRANCH  11  12
ATOM     12  C   UNL A   1      33.815  25.081  22.954  1.00  0.00     0.226 C 
ATOM     13  N   UNL A   1      32.986  26.218  22.688  1.00  0.00    -0.311 N 
ATOM     14  H   UNL A   1      33.325  26.934  22.103  1.00  0.00     0.171 HD
ATOM     15  O   UNL A   1      33.954  24.337  21.995  1.00  0.00    -0.275 OA
BRANCH  13  16
ATOM     16  C   UNL A   1      31.713  26.332  23.234  1.00  0.00     0.131 A 
ATOM     17  N   UNL A   1      31.215  27.275  24.123  1.00  0.00    -0.246 N 
ATOM     18  N   UNL A   1      30.052  26.855  24.662  1.00  0.00    -0.179 NA
ATOM     19  C   UNL A   1      29.708  25.786  23.954  1.00  0.00     0.137 A 
ATOM     20  C   UNL A   1      30.655  25.486  22.972  1.00  0.00     0.068 A 
BRANCH  17  21
ATOM     21  C   UNL A   1      31.820  28.526  24.590  1.00  0.00     0.120 C 
ATOM     22  C   UNL A   1      30.882  29.720  24.318  1.00  0.00     0.034 C 
BRANCH  21  23
ATOM     23  C   UNL A   1      32.250  28.596  26.096  1.00  0.00     0.079 C 
ATOM     24  C   UNL A   1      33.559  27.852  26.438  1.00  0.00     0.045 C 
ATOM     25  S   UNL A   1      32.394  30.273  26.860  1.00  0.00    -0.128 SA
ATOM     26  C   UNL A   1      34.534  28.824  27.018  1.00  0.00    -0.019 C 
ATOM     27  C   UNL A   1      34.067  30.053  27.253  1.00  0.00     0.037 C 
ENDBRANCH  21  23
ENDBRANCH  17  21
ENDBRANCH  13  16
ENDBRANCH  11  12
ENDBRANCH   5  11
ENDBRANCH   4   5
ENDBRANCH   2   4
ENDBRANCH   1   2
BRANCH   1  28
ATOM     28  C   UNL A   1      38.366  21.638  25.579  1.00  0.00     0.274 C 
BRANCH  28  29
ATOM     29  C   UNL A   1      38.810  20.256  25.120  1.00  0.00     0.275 C 
BRANCH  29  30
ATOM     30  O   UNL A   1      39.563  19.545  26.115  1.00  0.00    -0.458 OA
BRANCH  30  31
ATOM     31  C   UNL A   1      40.900  19.582  25.952  1.00  0.00     0.338 C 
ATOM     32  O   UNL A   1      41.635  18.674  25.610  1.00  0.00    -0.246 OA
BRANCH  31  33
ATOM     33  C   UNL A   1      41.487  20.779  26.538  1.00  0.00     0.060 A 
ATOM     34  C   UNL A   1      41.222  20.972  27.897  1.00  0.00     0.016 A 
ATOM     35  C   UNL A   1      42.005  21.793  25.733  1.00  0.00     0.016 A 
ATOM     36  C   UNL A   1      41.310  22.237  28.422  1.00  0.00     0.010 A 
ATOM     37  C   UNL A   1      42.174  23.046  26.279  1.00  0.00     0.010 A 
ATOM     38  C   UNL A   1      41.790  23.267  27.607  1.00  0.00    -0.014 A 
BRANCH  38  39
ATOM     39  C   UNL A   1      42.273  24.453  28.302  1.00  0.00     0.031 A 
ATOM     40  C   UNL A   1      41.331  25.598  28.072  1.00  0.00     0.074 A 
ATOM     41  C   UNL A   1      43.308  24.401  29.163  1.00  0.00     0.049 A 
ATOM     42  N   UNL A   1      41.593  26.771  27.592  1.00  0.00    -0.248 NA
ATOM     43  C   UNL A   1      39.877  25.310  28.139  1.00  0.00     0.031 C 
ATOM     44  C   UNL A   1      44.071  23.205  29.536  1.00  0.00     0.029 A 
ATOM     45  N   UNL A   1      43.784  25.345  30.027  1.00  0.00    -0.354 N 
ATOM     46  C   UNL A   1      40.365  27.437  27.597  1.00  0.00     0.074 A 
ATOM     47  C   UNL A   1      39.351  26.431  27.653  1.00  0.00     0.031 C 
ATOM     48  C   UNL A   1      44.680  23.419  30.721  1.00  0.00     0.029 A 
ATOM     49  C   UNL A   1      44.430  24.787  31.137  1.00  0.00     0.049 A 
ATOM     50  H   UNL A   1      43.683  26.314  29.885  1.00  0.00     0.167 HD
ATOM     51  C   UNL A   1      40.298  28.746  27.959  1.00  0.00     0.034 A 
ATOM     52  C   UNL A   1      44.634  25.369  32.349  1.00  0.00     0.034 A 
ATOM     53  C   UNL A   1      41.574  29.384  27.761  1.00  0.00     0.049 A 
ATOM     54  C   UNL A   1      44.411  26.819  32.181  1.00  0.00     0.074 A 
ATOM     55  C   UNL A   1      42.410  29.601  26.686  1.00  0.00     0.029 A 
ATOM     56  N   UNL A   1      42.332  29.539  28.892  1.00  0.00    -0.354 N 
ATOM     57  N   UNL A   1      45.193  27.595  31.490  1.00  0.00    -0.248 NA
ATOM     58  C   UNL A   1      43.082  27.341  32.451  1.00  0.00     0.031 C 
ATOM     59  C   UNL A   1      43.730  29.512  27.215  1.00  0.00     0.029 A 
ATOM     60  C   UNL A   1      43.646  29.327  28.595  1.00  0.00     0.049 A 
ATOM     61  H   UNL A   1      41.981  29.768  29.783  1.00  0.00     0.167 HD
ATOM     62  C   UNL A   1      44.319  28.450  30.835  1.00  0.00     0.074 A 
ATOM     63  C   UNL A   1      43.063  28.349  31.575  1.00  0.00     0.031 C 
ATOM     64  C   UNL A   1      44.615  28.902  29.581  1.00  0.00     0.034 A 
BRANCH  51  65
ATOM     65  C   UNL A   1      39.286  29.290  28.966  1.00  0.00     0.023 A 
ATOM     66  C   UNL A   1      38.566  30.442  28.576  1.00  0.00     0.012 A 
ATOM     67  C   UNL A   1      39.219  28.944  30.340  1.00  0.00     0.148 A 
ATOM     68  C   UNL A   1      37.898  31.247  29.507  1.00  0.00     0.002 A 
ATOM     69  C   UNL A   1      38.499  29.708  31.252  1.00  0.00     0.091 A 
ATOM     70  F   UNL A   1      39.937  27.936  30.827  1.00  0.00    -0.205 F 
ATOM     71  C   UNL A   1      37.865  30.882  30.847  1.00  0.00     0.022 A 
BRANCH  69  72
ATOM     72  S   UNL A   1      38.399  29.258  32.993  1.00  0.00     0.127 S 
ATOM     73  O   UNL A   1      37.520  28.094  32.942  1.00  0.00    -0.237 OA
ATOM     74  O   UNL A   1      39.800  28.972  33.300  1.00  0.00    -0.237 OA
ATOM     75  O   UNL A   1      37.864  30.427  33.680  1.00  0.00    -0.744 OA
ENDBRANCH  69  72
ENDBRANCH  51  65
BRANCH  52  76
ATOM     76  C   UNL A   1      44.739  24.778  33.709  1.00  0.00     0.023 A 
ATOM     77  C   UNL A   1      43.612  24.141  34.275  1.00  0.00     0.012 A 
ATOM     78  C   UNL A   1      45.989  24.577  34.330  1.00  0.00     0.148 A 
ATOM     79  C   UNL A   1      43.734  23.304  35.393  1.00  0.00     0.002 A 
ATOM     80  C   UNL A   1      46.105  23.756  35.449  1.00  0.00     0.091 A 
ATOM     81  F   UNL A   1      47.082  25.110  33.770  1.00  0.00    -0.205 F 
ATOM     82  C   UNL A   1      44.983  23.106  35.976  1.00  0.00     0.022 A 
BRANCH  80  83
ATOM     83  S   UNL A   1      47.691  23.436  36.235  1.00  0.00     0.127 S 
ATOM     84  O   UNL A   1      47.297  22.651  37.404  1.00  0.00    -0.237 OA
ATOM     85  O   UNL A   1      48.395  22.686  35.198  1.00  0.00    -0.237 OA
ATOM     86  O   UNL A   1      48.245  24.747  36.553  1.00  0.00    -0.744 OA
ENDBRANCH  80  83
ENDBRANCH  52  76
BRANCH  64  87
ATOM     87  C   UNL A   1      46.042  28.783  29.115  1.00  0.00     0.023 A 
ATOM     88  C   UNL A   1      47.060  29.695  29.466  1.00  0.00     0.012 A 
ATOM     89  C   UNL A   1      46.383  27.629  28.391  1.00  0.00     0.148 A 
ATOM     90  C   UNL A   1      48.383  29.471  29.072  1.00  0.00     0.002 A 
ATOM     91  C   UNL A   1      47.704  27.381  28.054  1.00  0.00     0.091 A 
ATOM     92  F   UNL A   1      45.401  26.777  28.060  1.00  0.00    -0.205 F 
ATOM     93  C   UNL A   1      48.707  28.305  28.380  1.00  0.00     0.022 A 
BRANCH  91  94
ATOM     94  S   UNL A   1      48.183  25.836  27.286  1.00  0.00     0.127 S 
ATOM     95  O   UNL A   1      47.583  24.851  28.182  1.00  0.00    -0.237 OA
ATOM     96  O   UNL A   1      47.553  25.933  25.968  1.00  0.00    -0.237 OA
ATOM     97  O   UNL A   1      49.641  25.849  27.244  1.00  0.00    -0.744 OA
ENDBRANCH  91  94
ENDBRANCH  64  87
ENDBRANCH  38  39
ENDBRANCH  31  33
ENDBRANCH  30  31
ENDBRANCH  29  30
ENDBRANCH  28  29
ENDBRANCH   1  28
TORSDOF 20
ENDMDL
MODEL 3
REMARK VINA RESULT:     -11.1      4.981      9.180
REMARK SMILES C[C@@H]([C@H]1CC=CS1)n1nccc1NC(=O)CC1(CC(=O)OCCOC(=O)c2ccc(-c3c4nc(c(-c5cccc(S(=O)(=O)[O-])c5F)c5ccc([nH]5)c(-c5cccc(S(=O)(=O)[O-])c5F)c5nc(c(-c6cccc(S(=O)(=O)[O-])c6F)c6ccc3[nH]6)C=C5)C=C4)cc2)CCCCC1
REMARK SMILES IDX 21 1 19 2 20 3 18 4 17 5 90 6 94 7 91 8 93 9 92 10 16 11
REMARK SMILES IDX 14 12 13 13 15 15 12 16 8 17 9 18 10 19 11 20 2 21 1 22 3 23
REMARK SMILES IDX 4 24 7 25 5 26 6 27 22 28 23 29 24 30 25 31 26 32 27 33
REMARK SMILES IDX 28 34 89 35 29 36 88 37 30 38 31 39 32 40 82 41 33 42 87 43
REMARK SMILES IDX 81 44 83 45 34 46 86 47 80 48 79 49 35 51 67 52 47 53 66 54
REMARK SMILES IDX 48 55 51 56 65 57 84 58 49 59 50 60 64 62 85 63 52 64 36 65
REMARK SMILES IDX 37 66 45 67 38 68 40 69 46 70 39 71 41 72 42 73 43 74 44 75
REMARK SMILES IDX 68 76 69 77 77 78 70 79 72 80 78 81 71 82 73 83 74 84 75 85
REMARK SMILES IDX 76 86 53 87 54 88 62 89 55 90 57 91 63 92 56 93 58 94 59 95
REMARK SMILES IDX 60 96 61 97
REMARK H PARENT 13 14 83 50 51 61
REMARK Flexibility Score: inf
ROOT
ATOM      1  O   UNL A   1      36.472  23.694  24.230  1.00  0.00    -0.462 OA
ENDROOT
BRANCH   1   2
ATOM      2  C   UNL A   1      35.280  23.429  23.654  1.00  0.00     0.306 C 
ATOM      3  O   UNL A   1      34.799  24.063  22.719  1.00  0.00    -0.252 OA
BRANCH   2   4
ATOM      4  C   UNL A   1      34.574  22.215  24.245  1.00  0.00     0.130 C 
BRANCH   4   5
ATOM      5  C   UNL A   1      33.025  22.103  24.438  1.00  0.00    -0.010 C 
ATOM      6  C   UNL A   1      32.804  21.419  25.814  1.00  0.00     0.008 C 
ATOM      7  C   UNL A   1      32.327  21.202  23.376  1.00  0.00     0.008 C 
ATOM      8  C   UNL A   1      33.179  19.939  25.884  1.00  0.00     0.001 C 
ATOM      9  C   UNL A   1      32.782  19.751  23.408  1.00  0.00     0.001 C 
ATOM     10  C   UNL A   1      32.507  19.143  24.777  1.00  0.00     0.000 C 
BRANCH   5  11
ATOM     11  C   UNL A   1      32.247  23.463  24.383  1.00  0.00     0.108 C 
BRANCH  11  12
ATOM     12  C   UNL A   1      32.161  24.477  25.514  1.00  0.00     0.226 C 
ATOM     13  N   UNL A   1      31.020  25.310  25.745  1.00  0.00    -0.311 N 
ATOM     14  H   UNL A   1      30.525  25.223  26.593  1.00  0.00     0.171 HD
ATOM     15  O   UNL A   1      33.131  24.768  26.197  1.00  0.00    -0.275 OA
BRANCH  13  16
ATOM     16  C   UNL A   1      30.595  26.239  24.803  1.00  0.00     0.131 A 
ATOM     17  N   UNL A   1      31.165  27.451  24.438  1.00  0.00    -0.246 N 
ATOM     18  N   UNL A   1      30.287  28.200  23.740  1.00  0.00    -0.179 NA
ATOM     19  C   UNL A   1      29.274  27.386  23.471  1.00  0.00     0.137 A 
ATOM     20  C   UNL A   1      29.472  26.113  24.012  1.00  0.00     0.068 A 
BRANCH  17  21
ATOM     21  C   UNL A   1      32.473  28.011  24.793  1.00  0.00     0.120 C 
ATOM     22  C   UNL A   1      32.833  29.188  23.863  1.00  0.00     0.034 C 
BRANCH  21  23
ATOM     23  C   UNL A   1      32.666  28.498  26.270  1.00  0.00     0.079 C 
ATOM     24  C   UNL A   1      34.090  28.313  26.839  1.00  0.00     0.045 C 
ATOM     25  S   UNL A   1      32.176  30.237  26.661  1.00  0.00    -0.128 SA
ATOM     26  C   UNL A   1      34.627  29.645  27.251  1.00  0.00    -0.019 C 
ATOM     27  C   UNL A   1      33.770  30.667  27.187  1.00  0.00     0.037 C 
ENDBRANCH  21  23
ENDBRANCH  17  21
ENDBRANCH  13  16
ENDBRANCH  11  12
ENDBRANCH   5  11
ENDBRANCH   4   5
ENDBRANCH   2   4
ENDBRANCH   1   2
BRANCH   1  28
ATOM     28  C   UNL A   1      37.175  22.583  24.816  1.00  0.00     0.274 C 
BRANCH  28  29
ATOM     29  C   UNL A   1      37.733  23.019  26.164  1.00  0.00     0.275 C 
BRANCH  29  30
ATOM     30  O   UNL A   1      38.428  24.275  26.108  1.00  0.00    -0.458 OA
BRANCH  30  31
ATOM     31  C   UNL A   1      39.655  24.271  26.665  1.00  0.00     0.338 C 
ATOM     32  O   UNL A   1      40.381  23.314  26.865  1.00  0.00    -0.246 OA
BRANCH  31  33
ATOM     33  C   UNL A   1      39.955  25.533  27.328  1.00  0.00     0.060 A 
ATOM     34  C   UNL A   1      39.659  25.577  28.694  1.00  0.00     0.016 A 
ATOM     35  C   UNL A   1      40.223  26.685  26.590  1.00  0.00     0.016 A 
ATOM     36  C   UNL A   1      39.458  26.794  29.294  1.00  0.00     0.010 A 
ATOM     37  C   UNL A   1      40.104  27.909  27.213  1.00  0.00     0.010 A 
ATOM     38  C   UNL A   1      39.686  27.954  28.548  1.00  0.00    -0.014 A 
BRANCH  38  39
ATOM     39  C   UNL A   1      39.888  29.175  29.318  1.00  0.00     0.031 A 
ATOM     40  C   UNL A   1      41.311  29.630  29.188  1.00  0.00     0.074 A 
ATOM     41  C   UNL A   1      38.859  29.844  29.874  1.00  0.00     0.049 A 
ATOM     42  N   UNL A   1      42.169  29.866  30.127  1.00  0.00    -0.248 NA
ATOM     43  C   UNL A   1      41.930  29.560  27.841  1.00  0.00     0.031 C 
ATOM     44  C   UNL A   1      37.439  29.484  29.789  1.00  0.00     0.029 A 
ATOM     45  N   UNL A   1      38.824  31.074  30.466  1.00  0.00    -0.354 N 
ATOM     46  C   UNL A   1      43.329  30.261  29.456  1.00  0.00     0.074 A 
ATOM     47  C   UNL A   1      43.213  29.779  28.115  1.00  0.00     0.031 C 
ATOM     48  C   UNL A   1      36.689  30.579  30.031  1.00  0.00     0.029 A 
ATOM     49  C   UNL A   1      37.567  31.682  30.379  1.00  0.00     0.049 A 
ATOM     50  H   UNL A   1      39.601  31.488  30.907  1.00  0.00     0.167 HD
ATOM     51  C   UNL A   1      44.085  31.283  29.941  1.00  0.00     0.034 A 
ATOM     52  C   UNL A   1      37.287  33.010  30.466  1.00  0.00     0.034 A 
ATOM     53  C   UNL A   1      43.865  31.439  31.355  1.00  0.00     0.049 A 
ATOM     54  C   UNL A   1      38.471  33.669  31.053  1.00  0.00     0.074 A 
ATOM     55  C   UNL A   1      44.017  30.641  32.469  1.00  0.00     0.029 A 
ATOM     56  N   UNL A   1      43.013  32.453  31.705  1.00  0.00    -0.354 N 
ATOM     57  N   UNL A   1      38.856  33.500  32.284  1.00  0.00    -0.248 NA
ATOM     58  C   UNL A   1      39.470  34.209  30.147  1.00  0.00     0.031 C 
ATOM     59  C   UNL A   1      42.950  31.006  33.340  1.00  0.00     0.029 A 
ATOM     60  C   UNL A   1      42.243  32.061  32.760  1.00  0.00     0.049 A 
ATOM     61  H   UNL A   1      42.965  33.332  31.263  1.00  0.00     0.167 HD
ATOM     62  C   UNL A   1      40.238  33.439  32.194  1.00  0.00     0.074 A 
ATOM     63  C   UNL A   1      40.561  34.029  30.897  1.00  0.00     0.031 C 
ATOM     64  C   UNL A   1      40.944  32.631  33.039  1.00  0.00     0.034 A 
BRANCH  51  65
ATOM     65  C   UNL A   1      44.579  32.444  29.080  1.00  0.00     0.023 A 
ATOM     66  C   UNL A   1      45.965  32.718  29.126  1.00  0.00     0.012 A 
ATOM     67  C   UNL A   1      43.763  33.445  28.493  1.00  0.00     0.148 A 
ATOM     68  C   UNL A   1      46.492  33.942  28.699  1.00  0.00     0.002 A 
ATOM     69  C   UNL A   1      44.297  34.633  28.007  1.00  0.00     0.091 A 
ATOM     70  F   UNL A   1      42.437  33.328  28.487  1.00  0.00    -0.205 F 
ATOM     71  C   UNL A   1      45.658  34.903  28.140  1.00  0.00     0.022 A 
BRANCH  69  72
ATOM     72  S   UNL A   1      43.261  35.894  27.245  1.00  0.00     0.127 S 
ATOM     73  O   UNL A   1      42.281  36.139  28.298  1.00  0.00    -0.237 OA
ATOM     74  O   UNL A   1      44.227  36.970  27.026  1.00  0.00    -0.237 OA
ATOM     75  O   UNL A   1      42.741  35.300  26.020  1.00  0.00    -0.744 OA
ENDBRANCH  69  72
ENDBRANCH  51  65
BRANCH  52  76
ATOM     76  C   UNL A   1      36.206  33.821  29.846  1.00  0.00     0.023 A 
ATOM     77  C   UNL A   1      35.896  33.633  28.480  1.00  0.00     0.012 A 
ATOM     78  C   UNL A   1      35.295  34.557  30.631  1.00  0.00     0.148 A 
ATOM     79  C   UNL A   1      34.705  34.125  27.929  1.00  0.00     0.002 A 
ATOM     80  C   UNL A   1      34.118  35.056  30.078  1.00  0.00     0.091 A 
ATOM     81  F   UNL A   1      35.529  34.686  31.943  1.00  0.00    -0.205 F 
ATOM     82  C   UNL A   1      33.812  34.830  28.730  1.00  0.00     0.022 A 
BRANCH  80  83
ATOM     83  S   UNL A   1      32.909  35.953  31.062  1.00  0.00     0.127 S 
ATOM     84  O   UNL A   1      32.470  34.929  32.009  1.00  0.00    -0.237 OA
ATOM     85  O   UNL A   1      33.723  37.019  31.641  1.00  0.00    -0.237 OA
ATOM     86  O   UNL A   1      31.878  36.383  30.126  1.00  0.00    -0.744 OA
ENDBRANCH  80  83
ENDBRANCH  52  76
BRANCH  64  87
ATOM     87  C   UNL A   1      40.248  32.146  34.284  1.00  0.00     0.023 A 
ATOM     88  C   UNL A   1      39.586  30.903  34.377  1.00  0.00     0.012 A 
ATOM     89  C   UNL A   1      40.382  32.934  35.438  1.00  0.00     0.148 A 
ATOM     90  C   UNL A   1      39.043  30.476  35.593  1.00  0.00     0.002 A 
ATOM     91  C   UNL A   1      39.893  32.481  36.653  1.00  0.00     0.091 A 
ATOM     92  F   UNL A   1      41.008  34.115  35.329  1.00  0.00    -0.205 F 
ATOM     93  C   UNL A   1      39.210  31.258  36.735  1.00  0.00     0.022 A 
BRANCH  91  94
ATOM     94  S   UNL A   1      40.204  33.388  38.166  1.00  0.00     0.127 S 
ATOM     95  O   UNL A   1      39.578  34.677  37.882  1.00  0.00    -0.237 OA
ATOM     96  O   UNL A   1      39.513  32.574  39.167  1.00  0.00    -0.237 OA
ATOM     97  O   UNL A   1      41.655  33.410  38.323  1.00  0.00    -0.744 OA
ENDBRANCH  91  94
ENDBRANCH  64  87
ENDBRANCH  38  39
ENDBRANCH  31  33
ENDBRANCH  30  31
ENDBRANCH  29  30
ENDBRANCH  28  29
ENDBRANCH   1  28
TORSDOF 20
ENDMDL
