MODEL 1
REMARK VINA RESULT:     -11.3      0.000      0.000
REMARK SMILES C[C@@H]1CCCN(C(=O)NC2(CC(=O)OCCOC(=O)c3ccc(-c4c5nc(c(-c6cccc(S(=O)(=O)[O-])c6F)c6ccc([nH]6)c(-c6cccc(S(=O)(=O)[O-])c6F)c6nc(c(-c7cccc(S(=O)(=O)[O-])c7F)c7ccc4[nH]7)C=C6)C=C5)cc3)CCC2)[C@@H]1C
REMARK SMILES IDX 15 1 14 2 12 3 13 4 11 5 10 6 83 7 85 8 84 9 9 10 7 11 8 12
REMARK SMILES IDX 6 14 1 15 2 16 3 17 86 18 4 19 87 20 5 21 16 22 17 23 18 24
REMARK SMILES IDX 19 25 20 26 21 27 82 28 22 29 81 30 23 31 24 32 25 33 75 34
REMARK SMILES IDX 26 35 80 36 74 37 76 38 27 39 79 40 73 41 72 42 28 44 60 45
REMARK SMILES IDX 40 46 59 47 41 48 44 49 58 50 77 51 42 52 43 53 57 55 78 56
REMARK SMILES IDX 45 57 29 58 30 59 38 60 31 61 33 62 39 63 32 64 34 65 35 66
REMARK SMILES IDX 36 67 37 68 61 69 62 70 70 71 63 72 65 73 71 74 64 75 66 76
REMARK SMILES IDX 67 77 68 78 69 79 46 80 47 81 55 82 48 83 50 84 56 85 49 86
REMARK SMILES IDX 51 87 52 88 53 89 54 90
REMARK H PARENT 9 13 76 43 44 54
REMARK Flexibility Score: inf
ROOT
ATOM      1  C   UNL A   1      35.900  20.783  25.064  1.00  0.00     0.274 C 
ENDROOT
BRANCH   1   2
ATOM      2  O   UNL A   1      35.683  21.699  26.165  1.00  0.00    -0.462 OA
BRANCH   2   3
ATOM      3  C   UNL A   1      34.752  22.649  25.969  1.00  0.00     0.308 C 
ATOM      4  O   UNL A   1      34.273  23.322  26.883  1.00  0.00    -0.252 OA
BRANCH   3   5
ATOM      5  C   UNL A   1      34.232  22.827  24.574  1.00  0.00     0.151 C 
BRANCH   5   6
ATOM      6  C   UNL A   1      32.772  22.729  24.095  1.00  0.00     0.052 C 
ATOM      7  C   UNL A   1      32.106  21.577  24.992  1.00  0.00     0.029 C 
ATOM      8  C   UNL A   1      32.371  21.789  22.900  1.00  0.00     0.029 C 
ATOM      9  C   UNL A   1      32.352  20.589  23.855  1.00  0.00     0.005 C 
BRANCH   6  10
ATOM     10  N   UNL A   1      31.931  23.925  24.292  1.00  0.00    -0.332 N 
ATOM     11  C   UNL A   1      31.938  25.254  24.030  1.00  0.00     0.318 C 
ATOM     12  O   UNL A   1      30.818  25.773  24.101  1.00  0.00    -0.249 OA
ATOM     13  H   UNL A   1      31.103  23.680  24.764  1.00  0.00     0.165 HD
BRANCH  11  14
ATOM     14  N   UNL A   1      33.060  25.979  23.747  1.00  0.00    -0.322 N 
ATOM     15  C   UNL A   1      32.003  28.829  24.498  1.00  0.00     0.010 C 
ATOM     16  C   UNL A   1      33.452  28.363  24.338  1.00  0.00     0.008 C 
ATOM     17  C   UNL A   1      33.946  28.580  22.891  1.00  0.00     0.007 C 
ATOM     18  C   UNL A   1      33.662  26.887  24.754  1.00  0.00     0.086 C 
ATOM     19  C   UNL A   1      33.407  27.533  21.914  1.00  0.00     0.022 C 
ATOM     20  C   UNL A   1      33.380  26.649  26.244  1.00  0.00     0.031 C 
ATOM     21  C   UNL A   1      33.685  26.133  22.447  1.00  0.00     0.121 C 
ENDBRANCH  11  14
ENDBRANCH   6  10
ENDBRANCH   5   6
ENDBRANCH   3   5
ENDBRANCH   2   3
ENDBRANCH   1   2
BRANCH   1  22
ATOM     22  C   UNL A   1      37.331  20.241  25.021  1.00  0.00     0.275 C 
BRANCH  22  23
ATOM     23  O   UNL A   1      38.298  21.295  25.127  1.00  0.00    -0.458 OA
BRANCH  23  24
ATOM     24  C   UNL A   1      39.198  21.101  26.111  1.00  0.00     0.338 C 
ATOM     25  O   UNL A   1      39.589  20.044  26.557  1.00  0.00    -0.246 OA
BRANCH  24  26
ATOM     26  C   UNL A   1      39.761  22.350  26.584  1.00  0.00     0.060 A 
ATOM     27  C   UNL A   1      40.760  22.298  27.555  1.00  0.00     0.016 A 
ATOM     28  C   UNL A   1      39.193  23.551  26.167  1.00  0.00     0.016 A 
ATOM     29  C   UNL A   1      41.241  23.476  28.097  1.00  0.00     0.010 A 
ATOM     30  C   UNL A   1      39.699  24.734  26.683  1.00  0.00     0.010 A 
ATOM     31  C   UNL A   1      40.738  24.694  27.628  1.00  0.00    -0.014 A 
BRANCH  31  32
ATOM     32  C   UNL A   1      41.412  25.946  27.999  1.00  0.00     0.031 A 
ATOM     33  C   UNL A   1      40.673  27.014  28.730  1.00  0.00     0.074 A 
ATOM     34  C   UNL A   1      42.673  26.102  27.556  1.00  0.00     0.049 A 
ATOM     35  N   UNL A   1      41.068  28.218  29.030  1.00  0.00    -0.248 NA
ATOM     36  C   UNL A   1      39.304  26.694  29.167  1.00  0.00     0.031 C 
ATOM     37  C   UNL A   1      43.425  25.096  26.798  1.00  0.00     0.029 A 
ATOM     38  N   UNL A   1      43.527  27.164  27.637  1.00  0.00    -0.354 N 
ATOM     39  C   UNL A   1      39.987  28.823  29.657  1.00  0.00     0.074 A 
ATOM     40  C   UNL A   1      38.919  27.848  29.698  1.00  0.00     0.031 C 
ATOM     41  C   UNL A   1      44.622  25.597  26.465  1.00  0.00     0.029 A 
ATOM     42  C   UNL A   1      44.702  26.967  26.950  1.00  0.00     0.049 A 
ATOM     43  H   UNL A   1      43.324  27.987  28.138  1.00  0.00     0.167 HD
ATOM     44  C   UNL A   1      39.912  30.081  30.151  1.00  0.00     0.034 A 
ATOM     45  C   UNL A   1      45.717  27.817  26.717  1.00  0.00     0.034 A 
ATOM     46  C   UNL A   1      41.007  31.013  30.089  1.00  0.00     0.049 A 
ATOM     47  C   UNL A   1      45.619  29.190  27.311  1.00  0.00     0.074 A 
ATOM     48  C   UNL A   1      41.076  32.300  30.587  1.00  0.00     0.029 A 
ATOM     49  N   UNL A   1      42.226  30.754  29.474  1.00  0.00    -0.354 N 
ATOM     50  N   UNL A   1      44.637  29.714  28.007  1.00  0.00    -0.248 NA
ATOM     51  C   UNL A   1      46.770  30.078  27.122  1.00  0.00     0.031 C 
ATOM     52  C   UNL A   1      42.333  32.823  30.261  1.00  0.00     0.029 A 
ATOM     53  C   UNL A   1      43.055  31.856  29.575  1.00  0.00     0.049 A 
ATOM     54  H   UNL A   1      42.465  29.908  29.030  1.00  0.00     0.167 HD
ATOM     55  C   UNL A   1      45.058  30.986  28.361  1.00  0.00     0.074 A 
ATOM     56  C   UNL A   1      46.397  31.142  27.821  1.00  0.00     0.031 C 
ATOM     57  C   UNL A   1      44.397  31.949  29.052  1.00  0.00     0.034 A 
BRANCH  44  58
ATOM     58  C   UNL A   1      38.623  30.494  30.808  1.00  0.00     0.023 A 
ATOM     59  C   UNL A   1      38.400  30.181  32.165  1.00  0.00     0.012 A 
ATOM     60  C   UNL A   1      37.636  31.205  30.097  1.00  0.00     0.148 A 
ATOM     61  C   UNL A   1      37.206  30.532  32.793  1.00  0.00     0.002 A 
ATOM     62  C   UNL A   1      36.461  31.587  30.740  1.00  0.00     0.091 A 
ATOM     63  F   UNL A   1      37.850  31.475  28.802  1.00  0.00    -0.205 F 
ATOM     64  C   UNL A   1      36.241  31.241  32.083  1.00  0.00     0.022 A 
BRANCH  62  65
ATOM     65  S   UNL A   1      35.183  32.553  29.929  1.00  0.00     0.127 S 
ATOM     66  O   UNL A   1      34.238  32.774  31.024  1.00  0.00    -0.237 OA
ATOM     67  O   UNL A   1      35.917  33.748  29.509  1.00  0.00    -0.237 OA
ATOM     68  O   UNL A   1      34.690  31.729  28.834  1.00  0.00    -0.744 OA
ENDBRANCH  62  65
ENDBRANCH  44  58
BRANCH  45  69
ATOM     69  C   UNL A   1      46.909  27.348  25.957  1.00  0.00     0.023 A 
ATOM     70  C   UNL A   1      47.000  27.632  24.582  1.00  0.00     0.012 A 
ATOM     71  C   UNL A   1      47.991  26.716  26.601  1.00  0.00     0.148 A 
ATOM     72  C   UNL A   1      48.138  27.278  23.857  1.00  0.00     0.002 A 
ATOM     73  C   UNL A   1      49.144  26.413  25.884  1.00  0.00     0.091 A 
ATOM     74  F   UNL A   1      47.886  26.449  27.910  1.00  0.00    -0.205 F 
ATOM     75  C   UNL A   1      49.214  26.682  24.509  1.00  0.00     0.022 A 
BRANCH  73  76
ATOM     76  S   UNL A   1      50.628  25.775  26.673  1.00  0.00     0.127 S 
ATOM     77  O   UNL A   1      50.142  24.529  27.260  1.00  0.00    -0.237 OA
ATOM     78  O   UNL A   1      51.534  25.607  25.536  1.00  0.00    -0.237 OA
ATOM     79  O   UNL A   1      51.040  26.804  27.618  1.00  0.00    -0.744 OA
ENDBRANCH  73  76
ENDBRANCH  45  69
BRANCH  57  80
ATOM     80  C   UNL A   1      45.126  33.245  29.267  1.00  0.00     0.023 A 
ATOM     81  C   UNL A   1      45.946  33.401  30.401  1.00  0.00     0.012 A 
ATOM     82  C   UNL A   1      45.050  34.276  28.312  1.00  0.00     0.148 A 
ATOM     83  C   UNL A   1      46.662  34.579  30.596  1.00  0.00     0.002 A 
ATOM     84  C   UNL A   1      45.804  35.428  28.489  1.00  0.00     0.091 A 
ATOM     85  F   UNL A   1      44.242  34.113  27.255  1.00  0.00    -0.205 F 
ATOM     86  C   UNL A   1      46.601  35.586  29.634  1.00  0.00     0.022 A 
BRANCH  84  87
ATOM     87  S   UNL A   1      45.857  36.731  27.255  1.00  0.00     0.127 S 
ATOM     88  O   UNL A   1      46.779  37.686  27.868  1.00  0.00    -0.237 OA
ATOM     89  O   UNL A   1      46.390  36.032  26.085  1.00  0.00    -0.237 OA
ATOM     90  O   UNL A   1      44.483  37.192  27.105  1.00  0.00    -0.744 OA
ENDBRANCH  84  87
ENDBRANCH  57  80
ENDBRANCH  31  32
ENDBRANCH  24  26
ENDBRANCH  23  24
ENDBRANCH  22  23
ENDBRANCH   1  22
TORSDOF 17
ENDMDL
MODEL 2
REMARK VINA RESULT:     -11.3      5.103      8.239
REMARK SMILES C[C@@H]1CCCN(C(=O)NC2(CC(=O)OCCOC(=O)c3ccc(-c4c5nc(c(-c6cccc(S(=O)(=O)[O-])c6F)c6ccc([nH]6)c(-c6cccc(S(=O)(=O)[O-])c6F)c6nc(c(-c7cccc(S(=O)(=O)[O-])c7F)c7ccc4[nH]7)C=C6)C=C5)cc3)CCC2)[C@@H]1C
REMARK SMILES IDX 15 1 14 2 12 3 13 4 11 5 10 6 83 7 85 8 84 9 9 10 7 11 8 12
REMARK SMILES IDX 6 14 1 15 2 16 3 17 86 18 4 19 87 20 5 21 16 22 17 23 18 24
REMARK SMILES IDX 19 25 20 26 21 27 82 28 22 29 81 30 23 31 24 32 25 33 75 34
REMARK SMILES IDX 26 35 80 36 74 37 76 38 27 39 79 40 73 41 72 42 28 44 60 45
REMARK SMILES IDX 40 46 59 47 41 48 44 49 58 50 77 51 42 52 43 53 57 55 78 56
REMARK SMILES IDX 45 57 29 58 30 59 38 60 31 61 33 62 39 63 32 64 34 65 35 66
REMARK SMILES IDX 36 67 37 68 61 69 62 70 70 71 63 72 65 73 71 74 64 75 66 76
REMARK SMILES IDX 67 77 68 78 69 79 46 80 47 81 55 82 48 83 50 84 56 85 49 86
REMARK SMILES IDX 51 87 52 88 53 89 54 90
REMARK H PARENT 9 13 76 43 44 54
REMARK Flexibility Score: inf
ROOT
ATOM      1  C   UNL A   1      31.422  31.721  26.466  1.00  0.00     0.274 C 
ENDROOT
BRANCH   1   2
ATOM      2  O   UNL A   1      32.249  30.588  26.826  1.00  0.00    -0.462 OA
BRANCH   2   3
ATOM      3  C   UNL A   1      31.963  29.427  26.213  1.00  0.00     0.308 C 
ATOM      4  O   UNL A   1      31.602  28.416  26.816  1.00  0.00    -0.252 OA
BRANCH   3   5
ATOM      5  C   UNL A   1      32.175  29.361  24.730  1.00  0.00     0.151 C 
BRANCH   5   6
ATOM      6  C   UNL A   1      31.699  28.265  23.759  1.00  0.00     0.052 C 
ATOM      7  C   UNL A   1      30.876  29.036  22.617  1.00  0.00     0.029 C 
ATOM      8  C   UNL A   1      30.337  27.513  23.989  1.00  0.00     0.029 C 
ATOM      9  C   UNL A   1      29.584  28.688  23.352  1.00  0.00     0.005 C 
BRANCH   6  10
ATOM     10  N   UNL A   1      32.750  27.508  23.052  1.00  0.00    -0.332 N 
ATOM     11  C   UNL A   1      33.099  26.230  22.773  1.00  0.00     0.318 C 
ATOM     12  O   UNL A   1      33.901  26.134  21.837  1.00  0.00    -0.249 OA
ATOM     13  H   UNL A   1      33.405  28.128  22.659  1.00  0.00     0.165 HD
BRANCH  11  14
ATOM     14  N   UNL A   1      32.652  25.139  23.463  1.00  0.00    -0.322 N 
ATOM     15  C   UNL A   1      35.299  23.467  23.504  1.00  0.00     0.010 C 
ATOM     16  C   UNL A   1      34.063  23.314  24.393  1.00  0.00     0.008 C 
ATOM     17  C   UNL A   1      33.063  22.308  23.782  1.00  0.00     0.007 C 
ATOM     18  C   UNL A   1      33.353  24.659  24.679  1.00  0.00     0.086 C 
ATOM     19  C   UNL A   1      32.263  22.897  22.617  1.00  0.00     0.022 C 
ATOM     20  C   UNL A   1      34.236  25.634  25.472  1.00  0.00     0.031 C 
ATOM     21  C   UNL A   1      31.620  24.212  23.040  1.00  0.00     0.121 C 
ENDBRANCH  11  14
ENDBRANCH   6  10
ENDBRANCH   5   6
ENDBRANCH   3   5
ENDBRANCH   2   3
ENDBRANCH   1   2
BRANCH   1  22
ATOM     22  C   UNL A   1      32.080  33.062  26.799  1.00  0.00     0.275 C 
BRANCH  22  23
ATOM     23  O   UNL A   1      32.916  32.965  27.962  1.00  0.00    -0.458 OA
BRANCH  23  24
ATOM     24  C   UNL A   1      34.118  33.555  27.809  1.00  0.00     0.338 C 
ATOM     25  O   UNL A   1      34.356  34.624  27.288  1.00  0.00    -0.246 OA
BRANCH  24  26
ATOM     26  C   UNL A   1      35.179  32.788  28.429  1.00  0.00     0.060 A 
ATOM     27  C   UNL A   1      36.468  33.322  28.426  1.00  0.00     0.016 A 
ATOM     28  C   UNL A   1      34.913  31.495  28.872  1.00  0.00     0.016 A 
ATOM     29  C   UNL A   1      37.516  32.567  28.918  1.00  0.00     0.010 A 
ATOM     30  C   UNL A   1      35.957  30.751  29.399  1.00  0.00     0.010 A 
ATOM     31  C   UNL A   1      37.251  31.297  29.443  1.00  0.00    -0.014 A 
BRANCH  31  32
ATOM     32  C   UNL A   1      38.296  30.594  30.199  1.00  0.00     0.031 A 
ATOM     33  C   UNL A   1      38.612  30.993  31.600  1.00  0.00     0.074 A 
ATOM     34  C   UNL A   1      39.000  29.664  29.529  1.00  0.00     0.049 A 
ATOM     35  N   UNL A   1      39.572  30.569  32.371  1.00  0.00    -0.248 NA
ATOM     36  C   UNL A   1      37.745  32.014  32.211  1.00  0.00     0.031 C 
ATOM     37  C   UNL A   1      38.752  29.268  28.137  1.00  0.00     0.029 A 
ATOM     38  N   UNL A   1      40.080  28.916  29.899  1.00  0.00    -0.354 N 
ATOM     39  C   UNL A   1      39.459  31.297  33.547  1.00  0.00     0.074 A 
ATOM     40  C   UNL A   1      38.329  32.188  33.390  1.00  0.00     0.031 C 
ATOM     41  C   UNL A   1      39.669  28.366  27.765  1.00  0.00     0.029 A 
ATOM     42  C   UNL A   1      40.586  28.152  28.874  1.00  0.00     0.049 A 
ATOM     43  H   UNL A   1      40.458  28.923  30.808  1.00  0.00     0.167 HD
ATOM     44  C   UNL A   1      40.235  31.213  34.653  1.00  0.00     0.034 A 
ATOM     45  C   UNL A   1      41.691  27.386  28.834  1.00  0.00     0.034 A 
ATOM     46  C   UNL A   1      41.347  30.306  34.761  1.00  0.00     0.049 A 
ATOM     47  C   UNL A   1      42.508  27.286  30.087  1.00  0.00     0.074 A 
ATOM     48  C   UNL A   1      42.188  30.092  35.838  1.00  0.00     0.029 A 
ATOM     49  N   UNL A   1      41.779  29.467  33.741  1.00  0.00    -0.354 N 
ATOM     50  N   UNL A   1      42.322  27.890  31.238  1.00  0.00    -0.248 NA
ATOM     51  C   UNL A   1      43.661  26.382  30.056  1.00  0.00     0.031 C 
ATOM     52  C   UNL A   1      43.136  29.133  35.462  1.00  0.00     0.029 A 
ATOM     53  C   UNL A   1      42.877  28.735  34.158  1.00  0.00     0.049 A 
ATOM     54  H   UNL A   1      41.366  29.402  32.851  1.00  0.00     0.167 HD
ATOM     55  C   UNL A   1      43.320  27.423  32.079  1.00  0.00     0.074 A 
ATOM     56  C   UNL A   1      44.093  26.465  31.308  1.00  0.00     0.031 C 
ATOM     57  C   UNL A   1      43.590  27.764  33.364  1.00  0.00     0.034 A 
BRANCH  44  58
ATOM     58  C   UNL A   1      39.889  32.105  35.815  1.00  0.00     0.023 A 
ATOM     59  C   UNL A   1      40.593  33.312  36.001  1.00  0.00     0.012 A 
ATOM     60  C   UNL A   1      38.861  31.763  36.716  1.00  0.00     0.148 A 
ATOM     61  C   UNL A   1      40.308  34.146  37.082  1.00  0.00     0.002 A 
ATOM     62  C   UNL A   1      38.556  32.618  37.771  1.00  0.00     0.091 A 
ATOM     63  F   UNL A   1      38.217  30.600  36.541  1.00  0.00    -0.205 F 
ATOM     64  C   UNL A   1      39.285  33.802  37.962  1.00  0.00     0.022 A 
BRANCH  62  65
ATOM     65  S   UNL A   1      37.217  32.294  38.924  1.00  0.00     0.127 S 
ATOM     66  O   UNL A   1      37.604  33.118  40.068  1.00  0.00    -0.237 OA
ATOM     67  O   UNL A   1      36.050  32.785  38.189  1.00  0.00    -0.237 OA
ATOM     68  O   UNL A   1      37.226  30.856  39.156  1.00  0.00    -0.744 OA
ENDBRANCH  62  65
ENDBRANCH  44  58
BRANCH  45  69
ATOM     69  C   UNL A   1      42.013  26.625  27.596  1.00  0.00     0.023 A 
ATOM     70  C   UNL A   1      42.686  27.277  26.546  1.00  0.00     0.012 A 
ATOM     71  C   UNL A   1      41.751  25.244  27.491  1.00  0.00     0.148 A 
ATOM     72  C   UNL A   1      43.074  26.574  25.405  1.00  0.00     0.002 A 
ATOM     73  C   UNL A   1      42.187  24.538  26.374  1.00  0.00     0.091 A 
ATOM     74  F   UNL A   1      41.105  24.640  28.498  1.00  0.00    -0.205 F 
ATOM     75  C   UNL A   1      42.837  25.204  25.325  1.00  0.00     0.022 A 
BRANCH  73  76
ATOM     76  S   UNL A   1      42.049  22.749  26.254  1.00  0.00     0.127 S 
ATOM     77  O   UNL A   1      42.772  22.313  27.445  1.00  0.00    -0.237 OA
ATOM     78  O   UNL A   1      40.601  22.548  26.305  1.00  0.00    -0.237 OA
ATOM     79  O   UNL A   1      42.655  22.398  24.977  1.00  0.00    -0.744 OA
ENDBRANCH  73  76
ENDBRANCH  45  69
BRANCH  57  80
ATOM     80  C   UNL A   1      44.763  27.083  34.009  1.00  0.00     0.023 A 
ATOM     81  C   UNL A   1      46.050  27.639  33.873  1.00  0.00     0.012 A 
ATOM     82  C   UNL A   1      44.579  25.935  34.802  1.00  0.00     0.148 A 
ATOM     83  C   UNL A   1      47.144  27.045  34.498  1.00  0.00     0.002 A 
ATOM     84  C   UNL A   1      45.666  25.377  35.461  1.00  0.00     0.091 A 
ATOM     85  F   UNL A   1      43.348  25.410  34.893  1.00  0.00    -0.205 F 
ATOM     86  C   UNL A   1      46.949  25.923  35.301  1.00  0.00     0.022 A 
BRANCH  84  87
ATOM     87  S   UNL A   1      45.488  23.991  36.587  1.00  0.00     0.127 S 
ATOM     88  O   UNL A   1      46.872  23.758  36.996  1.00  0.00    -0.237 OA
ATOM     89  O   UNL A   1      44.627  24.546  37.632  1.00  0.00    -0.237 OA
ATOM     90  O   UNL A   1      44.876  22.922  35.809  1.00  0.00    -0.744 OA
ENDBRANCH  84  87
ENDBRANCH  57  80
ENDBRANCH  31  32
ENDBRANCH  24  26
ENDBRANCH  23  24
ENDBRANCH  22  23
ENDBRANCH   1  22
TORSDOF 17
ENDMDL
MODEL 3
REMARK VINA RESULT:     -11.2      1.419      1.604
REMARK SMILES C[C@@H]1CCCN(C(=O)NC2(CC(=O)OCCOC(=O)c3ccc(-c4c5nc(c(-c6cccc(S(=O)(=O)[O-])c6F)c6ccc([nH]6)c(-c6cccc(S(=O)(=O)[O-])c6F)c6nc(c(-c7cccc(S(=O)(=O)[O-])c7F)c7ccc4[nH]7)C=C6)C=C5)cc3)CCC2)[C@@H]1C
REMARK SMILES IDX 15 1 14 2 12 3 13 4 11 5 10 6 83 7 85 8 84 9 9 10 7 11 8 12
REMARK SMILES IDX 6 14 1 15 2 16 3 17 86 18 4 19 87 20 5 21 16 22 17 23 18 24
REMARK SMILES IDX 19 25 20 26 21 27 82 28 22 29 81 30 23 31 24 32 25 33 75 34
REMARK SMILES IDX 26 35 80 36 74 37 76 38 27 39 79 40 73 41 72 42 28 44 60 45
REMARK SMILES IDX 40 46 59 47 41 48 44 49 58 50 77 51 42 52 43 53 57 55 78 56
REMARK SMILES IDX 45 57 29 58 30 59 38 60 31 61 33 62 39 63 32 64 34 65 35 66
REMARK SMILES IDX 36 67 37 68 61 69 62 70 70 71 63 72 65 73 71 74 64 75 66 76
REMARK SMILES IDX 67 77 68 78 69 79 46 80 47 81 55 82 48 83 50 84 56 85 49 86
REMARK SMILES IDX 51 87 52 88 53 89 54 90
REMARK H PARENT 9 13 76 43 44 54
REMARK Flexibility Score: inf
ROOT
ATOM      1  C   UNL A   1      35.992  20.769  24.884  1.00  0.00     0.274 C 
ENDROOT
BRANCH   1   2
ATOM      2  O   UNL A   1      35.421  21.295  26.107  1.00  0.00    -0.462 OA
BRANCH   2   3
ATOM      3  C   UNL A   1      34.716  22.433  25.990  1.00  0.00     0.308 C 
ATOM      4  O   UNL A   1      34.509  23.197  26.932  1.00  0.00    -0.252 OA
BRANCH   3   5
ATOM      5  C   UNL A   1      34.097  22.725  24.656  1.00  0.00     0.151 C 
BRANCH   5   6
ATOM      6  C   UNL A   1      32.606  22.660  24.276  1.00  0.00     0.052 C 
ATOM      7  C   UNL A   1      32.082  21.255  24.847  1.00  0.00     0.029 C 
ATOM      8  C   UNL A   1      32.145  22.073  22.892  1.00  0.00     0.029 C 
ATOM      9  C   UNL A   1      32.272  20.652  23.457  1.00  0.00     0.005 C 
BRANCH   6  10
ATOM     10  N   UNL A   1      31.728  23.686  24.873  1.00  0.00    -0.332 N 
ATOM     11  C   UNL A   1      31.291  24.945  24.633  1.00  0.00     0.318 C 
ATOM     12  O   UNL A   1      30.276  25.241  25.275  1.00  0.00    -0.249 OA
ATOM     13  H   UNL A   1      31.337  23.348  25.710  1.00  0.00     0.165 HD
BRANCH  11  14
ATOM     14  N   UNL A   1      31.910  25.832  23.799  1.00  0.00    -0.322 N 
ATOM     15  C   UNL A   1      31.403  28.463  25.418  1.00  0.00     0.010 C 
ATOM     16  C   UNL A   1      32.428  28.209  24.311  1.00  0.00     0.008 C 
ATOM     17  C   UNL A   1      31.850  28.574  22.926  1.00  0.00     0.007 C 
ATOM     18  C   UNL A   1      32.957  26.755  24.299  1.00  0.00     0.086 C 
ATOM     19  C   UNL A   1      30.879  27.519  22.391  1.00  0.00     0.022 C 
ATOM     20  C   UNL A   1      33.726  26.397  25.579  1.00  0.00     0.031 C 
ATOM     21  C   UNL A   1      31.530  26.143  22.434  1.00  0.00     0.121 C 
ENDBRANCH  11  14
ENDBRANCH   6  10
ENDBRANCH   5   6
ENDBRANCH   3   5
ENDBRANCH   2   3
ENDBRANCH   1   2
BRANCH   1  22
ATOM     22  C   UNL A   1      37.515  20.907  24.836  1.00  0.00     0.275 C 
BRANCH  22  23
ATOM     23  O   UNL A   1      38.057  21.223  26.127  1.00  0.00    -0.458 OA
BRANCH  23  24
ATOM     24  C   UNL A   1      39.404  21.199  26.163  1.00  0.00     0.338 C 
ATOM     25  O   UNL A   1      40.137  20.299  25.813  1.00  0.00    -0.246 OA
BRANCH  24  26
ATOM     26  C   UNL A   1      39.955  22.458  26.622  1.00  0.00     0.060 A 
ATOM     27  C   UNL A   1      40.927  22.428  27.622  1.00  0.00     0.016 A 
ATOM     28  C   UNL A   1      39.402  23.649  26.160  1.00  0.00     0.016 A 
ATOM     29  C   UNL A   1      41.395  23.618  28.149  1.00  0.00     0.010 A 
ATOM     30  C   UNL A   1      39.896  24.844  26.662  1.00  0.00     0.010 A 
ATOM     31  C   UNL A   1      40.907  24.825  27.637  1.00  0.00    -0.014 A 
BRANCH  31  32
ATOM     32  C   UNL A   1      41.573  26.084  27.996  1.00  0.00     0.031 A 
ATOM     33  C   UNL A   1      40.829  27.151  28.724  1.00  0.00     0.074 A 
ATOM     34  C   UNL A   1      42.830  26.249  27.546  1.00  0.00     0.049 A 
ATOM     35  N   UNL A   1      41.216  28.360  29.016  1.00  0.00    -0.248 NA
ATOM     36  C   UNL A   1      39.465  26.823  29.171  1.00  0.00     0.031 C 
ATOM     37  C   UNL A   1      43.587  25.244  26.789  1.00  0.00     0.029 A 
ATOM     38  N   UNL A   1      43.676  27.318  27.616  1.00  0.00    -0.354 N 
ATOM     39  C   UNL A   1      40.133  28.960  29.644  1.00  0.00     0.074 A 
ATOM     40  C   UNL A   1      39.073  27.976  29.697  1.00  0.00     0.031 C 
ATOM     41  C   UNL A   1      44.777  25.753  26.447  1.00  0.00     0.029 A 
ATOM     42  C   UNL A   1      44.848  27.126  26.924  1.00  0.00     0.049 A 
ATOM     43  H   UNL A   1      43.468  28.142  28.113  1.00  0.00     0.167 HD
ATOM     44  C   UNL A   1      40.050  30.220  30.131  1.00  0.00     0.034 A 
ATOM     45  C   UNL A   1      45.856  27.983  26.680  1.00  0.00     0.034 A 
ATOM     46  C   UNL A   1      41.137  31.161  30.057  1.00  0.00     0.049 A 
ATOM     47  C   UNL A   1      45.750  29.359  27.266  1.00  0.00     0.074 A 
ATOM     48  C   UNL A   1      41.199  32.452  30.547  1.00  0.00     0.029 A 
ATOM     49  N   UNL A   1      42.355  30.908  29.438  1.00  0.00    -0.354 N 
ATOM     50  N   UNL A   1      44.767  29.879  27.965  1.00  0.00    -0.248 NA
ATOM     51  C   UNL A   1      46.892  30.255  27.065  1.00  0.00     0.031 C 
ATOM     52  C   UNL A   1      42.450  32.982  30.211  1.00  0.00     0.029 A 
ATOM     53  C   UNL A   1      43.176  32.017  29.528  1.00  0.00     0.049 A 
ATOM     54  H   UNL A   1      42.599  30.062  28.998  1.00  0.00     0.167 HD
ATOM     55  C   UNL A   1      45.179  31.157  28.308  1.00  0.00     0.074 A 
ATOM     56  C   UNL A   1      46.514  31.320  27.760  1.00  0.00     0.031 C 
ATOM     57  C   UNL A   1      44.514  32.118  28.997  1.00  0.00     0.034 A 
BRANCH  44  58
ATOM     58  C   UNL A   1      38.761  30.627  30.793  1.00  0.00     0.023 A 
ATOM     59  C   UNL A   1      38.566  30.358  32.163  1.00  0.00     0.012 A 
ATOM     60  C   UNL A   1      37.748  31.288  30.072  1.00  0.00     0.148 A 
ATOM     61  C   UNL A   1      37.373  30.704  32.797  1.00  0.00     0.002 A 
ATOM     62  C   UNL A   1      36.574  31.665  30.718  1.00  0.00     0.091 A 
ATOM     63  F   UNL A   1      37.936  31.515  28.764  1.00  0.00    -0.205 F 
ATOM     64  C   UNL A   1      36.381  31.364  32.076  1.00  0.00     0.022 A 
BRANCH  62  65
ATOM     65  S   UNL A   1      35.261  32.572  29.893  1.00  0.00     0.127 S 
ATOM     66  O   UNL A   1      34.311  32.780  30.986  1.00  0.00    -0.237 OA
ATOM     67  O   UNL A   1      35.952  33.783  29.449  1.00  0.00    -0.237 OA
ATOM     68  O   UNL A   1      34.795  31.711  28.815  1.00  0.00    -0.744 OA
ENDBRANCH  62  65
ENDBRANCH  44  58
BRANCH  45  69
ATOM     69  C   UNL A   1      47.047  27.519  25.916  1.00  0.00     0.023 A 
ATOM     70  C   UNL A   1      47.953  26.635  26.530  1.00  0.00     0.012 A 
ATOM     71  C   UNL A   1      47.234  27.866  24.563  1.00  0.00     0.148 A 
ATOM     72  C   UNL A   1      49.035  26.119  25.816  1.00  0.00     0.002 A 
ATOM     73  C   UNL A   1      48.285  27.307  23.843  1.00  0.00     0.091 A 
ATOM     74  F   UNL A   1      46.364  28.713  23.996  1.00  0.00    -0.205 F 
ATOM     75  C   UNL A   1      49.194  26.443  24.472  1.00  0.00     0.022 A 
BRANCH  73  76
ATOM     76  S   UNL A   1      48.480  27.559  22.073  1.00  0.00     0.127 S 
ATOM     77  O   UNL A   1      49.688  28.377  22.019  1.00  0.00    -0.237 OA
ATOM     78  O   UNL A   1      48.642  26.190  21.583  1.00  0.00    -0.237 OA
ATOM     79  O   UNL A   1      47.252  28.208  21.635  1.00  0.00    -0.744 OA
ENDBRANCH  73  76
ENDBRANCH  45  69
BRANCH  57  80
ATOM     80  C   UNL A   1      45.233  33.421  29.200  1.00  0.00     0.023 A 
ATOM     81  C   UNL A   1      46.018  33.609  30.354  1.00  0.00     0.012 A 
ATOM     82  C   UNL A   1      45.185  34.427  28.217  1.00  0.00     0.148 A 
ATOM     83  C   UNL A   1      46.725  34.794  30.540  1.00  0.00     0.002 A 
ATOM     84  C   UNL A   1      45.931  35.585  28.387  1.00  0.00     0.091 A 
ATOM     85  F   UNL A   1      44.409  34.234  27.140  1.00  0.00    -0.205 F 
ATOM     86  C   UNL A   1      46.692  35.775  29.551  1.00  0.00     0.022 A 
BRANCH  84  87
ATOM     87  S   UNL A   1      46.018  36.856  27.122  1.00  0.00     0.127 S 
ATOM     88  O   UNL A   1      46.883  37.850  27.755  1.00  0.00    -0.237 OA
ATOM     89  O   UNL A   1      46.628  36.140  26.001  1.00  0.00    -0.237 OA
ATOM     90  O   UNL A   1      44.644  37.279  26.887  1.00  0.00    -0.744 OA
ENDBRANCH  84  87
ENDBRANCH  57  80
ENDBRANCH  31  32
ENDBRANCH  24  26
ENDBRANCH  23  24
ENDBRANCH  22  23
ENDBRANCH   1  22
TORSDOF 17
ENDMDL
