MODEL 1
REMARK VINA RESULT:     -12.7      0.000      0.000
REMARK SMILES CC(C)(C)c1cc2c(cc1Cl)C=C(C(=O)OCCOC(=O)c1ccc(-c3c4nc(c(-c5cccc(S(=O)(=O)[O-])c5F)c5ccc([nH]5)c(-c5cccc(S(=O)(=O)[O-])c5F)c5nc(c(-c6cccc(S(=O)(=O)[O-])c6F)c6ccc3[nH]6)C=C5)C=C4)cc1)[C@@H](C(F)(F)F)O2
REMARK SMILES IDX 18 1 17 2 16 3 14 4 15 5 13 6 5 7 6 8 10 9 7 10 9 11 11 12
REMARK SMILES IDX 8 13 90 14 12 15 85 16 2 17 1 18 3 19 4 20 86 21 87 22 88 23
REMARK SMILES IDX 89 24 19 25 20 26 21 27 22 28 23 29 84 30 24 31 83 32 25 33
REMARK SMILES IDX 26 34 27 35 77 36 28 37 82 38 76 39 78 40 29 41 81 42 75 43
REMARK SMILES IDX 74 44 30 46 62 47 42 48 61 49 43 50 46 51 60 52 79 53 44 54
REMARK SMILES IDX 45 55 59 57 80 58 47 59 31 60 32 61 40 62 33 63 35 64 41 65
REMARK SMILES IDX 34 66 36 67 37 68 38 69 39 70 63 71 64 72 72 73 65 74 67 75
REMARK SMILES IDX 73 76 66 77 68 78 69 79 70 80 71 81 48 82 49 83 57 84 50 85
REMARK SMILES IDX 52 86 58 87 51 88 53 89 54 90 55 91 56 92
REMARK H PARENT 78 45 46 56
REMARK Flexibility Score: inf
ROOT
ATOM      1  C   UNL A   1      37.564  20.436  24.808  1.00  0.00     0.275 C 
ENDROOT
BRANCH   1   2
ATOM      2  C   UNL A   1      36.053  20.328  25.015  1.00  0.00     0.275 C 
BRANCH   2   3
ATOM      3  O   UNL A   1      35.345  21.389  24.336  1.00  0.00    -0.459 OA
BRANCH   3   4
ATOM      4  C   UNL A   1      33.996  21.325  24.417  1.00  0.00     0.338 C 
ATOM      5  O   UNL A   1      33.300  20.347  24.195  1.00  0.00    -0.246 OA
BRANCH   4   6
ATOM      6  C   UNL A   1      33.435  22.619  24.850  1.00  0.00     0.087 C 
ATOM      7  C   UNL A   1      32.713  27.583  25.567  1.00  0.00    -0.020 A 
ATOM      8  C   UNL A   1      32.338  26.396  26.252  1.00  0.00     0.053 A 
ATOM      9  C   UNL A   1      33.366  27.409  24.325  1.00  0.00     0.045 A 
ATOM     10  C   UNL A   1      32.645  25.118  25.770  1.00  0.00     0.128 A 
ATOM     11  C   UNL A   1      33.675  26.131  23.848  1.00  0.00     0.032 A 
ATOM     12  Cl  UNL A   1      33.836  28.692  23.267  1.00  0.00    -0.084 Cl
ATOM     13  C   UNL A   1      33.335  24.995  24.579  1.00  0.00     0.019 A 
ATOM     14  O   UNL A   1      32.235  24.049  26.519  1.00  0.00    -0.475 OA
ATOM     15  C   UNL A   1      33.741  23.690  24.114  1.00  0.00     0.027 C 
ATOM     16  C   UNL A   1      32.677  22.709  26.143  1.00  0.00     0.316 C 
BRANCH   7  17
ATOM     17  C   UNL A   1      32.399  28.967  26.184  1.00  0.00    -0.012 C 
ATOM     18  C   UNL A   1      31.455  29.758  25.254  1.00  0.00     0.016 C 
ATOM     19  C   UNL A   1      33.686  29.781  26.462  1.00  0.00     0.016 C 
ATOM     20  C   UNL A   1      31.680  28.875  27.558  1.00  0.00     0.016 C 
ENDBRANCH   7  17
BRANCH  16  21
ATOM     21  C   UNL A   1      33.482  22.120  27.313  1.00  0.00     0.430 C 
ATOM     22  F   UNL A   1      33.531  20.767  27.242  1.00  0.00    -0.167 F 
ATOM     23  F   UNL A   1      34.769  22.548  27.302  1.00  0.00    -0.167 F 
ATOM     24  F   UNL A   1      32.957  22.445  28.515  1.00  0.00    -0.167 F 
ENDBRANCH  16  21
ENDBRANCH   4   6
ENDBRANCH   3   4
ENDBRANCH   2   3
ENDBRANCH   1   2
BRANCH   1  25
ATOM     25  O   UNL A   1      38.093  21.567  25.523  1.00  0.00    -0.458 OA
BRANCH  25  26
ATOM     26  C   UNL A   1      39.279  21.354  26.137  1.00  0.00     0.338 C 
ATOM     27  O   UNL A   1      39.955  20.340  26.110  1.00  0.00    -0.246 OA
BRANCH  26  28
ATOM     28  C   UNL A   1      39.718  22.587  26.806  1.00  0.00     0.060 A 
ATOM     29  C   UNL A   1      40.781  22.585  27.701  1.00  0.00     0.016 A 
ATOM     30  C   UNL A   1      39.161  23.791  26.393  1.00  0.00     0.016 A 
ATOM     31  C   UNL A   1      41.273  23.808  28.175  1.00  0.00     0.010 A 
ATOM     32  C   UNL A   1      39.766  24.998  26.725  1.00  0.00     0.010 A 
ATOM     33  C   UNL A   1      40.806  25.035  27.656  1.00  0.00    -0.014 A 
BRANCH  33  34
ATOM     34  C   UNL A   1      41.399  26.340  28.078  1.00  0.00     0.031 A 
ATOM     35  C   UNL A   1      42.813  26.726  27.694  1.00  0.00     0.074 A 
ATOM     36  C   UNL A   1      40.684  27.176  28.861  1.00  0.00     0.049 A 
ATOM     37  N   UNL A   1      43.462  27.833  27.959  1.00  0.00    -0.248 NA
ATOM     38  C   UNL A   1      43.623  25.736  26.962  1.00  0.00     0.031 C 
ATOM     39  C   UNL A   1      39.367  26.882  29.433  1.00  0.00     0.029 A 
ATOM     40  N   UNL A   1      40.955  28.448  29.305  1.00  0.00    -0.354 N 
ATOM     41  C   UNL A   1      44.755  27.645  27.482  1.00  0.00     0.074 A 
ATOM     42  C   UNL A   1      44.820  26.303  26.954  1.00  0.00     0.031 C 
ATOM     43  C   UNL A   1      38.913  27.966  30.080  1.00  0.00     0.029 A 
ATOM     44  C   UNL A   1      39.917  29.023  30.001  1.00  0.00     0.049 A 
ATOM     45  H   UNL A   1      41.811  28.905  29.141  1.00  0.00     0.167 HD
ATOM     46  C   UNL A   1      45.786  28.521  27.431  1.00  0.00     0.034 A 
ATOM     47  C   UNL A   1      39.768  30.267  30.497  1.00  0.00     0.034 A 
ATOM     48  C   UNL A   1      45.691  29.893  27.843  1.00  0.00     0.049 A 
ATOM     49  C   UNL A   1      40.866  31.272  30.304  1.00  0.00     0.074 A 
ATOM     50  C   UNL A   1      46.633  30.897  27.705  1.00  0.00     0.029 A 
ATOM     51  N   UNL A   1      44.585  30.458  28.455  1.00  0.00    -0.354 N 
ATOM     52  N   UNL A   1      42.024  31.115  29.710  1.00  0.00    -0.248 NA
ATOM     53  C   UNL A   1      40.633  32.629  30.820  1.00  0.00     0.031 C 
ATOM     54  C   UNL A   1      46.093  32.074  28.231  1.00  0.00     0.029 A 
ATOM     55  C   UNL A   1      44.816  31.801  28.693  1.00  0.00     0.049 A 
ATOM     56  H   UNL A   1      43.759  29.977  28.686  1.00  0.00     0.167 HD
ATOM     57  C   UNL A   1      42.651  32.353  29.766  1.00  0.00     0.074 A 
ATOM     58  C   UNL A   1      41.739  33.256  30.436  1.00  0.00     0.031 C 
ATOM     59  C   UNL A   1      43.880  32.700  29.316  1.00  0.00     0.034 A 
BRANCH  46  60
ATOM     60  C   UNL A   1      47.078  28.062  26.807  1.00  0.00     0.023 A 
ATOM     61  C   UNL A   1      48.136  27.652  27.644  1.00  0.00     0.012 A 
ATOM     62  C   UNL A   1      47.219  27.958  25.410  1.00  0.00     0.148 A 
ATOM     63  C   UNL A   1      49.326  27.171  27.100  1.00  0.00     0.002 A 
ATOM     64  C   UNL A   1      48.395  27.442  24.876  1.00  0.00     0.091 A 
ATOM     65  F   UNL A   1      46.205  28.362  24.632  1.00  0.00    -0.205 F 
ATOM     66  C   UNL A   1      49.451  27.056  25.719  1.00  0.00     0.022 A 
BRANCH  64  67
ATOM     67  S   UNL A   1      48.640  27.188  23.114  1.00  0.00     0.127 S 
ATOM     68  O   UNL A   1      48.267  25.781  22.965  1.00  0.00    -0.237 OA
ATOM     69  O   UNL A   1      47.689  28.135  22.532  1.00  0.00    -0.237 OA
ATOM     70  O   UNL A   1      50.041  27.489  22.853  1.00  0.00    -0.744 OA
ENDBRANCH  64  67
ENDBRANCH  46  60
BRANCH  47  71
ATOM     71  C   UNL A   1      38.464  30.648  31.107  1.00  0.00     0.023 A 
ATOM     72  C   UNL A   1      38.263  30.411  32.482  1.00  0.00     0.012 A 
ATOM     73  C   UNL A   1      37.478  31.333  30.372  1.00  0.00     0.148 A 
ATOM     74  C   UNL A   1      37.100  30.853  33.115  1.00  0.00     0.002 A 
ATOM     75  C   UNL A   1      36.341  31.804  31.018  1.00  0.00     0.091 A 
ATOM     76  F   UNL A   1      37.697  31.547  29.067  1.00  0.00    -0.205 F 
ATOM     77  C   UNL A   1      36.147  31.558  32.387  1.00  0.00     0.022 A 
BRANCH  75  78
ATOM     78  S   UNL A   1      35.107  32.820  30.197  1.00  0.00     0.127 S 
ATOM     79  O   UNL A   1      34.595  31.904  29.181  1.00  0.00    -0.237 OA
ATOM     80  O   UNL A   1      34.180  33.103  31.294  1.00  0.00    -0.237 OA
ATOM     81  O   UNL A   1      35.820  33.982  29.688  1.00  0.00    -0.744 OA
ENDBRANCH  75  78
ENDBRANCH  47  71
BRANCH  59  82
ATOM     82  C   UNL A   1      44.334  34.118  29.511  1.00  0.00     0.023 A 
ATOM     83  C   UNL A   1      44.926  34.487  30.734  1.00  0.00     0.012 A 
ATOM     84  C   UNL A   1      44.311  35.033  28.442  1.00  0.00     0.148 A 
ATOM     85  C   UNL A   1      45.487  35.753  30.892  1.00  0.00     0.002 A 
ATOM     86  C   UNL A   1      44.901  36.282  28.595  1.00  0.00     0.091 A 
ATOM     87  F   UNL A   1      43.735  34.655  27.292  1.00  0.00    -0.205 F 
ATOM     88  C   UNL A   1      45.485  36.644  29.821  1.00  0.00     0.022 A 
BRANCH  86  89
ATOM     89  S   UNL A   1      45.021  37.467  27.251  1.00  0.00     0.127 S 
ATOM     90  O   UNL A   1      45.788  36.716  26.259  1.00  0.00    -0.237 OA
ATOM     91  O   UNL A   1      43.616  37.682  26.902  1.00  0.00    -0.237 OA
ATOM     92  O   UNL A   1      45.695  38.635  27.801  1.00  0.00    -0.744 OA
ENDBRANCH  86  89
ENDBRANCH  59  82
ENDBRANCH  33  34
ENDBRANCH  26  28
ENDBRANCH  25  26
ENDBRANCH   1  25
TORSDOF 16
ENDMDL
MODEL 2
REMARK VINA RESULT:     -12.4      5.209     10.253
REMARK SMILES CC(C)(C)c1cc2c(cc1Cl)C=C(C(=O)OCCOC(=O)c1ccc(-c3c4nc(c(-c5cccc(S(=O)(=O)[O-])c5F)c5ccc([nH]5)c(-c5cccc(S(=O)(=O)[O-])c5F)c5nc(c(-c6cccc(S(=O)(=O)[O-])c6F)c6ccc3[nH]6)C=C5)C=C4)cc1)[C@@H](C(F)(F)F)O2
REMARK SMILES IDX 18 1 17 2 16 3 14 4 15 5 13 6 5 7 6 8 10 9 7 10 9 11 11 12
REMARK SMILES IDX 8 13 90 14 12 15 85 16 2 17 1 18 3 19 4 20 86 21 87 22 88 23
REMARK SMILES IDX 89 24 19 25 20 26 21 27 22 28 23 29 84 30 24 31 83 32 25 33
REMARK SMILES IDX 26 34 27 35 77 36 28 37 82 38 76 39 78 40 29 41 81 42 75 43
REMARK SMILES IDX 74 44 30 46 62 47 42 48 61 49 43 50 46 51 60 52 79 53 44 54
REMARK SMILES IDX 45 55 59 57 80 58 47 59 31 60 32 61 40 62 33 63 35 64 41 65
REMARK SMILES IDX 34 66 36 67 37 68 38 69 39 70 63 71 64 72 72 73 65 74 67 75
REMARK SMILES IDX 73 76 66 77 68 78 69 79 70 80 71 81 48 82 49 83 57 84 50 85
REMARK SMILES IDX 52 86 58 87 51 88 53 89 54 90 55 91 56 92
REMARK H PARENT 78 45 46 56
REMARK Flexibility Score: inf
ROOT
ATOM      1  C   UNL A   1      31.284  31.169  26.264  1.00  0.00     0.275 C 
ENDROOT
BRANCH   1   2
ATOM      2  C   UNL A   1      31.497  30.264  25.050  1.00  0.00     0.275 C 
BRANCH   2   3
ATOM      3  O   UNL A   1      31.015  28.924  25.294  1.00  0.00    -0.459 OA
BRANCH   3   4
ATOM      4  C   UNL A   1      30.746  28.196  24.185  1.00  0.00     0.338 C 
ATOM      5  O   UNL A   1      29.847  28.398  23.385  1.00  0.00    -0.246 OA
BRANCH   4   6
ATOM      6  C   UNL A   1      31.722  27.101  24.028  1.00  0.00     0.087 C 
ATOM      7  C   UNL A   1      35.096  23.449  25.003  1.00  0.00    -0.020 A 
ATOM      8  C   UNL A   1      34.804  24.288  23.894  1.00  0.00     0.053 A 
ATOM      9  C   UNL A   1      34.209  23.532  26.101  1.00  0.00     0.045 A 
ATOM     10  C   UNL A   1      33.740  25.197  23.895  1.00  0.00     0.128 A 
ATOM     11  C   UNL A   1      33.150  24.446  26.102  1.00  0.00     0.032 A 
ATOM     12  Cl  UNL A   1      34.301  22.553  27.523  1.00  0.00    -0.084 Cl
ATOM     13  C   UNL A   1      32.931  25.286  25.013  1.00  0.00     0.019 A 
ATOM     14  O   UNL A   1      33.559  25.954  22.770  1.00  0.00    -0.475 OA
ATOM     15  C   UNL A   1      31.888  26.282  25.069  1.00  0.00     0.027 C 
ATOM     16  C   UNL A   1      32.570  27.028  22.791  1.00  0.00     0.316 C 
BRANCH   7  17
ATOM     17  C   UNL A   1      36.326  22.510  24.963  1.00  0.00    -0.012 C 
ATOM     18  C   UNL A   1      37.395  22.998  25.963  1.00  0.00     0.016 C 
ATOM     19  C   UNL A   1      36.927  22.406  23.541  1.00  0.00     0.016 C 
ATOM     20  C   UNL A   1      35.991  21.047  25.364  1.00  0.00     0.016 C 
ENDBRANCH   7  17
BRANCH  16  21
ATOM     21  C   UNL A   1      33.295  28.357  22.524  1.00  0.00     0.430 C 
ATOM     22  F   UNL A   1      32.424  29.323  22.140  1.00  0.00    -0.167 F 
ATOM     23  F   UNL A   1      33.912  28.824  23.638  1.00  0.00    -0.167 F 
ATOM     24  F   UNL A   1      34.232  28.248  21.556  1.00  0.00    -0.167 F 
ENDBRANCH  16  21
ENDBRANCH   4   6
ENDBRANCH   3   4
ENDBRANCH   2   3
ENDBRANCH   1   2
BRANCH   1  25
ATOM     25  O   UNL A   1      32.356  31.008  27.210  1.00  0.00    -0.458 OA
BRANCH  25  26
ATOM     26  C   UNL A   1      33.116  32.109  27.408  1.00  0.00     0.338 C 
ATOM     27  O   UNL A   1      32.763  33.274  27.341  1.00  0.00    -0.246 OA
BRANCH  26  28
ATOM     28  C   UNL A   1      34.470  31.708  27.819  1.00  0.00     0.060 A 
ATOM     29  C   UNL A   1      35.466  32.650  28.042  1.00  0.00     0.016 A 
ATOM     30  C   UNL A   1      34.686  30.377  28.152  1.00  0.00     0.016 A 
ATOM     31  C   UNL A   1      36.682  32.235  28.601  1.00  0.00     0.010 A 
ATOM     32  C   UNL A   1      35.818  30.004  28.868  1.00  0.00     0.010 A 
ATOM     33  C   UNL A   1      36.858  30.914  29.070  1.00  0.00    -0.014 A 
BRANCH  33  34
ATOM     34  C   UNL A   1      38.112  30.490  29.763  1.00  0.00     0.031 A 
ATOM     35  C   UNL A   1      38.411  30.917  31.186  1.00  0.00     0.074 A 
ATOM     36  C   UNL A   1      39.027  29.754  29.097  1.00  0.00     0.049 A 
ATOM     37  N   UNL A   1      39.441  30.611  31.935  1.00  0.00    -0.248 NA
ATOM     38  C   UNL A   1      37.466  31.840  31.841  1.00  0.00     0.031 C 
ATOM     39  C   UNL A   1      38.951  29.387  27.680  1.00  0.00     0.029 A 
ATOM     40  N   UNL A   1      40.196  29.169  29.522  1.00  0.00    -0.354 N 
ATOM     41  C   UNL A   1      39.294  31.343  33.110  1.00  0.00     0.074 A 
ATOM     42  C   UNL A   1      38.104  32.146  32.961  1.00  0.00     0.031 C 
ATOM     43  C   UNL A   1      39.977  28.579  27.376  1.00  0.00     0.029 A 
ATOM     44  C   UNL A   1      40.806  28.394  28.563  1.00  0.00     0.049 A 
ATOM     45  H   UNL A   1      40.562  29.293  30.427  1.00  0.00     0.167 HD
ATOM     46  C   UNL A   1      40.042  31.313  34.237  1.00  0.00     0.034 A 
ATOM     47  C   UNL A   1      41.892  27.598  28.630  1.00  0.00     0.034 A 
ATOM     48  C   UNL A   1      41.154  30.428  34.436  1.00  0.00     0.049 A 
ATOM     49  C   UNL A   1      42.626  27.465  29.932  1.00  0.00     0.074 A 
ATOM     50  C   UNL A   1      41.891  30.222  35.590  1.00  0.00     0.029 A 
ATOM     51  N   UNL A   1      41.677  29.588  33.468  1.00  0.00    -0.354 N 
ATOM     52  N   UNL A   1      42.375  28.050  31.077  1.00  0.00    -0.248 NA
ATOM     53  C   UNL A   1      43.773  26.546  29.964  1.00  0.00     0.031 C 
ATOM     54  C   UNL A   1      42.860  29.252  35.318  1.00  0.00     0.029 A 
ATOM     55  C   UNL A   1      42.722  28.854  33.999  1.00  0.00     0.049 A 
ATOM     56  H   UNL A   1      41.355  29.524  32.541  1.00  0.00     0.167 HD
ATOM     57  C   UNL A   1      43.319  27.561  31.971  1.00  0.00     0.074 A 
ATOM     58  C   UNL A   1      44.139  26.617  31.239  1.00  0.00     0.031 C 
ATOM     59  C   UNL A   1      43.498  27.881  33.274  1.00  0.00     0.034 A 
BRANCH  46  60
ATOM     60  C   UNL A   1      39.621  32.184  35.392  1.00  0.00     0.023 A 
ATOM     61  C   UNL A   1      38.846  31.622  36.427  1.00  0.00     0.012 A 
ATOM     62  C   UNL A   1      40.052  33.520  35.497  1.00  0.00     0.148 A 
ATOM     63  C   UNL A   1      38.484  32.384  37.537  1.00  0.00     0.002 A 
ATOM     64  C   UNL A   1      39.718  34.263  36.624  1.00  0.00     0.091 A 
ATOM     65  F   UNL A   1      40.780  34.038  34.496  1.00  0.00    -0.205 F 
ATOM     66  C   UNL A   1      38.928  33.698  37.640  1.00  0.00     0.022 A 
BRANCH  64  67
ATOM     67  S   UNL A   1      40.291  35.944  36.893  1.00  0.00     0.127 S 
ATOM     68  O   UNL A   1      39.655  36.271  38.169  1.00  0.00    -0.237 OA
ATOM     69  O   UNL A   1      41.742  35.766  36.963  1.00  0.00    -0.237 OA
ATOM     70  O   UNL A   1      39.825  36.718  35.751  1.00  0.00    -0.744 OA
ENDBRANCH  64  67
ENDBRANCH  46  60
BRANCH  47  71
ATOM     71  C   UNL A   1      42.253  26.772  27.445  1.00  0.00     0.023 A 
ATOM     72  C   UNL A   1      43.002  27.362  26.408  1.00  0.00     0.012 A 
ATOM     73  C   UNL A   1      41.960  25.396  27.389  1.00  0.00     0.148 A 
ATOM     74  C   UNL A   1      43.455  26.595  25.334  1.00  0.00     0.002 A 
ATOM     75  C   UNL A   1      42.448  24.630  26.336  1.00  0.00     0.091 A 
ATOM     76  F   UNL A   1      41.249  24.860  28.391  1.00  0.00    -0.205 F 
ATOM     77  C   UNL A   1      43.188  25.230  25.304  1.00  0.00     0.022 A 
BRANCH  75  78
ATOM     78  S   UNL A   1      42.257  22.846  26.261  1.00  0.00     0.127 S 
ATOM     79  O   UNL A   1      40.806  22.697  26.345  1.00  0.00    -0.237 OA
ATOM     80  O   UNL A   1      42.834  22.541  24.951  1.00  0.00    -0.237 OA
ATOM     81  O   UNL A   1      43.005  22.316  27.392  1.00  0.00    -0.744 OA
ENDBRANCH  75  78
ENDBRANCH  47  71
BRANCH  59  82
ATOM     82  C   UNL A   1      44.613  27.211  34.024  1.00  0.00     0.023 A 
ATOM     83  C   UNL A   1      45.892  27.799  34.023  1.00  0.00     0.012 A 
ATOM     84  C   UNL A   1      44.357  26.095  34.843  1.00  0.00     0.148 A 
ATOM     85  C   UNL A   1      46.906  27.281  34.826  1.00  0.00     0.002 A 
ATOM     86  C   UNL A   1      45.363  25.604  35.666  1.00  0.00     0.091 A 
ATOM     87  F   UNL A   1      43.131  25.553  34.818  1.00  0.00    -0.205 F 
ATOM     88  C   UNL A   1      46.639  26.193  35.655  1.00  0.00     0.022 A 
BRANCH  86  89
ATOM     89  S   UNL A   1      45.095  24.259  36.826  1.00  0.00     0.127 S 
ATOM     90  O   UNL A   1      44.102  24.839  37.729  1.00  0.00    -0.237 OA
ATOM     91  O   UNL A   1      44.585  23.198  35.958  1.00  0.00    -0.237 OA
ATOM     92  O   UNL A   1      46.391  23.980  37.429  1.00  0.00    -0.744 OA
ENDBRANCH  86  89
ENDBRANCH  59  82
ENDBRANCH  33  34
ENDBRANCH  26  28
ENDBRANCH  25  26
ENDBRANCH   1  25
TORSDOF 16
ENDMDL
MODEL 3
REMARK VINA RESULT:     -12.4      5.402     11.849
REMARK SMILES CC(C)(C)c1cc2c(cc1Cl)C=C(C(=O)OCCOC(=O)c1ccc(-c3c4nc(c(-c5cccc(S(=O)(=O)[O-])c5F)c5ccc([nH]5)c(-c5cccc(S(=O)(=O)[O-])c5F)c5nc(c(-c6cccc(S(=O)(=O)[O-])c6F)c6ccc3[nH]6)C=C5)C=C4)cc1)[C@@H](C(F)(F)F)O2
REMARK SMILES IDX 18 1 17 2 16 3 14 4 15 5 13 6 5 7 6 8 10 9 7 10 9 11 11 12
REMARK SMILES IDX 8 13 90 14 12 15 85 16 2 17 1 18 3 19 4 20 86 21 87 22 88 23
REMARK SMILES IDX 89 24 19 25 20 26 21 27 22 28 23 29 84 30 24 31 83 32 25 33
REMARK SMILES IDX 26 34 27 35 77 36 28 37 82 38 76 39 78 40 29 41 81 42 75 43
REMARK SMILES IDX 74 44 30 46 62 47 42 48 61 49 43 50 46 51 60 52 79 53 44 54
REMARK SMILES IDX 45 55 59 57 80 58 47 59 31 60 32 61 40 62 33 63 35 64 41 65
REMARK SMILES IDX 34 66 36 67 37 68 38 69 39 70 63 71 64 72 72 73 65 74 67 75
REMARK SMILES IDX 73 76 66 77 68 78 69 79 70 80 71 81 48 82 49 83 57 84 50 85
REMARK SMILES IDX 52 86 58 87 51 88 53 89 54 90 55 91 56 92
REMARK H PARENT 78 45 46 56
REMARK Flexibility Score: inf
ROOT
ATOM      1  C   UNL A   1      32.925  33.537  28.035  1.00  0.00     0.275 C 
ENDROOT
BRANCH   1   2
ATOM      2  C   UNL A   1      33.605  34.453  29.054  1.00  0.00     0.275 C 
BRANCH   2   3
ATOM      3  O   UNL A   1      34.332  33.696  30.047  1.00  0.00    -0.459 OA
BRANCH   3   4
ATOM      4  C   UNL A   1      34.425  34.282  31.264  1.00  0.00     0.338 C 
ATOM      5  O   UNL A   1      33.497  34.584  31.997  1.00  0.00    -0.246 OA
BRANCH   4   6
ATOM      6  C   UNL A   1      35.836  34.496  31.636  1.00  0.00     0.087 C 
ATOM      7  C   UNL A   1      40.903  34.495  31.602  1.00  0.00    -0.020 A 
ATOM      8  C   UNL A   1      39.897  34.583  32.601  1.00  0.00     0.053 A 
ATOM      9  C   UNL A   1      40.455  34.503  30.261  1.00  0.00     0.045 A 
ATOM     10  C   UNL A   1      38.532  34.614  32.297  1.00  0.00     0.128 A 
ATOM     11  C   UNL A   1      39.089  34.528  29.959  1.00  0.00     0.032 A 
ATOM     12  Cl  UNL A   1      41.486  34.495  28.873  1.00  0.00    -0.084 Cl
ATOM     13  C   UNL A   1      38.135  34.562  30.973  1.00  0.00     0.019 A 
ATOM     14  O   UNL A   1      37.656  34.697  33.344  1.00  0.00    -0.475 OA
ATOM     15  C   UNL A   1      36.731  34.499  30.645  1.00  0.00     0.027 C 
ATOM     16  C   UNL A   1      36.225  34.563  33.084  1.00  0.00     0.316 C 
BRANCH   7  17
ATOM     17  C   UNL A   1      42.394  34.400  32.007  1.00  0.00    -0.012 C 
ATOM     18  C   UNL A   1      43.261  35.212  31.022  1.00  0.00     0.016 C 
ATOM     19  C   UNL A   1      42.883  32.933  32.071  1.00  0.00     0.016 C 
ATOM     20  C   UNL A   1      42.681  34.980  33.419  1.00  0.00     0.016 C 
ENDBRANCH   7  17
BRANCH  16  21
ATOM     21  C   UNL A   1      35.704  33.348  33.867  1.00  0.00     0.430 C 
ATOM     22  F   UNL A   1      35.456  32.301  33.041  1.00  0.00    -0.167 F 
ATOM     23  F   UNL A   1      36.612  32.909  34.773  1.00  0.00    -0.167 F 
ATOM     24  F   UNL A   1      34.560  33.616  34.536  1.00  0.00    -0.167 F 
ENDBRANCH  16  21
ENDBRANCH   4   6
ENDBRANCH   3   4
ENDBRANCH   2   3
ENDBRANCH   1   2
BRANCH   1  25
ATOM     25  O   UNL A   1      33.906  32.799  27.284  1.00  0.00    -0.458 OA
BRANCH  25  26
ATOM     26  C   UNL A   1      33.897  31.462  27.487  1.00  0.00     0.338 C 
ATOM     27  O   UNL A   1      32.966  30.694  27.317  1.00  0.00    -0.246 OA
BRANCH  26  28
ATOM     28  C   UNL A   1      35.242  31.013  27.876  1.00  0.00     0.060 A 
ATOM     29  C   UNL A   1      36.288  31.914  28.030  1.00  0.00     0.016 A 
ATOM     30  C   UNL A   1      35.405  29.689  28.260  1.00  0.00     0.016 A 
ATOM     31  C   UNL A   1      37.499  31.464  28.571  1.00  0.00     0.010 A 
ATOM     32  C   UNL A   1      36.539  29.291  28.959  1.00  0.00     0.010 A 
ATOM     33  C   UNL A   1      37.627  30.157  29.091  1.00  0.00    -0.014 A 
BRANCH  33  34
ATOM     34  C   UNL A   1      38.880  29.702  29.766  1.00  0.00     0.031 A 
ATOM     35  C   UNL A   1      39.226  30.148  31.172  1.00  0.00     0.074 A 
ATOM     36  C   UNL A   1      39.752  28.918  29.097  1.00  0.00     0.049 A 
ATOM     37  N   UNL A   1      40.260  29.820  31.906  1.00  0.00    -0.248 NA
ATOM     38  C   UNL A   1      38.330  31.118  31.828  1.00  0.00     0.031 C 
ATOM     39  C   UNL A   1      39.631  28.525  27.690  1.00  0.00     0.029 A 
ATOM     40  N   UNL A   1      40.908  28.301  29.509  1.00  0.00    -0.354 N 
ATOM     41  C   UNL A   1      40.167  30.581  33.067  1.00  0.00     0.074 A 
ATOM     42  C   UNL A   1      39.004  31.425  32.926  1.00  0.00     0.031 C 
ATOM     43  C   UNL A   1      40.620  27.673  27.382  1.00  0.00     0.029 A 
ATOM     44  C   UNL A   1      41.468  27.483  28.554  1.00  0.00     0.049 A 
ATOM     45  H   UNL A   1      41.300  28.430  30.403  1.00  0.00     0.167 HD
ATOM     46  C   UNL A   1      40.939  30.548  34.178  1.00  0.00     0.034 A 
ATOM     47  C   UNL A   1      42.525  26.649  28.616  1.00  0.00     0.034 A 
ATOM     48  C   UNL A   1      42.022  29.627  34.373  1.00  0.00     0.049 A 
ATOM     49  C   UNL A   1      43.284  26.517  29.904  1.00  0.00     0.074 A 
ATOM     50  C   UNL A   1      42.776  29.419  35.514  1.00  0.00     0.029 A 
ATOM     51  N   UNL A   1      42.493  28.748  33.412  1.00  0.00    -0.354 N 
ATOM     52  N   UNL A   1      43.080  27.135  31.041  1.00  0.00    -0.248 NA
ATOM     53  C   UNL A   1      44.397  25.557  29.932  1.00  0.00     0.031 C 
ATOM     54  C   UNL A   1      43.704  28.409  35.243  1.00  0.00     0.029 A 
ATOM     55  C   UNL A   1      43.522  27.988  33.936  1.00  0.00     0.049 A 
ATOM     56  H   UNL A   1      42.147  28.676  32.494  1.00  0.00     0.167 HD
ATOM     57  C   UNL A   1      44.026  26.631  31.924  1.00  0.00     0.074 A 
ATOM     58  C   UNL A   1      44.794  25.642  31.196  1.00  0.00     0.031 C 
ATOM     59  C   UNL A   1      44.245  26.972  33.216  1.00  0.00     0.034 A 
BRANCH  46  60
ATOM     60  C   UNL A   1      40.575  31.458  35.323  1.00  0.00     0.023 A 
ATOM     61  C   UNL A   1      41.306  32.648  35.511  1.00  0.00     0.012 A 
ATOM     62  C   UNL A   1      39.472  31.183  36.154  1.00  0.00     0.148 A 
ATOM     63  C   UNL A   1      40.963  33.540  36.527  1.00  0.00     0.002 A 
ATOM     64  C   UNL A   1      39.113  32.094  37.141  1.00  0.00     0.091 A 
ATOM     65  F   UNL A   1      38.797  30.040  35.964  1.00  0.00    -0.205 F 
ATOM     66  C   UNL A   1      39.862  33.268  37.334  1.00  0.00     0.022 A 
BRANCH  64  67
ATOM     67  S   UNL A   1      37.674  31.878  38.195  1.00  0.00     0.127 S 
ATOM     68  O   UNL A   1      38.235  32.149  39.519  1.00  0.00    -0.237 OA
ATOM     69  O   UNL A   1      36.769  32.913  37.694  1.00  0.00    -0.237 OA
ATOM     70  O   UNL A   1      37.218  30.512  37.982  1.00  0.00    -0.744 OA
ENDBRANCH  64  67
ENDBRANCH  46  60
BRANCH  47  71
ATOM     71  C   UNL A   1      42.830  25.786  27.441  1.00  0.00     0.023 A 
ATOM     72  C   UNL A   1      43.752  26.245  26.480  1.00  0.00     0.012 A 
ATOM     73  C   UNL A   1      42.304  24.484  27.328  1.00  0.00     0.148 A 
ATOM     74  C   UNL A   1      44.147  25.422  25.426  1.00  0.00     0.002 A 
ATOM     75  C   UNL A   1      42.733  23.656  26.297  1.00  0.00     0.091 A 
ATOM     76  F   UNL A   1      41.432  24.072  28.258  1.00  0.00    -0.205 F 
ATOM     77  C   UNL A   1      43.648  24.126  25.341  1.00  0.00     0.022 A 
BRANCH  75  78
ATOM     78  S   UNL A   1      42.237  21.935  26.162  1.00  0.00     0.127 S 
ATOM     79  O   UNL A   1      43.042  21.480  25.031  1.00  0.00    -0.237 OA
ATOM     80  O   UNL A   1      42.648  21.405  27.463  1.00  0.00    -0.237 OA
ATOM     81  O   UNL A   1      40.799  21.950  25.939  1.00  0.00    -0.744 OA
ENDBRANCH  75  78
ENDBRANCH  47  71
BRANCH  59  82
ATOM     82  C   UNL A   1      45.351  26.278  33.956  1.00  0.00     0.023 A 
ATOM     83  C   UNL A   1      46.659  26.792  33.878  1.00  0.00     0.012 A 
ATOM     84  C   UNL A   1      45.070  25.218  34.839  1.00  0.00     0.148 A 
ATOM     85  C   UNL A   1      47.675  26.257  34.667  1.00  0.00     0.002 A 
ATOM     86  C   UNL A   1      46.080  24.711  35.647  1.00  0.00     0.091 A 
ATOM     87  F   UNL A   1      43.816  24.745  34.888  1.00  0.00    -0.205 F 
ATOM     88  C   UNL A   1      47.384  25.227  35.559  1.00  0.00     0.022 A 
BRANCH  86  89
ATOM     89  S   UNL A   1      45.786  23.441  36.883  1.00  0.00     0.127 S 
ATOM     90  O   UNL A   1      47.130  23.232  37.420  1.00  0.00    -0.237 OA
ATOM     91  O   UNL A   1      44.859  24.108  37.798  1.00  0.00    -0.237 OA
ATOM     92  O   UNL A   1      45.221  22.304  36.169  1.00  0.00    -0.744 OA
ENDBRANCH  86  89
ENDBRANCH  59  82
ENDBRANCH  33  34
ENDBRANCH  26  28
ENDBRANCH  25  26
ENDBRANCH   1  25
TORSDOF 16
ENDMDL
