MODEL 1
REMARK VINA RESULT:     -13.3      0.000      0.000
REMARK SMILES O=C(OCCOC(=O)[C@@H]1CC2(CC[NH2+]CC2)C[N@@H+]1Cc1cccc2nonc12)c1ccc(-c2c3nc(c(-c4cccc(S(=O)(=O)[O-])c4F)c4ccc([nH]4)c(-c4cccc(S(=O)(=O)[O-])c4F)c4nc(c(-c5cccc(S(=O)(=O)[O-])c5F)c5ccc2[nH]5)C=C4)C=C3)cc1
REMARK SMILES IDX 4 1 3 2 2 3 1 4 29 5 30 6 91 7 31 8 90 9 32 10 33 11 34 12
REMARK SMILES IDX 84 13 35 14 89 15 83 16 85 17 36 18 88 19 82 20 81 21 37 23
REMARK SMILES IDX 69 24 49 25 68 26 50 27 53 28 67 29 86 30 51 31 52 32 66 34
REMARK SMILES IDX 87 35 54 36 38 37 39 38 47 39 40 40 42 41 48 42 41 43 43 44
REMARK SMILES IDX 44 45 45 46 46 47 70 48 71 49 79 50 72 51 74 52 80 53 73 54
REMARK SMILES IDX 75 55 76 56 77 57 78 58 55 59 56 60 64 61 57 62 59 63 65 64
REMARK SMILES IDX 58 65 60 66 61 67 62 68 63 69 5 70 6 71 7 72 8 73 9 74 10 75
REMARK SMILES IDX 18 76 11 77 17 78 12 80 16 81 13 82 15 83 14 84 19 87 20 88
REMARK SMILES IDX 21 89 28 90 22 91 24 92 27 93 23 94 25 95 26 96
REMARK H PARENT 85 22 53 33 18 79 14 85 14 86
REMARK Flexibility Score: inf
ROOT
ATOM      1  C   UNL A   1      41.518  40.096  27.111  1.00  0.00     0.275 C 
ENDROOT
BRANCH   1   2
ATOM      2  O   UNL A   1      41.887  38.752  26.792  1.00  0.00    -0.458 OA
BRANCH   2   3
ATOM      3  C   UNL A   1      42.958  38.087  27.266  1.00  0.00     0.338 C 
ATOM      4  O   UNL A   1      43.983  38.069  26.580  1.00  0.00    -0.246 OA
BRANCH   3   5
ATOM      5  C   UNL A   1      42.976  37.249  28.510  1.00  0.00     0.060 A 
ATOM      6  C   UNL A   1      42.020  35.736  28.222  1.00  0.00     0.016 A 
ATOM      7  C   UNL A   1      43.789  37.494  30.139  1.00  0.00     0.016 A 
ATOM      8  C   UNL A   1      41.887  34.480  29.477  1.00  0.00     0.010 A 
ATOM      9  C   UNL A   1      43.753  36.109  31.382  1.00  0.00     0.010 A 
ATOM     10  C   UNL A   1      42.688  34.646  31.063  1.00  0.00    -0.014 A 
BRANCH  10  11
ATOM     11  C   UNL A   1      42.366  33.657  32.116  1.00  0.00     0.031 A 
ATOM     12  C   UNL A   1      40.938  33.588  32.472  1.00  0.00     0.074 A 
ATOM     13  C   UNL A   1      43.124  32.572  32.399  1.00  0.00     0.049 A 
ATOM     14  N   UNL A   1      40.073  32.929  31.766  1.00  0.00    -0.248 NA
ATOM     15  C   UNL A   1      40.374  34.429  33.523  1.00  0.00     0.031 C 
ATOM     16  C   UNL A   1      44.385  32.167  31.769  1.00  0.00     0.029 A 
ATOM     17  N   UNL A   1      42.816  31.489  33.182  1.00  0.00    -0.354 N 
ATOM     18  C   UNL A   1      38.835  33.351  32.188  1.00  0.00     0.074 A 
ATOM     19  C   UNL A   1      39.065  34.262  33.295  1.00  0.00     0.031 C 
ATOM     20  C   UNL A   1      44.615  30.859  32.013  1.00  0.00     0.029 A 
ATOM     21  C   UNL A   1      43.582  30.370  32.904  1.00  0.00     0.049 A 
ATOM     22  H   UNL A   1      42.116  31.505  33.875  1.00  0.00     0.167 HD
ATOM     23  C   UNL A   1      37.679  32.975  31.592  1.00  0.00     0.034 A 
ATOM     24  C   UNL A   1      43.354  29.059  33.191  1.00  0.00     0.034 A 
ATOM     25  C   UNL A   1      37.759  32.034  30.516  1.00  0.00     0.049 A 
ATOM     26  C   UNL A   1      41.942  28.798  32.716  1.00  0.00     0.074 A 
ATOM     27  C   UNL A   1      37.673  32.060  29.142  1.00  0.00     0.029 A 
ATOM     28  N   UNL A   1      37.951  30.705  30.811  1.00  0.00    -0.354 N 
ATOM     29  N   UNL A   1      41.604  28.430  31.496  1.00  0.00    -0.248 NA
ATOM     30  C   UNL A   1      40.848  29.366  33.493  1.00  0.00     0.031 C 
ATOM     31  C   UNL A   1      38.225  30.819  28.686  1.00  0.00     0.029 A 
ATOM     32  C   UNL A   1      38.695  30.130  29.803  1.00  0.00     0.049 A 
ATOM     33  H   UNL A   1      37.614  30.241  31.611  1.00  0.00     0.167 HD
ATOM     34  C   UNL A   1      40.355  29.024  31.254  1.00  0.00     0.074 A 
ATOM     35  C   UNL A   1      40.016  29.669  32.509  1.00  0.00     0.031 C 
ATOM     36  C   UNL A   1      39.693  29.089  30.050  1.00  0.00     0.034 A 
BRANCH  23  37
ATOM     37  C   UNL A   1      36.390  33.445  32.119  1.00  0.00     0.023 A 
ATOM     38  C   UNL A   1      36.062  33.081  33.435  1.00  0.00     0.012 A 
ATOM     39  C   UNL A   1      35.493  34.189  31.340  1.00  0.00     0.148 A 
ATOM     40  C   UNL A   1      34.829  33.427  33.969  1.00  0.00     0.002 A 
ATOM     41  C   UNL A   1      34.259  34.526  31.878  1.00  0.00     0.091 A 
ATOM     42  F   UNL A   1      35.862  34.546  30.100  1.00  0.00    -0.205 F 
ATOM     43  C   UNL A   1      33.924  34.142  33.189  1.00  0.00     0.022 A 
BRANCH  41  44
ATOM     44  S   UNL A   1      33.018  35.442  30.962  1.00  0.00     0.127 S 
ATOM     45  O   UNL A   1      31.879  35.399  31.876  1.00  0.00    -0.237 OA
ATOM     46  O   UNL A   1      33.652  36.754  30.829  1.00  0.00    -0.237 OA
ATOM     47  O   UNL A   1      32.838  34.725  29.706  1.00  0.00    -0.744 OA
ENDBRANCH  41  44
ENDBRANCH  23  37
BRANCH  24  48
ATOM     48  C   UNL A   1      43.916  28.769  34.560  1.00  0.00     0.023 A 
ATOM     49  C   UNL A   1      44.460  29.882  35.250  1.00  0.00     0.012 A 
ATOM     50  C   UNL A   1      43.743  27.581  35.293  1.00  0.00     0.148 A 
ATOM     51  C   UNL A   1      44.660  29.868  36.631  1.00  0.00     0.002 A 
ATOM     52  C   UNL A   1      43.908  27.580  36.680  1.00  0.00     0.091 A 
ATOM     53  F   UNL A   1      43.380  26.461  34.660  1.00  0.00    -0.205 F 
ATOM     54  C   UNL A   1      44.346  28.727  37.354  1.00  0.00     0.022 A 
BRANCH  52  55
ATOM     55  S   UNL A   1      43.465  26.155  37.687  1.00  0.00     0.127 S 
ATOM     56  O   UNL A   1      42.053  25.963  37.359  1.00  0.00    -0.237 OA
ATOM     57  O   UNL A   1      44.365  25.134  37.155  1.00  0.00    -0.237 OA
ATOM     58  O   UNL A   1      43.715  26.566  39.062  1.00  0.00    -0.744 OA
ENDBRANCH  52  55
ENDBRANCH  24  48
BRANCH  36  59
ATOM     59  C   UNL A   1      40.077  28.110  28.951  1.00  0.00     0.023 A 
ATOM     60  C   UNL A   1      39.294  26.946  28.800  1.00  0.00     0.012 A 
ATOM     61  C   UNL A   1      41.067  28.352  27.972  1.00  0.00     0.148 A 
ATOM     62  C   UNL A   1      39.490  26.058  27.733  1.00  0.00     0.002 A 
ATOM     63  C   UNL A   1      41.246  27.478  26.893  1.00  0.00     0.091 A 
ATOM     64  F   UNL A   1      41.856  29.426  28.096  1.00  0.00    -0.205 F 
ATOM     65  C   UNL A   1      40.463  26.326  26.777  1.00  0.00     0.022 A 
BRANCH  63  66
ATOM     66  S   UNL A   1      42.450  27.765  25.582  1.00  0.00     0.127 S 
ATOM     67  O   UNL A   1      42.282  26.578  24.749  1.00  0.00    -0.237 OA
ATOM     68  O   UNL A   1      41.966  29.006  24.980  1.00  0.00    -0.237 OA
ATOM     69  O   UNL A   1      43.742  27.870  26.250  1.00  0.00    -0.744 OA
ENDBRANCH  63  66
ENDBRANCH  36  59
ENDBRANCH  10  11
ENDBRANCH   3   5
ENDBRANCH   2   3
ENDBRANCH   1   2
BRANCH   1  70
ATOM     70  C   UNL A   1      41.895  41.080  26.014  1.00  0.00     0.274 C 
BRANCH  70  71
ATOM     71  O   UNL A   1      43.216  41.561  26.259  1.00  0.00    -0.458 OA
BRANCH  71  72
ATOM     72  C   UNL A   1      43.856  42.242  25.275  1.00  0.00     0.365 C 
ATOM     73  O   UNL A   1      43.348  43.160  24.638  1.00  0.00    -0.245 OA
BRANCH  72  74
ATOM     74  C   UNL A   1      45.317  41.765  25.058  1.00  0.00     0.296 C 
ATOM     75  C   UNL A   1      45.987  41.923  26.435  1.00  0.00     0.091 C 
ATOM     76  N   UNL A   1      46.256  42.551  23.968  1.00  0.00    -0.319 N 
ATOM     77  C   UNL A   1      46.423  43.367  26.565  1.00  0.00     0.036 C 
ATOM     78  C   UNL A   1      46.723  43.742  25.121  1.00  0.00     0.270 C 
ATOM     79  H   UNL A   1      46.717  42.016  23.232  1.00  0.00     0.349 HD
ATOM     80  C   UNL A   1      47.674  43.555  27.447  1.00  0.00     0.074 C 
ATOM     81  C   UNL A   1      45.403  44.347  27.197  1.00  0.00     0.074 C 
ATOM     82  C   UNL A   1      47.399  43.229  28.909  1.00  0.00     0.261 C 
ATOM     83  C   UNL A   1      45.069  43.968  28.630  1.00  0.00     0.261 C 
ATOM     84  N   UNL A   1      46.248  43.910  29.482  1.00  0.00    -0.346 N 
ATOM     85  H   UNL A   1      46.525  44.868  29.701  1.00  0.00     0.346 HD
ATOM     86  H   UNL A   1      45.976  43.365  30.301  1.00  0.00     0.346 HD
BRANCH  76  87
ATOM     87  C   UNL A   1      46.449  42.619  21.866  1.00  0.00     0.302 C 
BRANCH  87  88
ATOM     88  C   UNL A   1      45.229  42.885  20.552  1.00  0.00     0.038 A 
ATOM     89  C   UNL A   1      45.553  43.668  19.384  1.00  0.00     0.012 A 
ATOM     90  C   UNL A   1      43.821  42.782  20.732  1.00  0.00     0.144 A 
ATOM     91  C   UNL A   1      44.643  44.583  18.779  1.00  0.00     0.003 A 
ATOM     92  C   UNL A   1      42.887  43.708  20.078  1.00  0.00     0.135 A 
ATOM     93  N   UNL A   1      43.104  41.986  21.531  1.00  0.00    -0.049 NA
ATOM     94  C   UNL A   1      43.297  44.691  19.162  1.00  0.00     0.034 A 
ATOM     95  N   UNL A   1      41.663  43.491  20.576  1.00  0.00    -0.050 NA
ATOM     96  O   UNL A   1      41.795  42.417  21.439  1.00  0.00    -0.243 OA
ENDBRANCH  87  88
ENDBRANCH  76  87
ENDBRANCH  72  74
ENDBRANCH  71  72
ENDBRANCH  70  71
ENDBRANCH   1  70
TORSDOF 16
ENDMDL
MODEL 2
REMARK VINA RESULT:     -13.0      7.169     13.950
REMARK SMILES O=C(OCCOC(=O)[C@@H]1CC2(CC[NH2+]CC2)C[N@@H+]1Cc1cccc2nonc12)c1ccc(-c2c3nc(c(-c4cccc(S(=O)(=O)[O-])c4F)c4ccc([nH]4)c(-c4cccc(S(=O)(=O)[O-])c4F)c4nc(c(-c5cccc(S(=O)(=O)[O-])c5F)c5ccc2[nH]5)C=C4)C=C3)cc1
REMARK SMILES IDX 4 1 3 2 2 3 1 4 29 5 30 6 91 7 31 8 90 9 32 10 33 11 34 12
REMARK SMILES IDX 84 13 35 14 89 15 83 16 85 17 36 18 88 19 82 20 81 21 37 23
REMARK SMILES IDX 69 24 49 25 68 26 50 27 53 28 67 29 86 30 51 31 52 32 66 34
REMARK SMILES IDX 87 35 54 36 38 37 39 38 47 39 40 40 42 41 48 42 41 43 43 44
REMARK SMILES IDX 44 45 45 46 46 47 70 48 71 49 79 50 72 51 74 52 80 53 73 54
REMARK SMILES IDX 75 55 76 56 77 57 78 58 55 59 56 60 64 61 57 62 59 63 65 64
REMARK SMILES IDX 58 65 60 66 61 67 62 68 63 69 5 70 6 71 7 72 8 73 9 74 10 75
REMARK SMILES IDX 18 76 11 77 17 78 12 80 16 81 13 82 15 83 14 84 19 87 20 88
REMARK SMILES IDX 21 89 28 90 22 91 24 92 27 93 23 94 25 95 26 96
REMARK H PARENT 85 22 53 33 18 79 14 85 14 86
REMARK Flexibility Score: inf
ROOT
ATOM      1  C   UNL A   1      33.729  32.090  27.566  1.00  0.00     0.275 C 
ENDROOT
BRANCH   1   2
ATOM      2  O   UNL A   1      35.064  32.274  28.042  1.00  0.00    -0.458 OA
BRANCH   2   3
ATOM      3  C   UNL A   1      35.649  31.598  29.049  1.00  0.00     0.338 C 
ATOM      4  O   UNL A   1      35.131  31.652  30.167  1.00  0.00    -0.246 OA
BRANCH   3   5
ATOM      5  C   UNL A   1      36.963  30.878  28.961  1.00  0.00     0.060 A 
ATOM      6  C   UNL A   1      37.179  30.239  27.278  1.00  0.00     0.016 A 
ATOM      7  C   UNL A   1      38.293  30.604  30.197  1.00  0.00     0.016 A 
ATOM      8  C   UNL A   1      38.668  29.385  26.804  1.00  0.00     0.010 A 
ATOM      9  C   UNL A   1      39.894  29.832  29.643  1.00  0.00     0.010 A 
ATOM     10  C   UNL A   1      40.009  29.124  27.952  1.00  0.00    -0.014 A 
BRANCH  10  11
ATOM     11  C   UNL A   1      41.119  28.235  27.541  1.00  0.00     0.031 A 
ATOM     12  C   UNL A   1      42.445  28.874  27.539  1.00  0.00     0.074 A 
ATOM     13  C   UNL A   1      41.086  26.884  27.635  1.00  0.00     0.049 A 
ATOM     14  N   UNL A   1      43.144  29.037  28.619  1.00  0.00    -0.248 NA
ATOM     15  C   UNL A   1      42.962  29.551  26.354  1.00  0.00     0.031 C 
ATOM     16  C   UNL A   1      39.988  26.043  28.122  1.00  0.00     0.029 A 
ATOM     17  N   UNL A   1      42.116  25.989  27.500  1.00  0.00    -0.354 N 
ATOM     18  C   UNL A   1      44.132  29.937  28.301  1.00  0.00     0.074 A 
ATOM     19  C   UNL A   1      44.000  30.212  26.882  1.00  0.00     0.031 C 
ATOM     20  C   UNL A   1      40.463  24.823  28.453  1.00  0.00     0.029 A 
ATOM     21  C   UNL A   1      41.867  24.765  28.097  1.00  0.00     0.049 A 
ATOM     22  H   UNL A   1      42.953  26.197  27.025  1.00  0.00     0.167 HD
ATOM     23  C   UNL A   1      44.989  30.453  29.215  1.00  0.00     0.034 A 
ATOM     24  C   UNL A   1      42.730  23.785  28.481  1.00  0.00     0.034 A 
ATOM     25  C   UNL A   1      44.897  29.974  30.561  1.00  0.00     0.049 A 
ATOM     26  C   UNL A   1      43.793  24.499  29.287  1.00  0.00     0.074 A 
ATOM     27  C   UNL A   1      44.403  30.426  31.763  1.00  0.00     0.029 A 
ATOM     28  N   UNL A   1      45.432  28.744  30.863  1.00  0.00    -0.354 N 
ATOM     29  N   UNL A   1      43.734  24.741  30.581  1.00  0.00    -0.248 NA
ATOM     30  C   UNL A   1      44.745  25.334  28.566  1.00  0.00     0.031 C 
ATOM     31  C   UNL A   1      44.307  29.276  32.612  1.00  0.00     0.029 A 
ATOM     32  C   UNL A   1      44.673  28.163  31.856  1.00  0.00     0.049 A 
ATOM     33  H   UNL A   1      46.226  28.344  30.441  1.00  0.00     0.167 HD
ATOM     34  C   UNL A   1      44.390  25.968  30.767  1.00  0.00     0.074 A 
ATOM     35  C   UNL A   1      44.892  26.310  29.449  1.00  0.00     0.031 C 
ATOM     36  C   UNL A   1      44.413  26.724  31.916  1.00  0.00     0.034 A 
BRANCH  23  37
ATOM     37  C   UNL A   1      46.041  31.389  28.794  1.00  0.00     0.023 A 
ATOM     38  C   UNL A   1      47.345  30.882  28.677  1.00  0.00     0.012 A 
ATOM     39  C   UNL A   1      45.780  32.746  28.557  1.00  0.00     0.148 A 
ATOM     40  C   UNL A   1      48.398  31.727  28.357  1.00  0.00     0.002 A 
ATOM     41  C   UNL A   1      46.838  33.588  28.244  1.00  0.00     0.091 A 
ATOM     42  F   UNL A   1      44.513  33.181  28.645  1.00  0.00    -0.205 F 
ATOM     43  C   UNL A   1      48.146  33.081  28.150  1.00  0.00     0.022 A 
BRANCH  41  44
ATOM     44  S   UNL A   1      46.628  35.346  27.959  1.00  0.00     0.127 S 
ATOM     45  O   UNL A   1      46.396  35.844  29.313  1.00  0.00    -0.237 OA
ATOM     46  O   UNL A   1      47.923  35.712  27.382  1.00  0.00    -0.237 OA
ATOM     47  O   UNL A   1      45.499  35.471  27.046  1.00  0.00    -0.744 OA
ENDBRANCH  41  44
ENDBRANCH  23  37
BRANCH  24  48
ATOM     48  C   UNL A   1      42.951  22.863  27.309  1.00  0.00     0.023 A 
ATOM     49  C   UNL A   1      44.022  23.209  26.446  1.00  0.00     0.012 A 
ATOM     50  C   UNL A   1      42.363  21.598  27.127  1.00  0.00     0.148 A 
ATOM     51  C   UNL A   1      44.590  22.285  25.568  1.00  0.00     0.002 A 
ATOM     52  C   UNL A   1      42.955  20.663  26.276  1.00  0.00     0.091 A 
ATOM     53  F   UNL A   1      41.256  21.280  27.805  1.00  0.00    -0.205 F 
ATOM     54  C   UNL A   1      44.080  20.996  25.511  1.00  0.00     0.022 A 
BRANCH  52  55
ATOM     55  S   UNL A   1      42.383  18.958  26.194  1.00  0.00     0.127 S 
ATOM     56  O   UNL A   1      43.287  18.369  25.206  1.00  0.00    -0.237 OA
ATOM     57  O   UNL A   1      42.599  18.513  27.569  1.00  0.00    -0.237 OA
ATOM     58  O   UNL A   1      40.993  19.041  25.765  1.00  0.00    -0.744 OA
ENDBRANCH  52  55
ENDBRANCH  24  48
BRANCH  36  59
ATOM     59  C   UNL A   1      44.082  26.052  33.240  1.00  0.00     0.023 A 
ATOM     60  C   UNL A   1      44.995  25.102  33.746  1.00  0.00     0.012 A 
ATOM     61  C   UNL A   1      43.004  26.418  34.077  1.00  0.00     0.148 A 
ATOM     62  C   UNL A   1      44.841  24.534  35.018  1.00  0.00     0.002 A 
ATOM     63  C   UNL A   1      42.864  25.869  35.357  1.00  0.00     0.091 A 
ATOM     64  F   UNL A   1      42.095  27.289  33.624  1.00  0.00    -0.205 F 
ATOM     65  C   UNL A   1      43.778  24.921  35.826  1.00  0.00     0.022 A 
BRANCH  63  66
ATOM     66  S   UNL A   1      41.545  26.341  36.493  1.00  0.00     0.127 S 
ATOM     67  O   UNL A   1      42.220  26.280  37.786  1.00  0.00    -0.237 OA
ATOM     68  O   UNL A   1      41.214  27.692  36.041  1.00  0.00    -0.237 OA
ATOM     69  O   UNL A   1      40.489  25.355  36.302  1.00  0.00    -0.744 OA
ENDBRANCH  63  66
ENDBRANCH  36  59
ENDBRANCH  10  11
ENDBRANCH   3   5
ENDBRANCH   2   3
ENDBRANCH   1   2
BRANCH   1  70
ATOM     70  C   UNL A   1      33.291  30.633  27.609  1.00  0.00     0.274 C 
BRANCH  70  71
ATOM     71  O   UNL A   1      33.671  30.000  26.388  1.00  0.00    -0.458 OA
BRANCH  71  72
ATOM     72  C   UNL A   1      33.655  28.645  26.323  1.00  0.00     0.365 C 
ATOM     73  O   UNL A   1      33.276  27.921  27.239  1.00  0.00    -0.245 OA
BRANCH  72  74
ATOM     74  C   UNL A   1      34.134  28.097  24.953  1.00  0.00     0.296 C 
ATOM     75  C   UNL A   1      33.277  28.843  23.913  1.00  0.00     0.091 C 
ATOM     76  N   UNL A   1      33.989  26.495  24.641  1.00  0.00    -0.319 N 
ATOM     77  C   UNL A   1      31.957  28.110  23.804  1.00  0.00     0.036 C 
ATOM     78  C   UNL A   1      32.363  26.674  24.101  1.00  0.00     0.270 C 
ATOM     79  H   UNL A   1      34.811  25.969  24.345  1.00  0.00     0.349 HD
ATOM     80  C   UNL A   1      31.310  28.213  22.408  1.00  0.00     0.074 C 
ATOM     81  C   UNL A   1      30.821  28.576  24.748  1.00  0.00     0.074 C 
ATOM     82  C   UNL A   1      30.852  29.631  22.092  1.00  0.00     0.261 C 
ATOM     83  C   UNL A   1      30.424  30.019  24.484  1.00  0.00     0.261 C 
ATOM     84  N   UNL A   1      30.006  30.241  23.108  1.00  0.00    -0.346 N 
ATOM     85  H   UNL A   1      29.063  29.865  23.001  1.00  0.00     0.346 HD
ATOM     86  H   UNL A   1      30.064  31.248  22.955  1.00  0.00     0.346 HD
BRANCH  76  87
ATOM     87  C   UNL A   1      34.998  24.721  25.187  1.00  0.00     0.302 C 
BRANCH  87  88
ATOM     88  C   UNL A   1      34.972  23.052  24.479  1.00  0.00     0.038 A 
ATOM     89  C   UNL A   1      33.724  22.401  24.159  1.00  0.00     0.012 A 
ATOM     90  C   UNL A   1      36.031  22.110  24.606  1.00  0.00     0.144 A 
ATOM     91  C   UNL A   1      33.483  21.016  24.396  1.00  0.00     0.003 A 
ATOM     92  C   UNL A   1      35.774  20.679  24.817  1.00  0.00     0.135 A 
ATOM     93  N   UNL A   1      37.353  22.295  24.670  1.00  0.00    -0.049 NA
ATOM     94  C   UNL A   1      34.484  20.124  24.811  1.00  0.00     0.034 A 
ATOM     95  N   UNL A   1      36.940  20.078  25.086  1.00  0.00    -0.050 NA
ATOM     96  O   UNL A   1      37.905  21.063  24.963  1.00  0.00    -0.243 OA
ENDBRANCH  87  88
ENDBRANCH  76  87
ENDBRANCH  72  74
ENDBRANCH  71  72
ENDBRANCH  70  71
ENDBRANCH   1  70
TORSDOF 16
ENDMDL
MODEL 3
REMARK VINA RESULT:     -12.9      1.848      4.299
REMARK SMILES O=C(OCCOC(=O)[C@@H]1CC2(CC[NH2+]CC2)C[N@@H+]1Cc1cccc2nonc12)c1ccc(-c2c3nc(c(-c4cccc(S(=O)(=O)[O-])c4F)c4ccc([nH]4)c(-c4cccc(S(=O)(=O)[O-])c4F)c4nc(c(-c5cccc(S(=O)(=O)[O-])c5F)c5ccc2[nH]5)C=C4)C=C3)cc1
REMARK SMILES IDX 4 1 3 2 2 3 1 4 29 5 30 6 91 7 31 8 90 9 32 10 33 11 34 12
REMARK SMILES IDX 84 13 35 14 89 15 83 16 85 17 36 18 88 19 82 20 81 21 37 23
REMARK SMILES IDX 69 24 49 25 68 26 50 27 53 28 67 29 86 30 51 31 52 32 66 34
REMARK SMILES IDX 87 35 54 36 38 37 39 38 47 39 40 40 42 41 48 42 41 43 43 44
REMARK SMILES IDX 44 45 45 46 46 47 70 48 71 49 79 50 72 51 74 52 80 53 73 54
REMARK SMILES IDX 75 55 76 56 77 57 78 58 55 59 56 60 64 61 57 62 59 63 65 64
REMARK SMILES IDX 58 65 60 66 61 67 62 68 63 69 5 70 6 71 7 72 8 73 9 74 10 75
REMARK SMILES IDX 18 76 11 77 17 78 12 80 16 81 13 82 15 83 14 84 19 87 20 88
REMARK SMILES IDX 21 89 28 90 22 91 24 92 27 93 23 94 25 95 26 96
REMARK H PARENT 85 22 53 33 18 79 14 85 14 86
REMARK Flexibility Score: inf
ROOT
ATOM      1  C   UNL A   1      46.985  38.382  27.534  1.00  0.00     0.275 C 
ENDROOT
BRANCH   1   2
ATOM      2  O   UNL A   1      45.656  38.663  27.980  1.00  0.00    -0.458 OA
BRANCH   2   3
ATOM      3  C   UNL A   1      44.547  37.972  27.655  1.00  0.00     0.338 C 
ATOM      4  O   UNL A   1      43.862  38.377  26.714  1.00  0.00    -0.246 OA
BRANCH   3   5
ATOM      5  C   UNL A   1      43.992  36.810  28.428  1.00  0.00     0.060 A 
ATOM      6  C   UNL A   1      44.064  37.186  30.200  1.00  0.00     0.016 A 
ATOM      7  C   UNL A   1      43.276  35.209  27.884  1.00  0.00     0.016 A 
ATOM      8  C   UNL A   1      43.425  36.045  31.408  1.00  0.00     0.010 A 
ATOM      9  C   UNL A   1      42.490  34.096  29.152  1.00  0.00     0.010 A 
ATOM     10  C   UNL A   1      42.682  34.493  30.936  1.00  0.00    -0.014 A 
BRANCH  10  11
ATOM     11  C   UNL A   1      42.360  33.518  32.002  1.00  0.00     0.031 A 
ATOM     12  C   UNL A   1      40.933  33.453  32.359  1.00  0.00     0.074 A 
ATOM     13  C   UNL A   1      43.119  32.437  32.299  1.00  0.00     0.049 A 
ATOM     14  N   UNL A   1      40.068  32.785  31.661  1.00  0.00    -0.248 NA
ATOM     15  C   UNL A   1      40.368  34.307  33.399  1.00  0.00     0.031 C 
ATOM     16  C   UNL A   1      44.380  32.024  31.674  1.00  0.00     0.029 A 
ATOM     17  N   UNL A   1      42.811  31.364  33.095  1.00  0.00    -0.354 N 
ATOM     18  C   UNL A   1      38.830  33.212  32.078  1.00  0.00     0.074 A 
ATOM     19  C   UNL A   1      39.060  34.136  33.172  1.00  0.00     0.031 C 
ATOM     20  C   UNL A   1      44.611  30.719  31.935  1.00  0.00     0.029 A 
ATOM     21  C   UNL A   1      43.578  30.242  32.832  1.00  0.00     0.049 A 
ATOM     22  H   UNL A   1      42.111  31.389  33.788  1.00  0.00     0.167 HD
ATOM     23  C   UNL A   1      37.674  32.828  31.486  1.00  0.00     0.034 A 
ATOM     24  C   UNL A   1      43.350  28.934  33.136  1.00  0.00     0.034 A 
ATOM     25  C   UNL A   1      37.754  31.873  30.422  1.00  0.00     0.049 A 
ATOM     26  C   UNL A   1      41.938  28.667  32.664  1.00  0.00     0.074 A 
ATOM     27  C   UNL A   1      37.668  31.880  29.048  1.00  0.00     0.029 A 
ATOM     28  N   UNL A   1      37.947  30.548  30.735  1.00  0.00    -0.354 N 
ATOM     29  N   UNL A   1      41.600  28.283  31.449  1.00  0.00    -0.248 NA
ATOM     30  C   UNL A   1      40.844  29.244  33.434  1.00  0.00     0.031 C 
ATOM     31  C   UNL A   1      38.221  30.634  28.608  1.00  0.00     0.029 A 
ATOM     32  C   UNL A   1      38.690  29.960  29.735  1.00  0.00     0.049 A 
ATOM     33  H   UNL A   1      37.610  30.094  31.541  1.00  0.00     0.167 HD
ATOM     34  C   UNL A   1      40.351  28.874  31.200  1.00  0.00     0.074 A 
ATOM     35  C   UNL A   1      40.012  29.535  32.446  1.00  0.00     0.031 C 
ATOM     36  C   UNL A   1      39.689  28.923  29.995  1.00  0.00     0.034 A 
BRANCH  23  37
ATOM     37  C   UNL A   1      36.385  33.303  32.007  1.00  0.00     0.023 A 
ATOM     38  C   UNL A   1      36.016  32.882  33.295  1.00  0.00     0.012 A 
ATOM     39  C   UNL A   1      35.525  34.110  31.248  1.00  0.00     0.148 A 
ATOM     40  C   UNL A   1      34.779  33.233  33.818  1.00  0.00     0.002 A 
ATOM     41  C   UNL A   1      34.287  34.451  31.773  1.00  0.00     0.091 A 
ATOM     42  F   UNL A   1      35.933  34.519  30.036  1.00  0.00    -0.205 F 
ATOM     43  C   UNL A   1      33.912  34.010  33.055  1.00  0.00     0.022 A 
BRANCH  41  44
ATOM     44  S   UNL A   1      33.092  35.445  30.877  1.00  0.00     0.127 S 
ATOM     45  O   UNL A   1      32.856  34.628  29.689  1.00  0.00    -0.237 OA
ATOM     46  O   UNL A   1      31.976  35.495  31.822  1.00  0.00    -0.237 OA
ATOM     47  O   UNL A   1      33.741  36.727  30.634  1.00  0.00    -0.744 OA
ENDBRANCH  41  44
ENDBRANCH  23  37
BRANCH  24  48
ATOM     48  C   UNL A   1      43.912  28.663  34.509  1.00  0.00     0.023 A 
ATOM     49  C   UNL A   1      44.548  29.761  35.142  1.00  0.00     0.012 A 
ATOM     50  C   UNL A   1      43.665  27.523  35.295  1.00  0.00     0.148 A 
ATOM     51  C   UNL A   1      44.770  29.791  36.519  1.00  0.00     0.002 A 
ATOM     52  C   UNL A   1      43.852  27.569  36.679  1.00  0.00     0.091 A 
ATOM     53  F   UNL A   1      43.211  26.407  34.717  1.00  0.00    -0.205 F 
ATOM     54  C   UNL A   1      44.385  28.708  37.295  1.00  0.00     0.022 A 
BRANCH  52  55
ATOM     55  S   UNL A   1      43.323  26.225  37.753  1.00  0.00     0.127 S 
ATOM     56  O   UNL A   1      43.987  25.066  37.157  1.00  0.00    -0.237 OA
ATOM     57  O   UNL A   1      43.867  26.652  39.040  1.00  0.00    -0.237 OA
ATOM     58  O   UNL A   1      41.870  26.205  37.654  1.00  0.00    -0.744 OA
ENDBRANCH  52  55
ENDBRANCH  24  48
BRANCH  36  59
ATOM     59  C   UNL A   1      40.074  27.930  28.909  1.00  0.00     0.023 A 
ATOM     60  C   UNL A   1      39.284  26.769  28.765  1.00  0.00     0.012 A 
ATOM     61  C   UNL A   1      41.071  28.154  27.933  1.00  0.00     0.148 A 
ATOM     62  C   UNL A   1      39.481  25.869  27.709  1.00  0.00     0.002 A 
ATOM     63  C   UNL A   1      41.251  27.268  26.865  1.00  0.00     0.091 A 
ATOM     64  F   UNL A   1      41.867  29.224  28.051  1.00  0.00    -0.205 F 
ATOM     65  C   UNL A   1      40.461  26.120  26.756  1.00  0.00     0.022 A 
BRANCH  63  66
ATOM     66  S   UNL A   1      42.466  27.533  25.559  1.00  0.00     0.127 S 
ATOM     67  O   UNL A   1      42.023  28.800  24.985  1.00  0.00    -0.237 OA
ATOM     68  O   UNL A   1      43.719  27.608  26.308  1.00  0.00    -0.237 OA
ATOM     69  O   UNL A   1      42.349  26.381  24.673  1.00  0.00    -0.744 OA
ENDBRANCH  63  66
ENDBRANCH  36  59
ENDBRANCH  10  11
ENDBRANCH   3   5
ENDBRANCH   2   3
ENDBRANCH   1   2
BRANCH   1  70
ATOM     70  C   UNL A   1      47.486  39.400  26.520  1.00  0.00     0.274 C 
BRANCH  70  71
ATOM     71  O   UNL A   1      46.545  40.471  26.438  1.00  0.00    -0.458 OA
BRANCH  71  72
ATOM     72  C   UNL A   1      45.981  40.752  25.237  1.00  0.00     0.365 C 
ATOM     73  O   UNL A   1      46.491  40.467  24.158  1.00  0.00    -0.245 OA
BRANCH  72  74
ATOM     74  C   UNL A   1      44.597  41.443  25.363  1.00  0.00     0.296 C 
ATOM     75  C   UNL A   1      44.671  42.642  24.399  1.00  0.00     0.091 C 
ATOM     76  N   UNL A   1      44.127  42.023  26.823  1.00  0.00    -0.319 N 
ATOM     77  C   UNL A   1      45.361  43.772  25.133  1.00  0.00     0.036 C 
ATOM     78  C   UNL A   1      44.950  43.515  26.575  1.00  0.00     0.270 C 
ATOM     79  H   UNL A   1      43.230  41.730  27.209  1.00  0.00     0.349 HD
ATOM     80  C   UNL A   1      44.902  45.172  24.679  1.00  0.00     0.074 C 
ATOM     81  C   UNL A   1      46.902  43.851  24.997  1.00  0.00     0.074 C 
ATOM     82  C   UNL A   1      45.333  45.481  23.251  1.00  0.00     0.261 C 
ATOM     83  C   UNL A   1      47.330  44.078  23.557  1.00  0.00     0.261 C 
ATOM     84  N   UNL A   1      46.750  45.283  22.983  1.00  0.00    -0.346 N 
ATOM     85  H   UNL A   1      47.257  46.085  23.357  1.00  0.00     0.346 HD
ATOM     86  H   UNL A   1      46.834  45.182  21.971  1.00  0.00     0.346 HD
BRANCH  76  87
ATOM     87  C   UNL A   1      43.383  41.223  28.631  1.00  0.00     0.302 C 
BRANCH  87  88
ATOM     88  C   UNL A   1      43.640  41.706  30.359  1.00  0.00     0.038 A 
ATOM     89  C   UNL A   1      43.479  40.752  31.429  1.00  0.00     0.012 A 
ATOM     90  C   UNL A   1      43.555  43.043  30.840  1.00  0.00     0.144 A 
ATOM     91  C   UNL A   1      42.865  41.072  32.675  1.00  0.00     0.003 A 
ATOM     92  C   UNL A   1      42.950  43.361  32.140  1.00  0.00     0.135 A 
ATOM     93  N   UNL A   1      43.863  44.200  30.245  1.00  0.00    -0.049 NA
ATOM     94  C   UNL A   1      42.506  42.378  33.039  1.00  0.00     0.034 A 
ATOM     95  N   UNL A   1      42.839  44.692  32.236  1.00  0.00    -0.050 NA
ATOM     96  O   UNL A   1      43.427  45.201  31.091  1.00  0.00    -0.243 OA
ENDBRANCH  87  88
ENDBRANCH  76  87
ENDBRANCH  72  74
ENDBRANCH  71  72
ENDBRANCH  70  71
ENDBRANCH   1  70
TORSDOF 16
ENDMDL
