MODEL 1
REMARK VINA RESULT:     -11.7      0.000      0.000
REMARK SMILES O=C(Cc1ccc(-c2ccn(C(F)F)c(=O)c2)cc1)OCCOC(=O)c1ccc(-c2c3nc(c(-c4cccc(S(=O)(=O)[O-])c4F)c4ccc([nH]4)c(-c4cccc(S(=O)(=O)[O-])c4F)c4nc(c(-c5cccc(S(=O)(=O)[O-])c5F)c5ccc2[nH]5)C=C4)C=C3)cc1
REMARK SMILES IDX 21 1 20 2 2 3 1 4 3 5 4 6 5 7 19 8 6 9 18 10 7 11 8 12 9 13
REMARK SMILES IDX 17 14 10 15 15 16 11 17 16 18 12 19 13 20 14 21 22 22 23 23
REMARK SMILES IDX 24 24 25 25 26 26 27 27 88 28 28 29 87 30 29 31 30 32 31 33
REMARK SMILES IDX 81 34 32 35 86 36 80 37 82 38 33 39 85 40 79 41 78 42 34 44
REMARK SMILES IDX 66 45 46 46 65 47 47 48 50 49 64 50 83 51 48 52 49 53 63 55
REMARK SMILES IDX 84 56 51 57 35 58 36 59 44 60 37 61 39 62 45 63 38 64 40 65
REMARK SMILES IDX 41 66 42 67 43 68 67 69 68 70 76 71 69 72 71 73 77 74 70 75
REMARK SMILES IDX 72 76 73 77 74 78 75 79 52 80 53 81 61 82 54 83 56 84 62 85
REMARK SMILES IDX 55 86 57 87 58 88 59 89 60 90
REMARK H PARENT 82 43 50 54
REMARK Flexibility Score: inf
ROOT
ATOM      1  C   UNL A   1      35.196  22.022  24.196  1.00  0.00     0.274 C 
ENDROOT
BRANCH   1   2
ATOM      2  O   UNL A   1      34.236  22.178  25.264  1.00  0.00    -0.462 OA
BRANCH   2   3
ATOM      3  C   UNL A   1      32.926  21.841  25.211  1.00  0.00     0.310 C 
ATOM      4  O   UNL A   1      32.560  20.929  24.470  1.00  0.00    -0.252 OA
BRANCH   3   5
ATOM      5  C   UNL A   1      31.928  22.603  26.050  1.00  0.00     0.158 C 
BRANCH   5   6
ATOM      6  C   UNL A   1      31.368  23.850  25.425  1.00  0.00    -0.037 A 
ATOM      7  C   UNL A   1      31.370  25.066  26.115  1.00  0.00     0.005 A 
ATOM      8  C   UNL A   1      30.785  23.783  24.150  1.00  0.00     0.005 A 
ATOM      9  C   UNL A   1      30.842  26.209  25.516  1.00  0.00     0.009 A 
ATOM     10  C   UNL A   1      30.268  24.928  23.548  1.00  0.00     0.009 A 
ATOM     11  C   UNL A   1      30.306  26.150  24.223  1.00  0.00    -0.018 A 
BRANCH  11  12
ATOM     12  C   UNL A   1      29.777  27.359  23.574  1.00  0.00    -0.011 A 
ATOM     13  C   UNL A   1      30.625  28.321  22.899  1.00  0.00     0.027 A 
ATOM     14  C   UNL A   1      28.454  27.579  23.642  1.00  0.00     0.080 A 
ATOM     15  C   UNL A   1      30.093  29.412  22.338  1.00  0.00     0.095 A 
ATOM     16  C   UNL A   1      27.849  28.787  23.021  1.00  0.00     0.255 A 
ATOM     17  N   UNL A   1      28.731  29.648  22.389  1.00  0.00    -0.258 N 
ATOM     18  O   UNL A   1      26.634  28.942  23.107  1.00  0.00    -0.269 OA
BRANCH  17  19
ATOM     19  C   UNL A   1      28.173  30.821  21.775  1.00  0.00     0.451 C 
ATOM     20  F   UNL A   1      29.115  31.782  21.608  1.00  0.00    -0.185 F 
ATOM     21  F   UNL A   1      27.656  30.533  20.553  1.00  0.00    -0.185 F 
ENDBRANCH  17  19
ENDBRANCH  11  12
ENDBRANCH   5   6
ENDBRANCH   3   5
ENDBRANCH   2   3
ENDBRANCH   1   2
BRANCH   1  22
ATOM     22  C   UNL A   1      36.393  21.176  24.634  1.00  0.00     0.275 C 
BRANCH  22  23
ATOM     23  O   UNL A   1      37.009  21.761  25.792  1.00  0.00    -0.458 OA
BRANCH  23  24
ATOM     24  C   UNL A   1      38.306  21.426  26.008  1.00  0.00     0.338 C 
ATOM     25  O   UNL A   1      38.844  20.373  25.713  1.00  0.00    -0.246 OA
BRANCH  24  26
ATOM     26  C   UNL A   1      39.040  22.633  26.461  1.00  0.00     0.060 A 
ATOM     27  C   UNL A   1      38.507  23.884  26.125  1.00  0.00     0.016 A 
ATOM     28  C   UNL A   1      40.183  22.548  27.265  1.00  0.00     0.016 A 
ATOM     29  C   UNL A   1      39.131  25.052  26.569  1.00  0.00     0.010 A 
ATOM     30  C   UNL A   1      40.808  23.719  27.705  1.00  0.00     0.010 A 
ATOM     31  C   UNL A   1      40.299  24.975  27.337  1.00  0.00    -0.014 A 
BRANCH  31  32
ATOM     32  C   UNL A   1      41.078  26.205  27.616  1.00  0.00     0.031 A 
ATOM     33  C   UNL A   1      40.398  27.335  28.339  1.00  0.00     0.074 A 
ATOM     34  C   UNL A   1      42.363  26.325  27.236  1.00  0.00     0.049 A 
ATOM     35  N   UNL A   1      40.891  28.479  28.737  1.00  0.00    -0.248 NA
ATOM     36  C   UNL A   1      38.971  27.152  28.652  1.00  0.00     0.031 C 
ATOM     37  C   UNL A   1      43.129  25.318  26.504  1.00  0.00     0.029 A 
ATOM     38  N   UNL A   1      43.243  27.367  27.398  1.00  0.00    -0.354 N 
ATOM     39  C   UNL A   1      39.841  29.147  29.353  1.00  0.00     0.074 A 
ATOM     40  C   UNL A   1      38.673  28.301  29.242  1.00  0.00     0.031 C 
ATOM     41  C   UNL A   1      44.360  25.803  26.258  1.00  0.00     0.029 A 
ATOM     42  C   UNL A   1      44.469  27.151  26.813  1.00  0.00     0.049 A 
ATOM     43  H   UNL A   1      43.018  28.190  27.889  1.00  0.00     0.167 HD
ATOM     44  C   UNL A   1      39.850  30.344  29.984  1.00  0.00     0.034 A 
ATOM     45  C   UNL A   1      45.550  27.953  26.737  1.00  0.00     0.034 A 
ATOM     46  C   UNL A   1      41.003  31.192  30.096  1.00  0.00     0.049 A 
ATOM     47  C   UNL A   1      45.528  29.295  27.429  1.00  0.00     0.074 A 
ATOM     48  C   UNL A   1      41.115  32.412  30.740  1.00  0.00     0.029 A 
ATOM     49  N   UNL A   1      42.243  30.915  29.542  1.00  0.00    -0.354 N 
ATOM     50  N   UNL A   1      44.576  29.841  28.145  1.00  0.00    -0.248 NA
ATOM     51  C   UNL A   1      46.749  30.112  27.336  1.00  0.00     0.031 C 
ATOM     52  C   UNL A   1      42.423  32.878  30.564  1.00  0.00     0.029 A 
ATOM     53  C   UNL A   1      43.126  31.943  29.823  1.00  0.00     0.049 A 
ATOM     54  H   UNL A   1      42.462  30.107  29.025  1.00  0.00     0.167 HD
ATOM     55  C   UNL A   1      45.096  31.041  28.622  1.00  0.00     0.074 A 
ATOM     56  C   UNL A   1      46.453  31.134  28.130  1.00  0.00     0.031 C 
ATOM     57  C   UNL A   1      44.497  31.991  29.385  1.00  0.00     0.034 A 
BRANCH  44  58
ATOM     58  C   UNL A   1      38.575  30.776  30.654  1.00  0.00     0.023 A 
ATOM     59  C   UNL A   1      38.406  30.517  32.030  1.00  0.00     0.012 A 
ATOM     60  C   UNL A   1      37.571  31.463  29.947  1.00  0.00     0.148 A 
ATOM     61  C   UNL A   1      37.243  30.914  32.688  1.00  0.00     0.002 A 
ATOM     62  C   UNL A   1      36.430  31.886  30.619  1.00  0.00     0.091 A 
ATOM     63  F   UNL A   1      37.741  31.671  28.634  1.00  0.00    -0.205 F 
ATOM     64  C   UNL A   1      36.261  31.606  31.985  1.00  0.00     0.022 A 
BRANCH  62  65
ATOM     65  S   UNL A   1      35.135  32.836  29.814  1.00  0.00     0.127 S 
ATOM     66  O   UNL A   1      34.181  33.016  30.908  1.00  0.00    -0.237 OA
ATOM     67  O   UNL A   1      35.846  34.053  29.419  1.00  0.00    -0.237 OA
ATOM     68  O   UNL A   1      34.671  32.018  28.704  1.00  0.00    -0.744 OA
ENDBRANCH  62  65
ENDBRANCH  44  58
BRANCH  45  69
ATOM     69  C   UNL A   1      46.780  27.489  26.031  1.00  0.00     0.023 A 
ATOM     70  C   UNL A   1      46.912  27.718  24.647  1.00  0.00     0.012 A 
ATOM     71  C   UNL A   1      47.809  26.815  26.715  1.00  0.00     0.148 A 
ATOM     72  C   UNL A   1      48.028  27.250  23.952  1.00  0.00     0.002 A 
ATOM     73  C   UNL A   1      48.943  26.399  26.027  1.00  0.00     0.091 A 
ATOM     74  F   UNL A   1      47.658  26.585  28.027  1.00  0.00    -0.205 F 
ATOM     75  C   UNL A   1      49.046  26.599  24.641  1.00  0.00     0.022 A 
BRANCH  73  76
ATOM     76  S   UNL A   1      50.351  25.662  26.866  1.00  0.00     0.127 S 
ATOM     77  O   UNL A   1      49.765  24.452  27.436  1.00  0.00    -0.237 OA
ATOM     78  O   UNL A   1      51.285  25.433  25.761  1.00  0.00    -0.237 OA
ATOM     79  O   UNL A   1      50.800  26.667  27.821  1.00  0.00    -0.744 OA
ENDBRANCH  73  76
ENDBRANCH  45  69
BRANCH  57  80
ATOM     80  C   UNL A   1      45.307  33.203  29.768  1.00  0.00     0.023 A 
ATOM     81  C   UNL A   1      46.064  33.188  30.955  1.00  0.00     0.012 A 
ATOM     82  C   UNL A   1      45.386  34.320  28.912  1.00  0.00     0.148 A 
ATOM     83  C   UNL A   1      46.864  34.277  31.300  1.00  0.00     0.002 A 
ATOM     84  C   UNL A   1      46.220  35.383  29.241  1.00  0.00     0.091 A 
ATOM     85  F   UNL A   1      44.643  34.326  27.796  1.00  0.00    -0.205 F 
ATOM     86  C   UNL A   1      46.952  35.368  30.439  1.00  0.00     0.022 A 
BRANCH  84  87
ATOM     87  S   UNL A   1      46.463  36.784  28.141  1.00  0.00     0.127 S 
ATOM     88  O   UNL A   1      46.988  36.133  26.942  1.00  0.00    -0.237 OA
ATOM     89  O   UNL A   1      45.106  37.314  28.002  1.00  0.00    -0.237 OA
ATOM     90  O   UNL A   1      47.387  37.673  28.832  1.00  0.00    -0.744 OA
ENDBRANCH  84  87
ENDBRANCH  57  80
ENDBRANCH  31  32
ENDBRANCH  24  26
ENDBRANCH  23  24
ENDBRANCH  22  23
ENDBRANCH   1  22
TORSDOF 17
ENDMDL
MODEL 2
REMARK VINA RESULT:     -11.6      5.912     10.235
REMARK SMILES O=C(Cc1ccc(-c2ccn(C(F)F)c(=O)c2)cc1)OCCOC(=O)c1ccc(-c2c3nc(c(-c4cccc(S(=O)(=O)[O-])c4F)c4ccc([nH]4)c(-c4cccc(S(=O)(=O)[O-])c4F)c4nc(c(-c5cccc(S(=O)(=O)[O-])c5F)c5ccc2[nH]5)C=C4)C=C3)cc1
REMARK SMILES IDX 21 1 20 2 2 3 1 4 3 5 4 6 5 7 19 8 6 9 18 10 7 11 8 12 9 13
REMARK SMILES IDX 17 14 10 15 15 16 11 17 16 18 12 19 13 20 14 21 22 22 23 23
REMARK SMILES IDX 24 24 25 25 26 26 27 27 88 28 28 29 87 30 29 31 30 32 31 33
REMARK SMILES IDX 81 34 32 35 86 36 80 37 82 38 33 39 85 40 79 41 78 42 34 44
REMARK SMILES IDX 66 45 46 46 65 47 47 48 50 49 64 50 83 51 48 52 49 53 63 55
REMARK SMILES IDX 84 56 51 57 35 58 36 59 44 60 37 61 39 62 45 63 38 64 40 65
REMARK SMILES IDX 41 66 42 67 43 68 67 69 68 70 76 71 69 72 71 73 77 74 70 75
REMARK SMILES IDX 72 76 73 77 74 78 75 79 52 80 53 81 61 82 54 83 56 84 62 85
REMARK SMILES IDX 55 86 57 87 58 88 59 89 60 90
REMARK H PARENT 82 43 50 54
REMARK Flexibility Score: inf
ROOT
ATOM      1  C   UNL A   1      33.831  34.491  28.851  1.00  0.00     0.274 C 
ENDROOT
BRANCH   1   2
ATOM      2  O   UNL A   1      33.673  34.046  30.217  1.00  0.00    -0.462 OA
BRANCH   2   3
ATOM      3  C   UNL A   1      34.508  34.325  31.246  1.00  0.00     0.310 C 
ATOM      4  O   UNL A   1      34.362  35.365  31.886  1.00  0.00    -0.252 OA
BRANCH   3   5
ATOM      5  C   UNL A   1      35.621  33.361  31.582  1.00  0.00     0.158 C 
BRANCH   5   6
ATOM      6  C   UNL A   1      36.978  33.716  31.043  1.00  0.00    -0.037 A 
ATOM      7  C   UNL A   1      37.973  34.231  31.878  1.00  0.00     0.005 A 
ATOM      8  C   UNL A   1      37.233  33.581  29.670  1.00  0.00     0.005 A 
ATOM      9  C   UNL A   1      39.225  34.556  31.355  1.00  0.00     0.009 A 
ATOM     10  C   UNL A   1      38.486  33.896  29.149  1.00  0.00     0.009 A 
ATOM     11  C   UNL A   1      39.493  34.374  29.992  1.00  0.00    -0.018 A 
BRANCH  11  12
ATOM     12  C   UNL A   1      40.820  34.685  29.441  1.00  0.00    -0.011 A 
ATOM     13  C   UNL A   1      41.029  35.696  28.424  1.00  0.00     0.027 A 
ATOM     14  C   UNL A   1      41.868  33.975  29.891  1.00  0.00     0.080 A 
ATOM     15  C   UNL A   1      42.256  35.928  27.946  1.00  0.00     0.095 A 
ATOM     16  C   UNL A   1      43.238  34.224  29.369  1.00  0.00     0.255 A 
ATOM     17  N   UNL A   1      43.348  35.213  28.406  1.00  0.00    -0.258 N 
ATOM     18  O   UNL A   1      44.163  33.551  29.814  1.00  0.00    -0.269 OA
BRANCH  17  19
ATOM     19  C   UNL A   1      44.662  35.479  27.889  1.00  0.00     0.451 C 
ATOM     20  F   UNL A   1      44.598  36.024  26.649  1.00  0.00    -0.185 F 
ATOM     21  F   UNL A   1      45.334  36.346  28.688  1.00  0.00    -0.185 F 
ENDBRANCH  17  19
ENDBRANCH  11  12
ENDBRANCH   5   6
ENDBRANCH   3   5
ENDBRANCH   2   3
ENDBRANCH   1   2
BRANCH   1  22
ATOM     22  C   UNL A   1      34.026  33.314  27.894  1.00  0.00     0.275 C 
BRANCH  22  23
ATOM     23  O   UNL A   1      34.247  32.106  28.641  1.00  0.00    -0.458 OA
BRANCH  23  24
ATOM     24  C   UNL A   1      34.399  30.974  27.909  1.00  0.00     0.338 C 
ATOM     25  O   UNL A   1      33.666  30.581  27.018  1.00  0.00    -0.246 OA
BRANCH  24  26
ATOM     26  C   UNL A   1      35.730  30.392  28.204  1.00  0.00     0.060 A 
ATOM     27  C   UNL A   1      35.902  29.750  29.437  1.00  0.00     0.016 A 
ATOM     28  C   UNL A   1      36.769  30.403  27.266  1.00  0.00     0.016 A 
ATOM     29  C   UNL A   1      37.120  29.142  29.745  1.00  0.00     0.010 A 
ATOM     30  C   UNL A   1      37.990  29.797  27.578  1.00  0.00     0.010 A 
ATOM     31  C   UNL A   1      38.178  29.187  28.829  1.00  0.00    -0.014 A 
BRANCH  31  32
ATOM     32  C   UNL A   1      39.530  28.739  29.243  1.00  0.00     0.031 A 
ATOM     33  C   UNL A   1      40.240  29.510  30.322  1.00  0.00     0.074 A 
ATOM     34  C   UNL A   1      40.123  27.673  28.676  1.00  0.00     0.049 A 
ATOM     35  N   UNL A   1      41.398  29.275  30.881  1.00  0.00    -0.248 NA
ATOM     36  C   UNL A   1      39.553  30.707  30.837  1.00  0.00     0.031 C 
ATOM     37  C   UNL A   1      39.556  26.860  27.602  1.00  0.00     0.029 A 
ATOM     38  N   UNL A   1      41.351  27.108  28.916  1.00  0.00    -0.354 N 
ATOM     39  C   UNL A   1      41.576  30.286  31.816  1.00  0.00     0.074 A 
ATOM     40  C   UNL A   1      40.427  31.160  31.724  1.00  0.00     0.031 C 
ATOM     41  C   UNL A   1      40.449  25.913  27.258  1.00  0.00     0.029 A 
ATOM     42  C   UNL A   1      41.646  26.054  28.085  1.00  0.00     0.049 A 
ATOM     43  H   UNL A   1      41.962  27.428  29.618  1.00  0.00     0.167 HD
ATOM     44  C   UNL A   1      42.587  30.459  32.699  1.00  0.00     0.034 A 
ATOM     45  C   UNL A   1      42.757  25.293  28.004  1.00  0.00     0.034 A 
ATOM     46  C   UNL A   1      43.733  29.598  32.796  1.00  0.00     0.049 A 
ATOM     47  C   UNL A   1      43.883  25.520  28.984  1.00  0.00     0.074 A 
ATOM     48  C   UNL A   1      44.797  29.678  33.677  1.00  0.00     0.029 A 
ATOM     49  N   UNL A   1      43.970  28.506  31.978  1.00  0.00    -0.354 N 
ATOM     50  N   UNL A   1      43.962  26.381  29.969  1.00  0.00    -0.248 NA
ATOM     51  C   UNL A   1      45.055  24.638  28.867  1.00  0.00     0.031 C 
ATOM     52  C   UNL A   1      45.685  28.638  33.382  1.00  0.00     0.029 A 
ATOM     53  C   UNL A   1      45.167  27.905  32.327  1.00  0.00     0.049 A 
ATOM     54  H   UNL A   1      43.375  28.203  31.254  1.00  0.00     0.167 HD
ATOM     55  C   UNL A   1      45.169  26.118  30.612  1.00  0.00     0.074 A 
ATOM     56  C   UNL A   1      45.778  25.005  29.918  1.00  0.00     0.031 C 
ATOM     57  C   UNL A   1      45.730  26.753  31.672  1.00  0.00     0.034 A 
BRANCH  44  58
ATOM     58  C   UNL A   1      42.464  31.599  33.671  1.00  0.00     0.023 A 
ATOM     59  C   UNL A   1      43.017  32.851  33.328  1.00  0.00     0.012 A 
ATOM     60  C   UNL A   1      41.779  31.452  34.891  1.00  0.00     0.148 A 
ATOM     61  C   UNL A   1      42.912  33.934  34.199  1.00  0.00     0.002 A 
ATOM     62  C   UNL A   1      41.648  32.547  35.738  1.00  0.00     0.091 A 
ATOM     63  F   UNL A   1      41.288  30.246  35.208  1.00  0.00    -0.205 F 
ATOM     64  C   UNL A   1      42.219  33.785  35.397  1.00  0.00     0.022 A 
BRANCH  62  65
ATOM     65  S   UNL A   1      40.723  32.471  37.275  1.00  0.00     0.127 S 
ATOM     66  O   UNL A   1      41.710  31.886  38.183  1.00  0.00    -0.237 OA
ATOM     67  O   UNL A   1      40.424  33.881  37.526  1.00  0.00    -0.237 OA
ATOM     68  O   UNL A   1      39.557  31.644  36.998  1.00  0.00    -0.744 OA
ENDBRANCH  62  65
ENDBRANCH  44  58
BRANCH  45  69
ATOM     69  C   UNL A   1      42.843  24.195  26.998  1.00  0.00     0.023 A 
ATOM     70  C   UNL A   1      43.606  24.384  25.829  1.00  0.00     0.012 A 
ATOM     71  C   UNL A   1      42.167  22.974  27.185  1.00  0.00     0.148 A 
ATOM     72  C   UNL A   1      43.662  23.393  24.849  1.00  0.00     0.002 A 
ATOM     73  C   UNL A   1      42.270  21.971  26.229  1.00  0.00     0.091 A 
ATOM     74  F   UNL A   1      41.426  22.818  28.292  1.00  0.00    -0.205 F 
ATOM     75  C   UNL A   1      43.002  22.184  25.051  1.00  0.00     0.022 A 
BRANCH  73  76
ATOM     76  S   UNL A   1      41.550  20.342  26.473  1.00  0.00     0.127 S 
ATOM     77  O   UNL A   1      42.231  19.554  25.449  1.00  0.00    -0.237 OA
ATOM     78  O   UNL A   1      41.943  20.034  27.850  1.00  0.00    -0.237 OA
ATOM     79  O   UNL A   1      40.115  20.522  26.294  1.00  0.00    -0.744 OA
ENDBRANCH  73  76
ENDBRANCH  45  69
BRANCH  57  80
ATOM     80  C   UNL A   1      47.057  26.247  32.175  1.00  0.00     0.023 A 
ATOM     81  C   UNL A   1      48.250  26.822  31.697  1.00  0.00     0.012 A 
ATOM     82  C   UNL A   1      47.121  25.263  33.183  1.00  0.00     0.148 A 
ATOM     83  C   UNL A   1      49.487  26.407  32.190  1.00  0.00     0.002 A 
ATOM     84  C   UNL A   1      48.355  24.886  33.701  1.00  0.00     0.091 A 
ATOM     85  F   UNL A   1      45.977  24.711  33.613  1.00  0.00    -0.205 F 
ATOM     86  C   UNL A   1      49.539  25.449  33.200  1.00  0.00     0.022 A 
BRANCH  84  87
ATOM     87  S   UNL A   1      48.505  23.729  35.069  1.00  0.00     0.127 S 
ATOM     88  O   UNL A   1      47.718  24.392  36.108  1.00  0.00    -0.237 OA
ATOM     89  O   UNL A   1      47.895  22.516  34.524  1.00  0.00    -0.237 OA
ATOM     90  O   UNL A   1      49.932  23.615  35.336  1.00  0.00    -0.744 OA
ENDBRANCH  84  87
ENDBRANCH  57  80
ENDBRANCH  31  32
ENDBRANCH  24  26
ENDBRANCH  23  24
ENDBRANCH  22  23
ENDBRANCH   1  22
TORSDOF 17
ENDMDL
MODEL 3
REMARK VINA RESULT:     -11.3      5.521     10.298
REMARK SMILES O=C(Cc1ccc(-c2ccn(C(F)F)c(=O)c2)cc1)OCCOC(=O)c1ccc(-c2c3nc(c(-c4cccc(S(=O)(=O)[O-])c4F)c4ccc([nH]4)c(-c4cccc(S(=O)(=O)[O-])c4F)c4nc(c(-c5cccc(S(=O)(=O)[O-])c5F)c5ccc2[nH]5)C=C4)C=C3)cc1
REMARK SMILES IDX 21 1 20 2 2 3 1 4 3 5 4 6 5 7 19 8 6 9 18 10 7 11 8 12 9 13
REMARK SMILES IDX 17 14 10 15 15 16 11 17 16 18 12 19 13 20 14 21 22 22 23 23
REMARK SMILES IDX 24 24 25 25 26 26 27 27 88 28 28 29 87 30 29 31 30 32 31 33
REMARK SMILES IDX 81 34 32 35 86 36 80 37 82 38 33 39 85 40 79 41 78 42 34 44
REMARK SMILES IDX 66 45 46 46 65 47 47 48 50 49 64 50 83 51 48 52 49 53 63 55
REMARK SMILES IDX 84 56 51 57 35 58 36 59 44 60 37 61 39 62 45 63 38 64 40 65
REMARK SMILES IDX 41 66 42 67 43 68 67 69 68 70 76 71 69 72 71 73 77 74 70 75
REMARK SMILES IDX 72 76 73 77 74 78 75 79 52 80 53 81 61 82 54 83 56 84 62 85
REMARK SMILES IDX 55 86 57 87 58 88 59 89 60 90
REMARK H PARENT 82 43 50 54
REMARK Flexibility Score: inf
ROOT
ATOM      1  C   UNL A   1      31.576  28.575  25.912  1.00  0.00     0.274 C 
ENDROOT
BRANCH   1   2
ATOM      2  O   UNL A   1      31.612  28.007  24.584  1.00  0.00    -0.462 OA
BRANCH   2   3
ATOM      3  C   UNL A   1      32.618  27.263  24.064  1.00  0.00     0.310 C 
ATOM      4  O   UNL A   1      33.743  27.327  24.559  1.00  0.00    -0.252 OA
BRANCH   3   5
ATOM      5  C   UNL A   1      32.348  26.379  22.871  1.00  0.00     0.158 C 
BRANCH   5   6
ATOM      6  C   UNL A   1      32.402  24.899  23.129  1.00  0.00    -0.037 A 
ATOM      7  C   UNL A   1      32.695  23.998  22.102  1.00  0.00     0.005 A 
ATOM      8  C   UNL A   1      32.102  24.410  24.410  1.00  0.00     0.005 A 
ATOM      9  C   UNL A   1      32.738  22.629  22.366  1.00  0.00     0.009 A 
ATOM     10  C   UNL A   1      32.155  23.044  24.675  1.00  0.00     0.009 A 
ATOM     11  C   UNL A   1      32.486  22.146  23.656  1.00  0.00    -0.018 A 
BRANCH  11  12
ATOM     12  C   UNL A   1      32.561  20.707  23.947  1.00  0.00    -0.011 A 
ATOM     13  C   UNL A   1      32.746  20.187  25.287  1.00  0.00     0.027 A 
ATOM     14  C   UNL A   1      32.478  19.854  22.913  1.00  0.00     0.080 A 
ATOM     15  C   UNL A   1      32.822  18.868  25.493  1.00  0.00     0.095 A 
ATOM     16  C   UNL A   1      32.560  18.385  23.128  1.00  0.00     0.255 A 
ATOM     17  N   UNL A   1      32.728  17.975  24.441  1.00  0.00    -0.258 N 
ATOM     18  O   UNL A   1      32.476  17.646  22.151  1.00  0.00    -0.269 OA
BRANCH  17  19
ATOM     19  C   UNL A   1      32.804  16.560  24.678  1.00  0.00     0.451 C 
ATOM     20  F   UNL A   1      34.059  16.191  25.037  1.00  0.00    -0.185 F 
ATOM     21  F   UNL A   1      31.963  16.187  25.677  1.00  0.00    -0.185 F 
ENDBRANCH  17  19
ENDBRANCH  11  12
ENDBRANCH   5   6
ENDBRANCH   3   5
ENDBRANCH   2   3
ENDBRANCH   1   2
BRANCH   1  22
ATOM     22  C   UNL A   1      31.730  30.097  25.877  1.00  0.00     0.275 C 
BRANCH  22  23
ATOM     23  O   UNL A   1      33.114  30.453  26.023  1.00  0.00    -0.458 OA
BRANCH  23  24
ATOM     24  C   UNL A   1      33.380  31.453  26.901  1.00  0.00     0.338 C 
ATOM     25  O   UNL A   1      32.635  32.366  27.211  1.00  0.00    -0.246 OA
BRANCH  24  26
ATOM     26  C   UNL A   1      34.646  31.140  27.608  1.00  0.00     0.060 A 
ATOM     27  C   UNL A   1      34.919  29.796  27.893  1.00  0.00     0.016 A 
ATOM     28  C   UNL A   1      35.587  32.130  27.917  1.00  0.00     0.016 A 
ATOM     29  C   UNL A   1      36.119  29.442  28.512  1.00  0.00     0.010 A 
ATOM     30  C   UNL A   1      36.786  31.773  28.541  1.00  0.00     0.010 A 
ATOM     31  C   UNL A   1      37.046  30.431  28.864  1.00  0.00    -0.014 A 
BRANCH  31  32
ATOM     32  C   UNL A   1      38.208  30.081  29.715  1.00  0.00     0.031 A 
ATOM     33  C   UNL A   1      39.205  29.085  29.190  1.00  0.00     0.074 A 
ATOM     34  C   UNL A   1      38.381  30.630  30.931  1.00  0.00     0.049 A 
ATOM     35  N   UNL A   1      40.320  28.667  29.730  1.00  0.00    -0.248 NA
ATOM     36  C   UNL A   1      38.903  28.476  27.884  1.00  0.00     0.031 C 
ATOM     37  C   UNL A   1      37.474  31.584  31.566  1.00  0.00     0.029 A 
ATOM     38  N   UNL A   1      39.376  30.440  31.858  1.00  0.00    -0.354 N 
ATOM     39  C   UNL A   1      40.856  27.756  28.830  1.00  0.00     0.074 A 
ATOM     40  C   UNL A   1      39.926  27.649  27.727  1.00  0.00     0.031 C 
ATOM     41  C   UNL A   1      37.944  31.877  32.794  1.00  0.00     0.029 A 
ATOM     42  C   UNL A   1      39.180  31.133  33.029  1.00  0.00     0.049 A 
ATOM     43  H   UNL A   1      40.157  29.863  31.697  1.00  0.00     0.167 HD
ATOM     44  C   UNL A   1      42.032  27.089  28.894  1.00  0.00     0.034 A 
ATOM     45  C   UNL A   1      39.917  31.160  34.158  1.00  0.00     0.034 A 
ATOM     46  C   UNL A   1      42.959  27.186  29.986  1.00  0.00     0.049 A 
ATOM     47  C   UNL A   1      41.213  30.388  34.216  1.00  0.00     0.074 A 
ATOM     48  C   UNL A   1      44.189  26.568  30.129  1.00  0.00     0.029 A 
ATOM     49  N   UNL A   1      42.756  27.943  31.129  1.00  0.00    -0.354 N 
ATOM     50  N   UNL A   1      41.783  29.657  33.289  1.00  0.00    -0.248 NA
ATOM     51  C   UNL A   1      41.989  30.481  35.463  1.00  0.00     0.031 C 
ATOM     52  C   UNL A   1      44.724  26.943  31.366  1.00  0.00     0.029 A 
ATOM     53  C   UNL A   1      43.833  27.804  31.986  1.00  0.00     0.049 A 
ATOM     54  H   UNL A   1      41.961  28.497  31.305  1.00  0.00     0.167 HD
ATOM     55  C   UNL A   1      42.999  29.240  33.823  1.00  0.00     0.074 A 
ATOM     56  C   UNL A   1      43.092  29.816  35.147  1.00  0.00     0.031 C 
ATOM     57  C   UNL A   1      43.946  28.438  33.274  1.00  0.00     0.034 A 
BRANCH  44  58
ATOM     58  C   UNL A   1      42.403  26.235  27.714  1.00  0.00     0.023 A 
ATOM     59  C   UNL A   1      43.166  26.804  26.673  1.00  0.00     0.012 A 
ATOM     60  C   UNL A   1      42.037  24.879  27.645  1.00  0.00     0.148 A 
ATOM     61  C   UNL A   1      43.539  26.041  25.568  1.00  0.00     0.002 A 
ATOM     62  C   UNL A   1      42.442  24.115  26.556  1.00  0.00     0.091 A 
ATOM     63  F   UNL A   1      41.286  24.368  28.631  1.00  0.00    -0.205 F 
ATOM     64  C   UNL A   1      43.186  24.696  25.515  1.00  0.00     0.022 A 
BRANCH  62  65
ATOM     65  S   UNL A   1      42.089  22.359  26.426  1.00  0.00     0.127 S 
ATOM     66  O   UNL A   1      42.973  21.962  25.330  1.00  0.00    -0.237 OA
ATOM     67  O   UNL A   1      42.490  21.864  27.743  1.00  0.00    -0.237 OA
ATOM     68  O   UNL A   1      40.663  22.259  26.150  1.00  0.00    -0.744 OA
ENDBRANCH  62  65
ENDBRANCH  44  58
BRANCH  45  69
ATOM     69  C   UNL A   1      39.486  31.998  35.315  1.00  0.00     0.023 A 
ATOM     70  C   UNL A   1      38.517  31.501  36.208  1.00  0.00     0.012 A 
ATOM     71  C   UNL A   1      40.020  33.283  35.528  1.00  0.00     0.148 A 
ATOM     72  C   UNL A   1      38.060  32.283  37.268  1.00  0.00     0.002 A 
ATOM     73  C   UNL A   1      39.598  34.037  36.618  1.00  0.00     0.091 A 
ATOM     74  F   UNL A   1      40.925  33.751  34.656  1.00  0.00    -0.205 F 
ATOM     75  C   UNL A   1      38.605  33.546  37.479  1.00  0.00     0.022 A 
BRANCH  73  76
ATOM     76  S   UNL A   1      40.341  35.622  37.026  1.00  0.00     0.127 S 
ATOM     77  O   UNL A   1      41.754  35.372  36.755  1.00  0.00    -0.237 OA
ATOM     78  O   UNL A   1      39.683  36.526  36.081  1.00  0.00    -0.237 OA
ATOM     79  O   UNL A   1      39.991  35.865  38.420  1.00  0.00    -0.744 OA
ENDBRANCH  73  76
ENDBRANCH  45  69
BRANCH  57  80
ATOM     80  C   UNL A   1      45.185  28.154  34.082  1.00  0.00     0.023 A 
ATOM     81  C   UNL A   1      46.278  29.039  34.017  1.00  0.00     0.012 A 
ATOM     82  C   UNL A   1      45.236  27.059  34.969  1.00  0.00     0.148 A 
ATOM     83  C   UNL A   1      47.413  28.825  34.799  1.00  0.00     0.002 A 
ATOM     84  C   UNL A   1      46.352  26.877  35.778  1.00  0.00     0.091 A 
ATOM     85  F   UNL A   1      44.195  26.214  35.004  1.00  0.00    -0.205 F 
ATOM     86  C   UNL A   1      47.446  27.753  35.687  1.00  0.00     0.022 A 
BRANCH  84  87
ATOM     87  S   UNL A   1      46.435  25.577  37.016  1.00  0.00     0.127 S 
ATOM     88  O   UNL A   1      46.394  24.373  36.188  1.00  0.00    -0.237 OA
ATOM     89  O   UNL A   1      47.726  25.833  37.657  1.00  0.00    -0.237 OA
ATOM     90  O   UNL A   1      45.283  25.785  37.884  1.00  0.00    -0.744 OA
ENDBRANCH  84  87
ENDBRANCH  57  80
ENDBRANCH  31  32
ENDBRANCH  24  26
ENDBRANCH  23  24
ENDBRANCH  22  23
ENDBRANCH   1  22
TORSDOF 17
ENDMDL
