MODEL 1
REMARK VINA RESULT:     -11.6      0.000      0.000
REMARK SMILES Cc1ccc(O)c(C(=O)NCc2ccc(C(=O)OCCOC(=O)c3ccc(-c4c5nc(c(-c6cccc(S(=O)(=O)[O-])c6F)c6ccc([nH]6)c(-c6cccc(S(=O)(=O)[O-])c6F)c6nc(c(-c7cccc(S(=O)(=O)[O-])c7F)c7ccc4[nH]7)C=C6)C=C5)cc3)o2)c1
REMARK SMILES IDX 19 1 18 2 16 3 17 4 15 5 12 6 13 7 87 8 14 9 11 10 10 11
REMARK SMILES IDX 8 12 9 13 7 15 1 16 2 17 3 18 88 19 4 20 5 21 6 22 20 24
REMARK SMILES IDX 21 25 22 26 23 27 24 28 25 29 86 30 26 31 85 32 27 33 28 34
REMARK SMILES IDX 29 35 79 36 30 37 84 38 78 39 80 40 31 41 83 42 77 43 76 44
REMARK SMILES IDX 32 46 64 47 44 48 63 49 45 50 48 51 62 52 81 53 46 54 47 55
REMARK SMILES IDX 61 57 82 58 49 59 33 60 34 61 42 62 35 63 37 64 43 65 36 66
REMARK SMILES IDX 38 67 39 68 40 69 41 70 65 71 66 72 74 73 67 74 69 75 75 76
REMARK SMILES IDX 68 77 70 78 71 79 72 80 73 81 50 82 51 83 59 84 52 85 54 86
REMARK SMILES IDX 60 87 53 88 55 89 56 90 57 91 58 92
REMARK H PARENT 10 14 6 23 80 45 48 56
REMARK Flexibility Score: inf
ROOT
ATOM      1  C   UNL A   1      31.702  29.053  27.239  1.00  0.00     0.275 C 
ENDROOT
BRANCH   1   2
ATOM      2  O   UNL A   1      32.401  28.079  26.442  1.00  0.00    -0.456 OA
BRANCH   2   3
ATOM      3  C   UNL A   1      31.834  26.837  26.387  1.00  0.00     0.374 C 
ATOM      4  O   UNL A   1      30.712  26.570  26.801  1.00  0.00    -0.242 OA
BRANCH   3   5
ATOM      5  C   UNL A   1      32.702  25.932  25.671  1.00  0.00     0.211 A 
ATOM      6  C   UNL A   1      33.058  24.383  24.135  1.00  0.00     0.124 A 
ATOM      7  C   UNL A   1      34.295  24.899  24.467  1.00  0.00     0.048 A 
ATOM      8  O   UNL A   1      32.109  24.931  24.946  1.00  0.00    -0.452 OA
ATOM      9  C   UNL A   1      34.065  25.899  25.447  1.00  0.00     0.058 A 
BRANCH   6  10
ATOM     10  C   UNL A   1      32.551  23.494  23.052  1.00  0.00     0.191 C 
BRANCH  10  11
ATOM     11  N   UNL A   1      32.851  24.129  21.782  1.00  0.00    -0.345 N 
ATOM     12  C   UNL A   1      32.655  25.377  21.261  1.00  0.00     0.255 C 
ATOM     13  O   UNL A   1      33.066  25.567  20.111  1.00  0.00    -0.269 OA
ATOM     14  H   UNL A   1      33.300  23.522  21.151  1.00  0.00     0.164 HD
BRANCH  12  15
ATOM     15  C   UNL A   1      32.009  26.525  21.962  1.00  0.00     0.081 A 
ATOM     16  C   UNL A   1      28.700  27.615  23.534  1.00  0.00     0.044 C 
ATOM     17  C   UNL A   1      30.125  27.642  23.064  1.00  0.00    -0.050 A 
ATOM     18  C   UNL A   1      30.914  28.773  23.282  1.00  0.00     0.007 A 
ATOM     19  C   UNL A   1      30.672  26.543  22.379  1.00  0.00     0.021 A 
ATOM     20  C   UNL A   1      32.231  28.799  22.836  1.00  0.00     0.047 A 
ATOM     21  C   UNL A   1      32.771  27.689  22.186  1.00  0.00     0.128 A 
BRANCH  21  22
ATOM     22  O   UNL A   1      34.074  27.835  21.781  1.00  0.00    -0.507 OA
ATOM     23  H   UNL A   1      34.443  27.238  21.159  1.00  0.00     0.293 HD
ENDBRANCH  21  22
ENDBRANCH  12  15
ENDBRANCH  10  11
ENDBRANCH   6  10
ENDBRANCH   3   5
ENDBRANCH   2   3
ENDBRANCH   1   2
BRANCH   1  24
ATOM     24  C   UNL A   1      31.763  30.446  26.601  1.00  0.00     0.275 C 
BRANCH  24  25
ATOM     25  O   UNL A   1      33.118  30.888  26.385  1.00  0.00    -0.458 OA
BRANCH  25  26
ATOM     26  C   UNL A   1      33.568  31.825  27.254  1.00  0.00     0.338 C 
ATOM     27  O   UNL A   1      32.963  32.813  27.638  1.00  0.00    -0.246 OA
BRANCH  26  28
ATOM     28  C   UNL A   1      34.873  31.420  27.806  1.00  0.00     0.060 A 
ATOM     29  C   UNL A   1      35.014  30.090  28.205  1.00  0.00     0.016 A 
ATOM     30  C   UNL A   1      35.915  32.325  28.007  1.00  0.00     0.016 A 
ATOM     31  C   UNL A   1      36.187  29.652  28.810  1.00  0.00     0.010 A 
ATOM     32  C   UNL A   1      37.099  31.885  28.614  1.00  0.00     0.010 A 
ATOM     33  C   UNL A   1      37.239  30.548  29.029  1.00  0.00    -0.014 A 
BRANCH  33  34
ATOM     34  C   UNL A   1      38.460  30.073  29.726  1.00  0.00     0.031 A 
ATOM     35  C   UNL A   1      38.777  30.560  31.111  1.00  0.00     0.074 A 
ATOM     36  C   UNL A   1      39.265  29.176  29.126  1.00  0.00     0.049 A 
ATOM     37  N   UNL A   1      39.802  30.273  31.870  1.00  0.00    -0.248 NA
ATOM     38  C   UNL A   1      37.815  31.491  31.723  1.00  0.00     0.031 C 
ATOM     39  C   UNL A   1      39.054  28.615  27.791  1.00  0.00     0.029 A 
ATOM     40  N   UNL A   1      40.426  28.583  29.558  1.00  0.00    -0.354 N 
ATOM     41  C   UNL A   1      39.631  31.013  33.035  1.00  0.00     0.074 A 
ATOM     42  C   UNL A   1      38.403  31.763  32.881  1.00  0.00     0.031 C 
ATOM     43  C   UNL A   1      40.055  27.764  27.510  1.00  0.00     0.029 A 
ATOM     44  C   UNL A   1      40.993  27.743  28.630  1.00  0.00     0.049 A 
ATOM     45  H   UNL A   1      40.815  28.745  30.448  1.00  0.00     0.167 HD
ATOM     46  C   UNL A   1      40.417  31.050  34.138  1.00  0.00     0.034 A 
ATOM     47  C   UNL A   1      42.146  27.046  28.669  1.00  0.00     0.034 A 
ATOM     48  C   UNL A   1      41.612  30.271  34.310  1.00  0.00     0.049 A 
ATOM     49  C   UNL A   1      43.002  27.111  29.905  1.00  0.00     0.074 A 
ATOM     50  C   UNL A   1      42.454  30.217  35.407  1.00  0.00     0.029 A 
ATOM     51  N   UNL A   1      42.137  29.406  33.361  1.00  0.00    -0.354 N 
ATOM     52  N   UNL A   1      42.778  27.745  31.030  1.00  0.00    -0.248 NA
ATOM     53  C   UNL A   1      44.259  26.349  29.886  1.00  0.00     0.031 C 
ATOM     54  C   UNL A   1      43.492  29.323  35.119  1.00  0.00     0.029 A 
ATOM     55  C   UNL A   1      43.293  28.817  33.845  1.00  0.00     0.049 A 
ATOM     56  H   UNL A   1      41.745  29.235  32.475  1.00  0.00     0.167 HD
ATOM     57  C   UNL A   1      43.851  27.440  31.860  1.00  0.00     0.074 A 
ATOM     58  C   UNL A   1      44.712  26.545  31.117  1.00  0.00     0.031 C 
ATOM     59  C   UNL A   1      44.111  27.882  33.116  1.00  0.00     0.034 A 
BRANCH  46  60
ATOM     60  C   UNL A   1      39.983  31.944  35.268  1.00  0.00     0.023 A 
ATOM     61  C   UNL A   1      40.441  33.276  35.311  1.00  0.00     0.012 A 
ATOM     62  C   UNL A   1      39.088  31.486  36.254  1.00  0.00     0.148 A 
ATOM     63  C   UNL A   1      40.031  34.133  36.333  1.00  0.00     0.002 A 
ATOM     64  C   UNL A   1      38.658  32.356  37.250  1.00  0.00     0.091 A 
ATOM     65  F   UNL A   1      38.688  30.207  36.212  1.00  0.00    -0.205 F 
ATOM     66  C   UNL A   1      39.133  33.677  37.295  1.00  0.00     0.022 A 
BRANCH  64  67
ATOM     67  S   UNL A   1      37.455  31.869  38.493  1.00  0.00     0.127 S 
ATOM     68  O   UNL A   1      36.381  32.833  38.258  1.00  0.00    -0.237 OA
ATOM     69  O   UNL A   1      37.137  30.496  38.101  1.00  0.00    -0.237 OA
ATOM     70  O   UNL A   1      38.140  31.987  39.773  1.00  0.00    -0.744 OA
ENDBRANCH  64  67
ENDBRANCH  46  60
BRANCH  47  71
ATOM     71  C   UNL A   1      42.532  26.189  27.513  1.00  0.00     0.023 A 
ATOM     72  C   UNL A   1      43.357  26.721  26.503  1.00  0.00     0.012 A 
ATOM     73  C   UNL A   1      42.123  24.845  27.426  1.00  0.00     0.148 A 
ATOM     74  C   UNL A   1      43.753  25.935  25.420  1.00  0.00     0.002 A 
ATOM     75  C   UNL A   1      42.565  24.051  26.372  1.00  0.00     0.091 A 
ATOM     76  F   UNL A   1      41.314  24.361  28.381  1.00  0.00    -0.205 F 
ATOM     77  C   UNL A   1      43.369  24.597  25.362  1.00  0.00     0.022 A 
BRANCH  75  78
ATOM     78  S   UNL A   1      42.223  22.289  26.301  1.00  0.00     0.127 S 
ATOM     79  O   UNL A   1      42.744  21.830  27.585  1.00  0.00    -0.237 OA
ATOM     80  O   UNL A   1      40.764  22.262  26.184  1.00  0.00    -0.237 OA
ATOM     81  O   UNL A   1      42.923  21.808  25.117  1.00  0.00    -0.744 OA
ENDBRANCH  75  78
ENDBRANCH  47  71
BRANCH  59  82
ATOM     82  C   UNL A   1      45.373  27.397  33.778  1.00  0.00     0.023 A 
ATOM     83  C   UNL A   1      46.552  28.157  33.655  1.00  0.00     0.012 A 
ATOM     84  C   UNL A   1      45.375  26.239  34.579  1.00  0.00     0.148 A 
ATOM     85  C   UNL A   1      47.722  27.760  34.302  1.00  0.00     0.002 A 
ATOM     86  C   UNL A   1      46.535  25.870  35.253  1.00  0.00     0.091 A 
ATOM     87  F   UNL A   1      44.249  25.516  34.664  1.00  0.00    -0.205 F 
ATOM     88  C   UNL A   1      47.710  26.625  35.110  1.00  0.00     0.022 A 
BRANCH  86  89
ATOM     89  S   UNL A   1      46.580  24.469  36.378  1.00  0.00     0.127 S 
ATOM     90  O   UNL A   1      47.824  23.811  35.985  1.00  0.00    -0.237 OA
ATOM     91  O   UNL A   1      46.622  25.119  37.689  1.00  0.00    -0.237 OA
ATOM     92  O   UNL A   1      45.359  23.718  36.122  1.00  0.00    -0.744 OA
ENDBRANCH  86  89
ENDBRANCH  59  82
ENDBRANCH  33  34
ENDBRANCH  26  28
ENDBRANCH  25  26
ENDBRANCH  24  25
ENDBRANCH   1  24
TORSDOF 18
ENDMDL
MODEL 2
REMARK VINA RESULT:     -11.6      4.003      6.849
REMARK SMILES Cc1ccc(O)c(C(=O)NCc2ccc(C(=O)OCCOC(=O)c3ccc(-c4c5nc(c(-c6cccc(S(=O)(=O)[O-])c6F)c6ccc([nH]6)c(-c6cccc(S(=O)(=O)[O-])c6F)c6nc(c(-c7cccc(S(=O)(=O)[O-])c7F)c7ccc4[nH]7)C=C6)C=C5)cc3)o2)c1
REMARK SMILES IDX 19 1 18 2 16 3 17 4 15 5 12 6 13 7 87 8 14 9 11 10 10 11
REMARK SMILES IDX 8 12 9 13 7 15 1 16 2 17 3 18 88 19 4 20 5 21 6 22 20 24
REMARK SMILES IDX 21 25 22 26 23 27 24 28 25 29 86 30 26 31 85 32 27 33 28 34
REMARK SMILES IDX 29 35 79 36 30 37 84 38 78 39 80 40 31 41 83 42 77 43 76 44
REMARK SMILES IDX 32 46 64 47 44 48 63 49 45 50 48 51 62 52 81 53 46 54 47 55
REMARK SMILES IDX 61 57 82 58 49 59 33 60 34 61 42 62 35 63 37 64 43 65 36 66
REMARK SMILES IDX 38 67 39 68 40 69 41 70 65 71 66 72 74 73 67 74 69 75 75 76
REMARK SMILES IDX 68 77 70 78 71 79 72 80 73 81 50 82 51 83 59 84 52 85 54 86
REMARK SMILES IDX 60 87 53 88 55 89 56 90 57 91 58 92
REMARK H PARENT 10 14 6 23 80 45 48 56
REMARK Flexibility Score: inf
ROOT
ATOM      1  C   UNL A   1      33.271  34.159  28.016  1.00  0.00     0.275 C 
ENDROOT
BRANCH   1   2
ATOM      2  O   UNL A   1      33.323  34.581  29.390  1.00  0.00    -0.456 OA
BRANCH   2   3
ATOM      3  C   UNL A   1      32.902  35.858  29.637  1.00  0.00     0.374 C 
ATOM      4  O   UNL A   1      32.242  36.532  28.855  1.00  0.00    -0.242 OA
BRANCH   3   5
ATOM      5  C   UNL A   1      33.251  36.238  30.985  1.00  0.00     0.211 A 
ATOM      6  C   UNL A   1      34.187  35.826  32.944  1.00  0.00     0.124 A 
ATOM      7  C   UNL A   1      33.988  37.191  32.884  1.00  0.00     0.048 A 
ATOM      8  O   UNL A   1      33.638  35.241  31.842  1.00  0.00    -0.452 OA
ATOM      9  C   UNL A   1      33.394  37.457  31.623  1.00  0.00     0.058 A 
BRANCH   6  10
ATOM     10  C   UNL A   1      34.946  34.919  33.850  1.00  0.00     0.191 C 
BRANCH  10  11
ATOM     11  N   UNL A   1      34.952  33.598  33.250  1.00  0.00    -0.345 N 
ATOM     12  C   UNL A   1      35.803  32.922  32.422  1.00  0.00     0.255 C 
ATOM     13  O   UNL A   1      35.479  31.769  32.117  1.00  0.00    -0.269 OA
ATOM     14  H   UNL A   1      34.162  33.066  33.496  1.00  0.00     0.164 HD
BRANCH  12  15
ATOM     15  C   UNL A   1      37.090  33.446  31.874  1.00  0.00     0.081 A 
ATOM     16  C   UNL A   1      40.598  34.524  32.942  1.00  0.00     0.044 C 
ATOM     17  C   UNL A   1      39.404  34.227  32.081  1.00  0.00    -0.050 A 
ATOM     18  C   UNL A   1      39.466  34.433  30.702  1.00  0.00     0.007 A 
ATOM     19  C   UNL A   1      38.207  33.766  32.655  1.00  0.00     0.021 A 
ATOM     20  C   UNL A   1      38.354  34.167  29.908  1.00  0.00     0.047 A 
ATOM     21  C   UNL A   1      37.183  33.679  30.487  1.00  0.00     0.128 A 
BRANCH  21  22
ATOM     22  O   UNL A   1      36.150  33.465  29.608  1.00  0.00    -0.507 OA
ATOM     23  H   UNL A   1      35.337  33.115  29.916  1.00  0.00     0.293 HD
ENDBRANCH  21  22
ENDBRANCH  12  15
ENDBRANCH  10  11
ENDBRANCH   6  10
ENDBRANCH   3   5
ENDBRANCH   2   3
ENDBRANCH   1   2
BRANCH   1  24
ATOM     24  C   UNL A   1      33.253  32.630  27.901  1.00  0.00     0.275 C 
BRANCH  24  25
ATOM     25  O   UNL A   1      34.563  32.086  27.642  1.00  0.00    -0.458 OA
BRANCH  25  26
ATOM     26  C   UNL A   1      34.639  30.734  27.633  1.00  0.00     0.338 C 
ATOM     27  O   UNL A   1      33.860  29.964  27.093  1.00  0.00    -0.246 OA
BRANCH  26  28
ATOM     28  C   UNL A   1      35.896  30.293  28.260  1.00  0.00     0.060 A 
ATOM     29  C   UNL A   1      37.074  30.484  27.537  1.00  0.00     0.016 A 
ATOM     30  C   UNL A   1      35.929  29.634  29.489  1.00  0.00     0.016 A 
ATOM     31  C   UNL A   1      38.291  30.021  28.027  1.00  0.00     0.010 A 
ATOM     32  C   UNL A   1      37.154  29.168  29.986  1.00  0.00     0.010 A 
ATOM     33  C   UNL A   1      38.341  29.349  29.253  1.00  0.00    -0.014 A 
BRANCH  33  34
ATOM     34  C   UNL A   1      39.641  28.814  29.731  1.00  0.00     0.031 A 
ATOM     35  C   UNL A   1      40.288  29.390  30.958  1.00  0.00     0.074 A 
ATOM     36  C   UNL A   1      40.220  27.787  29.082  1.00  0.00     0.049 A 
ATOM     37  N   UNL A   1      41.426  29.069  31.517  1.00  0.00    -0.248 NA
ATOM     38  C   UNL A   1      39.561  30.469  31.647  1.00  0.00     0.031 C 
ATOM     39  C   UNL A   1      39.680  27.131  27.891  1.00  0.00     0.029 A 
ATOM     40  N   UNL A   1      41.394  27.118  29.329  1.00  0.00    -0.354 N 
ATOM     41  C   UNL A   1      41.572  29.926  32.601  1.00  0.00     0.074 A 
ATOM     42  C   UNL A   1      40.406  30.784  32.621  1.00  0.00     0.031 C 
ATOM     43  C   UNL A   1      40.523  26.158  27.506  1.00  0.00     0.029 A 
ATOM     44  C   UNL A   1      41.676  26.141  28.404  1.00  0.00     0.049 A 
ATOM     45  H   UNL A   1      41.978  27.320  30.096  1.00  0.00     0.167 HD
ATOM     46  C   UNL A   1      42.578  29.983  33.507  1.00  0.00     0.034 A 
ATOM     47  C   UNL A   1      42.748  25.334  28.282  1.00  0.00     0.034 A 
ATOM     48  C   UNL A   1      43.714  29.101  33.514  1.00  0.00     0.049 A 
ATOM     49  C   UNL A   1      43.853  25.423  29.299  1.00  0.00     0.074 A 
ATOM     50  C   UNL A   1      44.765  29.061  34.414  1.00  0.00     0.029 A 
ATOM     51  N   UNL A   1      43.948  28.103  32.581  1.00  0.00    -0.354 N 
ATOM     52  N   UNL A   1      43.931  26.178  30.368  1.00  0.00    -0.248 NA
ATOM     53  C   UNL A   1      45.009  24.535  29.107  1.00  0.00     0.031 C 
ATOM     54  C   UNL A   1      45.639  28.041  34.020  1.00  0.00     0.029 A 
ATOM     55  C   UNL A   1      45.129  27.443  32.878  1.00  0.00     0.049 A 
ATOM     56  H   UNL A   1      43.361  27.894  31.820  1.00  0.00     0.167 HD
ATOM     57  C   UNL A   1      45.129  25.840  30.988  1.00  0.00     0.074 A 
ATOM     58  C   UNL A   1      45.732  24.795  30.188  1.00  0.00     0.031 C 
ATOM     59  C   UNL A   1      45.689  26.365  32.105  1.00  0.00     0.034 A 
BRANCH  46  60
ATOM     60  C   UNL A   1      42.474  31.016  34.595  1.00  0.00     0.023 A 
ATOM     61  C   UNL A   1      41.724  30.729  35.753  1.00  0.00     0.012 A 
ATOM     62  C   UNL A   1      43.157  32.243  34.499  1.00  0.00     0.148 A 
ATOM     63  C   UNL A   1      41.636  31.659  36.789  1.00  0.00     0.002 A 
ATOM     64  C   UNL A   1      43.092  33.152  35.550  1.00  0.00     0.091 A 
ATOM     65  F   UNL A   1      43.842  32.510  33.377  1.00  0.00    -0.205 F 
ATOM     66  C   UNL A   1      42.327  32.864  36.692  1.00  0.00     0.022 A 
BRANCH  64  67
ATOM     67  S   UNL A   1      44.001  34.701  35.535  1.00  0.00     0.127 S 
ATOM     68  O   UNL A   1      43.729  35.217  36.876  1.00  0.00    -0.237 OA
ATOM     69  O   UNL A   1      45.379  34.254  35.323  1.00  0.00    -0.237 OA
ATOM     70  O   UNL A   1      43.444  35.476  34.435  1.00  0.00    -0.744 OA
ENDBRANCH  64  67
ENDBRANCH  46  60
BRANCH  47  71
ATOM     71  C   UNL A   1      42.804  24.339  27.174  1.00  0.00     0.023 A 
ATOM     72  C   UNL A   1      43.503  24.657  25.994  1.00  0.00     0.012 A 
ATOM     73  C   UNL A   1      42.205  23.071  27.296  1.00  0.00     0.148 A 
ATOM     74  C   UNL A   1      43.591  23.737  24.949  1.00  0.00     0.002 A 
ATOM     75  C   UNL A   1      42.341  22.138  26.273  1.00  0.00     0.091 A 
ATOM     76  F   UNL A   1      41.518  22.795  28.414  1.00  0.00    -0.205 F 
ATOM     77  C   UNL A   1      43.022  22.473  25.093  1.00  0.00     0.022 A 
BRANCH  75  78
ATOM     78  S   UNL A   1      41.753  20.449  26.442  1.00  0.00     0.127 S 
ATOM     79  O   UNL A   1      42.503  19.764  25.394  1.00  0.00    -0.237 OA
ATOM     80  O   UNL A   1      42.159  20.116  27.808  1.00  0.00    -0.237 OA
ATOM     81  O   UNL A   1      40.310  20.523  26.253  1.00  0.00    -0.744 OA
ENDBRANCH  75  78
ENDBRANCH  47  71
BRANCH  59  82
ATOM     82  C   UNL A   1      47.020  25.814  32.543  1.00  0.00     0.023 A 
ATOM     83  C   UNL A   1      48.204  26.380  32.029  1.00  0.00     0.012 A 
ATOM     84  C   UNL A   1      47.102  24.797  33.513  1.00  0.00     0.148 A 
ATOM     85  C   UNL A   1      49.450  25.924  32.458  1.00  0.00     0.002 A 
ATOM     86  C   UNL A   1      48.349  24.375  33.964  1.00  0.00     0.091 A 
ATOM     87  F   UNL A   1      45.965  24.255  33.972  1.00  0.00    -0.205 F 
ATOM     88  C   UNL A   1      49.523  24.932  33.433  1.00  0.00     0.022 A 
BRANCH  86  89
ATOM     89  S   UNL A   1      48.528  23.160  35.277  1.00  0.00     0.127 S 
ATOM     90  O   UNL A   1      47.648  22.089  34.814  1.00  0.00    -0.237 OA
ATOM     91  O   UNL A   1      49.956  22.844  35.221  1.00  0.00    -0.237 OA
ATOM     92  O   UNL A   1      48.112  23.836  36.498  1.00  0.00    -0.744 OA
ENDBRANCH  86  89
ENDBRANCH  59  82
ENDBRANCH  33  34
ENDBRANCH  26  28
ENDBRANCH  25  26
ENDBRANCH  24  25
ENDBRANCH   1  24
TORSDOF 18
ENDMDL
MODEL 3
REMARK VINA RESULT:     -11.6      1.958      2.298
REMARK SMILES Cc1ccc(O)c(C(=O)NCc2ccc(C(=O)OCCOC(=O)c3ccc(-c4c5nc(c(-c6cccc(S(=O)(=O)[O-])c6F)c6ccc([nH]6)c(-c6cccc(S(=O)(=O)[O-])c6F)c6nc(c(-c7cccc(S(=O)(=O)[O-])c7F)c7ccc4[nH]7)C=C6)C=C5)cc3)o2)c1
REMARK SMILES IDX 19 1 18 2 16 3 17 4 15 5 12 6 13 7 87 8 14 9 11 10 10 11
REMARK SMILES IDX 8 12 9 13 7 15 1 16 2 17 3 18 88 19 4 20 5 21 6 22 20 24
REMARK SMILES IDX 21 25 22 26 23 27 24 28 25 29 86 30 26 31 85 32 27 33 28 34
REMARK SMILES IDX 29 35 79 36 30 37 84 38 78 39 80 40 31 41 83 42 77 43 76 44
REMARK SMILES IDX 32 46 64 47 44 48 63 49 45 50 48 51 62 52 81 53 46 54 47 55
REMARK SMILES IDX 61 57 82 58 49 59 33 60 34 61 42 62 35 63 37 64 43 65 36 66
REMARK SMILES IDX 38 67 39 68 40 69 41 70 65 71 66 72 74 73 67 74 69 75 75 76
REMARK SMILES IDX 68 77 70 78 71 79 72 80 73 81 50 82 51 83 59 84 52 85 54 86
REMARK SMILES IDX 60 87 53 88 55 89 56 90 57 91 58 92
REMARK H PARENT 10 14 6 23 80 45 48 56
REMARK Flexibility Score: inf
ROOT
ATOM      1  C   UNL A   1      31.790  28.895  27.264  1.00  0.00     0.275 C 
ENDROOT
BRANCH   1   2
ATOM      2  O   UNL A   1      32.580  27.863  26.647  1.00  0.00    -0.456 OA
BRANCH   2   3
ATOM      3  C   UNL A   1      31.930  26.689  26.391  1.00  0.00     0.374 C 
ATOM      4  O   UNL A   1      30.760  26.468  26.681  1.00  0.00    -0.242 OA
BRANCH   3   5
ATOM      5  C   UNL A   1      32.788  25.807  25.635  1.00  0.00     0.211 A 
ATOM      6  C   UNL A   1      33.127  24.323  24.032  1.00  0.00     0.124 A 
ATOM      7  C   UNL A   1      34.369  24.811  24.385  1.00  0.00     0.048 A 
ATOM      8  O   UNL A   1      32.184  24.845  24.867  1.00  0.00    -0.452 OA
ATOM      9  C   UNL A   1      34.151  25.769  25.408  1.00  0.00     0.058 A 
BRANCH   6  10
ATOM     10  C   UNL A   1      32.610  23.488  22.912  1.00  0.00     0.191 C 
BRANCH  10  11
ATOM     11  N   UNL A   1      32.908  24.179  21.671  1.00  0.00    -0.345 N 
ATOM     12  C   UNL A   1      32.729  25.453  21.213  1.00  0.00     0.255 C 
ATOM     13  O   UNL A   1      33.132  25.692  20.069  1.00  0.00    -0.269 OA
ATOM     14  H   UNL A   1      33.340  23.596  21.006  1.00  0.00     0.164 HD
BRANCH  12  15
ATOM     15  C   UNL A   1      32.110  26.577  21.976  1.00  0.00     0.081 A 
ATOM     16  C   UNL A   1      28.782  27.737  23.456  1.00  0.00     0.044 C 
ATOM     17  C   UNL A   1      30.232  27.713  23.068  1.00  0.00    -0.050 A 
ATOM     18  C   UNL A   1      31.071  28.771  23.426  1.00  0.00     0.007 A 
ATOM     19  C   UNL A   1      30.754  26.644  22.320  1.00  0.00     0.021 A 
ATOM     20  C   UNL A   1      32.412  28.751  23.056  1.00  0.00     0.047 A 
ATOM     21  C   UNL A   1      32.924  27.668  22.342  1.00  0.00     0.128 A 
BRANCH  21  22
ATOM     22  O   UNL A   1      34.255  27.766  22.022  1.00  0.00    -0.507 OA
ATOM     23  H   UNL A   1      34.650  27.131  21.456  1.00  0.00     0.293 HD
ENDBRANCH  21  22
ENDBRANCH  12  15
ENDBRANCH  10  11
ENDBRANCH   6  10
ENDBRANCH   3   5
ENDBRANCH   2   3
ENDBRANCH   1   2
BRANCH   1  24
ATOM     24  C   UNL A   1      32.055  30.262  26.622  1.00  0.00     0.275 C 
BRANCH  24  25
ATOM     25  O   UNL A   1      33.462  30.571  26.557  1.00  0.00    -0.458 OA
BRANCH  25  26
ATOM     26  C   UNL A   1      33.868  31.592  27.349  1.00  0.00     0.338 C 
ATOM     27  O   UNL A   1      33.258  32.623  27.579  1.00  0.00    -0.246 OA
BRANCH  26  28
ATOM     28  C   UNL A   1      35.123  31.234  28.033  1.00  0.00     0.060 A 
ATOM     29  C   UNL A   1      35.182  29.982  28.648  1.00  0.00     0.016 A 
ATOM     30  C   UNL A   1      36.193  32.121  28.148  1.00  0.00     0.016 A 
ATOM     31  C   UNL A   1      36.302  29.605  29.382  1.00  0.00     0.010 A 
ATOM     32  C   UNL A   1      37.323  31.742  28.886  1.00  0.00     0.010 A 
ATOM     33  C   UNL A   1      37.380  30.486  29.516  1.00  0.00    -0.014 A 
BRANCH  33  34
ATOM     34  C   UNL A   1      38.541  30.085  30.349  1.00  0.00     0.031 A 
ATOM     35  C   UNL A   1      38.718  30.662  31.725  1.00  0.00     0.074 A 
ATOM     36  C   UNL A   1      39.417  29.175  29.882  1.00  0.00     0.049 A 
ATOM     37  N   UNL A   1      39.673  30.448  32.591  1.00  0.00    -0.248 NA
ATOM     38  C   UNL A   1      37.684  31.602  32.187  1.00  0.00     0.031 C 
ATOM     39  C   UNL A   1      39.342  28.530  28.571  1.00  0.00     0.029 A 
ATOM     40  N   UNL A   1      40.544  28.640  30.454  1.00  0.00    -0.354 N 
ATOM     41  C   UNL A   1      39.380  31.252  33.687  1.00  0.00     0.074 A 
ATOM     42  C   UNL A   1      38.156  31.959  33.375  1.00  0.00     0.031 C 
ATOM     43  C   UNL A   1      40.382  27.690  28.436  1.00  0.00     0.029 A 
ATOM     44  C   UNL A   1      41.212  27.760  29.637  1.00  0.00     0.049 A 
ATOM     45  H   UNL A   1      40.846  28.865  31.365  1.00  0.00     0.167 HD
ATOM     46  C   UNL A   1      40.059  31.375  34.853  1.00  0.00     0.034 A 
ATOM     47  C   UNL A   1      42.371  27.097  29.824  1.00  0.00     0.034 A 
ATOM     48  C   UNL A   1      41.249  30.639  35.182  1.00  0.00     0.049 A 
ATOM     49  C   UNL A   1      43.106  27.259  31.127  1.00  0.00     0.074 A 
ATOM     50  C   UNL A   1      41.985  30.673  36.353  1.00  0.00     0.029 A 
ATOM     51  N   UNL A   1      41.877  29.733  34.340  1.00  0.00    -0.354 N 
ATOM     52  N   UNL A   1      42.766  27.953  32.185  1.00  0.00    -0.248 NA
ATOM     53  C   UNL A   1      44.375  26.530  31.270  1.00  0.00     0.031 C 
ATOM     54  C   UNL A   1      43.064  29.791  36.217  1.00  0.00     0.029 A 
ATOM     55  C   UNL A   1      42.995  29.204  34.963  1.00  0.00     0.049 A 
ATOM     56  H   UNL A   1      41.572  29.499  33.434  1.00  0.00     0.167 HD
ATOM     57  C   UNL A   1      43.763  27.727  33.127  1.00  0.00     0.074 A 
ATOM     58  C   UNL A   1      44.708  26.811  32.523  1.00  0.00     0.031 C 
ATOM     59  C   UNL A   1      43.896  28.249  34.372  1.00  0.00     0.034 A 
BRANCH  46  60
ATOM     60  C   UNL A   1      39.504  32.323  35.881  1.00  0.00     0.023 A 
ATOM     61  C   UNL A   1      38.543  31.860  36.803  1.00  0.00     0.012 A 
ATOM     62  C   UNL A   1      39.967  33.649  35.972  1.00  0.00     0.148 A 
ATOM     63  C   UNL A   1      38.035  32.710  37.784  1.00  0.00     0.002 A 
ATOM     64  C   UNL A   1      39.480  34.482  36.974  1.00  0.00     0.091 A 
ATOM     65  F   UNL A   1      40.860  34.080  35.068  1.00  0.00    -0.205 F 
ATOM     66  C   UNL A   1      38.510  34.016  37.876  1.00  0.00     0.022 A 
BRANCH  64  67
ATOM     67  S   UNL A   1      40.082  36.159  37.203  1.00  0.00     0.127 S 
ATOM     68  O   UNL A   1      41.508  35.932  37.434  1.00  0.00    -0.237 OA
ATOM     69  O   UNL A   1      39.766  36.785  35.918  1.00  0.00    -0.237 OA
ATOM     70  O   UNL A   1      39.337  36.695  38.333  1.00  0.00    -0.744 OA
ENDBRANCH  64  67
ENDBRANCH  46  60
BRANCH  47  71
ATOM     71  C   UNL A   1      42.880  26.183  28.763  1.00  0.00     0.023 A 
ATOM     72  C   UNL A   1      42.341  24.887  28.650  1.00  0.00     0.012 A 
ATOM     73  C   UNL A   1      43.863  26.600  27.845  1.00  0.00     0.148 A 
ATOM     74  C   UNL A   1      42.783  24.018  27.652  1.00  0.00     0.002 A 
ATOM     75  C   UNL A   1      44.260  25.748  26.820  1.00  0.00     0.091 A 
ATOM     76  F   UNL A   1      44.387  27.827  27.984  1.00  0.00    -0.205 F 
ATOM     77  C   UNL A   1      43.732  24.453  26.729  1.00  0.00     0.022 A 
BRANCH  75  78
ATOM     78  S   UNL A   1      45.375  26.284  25.517  1.00  0.00     0.127 S 
ATOM     79  O   UNL A   1      45.373  25.128  24.626  1.00  0.00    -0.237 OA
ATOM     80  O   UNL A   1      44.691  27.467  24.992  1.00  0.00    -0.237 OA
ATOM     81  O   UNL A   1      46.637  26.576  26.185  1.00  0.00    -0.744 OA
ENDBRANCH  75  78
ENDBRANCH  47  71
BRANCH  59  82
ATOM     82  C   UNL A   1      45.101  27.838  35.175  1.00  0.00     0.023 A 
ATOM     83  C   UNL A   1      46.268  28.625  35.121  1.00  0.00     0.012 A 
ATOM     84  C   UNL A   1      45.054  26.726  36.037  1.00  0.00     0.148 A 
ATOM     85  C   UNL A   1      47.380  28.297  35.896  1.00  0.00     0.002 A 
ATOM     86  C   UNL A   1      46.154  26.428  36.836  1.00  0.00     0.091 A 
ATOM     87  F   UNL A   1      43.944  25.975  36.057  1.00  0.00    -0.205 F 
ATOM     88  C   UNL A   1      47.319  27.208  36.762  1.00  0.00     0.022 A 
BRANCH  86  89
ATOM     89  S   UNL A   1      46.126  25.091  38.037  1.00  0.00     0.127 S 
ATOM     90  O   UNL A   1      45.086  25.540  38.960  1.00  0.00    -0.237 OA
ATOM     91  O   UNL A   1      45.756  23.937  37.216  1.00  0.00    -0.237 OA
ATOM     92  O   UNL A   1      47.474  25.026  38.586  1.00  0.00    -0.744 OA
ENDBRANCH  86  89
ENDBRANCH  59  82
ENDBRANCH  33  34
ENDBRANCH  26  28
ENDBRANCH  25  26
ENDBRANCH  24  25
ENDBRANCH   1  24
TORSDOF 18
ENDMDL
