MODEL 1
REMARK VINA RESULT:     -11.9      0.000      0.000
REMARK SMILES CC(C)CN(C)c1cc2c(cc1Cl)C=C(C(=O)OCCOC(=O)c1ccc(-c3c4nc(c(-c5cccc(S(=O)(=O)[O-])c5F)c5ccc([nH]5)c(-c5cccc(S(=O)(=O)[O-])c5F)c5nc(c(-c6cccc(S(=O)(=O)[O-])c6F)c6ccc3[nH]6)C=C5)C=C4)cc1)[C@@H](C(F)(F)F)O2
REMARK SMILES IDX 19 1 18 2 16 3 17 4 15 5 7 6 8 7 12 8 9 9 11 10 13 11 10 12
REMARK SMILES IDX 92 13 14 14 87 15 5 16 6 17 4 18 2 19 1 20 3 21 88 22 89 23
REMARK SMILES IDX 90 24 91 25 20 26 21 27 22 28 23 29 24 30 25 31 86 32 26 33
REMARK SMILES IDX 85 34 27 35 28 36 29 37 79 38 30 39 84 40 78 41 80 42 31 43
REMARK SMILES IDX 83 44 77 45 76 46 32 48 64 49 44 50 63 51 45 52 48 53 62 54
REMARK SMILES IDX 81 55 46 56 47 57 61 59 82 60 49 61 33 62 34 63 42 64 35 65
REMARK SMILES IDX 37 66 43 67 36 68 38 69 39 70 40 71 41 72 65 73 66 74 74 75
REMARK SMILES IDX 67 76 69 77 75 78 68 79 70 80 71 81 72 82 73 83 50 84 51 85
REMARK SMILES IDX 59 86 52 87 54 88 60 89 53 90 55 91 56 92 57 93 58 94
REMARK H PARENT 80 47 48 58
REMARK Flexibility Score: inf
ROOT
ATOM      1  C   UNL A   1      35.959  20.434  24.983  1.00  0.00     0.275 C 
ENDROOT
BRANCH   1   2
ATOM      2  O   UNL A   1      34.974  21.131  24.188  1.00  0.00    -0.459 OA
BRANCH   2   3
ATOM      3  C   UNL A   1      33.709  21.061  24.668  1.00  0.00     0.338 C 
ATOM      4  O   UNL A   1      33.049  20.039  24.790  1.00  0.00    -0.246 OA
BRANCH   3   5
ATOM      5  C   UNL A   1      33.207  22.382  25.085  1.00  0.00     0.087 C 
ATOM      6  C   UNL A   1      32.383  27.347  25.450  1.00  0.00     0.059 A 
ATOM      7  C   UNL A   1      31.861  26.215  26.116  1.00  0.00     0.074 A 
ATOM      8  C   UNL A   1      33.420  27.138  24.517  1.00  0.00     0.065 A 
ATOM      9  C   UNL A   1      32.308  24.925  25.806  1.00  0.00     0.130 A 
ATOM     10  C   UNL A   1      33.792  25.854  24.139  1.00  0.00     0.034 A 
ATOM     11  Cl  UNL A   1      34.324  28.439  23.823  1.00  0.00    -0.082 Cl
ATOM     12  C   UNL A   1      33.225  24.753  24.774  1.00  0.00     0.019 A 
ATOM     13  O   UNL A   1      31.792  23.865  26.511  1.00  0.00    -0.475 OA
ATOM     14  C   UNL A   1      33.598  23.425  24.345  1.00  0.00     0.027 C 
ATOM     15  C   UNL A   1      32.477  22.576  26.384  1.00  0.00     0.316 C 
BRANCH   6  16
ATOM     16  N   UNL A   1      31.870  28.625  25.689  1.00  0.00    -0.373 N 
ATOM     17  C   UNL A   1      31.777  29.040  27.078  1.00  0.00     0.143 C 
BRANCH  16  18
ATOM     18  C   UNL A   1      30.896  29.171  24.721  1.00  0.00     0.119 C 
BRANCH  18  19
ATOM     19  C   UNL A   1      30.642  28.229  23.522  1.00  0.00     0.002 C 
ATOM     20  C   UNL A   1      29.227  27.642  23.537  1.00  0.00     0.009 C 
ATOM     21  C   UNL A   1      30.854  28.952  22.188  1.00  0.00     0.009 C 
ENDBRANCH  18  19
ENDBRANCH  16  18
ENDBRANCH   6  16
BRANCH  15  22
ATOM     22  C   UNL A   1      33.460  22.364  27.550  1.00  0.00     0.430 C 
ATOM     23  F   UNL A   1      33.888  21.081  27.621  1.00  0.00    -0.167 F 
ATOM     24  F   UNL A   1      34.569  23.132  27.399  1.00  0.00    -0.167 F 
ATOM     25  F   UNL A   1      32.920  22.677  28.750  1.00  0.00    -0.167 F 
ENDBRANCH  15  22
ENDBRANCH   3   5
ENDBRANCH   2   3
ENDBRANCH   1   2
BRANCH   1  26
ATOM     26  C   UNL A   1      36.794  21.390  25.838  1.00  0.00     0.275 C 
BRANCH  26  27
ATOM     27  O   UNL A   1      38.079  21.633  25.239  1.00  0.00    -0.458 OA
BRANCH  27  28
ATOM     28  C   UNL A   1      39.146  21.376  26.031  1.00  0.00     0.338 C 
ATOM     29  O   UNL A   1      39.710  20.305  26.185  1.00  0.00    -0.246 OA
BRANCH  28  30
ATOM     30  C   UNL A   1      39.612  22.622  26.659  1.00  0.00     0.060 A 
ATOM     31  C   UNL A   1      40.606  22.622  27.630  1.00  0.00     0.016 A 
ATOM     32  C   UNL A   1      39.144  23.826  26.146  1.00  0.00     0.016 A 
ATOM     33  C   UNL A   1      41.107  23.847  28.094  1.00  0.00     0.010 A 
ATOM     34  C   UNL A   1      39.734  25.034  26.511  1.00  0.00     0.010 A 
ATOM     35  C   UNL A   1      40.705  25.072  27.516  1.00  0.00    -0.014 A 
BRANCH  35  36
ATOM     36  C   UNL A   1      41.301  26.373  27.951  1.00  0.00     0.031 A 
ATOM     37  C   UNL A   1      42.719  26.754  27.576  1.00  0.00     0.074 A 
ATOM     38  C   UNL A   1      40.583  27.210  28.730  1.00  0.00     0.049 A 
ATOM     39  N   UNL A   1      43.369  27.860  27.843  1.00  0.00    -0.248 NA
ATOM     40  C   UNL A   1      43.528  25.764  26.842  1.00  0.00     0.031 C 
ATOM     41  C   UNL A   1      39.253  26.927  29.282  1.00  0.00     0.029 A 
ATOM     42  N   UNL A   1      40.858  28.478  29.186  1.00  0.00    -0.354 N 
ATOM     43  C   UNL A   1      44.663  27.674  27.365  1.00  0.00     0.074 A 
ATOM     44  C   UNL A   1      44.723  26.338  26.821  1.00  0.00     0.031 C 
ATOM     45  C   UNL A   1      38.799  28.013  29.925  1.00  0.00     0.029 A 
ATOM     46  C   UNL A   1      39.811  29.061  29.865  1.00  0.00     0.049 A 
ATOM     47  H   UNL A   1      41.723  28.925  29.040  1.00  0.00     0.167 HD
ATOM     48  C   UNL A   1      45.695  28.549  27.331  1.00  0.00     0.034 A 
ATOM     49  C   UNL A   1      39.665  30.310  30.355  1.00  0.00     0.034 A 
ATOM     50  C   UNL A   1      45.604  29.918  27.751  1.00  0.00     0.049 A 
ATOM     51  C   UNL A   1      40.780  31.303  30.189  1.00  0.00     0.074 A 
ATOM     52  C   UNL A   1      46.552  30.918  27.621  1.00  0.00     0.029 A 
ATOM     53  N   UNL A   1      44.498  30.486  28.359  1.00  0.00    -0.354 N 
ATOM     54  N   UNL A   1      41.936  31.147  29.592  1.00  0.00    -0.248 NA
ATOM     55  C   UNL A   1      40.564  32.650  30.740  1.00  0.00     0.031 C 
ATOM     56  C   UNL A   1      46.016  32.096  28.146  1.00  0.00     0.029 A 
ATOM     57  C   UNL A   1      44.736  31.825  28.604  1.00  0.00     0.049 A 
ATOM     58  H   UNL A   1      43.668  30.008  28.583  1.00  0.00     0.167 HD
ATOM     59  C   UNL A   1      42.575  32.378  29.675  1.00  0.00     0.074 A 
ATOM     60  C   UNL A   1      41.673  33.276  30.364  1.00  0.00     0.031 C 
ATOM     61  C   UNL A   1      43.808  32.723  29.235  1.00  0.00     0.034 A 
BRANCH  48  62
ATOM     62  C   UNL A   1      46.995  28.104  26.715  1.00  0.00     0.023 A 
ATOM     63  C   UNL A   1      47.993  27.557  27.548  1.00  0.00     0.012 A 
ATOM     64  C   UNL A   1      47.178  28.098  25.319  1.00  0.00     0.148 A 
ATOM     65  C   UNL A   1      49.158  27.023  27.003  1.00  0.00     0.002 A 
ATOM     66  C   UNL A   1      48.329  27.534  24.779  1.00  0.00     0.091 A 
ATOM     67  F   UNL A   1      46.215  28.623  24.547  1.00  0.00    -0.205 F 
ATOM     68  C   UNL A   1      49.321  27.002  25.621  1.00  0.00     0.022 A 
BRANCH  66  69
ATOM     69  S   UNL A   1      48.617  27.393  23.011  1.00  0.00     0.127 S 
ATOM     70  O   UNL A   1      49.978  27.914  22.891  1.00  0.00    -0.237 OA
ATOM     71  O   UNL A   1      48.496  25.950  22.799  1.00  0.00    -0.237 OA
ATOM     72  O   UNL A   1      47.590  28.199  22.367  1.00  0.00    -0.744 OA
ENDBRANCH  66  69
ENDBRANCH  48  62
BRANCH  49  73
ATOM     73  C   UNL A   1      38.355  30.725  30.930  1.00  0.00     0.023 A 
ATOM     74  C   UNL A   1      38.100  30.459  32.290  1.00  0.00     0.012 A 
ATOM     75  C   UNL A   1      37.394  31.419  30.171  1.00  0.00     0.148 A 
ATOM     76  C   UNL A   1      36.904  30.864  32.882  1.00  0.00     0.002 A 
ATOM     77  C   UNL A   1      36.221  31.854  30.777  1.00  0.00     0.091 A 
ATOM     78  F   UNL A   1      37.657  31.654  28.879  1.00  0.00    -0.205 F 
ATOM     79  C   UNL A   1      35.970  31.569  32.129  1.00  0.00     0.022 A 
BRANCH  77  80
ATOM     80  S   UNL A   1      34.999  32.855  29.921  1.00  0.00     0.127 S 
ATOM     81  O   UNL A   1      34.403  31.882  29.008  1.00  0.00    -0.237 OA
ATOM     82  O   UNL A   1      34.133  33.278  31.022  1.00  0.00    -0.237 OA
ATOM     83  O   UNL A   1      35.746  33.935  29.291  1.00  0.00    -0.744 OA
ENDBRANCH  77  80
ENDBRANCH  49  73
BRANCH  61  84
ATOM     84  C   UNL A   1      44.275  34.133  29.459  1.00  0.00     0.023 A 
ATOM     85  C   UNL A   1      44.957  34.447  30.649  1.00  0.00     0.012 A 
ATOM     86  C   UNL A   1      44.173  35.095  28.436  1.00  0.00     0.148 A 
ATOM     87  C   UNL A   1      45.531  35.705  30.821  1.00  0.00     0.002 A 
ATOM     88  C   UNL A   1      44.776  36.336  28.599  1.00  0.00     0.091 A 
ATOM     89  F   UNL A   1      43.512  34.768  27.316  1.00  0.00    -0.205 F 
ATOM     90  C   UNL A   1      45.452  36.644  29.793  1.00  0.00     0.022 A 
BRANCH  88  91
ATOM     91  S   UNL A   1      44.800  37.579  27.304  1.00  0.00     0.127 S 
ATOM     92  O   UNL A   1      45.729  36.990  26.342  1.00  0.00    -0.237 OA
ATOM     93  O   UNL A   1      43.403  37.600  26.870  1.00  0.00    -0.237 OA
ATOM     94  O   UNL A   1      45.258  38.811  27.934  1.00  0.00    -0.744 OA
ENDBRANCH  88  91
ENDBRANCH  61  84
ENDBRANCH  35  36
ENDBRANCH  28  30
ENDBRANCH  27  28
ENDBRANCH  26  27
ENDBRANCH   1  26
TORSDOF 18
ENDMDL
MODEL 2
REMARK VINA RESULT:     -11.8      1.165      1.654
REMARK SMILES CC(C)CN(C)c1cc2c(cc1Cl)C=C(C(=O)OCCOC(=O)c1ccc(-c3c4nc(c(-c5cccc(S(=O)(=O)[O-])c5F)c5ccc([nH]5)c(-c5cccc(S(=O)(=O)[O-])c5F)c5nc(c(-c6cccc(S(=O)(=O)[O-])c6F)c6ccc3[nH]6)C=C5)C=C4)cc1)[C@@H](C(F)(F)F)O2
REMARK SMILES IDX 19 1 18 2 16 3 17 4 15 5 7 6 8 7 12 8 9 9 11 10 13 11 10 12
REMARK SMILES IDX 92 13 14 14 87 15 5 16 6 17 4 18 2 19 1 20 3 21 88 22 89 23
REMARK SMILES IDX 90 24 91 25 20 26 21 27 22 28 23 29 24 30 25 31 86 32 26 33
REMARK SMILES IDX 85 34 27 35 28 36 29 37 79 38 30 39 84 40 78 41 80 42 31 43
REMARK SMILES IDX 83 44 77 45 76 46 32 48 64 49 44 50 63 51 45 52 48 53 62 54
REMARK SMILES IDX 81 55 46 56 47 57 61 59 82 60 49 61 33 62 34 63 42 64 35 65
REMARK SMILES IDX 37 66 43 67 36 68 38 69 39 70 40 71 41 72 65 73 66 74 74 75
REMARK SMILES IDX 67 76 69 77 75 78 68 79 70 80 71 81 72 82 73 83 50 84 51 85
REMARK SMILES IDX 59 86 52 87 54 88 60 89 53 90 55 91 56 92 57 93 58 94
REMARK H PARENT 80 47 48 58
REMARK Flexibility Score: inf
ROOT
ATOM      1  C   UNL A   1      35.730  20.887  25.253  1.00  0.00     0.275 C 
ENDROOT
BRANCH   1   2
ATOM      2  O   UNL A   1      35.199  22.029  24.546  1.00  0.00    -0.459 OA
BRANCH   2   3
ATOM      3  C   UNL A   1      34.932  23.103  25.327  1.00  0.00     0.338 C 
ATOM      4  O   UNL A   1      35.623  23.499  26.255  1.00  0.00    -0.246 OA
BRANCH   3   5
ATOM      5  C   UNL A   1      33.704  23.799  24.902  1.00  0.00     0.087 C 
ATOM      6  C   UNL A   1      30.238  27.339  23.943  1.00  0.00     0.059 A 
ATOM      7  C   UNL A   1      30.303  25.944  23.720  1.00  0.00     0.074 A 
ATOM      8  C   UNL A   1      31.301  27.940  24.649  1.00  0.00     0.065 A 
ATOM      9  C   UNL A   1      31.418  25.200  24.124  1.00  0.00     0.130 A 
ATOM     10  C   UNL A   1      32.448  27.220  24.960  1.00  0.00     0.034 A 
ATOM     11  Cl  UNL A   1      31.236  29.573  25.216  1.00  0.00    -0.082 Cl
ATOM     12  C   UNL A   1      32.509  25.858  24.684  1.00  0.00     0.019 A 
ATOM     13  O   UNL A   1      31.411  23.843  23.915  1.00  0.00    -0.475 OA
ATOM     14  C   UNL A   1      33.721  25.133  24.983  1.00  0.00     0.027 C 
ATOM     15  C   UNL A   1      32.436  23.051  24.601  1.00  0.00     0.316 C 
BRANCH   6  16
ATOM     16  N   UNL A   1      29.171  28.098  23.455  1.00  0.00    -0.373 N 
ATOM     17  C   UNL A   1      27.859  27.477  23.495  1.00  0.00     0.143 C 
BRANCH  16  18
ATOM     18  C   UNL A   1      29.454  29.087  22.394  1.00  0.00     0.119 C 
BRANCH  18  19
ATOM     19  C   UNL A   1      28.348  30.158  22.254  1.00  0.00     0.002 C 
ATOM     20  C   UNL A   1      28.216  31.023  23.511  1.00  0.00     0.009 C 
ATOM     21  C   UNL A   1      28.608  31.077  21.056  1.00  0.00     0.009 C 
ENDBRANCH  18  19
ENDBRANCH  16  18
ENDBRANCH   6  16
BRANCH  15  22
ATOM     22  C   UNL A   1      31.880  22.456  25.908  1.00  0.00     0.430 C 
ATOM     23  F   UNL A   1      30.541  22.263  25.844  1.00  0.00    -0.167 F 
ATOM     24  F   UNL A   1      32.431  21.242  26.164  1.00  0.00    -0.167 F 
ATOM     25  F   UNL A   1      32.126  23.239  26.983  1.00  0.00    -0.167 F 
ENDBRANCH  15  22
ENDBRANCH   3   5
ENDBRANCH   2   3
ENDBRANCH   1   2
BRANCH   1  26
ATOM     26  C   UNL A   1      37.214  20.661  24.955  1.00  0.00     0.275 C 
BRANCH  26  27
ATOM     27  O   UNL A   1      38.001  21.799  25.352  1.00  0.00    -0.458 OA
BRANCH  27  28
ATOM     28  C   UNL A   1      39.114  21.514  26.067  1.00  0.00     0.338 C 
ATOM     29  O   UNL A   1      39.686  20.439  26.143  1.00  0.00    -0.246 OA
BRANCH  28  30
ATOM     30  C   UNL A   1      39.617  22.736  26.713  1.00  0.00     0.060 A 
ATOM     31  C   UNL A   1      40.693  22.705  27.592  1.00  0.00     0.016 A 
ATOM     32  C   UNL A   1      39.091  23.955  26.305  1.00  0.00     0.016 A 
ATOM     33  C   UNL A   1      41.218  23.914  28.071  1.00  0.00     0.010 A 
ATOM     34  C   UNL A   1      39.695  25.154  26.676  1.00  0.00     0.010 A 
ATOM     35  C   UNL A   1      40.751  25.159  27.593  1.00  0.00    -0.014 A 
BRANCH  35  36
ATOM     36  C   UNL A   1      41.366  26.447  28.039  1.00  0.00     0.031 A 
ATOM     37  C   UNL A   1      42.793  26.806  27.674  1.00  0.00     0.074 A 
ATOM     38  C   UNL A   1      40.658  27.292  28.819  1.00  0.00     0.049 A 
ATOM     39  N   UNL A   1      43.460  27.899  27.950  1.00  0.00    -0.248 NA
ATOM     40  C   UNL A   1      43.589  25.807  26.938  1.00  0.00     0.031 C 
ATOM     41  C   UNL A   1      39.321  27.028  29.362  1.00  0.00     0.029 A 
ATOM     42  N   UNL A   1      40.953  28.552  29.284  1.00  0.00    -0.354 N 
ATOM     43  C   UNL A   1      44.753  27.694  27.479  1.00  0.00     0.074 A 
ATOM     44  C   UNL A   1      44.794  26.361  26.927  1.00  0.00     0.031 C 
ATOM     45  C   UNL A   1      38.882  28.118  30.009  1.00  0.00     0.029 A 
ATOM     46  C   UNL A   1      39.912  29.149  29.960  1.00  0.00     0.049 A 
ATOM     47  H   UNL A   1      41.826  28.986  29.145  1.00  0.00     0.167 HD
ATOM     48  C   UNL A   1      45.800  28.552  27.455  1.00  0.00     0.034 A 
ATOM     49  C   UNL A   1      39.784  30.397  30.457  1.00  0.00     0.034 A 
ATOM     50  C   UNL A   1      45.730  29.920  27.883  1.00  0.00     0.049 A 
ATOM     51  C   UNL A   1      40.917  31.373  30.303  1.00  0.00     0.074 A 
ATOM     52  C   UNL A   1      46.695  30.905  27.764  1.00  0.00     0.029 A 
ATOM     53  N   UNL A   1      44.630  30.503  28.488  1.00  0.00    -0.354 N 
ATOM     54  N   UNL A   1      42.073  31.200  29.712  1.00  0.00    -0.248 NA
ATOM     55  C   UNL A   1      40.720  32.719  30.860  1.00  0.00     0.031 C 
ATOM     56  C   UNL A   1      46.176  32.088  28.293  1.00  0.00     0.029 A 
ATOM     57  C   UNL A   1      44.889  31.837  28.742  1.00  0.00     0.049 A 
ATOM     58  H   UNL A   1      43.791  30.038  28.705  1.00  0.00     0.167 HD
ATOM     59  C   UNL A   1      42.732  32.419  29.805  1.00  0.00     0.074 A 
ATOM     60  C   UNL A   1      41.842  33.329  30.495  1.00  0.00     0.031 C 
ATOM     61  C   UNL A   1      43.973  32.747  29.374  1.00  0.00     0.034 A 
BRANCH  48  62
ATOM     62  C   UNL A   1      47.096  28.088  26.844  1.00  0.00     0.023 A 
ATOM     63  C   UNL A   1      48.138  27.663  27.694  1.00  0.00     0.012 A 
ATOM     64  C   UNL A   1      47.235  27.944  25.450  1.00  0.00     0.148 A 
ATOM     65  C   UNL A   1      49.304  27.114  27.166  1.00  0.00     0.002 A 
ATOM     66  C   UNL A   1      48.389  27.365  24.932  1.00  0.00     0.091 A 
ATOM     67  F   UNL A   1      46.231  28.355  24.662  1.00  0.00    -0.205 F 
ATOM     68  C   UNL A   1      49.425  26.956  25.788  1.00  0.00     0.022 A 
BRANCH  66  69
ATOM     69  S   UNL A   1      48.627  27.052  23.178  1.00  0.00     0.127 S 
ATOM     70  O   UNL A   1      48.148  25.675  23.057  1.00  0.00    -0.237 OA
ATOM     71  O   UNL A   1      47.754  28.056  22.570  1.00  0.00    -0.237 OA
ATOM     72  O   UNL A   1      50.048  27.234  22.922  1.00  0.00    -0.744 OA
ENDBRANCH  66  69
ENDBRANCH  48  62
BRANCH  49  73
ATOM     73  C   UNL A   1      38.479  30.831  31.028  1.00  0.00     0.023 A 
ATOM     74  C   UNL A   1      38.261  30.677  32.411  1.00  0.00     0.012 A 
ATOM     75  C   UNL A   1      37.484  31.436  30.237  1.00  0.00     0.148 A 
ATOM     76  C   UNL A   1      37.070  31.105  32.997  1.00  0.00     0.002 A 
ATOM     77  C   UNL A   1      36.315  31.895  30.833  1.00  0.00     0.091 A 
ATOM     78  F   UNL A   1      37.711  31.566  28.923  1.00  0.00    -0.205 F 
ATOM     79  C   UNL A   1      36.102  31.722  32.210  1.00  0.00     0.022 A 
BRANCH  77  80
ATOM     80  S   UNL A   1      35.050  32.792  29.926  1.00  0.00     0.127 S 
ATOM     81  O   UNL A   1      34.531  31.757  29.035  1.00  0.00    -0.237 OA
ATOM     82  O   UNL A   1      34.139  33.195  30.999  1.00  0.00    -0.237 OA
ATOM     83  O   UNL A   1      35.740  33.897  29.274  1.00  0.00    -0.744 OA
ENDBRANCH  77  80
ENDBRANCH  49  73
BRANCH  61  84
ATOM     84  C   UNL A   1      44.463  34.147  29.608  1.00  0.00     0.023 A 
ATOM     85  C   UNL A   1      45.112  34.451  30.819  1.00  0.00     0.012 A 
ATOM     86  C   UNL A   1      44.416  35.107  28.580  1.00  0.00     0.148 A 
ATOM     87  C   UNL A   1      45.707  35.697  31.006  1.00  0.00     0.002 A 
ATOM     88  C   UNL A   1      45.040  36.335  28.759  1.00  0.00     0.091 A 
ATOM     89  F   UNL A   1      43.785  34.789  27.440  1.00  0.00    -0.205 F 
ATOM     90  C   UNL A   1      45.682  36.633  29.973  1.00  0.00     0.022 A 
BRANCH  88  91
ATOM     91  S   UNL A   1      45.132  37.573  27.461  1.00  0.00     0.127 S 
ATOM     92  O   UNL A   1      43.721  37.892  27.253  1.00  0.00    -0.237 OA
ATOM     93  O   UNL A   1      45.911  38.634  28.101  1.00  0.00    -0.237 OA
ATOM     94  O   UNL A   1      45.794  36.929  26.334  1.00  0.00    -0.744 OA
ENDBRANCH  88  91
ENDBRANCH  61  84
ENDBRANCH  35  36
ENDBRANCH  28  30
ENDBRANCH  27  28
ENDBRANCH  26  27
ENDBRANCH   1  26
TORSDOF 18
ENDMDL
MODEL 3
REMARK VINA RESULT:     -11.7      5.186     10.179
REMARK SMILES CC(C)CN(C)c1cc2c(cc1Cl)C=C(C(=O)OCCOC(=O)c1ccc(-c3c4nc(c(-c5cccc(S(=O)(=O)[O-])c5F)c5ccc([nH]5)c(-c5cccc(S(=O)(=O)[O-])c5F)c5nc(c(-c6cccc(S(=O)(=O)[O-])c6F)c6ccc3[nH]6)C=C5)C=C4)cc1)[C@@H](C(F)(F)F)O2
REMARK SMILES IDX 19 1 18 2 16 3 17 4 15 5 7 6 8 7 12 8 9 9 11 10 13 11 10 12
REMARK SMILES IDX 92 13 14 14 87 15 5 16 6 17 4 18 2 19 1 20 3 21 88 22 89 23
REMARK SMILES IDX 90 24 91 25 20 26 21 27 22 28 23 29 24 30 25 31 86 32 26 33
REMARK SMILES IDX 85 34 27 35 28 36 29 37 79 38 30 39 84 40 78 41 80 42 31 43
REMARK SMILES IDX 83 44 77 45 76 46 32 48 64 49 44 50 63 51 45 52 48 53 62 54
REMARK SMILES IDX 81 55 46 56 47 57 61 59 82 60 49 61 33 62 34 63 42 64 35 65
REMARK SMILES IDX 37 66 43 67 36 68 38 69 39 70 40 71 41 72 65 73 66 74 74 75
REMARK SMILES IDX 67 76 69 77 75 78 68 79 70 80 71 81 72 82 73 83 50 84 51 85
REMARK SMILES IDX 59 86 52 87 54 88 60 89 53 90 55 91 56 92 57 93 58 94
REMARK H PARENT 80 47 48 58
REMARK Flexibility Score: inf
ROOT
ATOM      1  C   UNL A   1      31.245  28.779  25.248  1.00  0.00     0.275 C 
ENDROOT
BRANCH   1   2
ATOM      2  O   UNL A   1      31.958  27.526  25.343  1.00  0.00    -0.459 OA
BRANCH   2   3
ATOM      3  C   UNL A   1      31.421  26.636  26.211  1.00  0.00     0.338 C 
ATOM      4  O   UNL A   1      30.660  26.905  27.129  1.00  0.00    -0.246 OA
BRANCH   3   5
ATOM      5  C   UNL A   1      31.825  25.253  25.898  1.00  0.00     0.087 C 
ATOM      6  C   UNL A   1      34.536  21.087  25.028  1.00  0.00     0.059 A 
ATOM      7  C   UNL A   1      33.151  21.366  25.063  1.00  0.00     0.074 A 
ATOM      8  C   UNL A   1      35.427  22.170  25.186  1.00  0.00     0.065 A 
ATOM      9  C   UNL A   1      32.681  22.660  25.318  1.00  0.00     0.130 A 
ATOM     10  C   UNL A   1      34.961  23.431  25.538  1.00  0.00     0.034 A 
ATOM     11  Cl  UNL A   1      37.128  22.024  24.911  1.00  0.00    -0.082 Cl
ATOM     12  C   UNL A   1      33.592  23.668  25.616  1.00  0.00     0.019 A 
ATOM     13  O   UNL A   1      31.325  22.880  25.304  1.00  0.00    -0.475 OA
ATOM     14  C   UNL A   1      33.127  24.975  26.017  1.00  0.00     0.027 C 
ATOM     15  C   UNL A   1      30.870  24.273  25.277  1.00  0.00     0.316 C 
BRANCH   6  16
ATOM     16  N   UNL A   1      35.005  19.780  24.869  1.00  0.00    -0.373 N 
ATOM     17  C   UNL A   1      36.447  19.606  24.836  1.00  0.00     0.143 C 
BRANCH  16  18
ATOM     18  C   UNL A   1      34.160  18.830  24.116  1.00  0.00     0.119 C 
BRANCH  18  19
ATOM     19  C   UNL A   1      33.931  17.498  24.868  1.00  0.00     0.002 C 
ATOM     20  C   UNL A   1      32.594  17.478  25.615  1.00  0.00     0.009 C 
ATOM     21  C   UNL A   1      33.972  16.302  23.912  1.00  0.00     0.009 C 
ENDBRANCH  18  19
ENDBRANCH  16  18
ENDBRANCH   6  16
BRANCH  15  22
ATOM     22  C   UNL A   1      30.560  24.717  23.835  1.00  0.00     0.430 C 
ATOM     23  F   UNL A   1      30.136  23.682  23.071  1.00  0.00    -0.167 F 
ATOM     24  F   UNL A   1      29.568  25.643  23.813  1.00  0.00    -0.167 F 
ATOM     25  F   UNL A   1      31.630  25.265  23.217  1.00  0.00    -0.167 F 
ENDBRANCH  15  22
ENDBRANCH   3   5
ENDBRANCH   2   3
ENDBRANCH   1   2
BRANCH   1  26
ATOM     26  C   UNL A   1      32.168  29.986  25.435  1.00  0.00     0.275 C 
BRANCH  26  27
ATOM     27  O   UNL A   1      32.199  30.404  26.812  1.00  0.00    -0.458 OA
BRANCH  27  28
ATOM     28  C   UNL A   1      32.873  31.554  27.052  1.00  0.00     0.338 C 
ATOM     29  O   UNL A   1      32.451  32.692  26.943  1.00  0.00    -0.246 OA
BRANCH  28  30
ATOM     30  C   UNL A   1      34.220  31.244  27.557  1.00  0.00     0.060 A 
ATOM     31  C   UNL A   1      35.137  32.246  27.851  1.00  0.00     0.016 A 
ATOM     32  C   UNL A   1      34.507  29.924  27.884  1.00  0.00     0.016 A 
ATOM     33  C   UNL A   1      36.353  31.902  28.458  1.00  0.00     0.010 A 
ATOM     34  C   UNL A   1      35.655  29.602  28.605  1.00  0.00     0.010 A 
ATOM     35  C   UNL A   1      36.617  30.579  28.877  1.00  0.00    -0.014 A 
BRANCH  35  36
ATOM     36  C   UNL A   1      37.877  30.227  29.601  1.00  0.00     0.031 A 
ATOM     37  C   UNL A   1      38.125  30.688  31.023  1.00  0.00     0.074 A 
ATOM     38  C   UNL A   1      38.838  29.521  28.966  1.00  0.00     0.049 A 
ATOM     39  N   UNL A   1      39.148  30.435  31.801  1.00  0.00    -0.248 NA
ATOM     40  C   UNL A   1      37.122  31.571  31.646  1.00  0.00     0.031 C 
ATOM     41  C   UNL A   1      38.804  29.117  27.556  1.00  0.00     0.029 A 
ATOM     42  N   UNL A   1      40.028  29.003  29.422  1.00  0.00    -0.354 N 
ATOM     43  C   UNL A   1      38.939  31.168  32.966  1.00  0.00     0.074 A 
ATOM     44  C   UNL A   1      37.710  31.903  32.787  1.00  0.00     0.031 C 
ATOM     45  C   UNL A   1      39.871  28.350  27.288  1.00  0.00     0.029 A 
ATOM     46  C   UNL A   1      40.687  28.230  28.491  1.00  0.00     0.049 A 
ATOM     47  H   UNL A   1      40.374  29.170  30.328  1.00  0.00     0.167 HD
ATOM     48  C   UNL A   1      39.670  31.189  34.105  1.00  0.00     0.034 A 
ATOM     49  C   UNL A   1      41.803  27.480  28.600  1.00  0.00     0.034 A 
ATOM     50  C   UNL A   1      40.820  30.362  34.339  1.00  0.00     0.049 A 
ATOM     51  C   UNL A   1      42.526  27.419  29.916  1.00  0.00     0.074 A 
ATOM     52  C   UNL A   1      41.540  30.208  35.511  1.00  0.00     0.029 A 
ATOM     53  N   UNL A   1      41.404  29.536  33.395  1.00  0.00    -0.354 N 
ATOM     54  N   UNL A   1      42.217  27.999  31.049  1.00  0.00    -0.248 NA
ATOM     55  C   UNL A   1      43.734  26.583  29.977  1.00  0.00     0.031 C 
ATOM     56  C   UNL A   1      42.558  29.281  35.277  1.00  0.00     0.029 A 
ATOM     57  C   UNL A   1      42.471  28.862  33.960  1.00  0.00     0.049 A 
ATOM     58  H   UNL A   1      41.104  29.442  32.462  1.00  0.00     0.167 HD
ATOM     59  C   UNL A   1      43.176  27.582  31.963  1.00  0.00     0.074 A 
ATOM     60  C   UNL A   1      44.069  26.686  31.258  1.00  0.00     0.031 C 
ATOM     61  C   UNL A   1      43.314  27.928  33.265  1.00  0.00     0.034 A 
BRANCH  48  62
ATOM     62  C   UNL A   1      39.197  32.048  35.248  1.00  0.00     0.023 A 
ATOM     63  C   UNL A   1      38.344  31.483  36.218  1.00  0.00     0.012 A 
ATOM     64  C   UNL A   1      39.697  33.350  35.438  1.00  0.00     0.148 A 
ATOM     65  C   UNL A   1      37.983  32.206  37.353  1.00  0.00     0.002 A 
ATOM     66  C   UNL A   1      39.359  34.054  36.590  1.00  0.00     0.091 A 
ATOM     67  F   UNL A   1      40.508  33.866  34.503  1.00  0.00    -0.205 F 
ATOM     68  C   UNL A   1      38.498  33.485  37.543  1.00  0.00     0.022 A 
BRANCH  66  69
ATOM     69  S   UNL A   1      40.015  35.683  36.972  1.00  0.00     0.127 S 
ATOM     70  O   UNL A   1      39.325  35.993  38.223  1.00  0.00    -0.237 OA
ATOM     71  O   UNL A   1      41.444  35.407  37.117  1.00  0.00    -0.237 OA
ATOM     72  O   UNL A   1      39.663  36.537  35.847  1.00  0.00    -0.744 OA
ENDBRANCH  66  69
ENDBRANCH  48  62
BRANCH  49  73
ATOM     73  C   UNL A   1      42.225  26.620  27.460  1.00  0.00     0.023 A 
ATOM     74  C   UNL A   1      43.042  27.179  26.458  1.00  0.00     0.012 A 
ATOM     75  C   UNL A   1      41.875  25.258  27.384  1.00  0.00     0.148 A 
ATOM     76  C   UNL A   1      43.495  26.402  25.392  1.00  0.00     0.002 A 
ATOM     77  C   UNL A   1      42.361  24.480  26.339  1.00  0.00     0.091 A 
ATOM     78  F   UNL A   1      41.092  24.751  28.345  1.00  0.00    -0.205 F 
ATOM     79  C   UNL A   1      43.162  25.051  25.338  1.00  0.00     0.022 A 
BRANCH  77  80
ATOM     80  S   UNL A   1      42.072  22.710  26.232  1.00  0.00     0.127 S 
ATOM     81  O   UNL A   1      42.743  22.373  24.979  1.00  0.00    -0.237 OA
ATOM     82  O   UNL A   1      42.742  22.223  27.439  1.00  0.00    -0.237 OA
ATOM     83  O   UNL A   1      40.625  22.545  26.237  1.00  0.00    -0.744 OA
ENDBRANCH  77  80
ENDBRANCH  49  73
BRANCH  61  84
ATOM     84  C   UNL A   1      44.456  27.339  34.042  1.00  0.00     0.023 A 
ATOM     85  C   UNL A   1      45.687  28.020  34.073  1.00  0.00     0.012 A 
ATOM     86  C   UNL A   1      44.264  26.205  34.854  1.00  0.00     0.148 A 
ATOM     87  C   UNL A   1      46.716  27.578  34.901  1.00  0.00     0.002 A 
ATOM     88  C   UNL A   1      45.281  25.789  35.703  1.00  0.00     0.091 A 
ATOM     89  F   UNL A   1      43.082  25.573  34.798  1.00  0.00    -0.205 F 
ATOM     90  C   UNL A   1      46.510  26.472  35.725  1.00  0.00     0.022 A 
BRANCH  88  91
ATOM     91  S   UNL A   1      45.084  24.428  36.858  1.00  0.00     0.127 S 
ATOM     92  O   UNL A   1      46.427  24.323  37.426  1.00  0.00    -0.237 OA
ATOM     93  O   UNL A   1      44.072  24.947  37.778  1.00  0.00    -0.237 OA
ATOM     94  O   UNL A   1      44.655  23.283  36.066  1.00  0.00    -0.744 OA
ENDBRANCH  88  91
ENDBRANCH  61  84
ENDBRANCH  35  36
ENDBRANCH  28  30
ENDBRANCH  27  28
ENDBRANCH  26  27
ENDBRANCH   1  26
TORSDOF 18
ENDMDL
