MODEL 1
REMARK VINA RESULT:     -13.6      0.000      0.000
REMARK SMILES Cc1cccc(N2C(=O)/C(=C/c3ccc(C(=O)OCCOC(=O)c4ccc(-c5c6nc(c(-c7cccc(S(=O)(=O)[O-])c7F)c7ccc([nH]7)c(-c7cccc(S(=O)(=O)[O-])c7F)c7nc(c(-c8cccc(S(=O)(=O)[O-])c8F)c8ccc5[nH]8)C=C7)C=C6)cc4)cc3)c3ccccc3C2=O)c1
REMARK SMILES IDX 20 1 19 2 18 3 16 4 17 5 15 6 12 7 13 8 88 9 14 10 87 11
REMARK SMILES IDX 11 12 7 13 8 14 95 15 9 16 10 17 94 18 96 19 89 20 93 21
REMARK SMILES IDX 90 22 92 23 91 24 6 25 1 26 2 27 3 28 97 29 4 30 5 31 21 32
REMARK SMILES IDX 22 33 23 34 24 35 25 36 86 37 26 38 85 39 27 40 28 41 29 42
REMARK SMILES IDX 79 43 30 44 84 45 78 46 80 47 31 48 83 49 77 50 76 51 32 53
REMARK SMILES IDX 64 54 44 55 63 56 45 57 48 58 62 59 81 60 46 61 47 62 61 64
REMARK SMILES IDX 82 65 49 66 33 67 34 68 42 69 35 70 37 71 43 72 36 73 38 74
REMARK SMILES IDX 39 75 40 76 41 77 65 78 66 79 74 80 67 81 69 82 75 83 68 84
REMARK SMILES IDX 70 85 71 86 72 87 73 88 50 89 51 90 59 91 52 92 54 93 60 94
REMARK SMILES IDX 53 95 55 96 56 97 57 98 58 99
REMARK H PARENT 80 52 48 63
REMARK Flexibility Score: inf
ROOT
ATOM      1  C   UNL A   1      41.702  23.388  26.293  1.00  0.00     0.275 C 
ENDROOT
BRANCH   1   2
ATOM      2  C   UNL A   1      40.714  22.243  26.547  1.00  0.00     0.275 C 
BRANCH   2   3
ATOM      3  O   UNL A   1      39.338  22.627  26.509  1.00  0.00    -0.458 OA
BRANCH   3   4
ATOM      4  C   UNL A   1      38.611  21.761  25.746  1.00  0.00     0.338 C 
ATOM      5  O   UNL A   1      39.011  20.661  25.387  1.00  0.00    -0.246 OA
BRANCH   4   6
ATOM      6  C   UNL A   1      37.289  22.292  25.334  1.00  0.00     0.060 A 
ATOM      7  C   UNL A   1      35.114  23.731  24.352  1.00  0.00    -0.025 A 
ATOM      8  C   UNL A   1      35.285  23.588  25.733  1.00  0.00     0.009 A 
ATOM      9  C   UNL A   1      35.888  22.965  23.475  1.00  0.00     0.009 A 
ATOM     10  C   UNL A   1      36.381  22.873  26.227  1.00  0.00     0.016 A 
ATOM     11  C   UNL A   1      36.994  22.277  23.964  1.00  0.00     0.016 A 
BRANCH   7  12
ATOM     12  C   UNL A   1      34.323  24.855  23.835  1.00  0.00     0.022 C 
ATOM     13  N   UNL A   1      31.251  26.633  24.242  1.00  0.00    -0.242 N 
ATOM     14  C   UNL A   1      32.341  26.192  23.454  1.00  0.00     0.265 C 
ATOM     15  C   UNL A   1      30.800  25.890  25.362  1.00  0.00     0.265 C 
ATOM     16  O   UNL A   1      32.834  26.754  22.477  1.00  0.00    -0.268 OA
ATOM     17  C   UNL A   1      32.970  24.916  23.913  1.00  0.00     0.049 C 
ATOM     18  C   UNL A   1      31.115  24.440  25.398  1.00  0.00     0.048 A 
ATOM     19  O   UNL A   1      30.106  26.295  26.292  1.00  0.00    -0.268 OA
ATOM     20  C   UNL A   1      32.098  23.930  24.562  1.00  0.00    -0.000 A 
ATOM     21  C   UNL A   1      30.397  23.582  26.247  1.00  0.00     0.014 A 
ATOM     22  C   UNL A   1      32.241  22.537  24.456  1.00  0.00     0.010 A 
ATOM     23  C   UNL A   1      30.630  22.208  26.220  1.00  0.00     0.001 A 
ATOM     24  C   UNL A   1      31.533  21.682  25.303  1.00  0.00     0.001 A 
BRANCH  13  25
ATOM     25  C   UNL A   1      30.609  27.912  23.920  1.00  0.00     0.053 A 
ATOM     26  C   UNL A   1      30.659  31.554  25.141  1.00  0.00     0.044 C 
ATOM     27  C   UNL A   1      30.319  30.336  24.333  1.00  0.00    -0.049 A 
ATOM     28  C   UNL A   1      29.419  30.429  23.276  1.00  0.00     0.003 A 
ATOM     29  C   UNL A   1      30.914  29.094  24.626  1.00  0.00     0.030 A 
ATOM     30  C   UNL A   1      29.104  29.291  22.547  1.00  0.00     0.002 A 
ATOM     31  C   UNL A   1      29.683  28.057  22.873  1.00  0.00     0.027 A 
ENDBRANCH  13  25
ENDBRANCH   7  12
ENDBRANCH   4   6
ENDBRANCH   3   4
ENDBRANCH   2   3
ENDBRANCH   1   2
BRANCH   1  32
ATOM     32  O   UNL A   1      41.585  24.656  26.999  1.00  0.00    -0.458 OA
BRANCH  32  33
ATOM     33  C   UNL A   1      41.143  25.862  26.572  1.00  0.00     0.338 C 
ATOM     34  O   UNL A   1      41.086  26.134  25.376  1.00  0.00    -0.246 OA
BRANCH  33  35
ATOM     35  C   UNL A   1      40.761  26.843  27.593  1.00  0.00     0.060 A 
ATOM     36  C   UNL A   1      41.480  28.041  27.729  1.00  0.00     0.016 A 
ATOM     37  C   UNL A   1      39.615  26.599  28.340  1.00  0.00     0.016 A 
ATOM     38  C   UNL A   1      40.986  29.057  28.542  1.00  0.00     0.010 A 
ATOM     39  C   UNL A   1      39.056  27.642  29.028  1.00  0.00     0.010 A 
ATOM     40  C   UNL A   1      39.762  28.848  29.171  1.00  0.00    -0.014 A 
BRANCH  40  41
ATOM     41  C   UNL A   1      39.256  29.656  30.266  1.00  0.00     0.031 A 
ATOM     42  C   UNL A   1      38.576  30.946  30.054  1.00  0.00     0.074 A 
ATOM     43  C   UNL A   1      39.308  28.972  31.434  1.00  0.00     0.049 A 
ATOM     44  N   UNL A   1      38.441  31.845  30.964  1.00  0.00    -0.248 NA
ATOM     45  C   UNL A   1      37.995  31.354  28.777  1.00  0.00     0.031 C 
ATOM     46  C   UNL A   1      38.614  29.176  32.686  1.00  0.00     0.029 A 
ATOM     47  N   UNL A   1      40.179  27.902  31.721  1.00  0.00    -0.354 N 
ATOM     48  C   UNL A   1      37.492  32.750  30.511  1.00  0.00     0.074 A 
ATOM     49  C   UNL A   1      37.374  32.498  29.099  1.00  0.00     0.031 C 
ATOM     50  C   UNL A   1      39.293  28.528  33.655  1.00  0.00     0.029 A 
ATOM     51  C   UNL A   1      40.540  28.058  33.053  1.00  0.00     0.049 A 
ATOM     52  H   UNL A   1      40.471  27.191  31.105  1.00  0.00     0.167 HD
ATOM     53  C   UNL A   1      36.756  33.436  31.434  1.00  0.00     0.034 A 
ATOM     54  C   UNL A   1      41.806  28.457  33.394  1.00  0.00     0.034 A 
ATOM     55  C   UNL A   1      37.186  33.025  32.774  1.00  0.00     0.049 A 
ATOM     56  C   UNL A   1      41.737  29.762  34.154  1.00  0.00     0.074 A 
ATOM     57  C   UNL A   1      36.693  32.044  33.619  1.00  0.00     0.029 A 
ATOM     58  N   UNL A   1      38.443  33.372  33.242  1.00  0.00    -0.354 N 
ATOM     59  N   UNL A   1      40.826  30.674  33.947  1.00  0.00    -0.248 NA
ATOM     60  C   UNL A   1      42.615  30.085  35.272  1.00  0.00     0.031 C 
ATOM     61  C   UNL A   1      37.704  31.746  34.565  1.00  0.00     0.029 A 
ATOM     62  C   UNL A   1      38.801  32.549  34.295  1.00  0.00     0.049 A 
ATOM     63  H   UNL A   1      39.000  34.100  32.880  1.00  0.00     0.167 HD
ATOM     64  C   UNL A   1      40.938  31.656  34.895  1.00  0.00     0.074 A 
ATOM     65  C   UNL A   1      42.080  31.243  35.696  1.00  0.00     0.031 C 
ATOM     66  C   UNL A   1      40.076  32.715  34.967  1.00  0.00     0.034 A 
BRANCH  53  67
ATOM     67  C   UNL A   1      35.437  34.179  31.235  1.00  0.00     0.023 A 
ATOM     68  C   UNL A   1      34.746  33.898  30.026  1.00  0.00     0.012 A 
ATOM     69  C   UNL A   1      34.825  35.134  32.079  1.00  0.00     0.148 A 
ATOM     70  C   UNL A   1      33.591  34.569  29.623  1.00  0.00     0.002 A 
ATOM     71  C   UNL A   1      33.662  35.816  31.674  1.00  0.00     0.091 A 
ATOM     72  F   UNL A   1      35.336  35.369  33.292  1.00  0.00    -0.205 F 
ATOM     73  C   UNL A   1      33.056  35.544  30.441  1.00  0.00     0.022 A 
BRANCH  71  74
ATOM     74  S   UNL A   1      32.858  37.098  32.657  1.00  0.00     0.127 S 
ATOM     75  O   UNL A   1      32.935  38.259  31.768  1.00  0.00    -0.237 OA
ATOM     76  O   UNL A   1      31.509  36.561  32.831  1.00  0.00    -0.237 OA
ATOM     77  O   UNL A   1      33.637  37.224  33.882  1.00  0.00    -0.744 OA
ENDBRANCH  71  74
ENDBRANCH  53  67
BRANCH  54  78
ATOM     78  C   UNL A   1      42.884  28.077  32.411  1.00  0.00     0.023 A 
ATOM     79  C   UNL A   1      43.238  29.046  31.434  1.00  0.00     0.012 A 
ATOM     80  C   UNL A   1      43.755  26.986  32.598  1.00  0.00     0.148 A 
ATOM     81  C   UNL A   1      44.478  29.017  30.789  1.00  0.00     0.002 A 
ATOM     82  C   UNL A   1      44.986  26.951  31.930  1.00  0.00     0.091 A 
ATOM     83  F   UNL A   1      43.399  26.014  33.446  1.00  0.00    -0.205 F 
ATOM     84  C   UNL A   1      45.365  27.985  31.061  1.00  0.00     0.022 A 
BRANCH  82  85
ATOM     85  S   UNL A   1      46.189  25.645  32.246  1.00  0.00     0.127 S 
ATOM     86  O   UNL A   1      45.418  24.449  31.922  1.00  0.00    -0.237 OA
ATOM     87  O   UNL A   1      47.266  25.953  31.304  1.00  0.00    -0.237 OA
ATOM     88  O   UNL A   1      46.560  25.828  33.641  1.00  0.00    -0.744 OA
ENDBRANCH  82  85
ENDBRANCH  54  78
BRANCH  66  89
ATOM     89  C   UNL A   1      40.325  33.998  35.728  1.00  0.00     0.023 A 
ATOM     90  C   UNL A   1      40.498  35.227  35.066  1.00  0.00     0.012 A 
ATOM     91  C   UNL A   1      40.200  34.047  37.143  1.00  0.00     0.148 A 
ATOM     92  C   UNL A   1      40.611  36.431  35.765  1.00  0.00     0.002 A 
ATOM     93  C   UNL A   1      40.177  35.260  37.818  1.00  0.00     0.091 A 
ATOM     94  F   UNL A   1      40.113  32.914  37.854  1.00  0.00    -0.205 F 
ATOM     95  C   UNL A   1      40.423  36.452  37.138  1.00  0.00     0.022 A 
BRANCH  93  96
ATOM     96  S   UNL A   1      39.658  35.353  39.538  1.00  0.00     0.127 S 
ATOM     97  O   UNL A   1      39.562  36.795  39.747  1.00  0.00    -0.237 OA
ATOM     98  O   UNL A   1      38.371  34.653  39.511  1.00  0.00    -0.237 OA
ATOM     99  O   UNL A   1      40.695  34.660  40.290  1.00  0.00    -0.744 OA
ENDBRANCH  93  96
ENDBRANCH  66  89
ENDBRANCH  40  41
ENDBRANCH  33  35
ENDBRANCH  32  33
ENDBRANCH   1  32
TORSDOF 16
ENDMDL
MODEL 2
REMARK VINA RESULT:     -13.5      2.833      9.703
REMARK SMILES Cc1cccc(N2C(=O)/C(=C/c3ccc(C(=O)OCCOC(=O)c4ccc(-c5c6nc(c(-c7cccc(S(=O)(=O)[O-])c7F)c7ccc([nH]7)c(-c7cccc(S(=O)(=O)[O-])c7F)c7nc(c(-c8cccc(S(=O)(=O)[O-])c8F)c8ccc5[nH]8)C=C7)C=C6)cc4)cc3)c3ccccc3C2=O)c1
REMARK SMILES IDX 20 1 19 2 18 3 16 4 17 5 15 6 12 7 13 8 88 9 14 10 87 11
REMARK SMILES IDX 11 12 7 13 8 14 95 15 9 16 10 17 94 18 96 19 89 20 93 21
REMARK SMILES IDX 90 22 92 23 91 24 6 25 1 26 2 27 3 28 97 29 4 30 5 31 21 32
REMARK SMILES IDX 22 33 23 34 24 35 25 36 86 37 26 38 85 39 27 40 28 41 29 42
REMARK SMILES IDX 79 43 30 44 84 45 78 46 80 47 31 48 83 49 77 50 76 51 32 53
REMARK SMILES IDX 64 54 44 55 63 56 45 57 48 58 62 59 81 60 46 61 47 62 61 64
REMARK SMILES IDX 82 65 49 66 33 67 34 68 42 69 35 70 37 71 43 72 36 73 38 74
REMARK SMILES IDX 39 75 40 76 41 77 65 78 66 79 74 80 67 81 69 82 75 83 68 84
REMARK SMILES IDX 70 85 71 86 72 87 73 88 50 89 51 90 59 91 52 92 54 93 60 94
REMARK SMILES IDX 53 95 55 96 56 97 57 98 58 99
REMARK H PARENT 80 52 48 63
REMARK Flexibility Score: inf
ROOT
ATOM      1  C   UNL A   1      33.642  34.120  29.385  1.00  0.00     0.275 C 
ENDROOT
BRANCH   1   2
ATOM      2  C   UNL A   1      33.760  33.570  27.957  1.00  0.00     0.275 C 
BRANCH   2   3
ATOM      3  O   UNL A   1      33.214  32.261  27.780  1.00  0.00    -0.458 OA
BRANCH   3   4
ATOM      4  C   UNL A   1      34.205  31.338  27.614  1.00  0.00     0.338 C 
ATOM      5  O   UNL A   1      35.382  31.540  27.885  1.00  0.00    -0.246 OA
BRANCH   4   6
ATOM      6  C   UNL A   1      33.740  30.062  27.018  1.00  0.00     0.060 A 
ATOM      7  C   UNL A   1      33.079  27.432  26.381  1.00  0.00    -0.025 A 
ATOM      8  C   UNL A   1      34.070  28.096  25.648  1.00  0.00     0.009 A 
ATOM      9  C   UNL A   1      32.269  28.153  27.263  1.00  0.00     0.009 A 
ATOM     10  C   UNL A   1      34.407  29.414  25.973  1.00  0.00     0.016 A 
ATOM     11  C   UNL A   1      32.623  29.454  27.605  1.00  0.00     0.016 A 
BRANCH   7  12
ATOM     12  C   UNL A   1      33.071  25.963  26.416  1.00  0.00     0.022 C 
ATOM     13  N   UNL A   1      33.071  23.040  24.363  1.00  0.00    -0.242 N 
ATOM     14  C   UNL A   1      32.759  23.719  25.565  1.00  0.00     0.265 C 
ATOM     15  C   UNL A   1      33.166  23.730  23.128  1.00  0.00     0.265 C 
ATOM     16  O   UNL A   1      32.667  23.238  26.694  1.00  0.00    -0.268 OA
ATOM     17  C   UNL A   1      32.565  25.194  25.420  1.00  0.00     0.049 C 
ATOM     18  C   UNL A   1      32.450  25.023  23.005  1.00  0.00     0.048 A 
ATOM     19  O   UNL A   1      33.725  23.344  22.103  1.00  0.00    -0.268 OA
ATOM     20  C   UNL A   1      32.017  25.680  24.149  1.00  0.00    -0.000 A 
ATOM     21  C   UNL A   1      32.179  25.563  21.737  1.00  0.00     0.014 A 
ATOM     22  C   UNL A   1      31.165  26.788  24.012  1.00  0.00     0.010 A 
ATOM     23  C   UNL A   1      31.429  26.732  21.616  1.00  0.00     0.001 A 
ATOM     24  C   UNL A   1      30.898  27.329  22.753  1.00  0.00     0.001 A 
BRANCH  13  25
ATOM     25  C   UNL A   1      33.352  21.601  24.408  1.00  0.00     0.053 A 
ATOM     26  C   UNL A   1      36.360  19.259  24.881  1.00  0.00     0.044 C 
ATOM     27  C   UNL A   1      34.949  19.728  24.680  1.00  0.00    -0.049 A 
ATOM     28  C   UNL A   1      33.916  18.803  24.560  1.00  0.00     0.003 A 
ATOM     29  C   UNL A   1      34.653  21.104  24.625  1.00  0.00     0.030 A 
ATOM     30  C   UNL A   1      32.619  19.252  24.362  1.00  0.00     0.002 A 
ATOM     31  C   UNL A   1      32.348  20.625  24.278  1.00  0.00     0.027 A 
ENDBRANCH  13  25
ENDBRANCH   7  12
ENDBRANCH   4   6
ENDBRANCH   3   4
ENDBRANCH   2   3
ENDBRANCH   1   2
BRANCH   1  32
ATOM     32  O   UNL A   1      34.733  33.980  30.339  1.00  0.00    -0.458 OA
BRANCH  32  33
ATOM     33  C   UNL A   1      34.927  33.069  31.323  1.00  0.00     0.338 C 
ATOM     34  O   UNL A   1      34.103  32.911  32.218  1.00  0.00    -0.246 OA
BRANCH  33  35
ATOM     35  C   UNL A   1      36.175  32.299  31.293  1.00  0.00     0.060 A 
ATOM     36  C   UNL A   1      36.259  31.061  31.950  1.00  0.00     0.016 A 
ATOM     37  C   UNL A   1      37.222  32.776  30.514  1.00  0.00     0.016 A 
ATOM     38  C   UNL A   1      37.361  30.237  31.739  1.00  0.00     0.010 A 
ATOM     39  C   UNL A   1      38.236  31.915  30.194  1.00  0.00     0.010 A 
ATOM     40  C   UNL A   1      38.333  30.672  30.842  1.00  0.00    -0.014 A 
BRANCH  40  41
ATOM     41  C   UNL A   1      39.661  30.096  30.733  1.00  0.00     0.031 A 
ATOM     42  C   UNL A   1      39.923  28.829  30.027  1.00  0.00     0.074 A 
ATOM     43  C   UNL A   1      40.602  30.968  31.167  1.00  0.00     0.049 A 
ATOM     44  N   UNL A   1      40.974  28.111  30.206  1.00  0.00    -0.248 NA
ATOM     45  C   UNL A   1      39.004  28.239  29.056  1.00  0.00     0.031 C 
ATOM     46  C   UNL A   1      42.028  31.024  30.929  1.00  0.00     0.029 A 
ATOM     47  N   UNL A   1      40.388  32.021  32.079  1.00  0.00    -0.354 N 
ATOM     48  C   UNL A   1      41.031  27.196  29.165  1.00  0.00     0.074 A 
ATOM     49  C   UNL A   1      39.715  27.205  28.583  1.00  0.00     0.031 C 
ATOM     50  C   UNL A   1      42.586  31.791  31.889  1.00  0.00     0.029 A 
ATOM     51  C   UNL A   1      41.534  32.078  32.863  1.00  0.00     0.049 A 
ATOM     52  H   UNL A   1      39.592  32.597  32.146  1.00  0.00     0.167 HD
ATOM     53  C   UNL A   1      42.252  26.723  28.781  1.00  0.00     0.034 A 
ATOM     54  C   UNL A   1      41.508  31.674  34.172  1.00  0.00     0.034 A 
ATOM     55  C   UNL A   1      43.279  27.334  29.630  1.00  0.00     0.049 A 
ATOM     56  C   UNL A   1      42.473  30.526  34.365  1.00  0.00     0.074 A 
ATOM     57  C   UNL A   1      44.045  28.473  29.441  1.00  0.00     0.029 A 
ATOM     58  N   UNL A   1      43.364  27.004  30.973  1.00  0.00    -0.354 N 
ATOM     59  N   UNL A   1      42.745  29.645  33.441  1.00  0.00    -0.248 NA
ATOM     60  C   UNL A   1      43.280  30.353  35.567  1.00  0.00     0.031 C 
ATOM     61  C   UNL A   1      44.536  28.873  30.707  1.00  0.00     0.029 A 
ATOM     62  C   UNL A   1      44.073  27.976  31.656  1.00  0.00     0.049 A 
ATOM     63  H   UNL A   1      42.979  26.195  31.381  1.00  0.00     0.167 HD
ATOM     64  C   UNL A   1      43.767  28.838  33.867  1.00  0.00     0.074 A 
ATOM     65  C   UNL A   1      44.060  29.318  35.208  1.00  0.00     0.031 C 
ATOM     66  C   UNL A   1      44.308  27.857  33.083  1.00  0.00     0.034 A 
BRANCH  53  67
ATOM     67  C   UNL A   1      42.635  26.032  27.474  1.00  0.00     0.023 A 
ATOM     68  C   UNL A   1      42.862  26.889  26.365  1.00  0.00     0.012 A 
ATOM     69  C   UNL A   1      42.764  24.648  27.212  1.00  0.00     0.148 A 
ATOM     70  C   UNL A   1      43.103  26.429  25.070  1.00  0.00     0.002 A 
ATOM     71  C   UNL A   1      43.003  24.181  25.906  1.00  0.00     0.091 A 
ATOM     72  F   UNL A   1      42.692  23.774  28.220  1.00  0.00    -0.205 F 
ATOM     73  C   UNL A   1      43.157  25.070  24.835  1.00  0.00     0.022 A 
BRANCH  71  74
ATOM     74  S   UNL A   1      43.110  22.432  25.471  1.00  0.00     0.127 S 
ATOM     75  O   UNL A   1      43.558  22.489  24.078  1.00  0.00    -0.237 OA
ATOM     76  O   UNL A   1      44.118  21.937  26.408  1.00  0.00    -0.237 OA
ATOM     77  O   UNL A   1      41.773  21.882  25.653  1.00  0.00    -0.744 OA
ENDBRANCH  71  74
ENDBRANCH  53  67
BRANCH  54  78
ATOM     78  C   UNL A   1      40.174  31.817  34.860  1.00  0.00     0.023 A 
ATOM     79  C   UNL A   1      39.179  30.852  34.545  1.00  0.00     0.012 A 
ATOM     80  C   UNL A   1      39.969  32.624  35.996  1.00  0.00     0.148 A 
ATOM     81  C   UNL A   1      38.111  30.593  35.410  1.00  0.00     0.002 A 
ATOM     82  C   UNL A   1      38.883  32.374  36.845  1.00  0.00     0.091 A 
ATOM     83  F   UNL A   1      40.846  33.599  36.261  1.00  0.00    -0.205 F 
ATOM     84  C   UNL A   1      37.981  31.333  36.576  1.00  0.00     0.022 A 
BRANCH  82  85
ATOM     85  S   UNL A   1      38.663  33.291  38.382  1.00  0.00     0.127 S 
ATOM     86  O   UNL A   1      39.797  32.820  39.172  1.00  0.00    -0.237 OA
ATOM     87  O   UNL A   1      38.755  34.686  37.950  1.00  0.00    -0.237 OA
ATOM     88  O   UNL A   1      37.338  32.907  38.844  1.00  0.00    -0.744 OA
ENDBRANCH  82  85
ENDBRANCH  54  78
BRANCH  66  89
ATOM     89  C   UNL A   1      45.167  26.713  33.577  1.00  0.00     0.023 A 
ATOM     90  C   UNL A   1      46.536  26.884  33.849  1.00  0.00     0.012 A 
ATOM     91  C   UNL A   1      44.586  25.478  33.969  1.00  0.00     0.148 A 
ATOM     92  C   UNL A   1      47.307  25.866  34.415  1.00  0.00     0.002 A 
ATOM     93  C   UNL A   1      45.328  24.523  34.653  1.00  0.00     0.091 A 
ATOM     94  F   UNL A   1      43.307  25.206  33.673  1.00  0.00    -0.205 F 
ATOM     95  C   UNL A   1      46.699  24.696  34.843  1.00  0.00     0.022 A 
BRANCH  93  96
ATOM     96  S   UNL A   1      44.525  23.135  35.467  1.00  0.00     0.127 S 
ATOM     97  O   UNL A   1      43.375  23.778  36.097  1.00  0.00    -0.237 OA
ATOM     98  O   UNL A   1      44.192  22.263  34.337  1.00  0.00    -0.237 OA
ATOM     99  O   UNL A   1      45.529  22.584  36.366  1.00  0.00    -0.744 OA
ENDBRANCH  93  96
ENDBRANCH  66  89
ENDBRANCH  40  41
ENDBRANCH  33  35
ENDBRANCH  32  33
ENDBRANCH   1  32
TORSDOF 16
ENDMDL
MODEL 3
REMARK VINA RESULT:     -13.4      6.340     11.463
REMARK SMILES Cc1cccc(N2C(=O)/C(=C/c3ccc(C(=O)OCCOC(=O)c4ccc(-c5c6nc(c(-c7cccc(S(=O)(=O)[O-])c7F)c7ccc([nH]7)c(-c7cccc(S(=O)(=O)[O-])c7F)c7nc(c(-c8cccc(S(=O)(=O)[O-])c8F)c8ccc5[nH]8)C=C7)C=C6)cc4)cc3)c3ccccc3C2=O)c1
REMARK SMILES IDX 20 1 19 2 18 3 16 4 17 5 15 6 12 7 13 8 88 9 14 10 87 11
REMARK SMILES IDX 11 12 7 13 8 14 95 15 9 16 10 17 94 18 96 19 89 20 93 21
REMARK SMILES IDX 90 22 92 23 91 24 6 25 1 26 2 27 3 28 97 29 4 30 5 31 21 32
REMARK SMILES IDX 22 33 23 34 24 35 25 36 86 37 26 38 85 39 27 40 28 41 29 42
REMARK SMILES IDX 79 43 30 44 84 45 78 46 80 47 31 48 83 49 77 50 76 51 32 53
REMARK SMILES IDX 64 54 44 55 63 56 45 57 48 58 62 59 81 60 46 61 47 62 61 64
REMARK SMILES IDX 82 65 49 66 33 67 34 68 42 69 35 70 37 71 43 72 36 73 38 74
REMARK SMILES IDX 39 75 40 76 41 77 65 78 66 79 74 80 67 81 69 82 75 83 68 84
REMARK SMILES IDX 70 85 71 86 72 87 73 88 50 89 51 90 59 91 52 92 54 93 60 94
REMARK SMILES IDX 53 95 55 96 56 97 57 98 58 99
REMARK H PARENT 80 52 48 63
REMARK Flexibility Score: inf
ROOT
ATOM      1  C   UNL A   1      41.027  22.235  27.668  1.00  0.00     0.275 C 
ENDROOT
BRANCH   1   2
ATOM      2  C   UNL A   1      40.441  21.564  26.418  1.00  0.00     0.275 C 
BRANCH   2   3
ATOM      3  O   UNL A   1      39.375  22.290  25.801  1.00  0.00    -0.458 OA
BRANCH   3   4
ATOM      4  C   UNL A   1      38.392  21.446  25.378  1.00  0.00     0.338 C 
ATOM      5  O   UNL A   1      38.556  20.250  25.169  1.00  0.00    -0.246 OA
BRANCH   4   6
ATOM      6  C   UNL A   1      37.090  22.116  25.138  1.00  0.00     0.060 A 
ATOM      7  C   UNL A   1      34.967  23.765  24.407  1.00  0.00    -0.025 A 
ATOM      8  C   UNL A   1      35.337  23.666  25.753  1.00  0.00     0.009 A 
ATOM      9  C   UNL A   1      35.500  22.870  23.474  1.00  0.00     0.009 A 
ATOM     10  C   UNL A   1      36.409  22.845  26.119  1.00  0.00     0.016 A 
ATOM     11  C   UNL A   1      36.582  22.075  23.833  1.00  0.00     0.016 A 
BRANCH   7  12
ATOM     12  C   UNL A   1      34.238  24.954  23.945  1.00  0.00     0.022 C 
ATOM     13  N   UNL A   1      31.326  26.941  24.519  1.00  0.00    -0.242 N 
ATOM     14  C   UNL A   1      32.344  26.437  23.676  1.00  0.00     0.265 C 
ATOM     15  C   UNL A   1      30.872  26.211  25.647  1.00  0.00     0.265 C 
ATOM     16  O   UNL A   1      32.833  26.981  22.686  1.00  0.00    -0.268 OA
ATOM     17  C   UNL A   1      32.898  25.110  24.084  1.00  0.00     0.049 C 
ATOM     18  C   UNL A   1      31.081  24.742  25.645  1.00  0.00     0.048 A 
ATOM     19  O   UNL A   1      30.250  26.648  26.614  1.00  0.00    -0.268 OA
ATOM     20  C   UNL A   1      31.986  24.178  24.757  1.00  0.00    -0.000 A 
ATOM     21  C   UNL A   1      30.340  23.922  26.512  1.00  0.00     0.014 A 
ATOM     22  C   UNL A   1      32.022  22.781  24.623  1.00  0.00     0.010 A 
ATOM     23  C   UNL A   1      30.470  22.535  26.452  1.00  0.00     0.001 A 
ATOM     24  C   UNL A   1      31.291  21.963  25.487  1.00  0.00     0.001 A 
BRANCH  13  25
ATOM     25  C   UNL A   1      30.766  28.270  24.247  1.00  0.00     0.053 A 
ATOM     26  C   UNL A   1      28.021  29.857  22.079  1.00  0.00     0.044 C 
ATOM     27  C   UNL A   1      29.136  29.718  23.073  1.00  0.00    -0.049 A 
ATOM     28  C   UNL A   1      29.616  30.837  23.746  1.00  0.00     0.003 A 
ATOM     29  C   UNL A   1      29.697  28.456  23.346  1.00  0.00     0.030 A 
ATOM     30  C   UNL A   1      30.657  30.694  24.652  1.00  0.00     0.002 A 
ATOM     31  C   UNL A   1      31.224  29.434  24.888  1.00  0.00     0.027 A 
ENDBRANCH  13  25
ENDBRANCH   7  12
ENDBRANCH   4   6
ENDBRANCH   3   4
ENDBRANCH   2   3
ENDBRANCH   1   2
BRANCH   1  32
ATOM     32  O   UNL A   1      40.376  23.383  28.283  1.00  0.00    -0.458 OA
BRANCH  32  33
ATOM     33  C   UNL A   1      40.704  24.696  28.258  1.00  0.00     0.338 C 
ATOM     34  O   UNL A   1      39.852  25.564  28.089  1.00  0.00    -0.246 OA
BRANCH  33  35
ATOM     35  C   UNL A   1      42.121  25.042  28.410  1.00  0.00     0.060 A 
ATOM     36  C   UNL A   1      42.583  26.317  28.045  1.00  0.00     0.016 A 
ATOM     37  C   UNL A   1      42.960  24.117  29.020  1.00  0.00     0.016 A 
ATOM     38  C   UNL A   1      43.871  26.713  28.392  1.00  0.00     0.010 A 
ATOM     39  C   UNL A   1      44.172  24.549  29.484  1.00  0.00     0.010 A 
ATOM     40  C   UNL A   1      44.647  25.823  29.129  1.00  0.00    -0.014 A 
BRANCH  40  41
ATOM     41  C   UNL A   1      46.082  25.946  29.312  1.00  0.00     0.031 A 
ATOM     42  C   UNL A   1      47.056  25.425  28.337  1.00  0.00     0.074 A 
ATOM     43  C   UNL A   1      46.366  26.765  30.353  1.00  0.00     0.049 A 
ATOM     44  N   UNL A   1      48.289  25.187  28.611  1.00  0.00    -0.248 NA
ATOM     45  C   UNL A   1      46.721  25.104  26.951  1.00  0.00     0.031 C 
ATOM     46  C   UNL A   1      47.575  27.479  30.697  1.00  0.00     0.029 A 
ATOM     47  N   UNL A   1      45.514  27.036  31.442  1.00  0.00    -0.354 N 
ATOM     48  C   UNL A   1      48.956  25.027  27.405  1.00  0.00     0.074 A 
ATOM     49  C   UNL A   1      47.921  24.819  26.427  1.00  0.00     0.031 C 
ATOM     50  C   UNL A   1      47.516  27.803  32.006  1.00  0.00     0.029 A 
ATOM     51  C   UNL A   1      46.341  27.128  32.554  1.00  0.00     0.049 A 
ATOM     52  H   UNL A   1      44.534  27.139  31.419  1.00  0.00     0.167 HD
ATOM     53  C   UNL A   1      50.287  25.328  27.353  1.00  0.00     0.034 A 
ATOM     54  C   UNL A   1      46.343  26.145  33.509  1.00  0.00     0.034 A 
ATOM     55  C   UNL A   1      50.719  25.769  28.682  1.00  0.00     0.049 A 
ATOM     56  C   UNL A   1      47.723  25.535  33.604  1.00  0.00     0.074 A 
ATOM     57  C   UNL A   1      50.806  27.040  29.227  1.00  0.00     0.029 A 
ATOM     58  N   UNL A   1      50.771  24.870  29.735  1.00  0.00    -0.354 N 
ATOM     59  N   UNL A   1      48.537  25.425  32.590  1.00  0.00    -0.248 NA
ATOM     60  C   UNL A   1      48.324  25.107  34.862  1.00  0.00     0.031 C 
ATOM     61  C   UNL A   1      50.835  26.900  30.636  1.00  0.00     0.029 A 
ATOM     62  C   UNL A   1      50.772  25.550  30.940  1.00  0.00     0.049 A 
ATOM     63  H   UNL A   1      50.805  23.890  29.640  1.00  0.00     0.167 HD
ATOM     64  C   UNL A   1      49.756  24.983  33.031  1.00  0.00     0.074 A 
ATOM     65  C   UNL A   1      49.567  24.791  34.460  1.00  0.00     0.031 C 
ATOM     66  C   UNL A   1      50.831  24.830  32.198  1.00  0.00     0.034 A 
BRANCH  53  67
ATOM     67  C   UNL A   1      51.151  25.601  26.124  1.00  0.00     0.023 A 
ATOM     68  C   UNL A   1      52.385  24.900  26.068  1.00  0.00     0.012 A 
ATOM     69  C   UNL A   1      50.901  26.483  25.047  1.00  0.00     0.148 A 
ATOM     70  C   UNL A   1      53.350  25.114  25.084  1.00  0.00     0.002 A 
ATOM     71  C   UNL A   1      51.875  26.704  24.055  1.00  0.00     0.091 A 
ATOM     72  F   UNL A   1      49.714  27.090  24.950  1.00  0.00    -0.205 F 
ATOM     73  C   UNL A   1      53.103  26.032  24.083  1.00  0.00     0.022 A 
BRANCH  71  74
ATOM     74  S   UNL A   1      51.667  27.864  22.688  1.00  0.00     0.127 S 
ATOM     75  O   UNL A   1      50.584  27.244  21.921  1.00  0.00    -0.237 OA
ATOM     76  O   UNL A   1      51.288  29.097  23.377  1.00  0.00    -0.237 OA
ATOM     77  O   UNL A   1      52.947  27.912  21.993  1.00  0.00    -0.744 OA
ENDBRANCH  71  74
ENDBRANCH  53  67
BRANCH  54  78
ATOM     78  C   UNL A   1      45.044  25.393  33.656  1.00  0.00     0.023 A 
ATOM     79  C   UNL A   1      45.032  24.038  33.229  1.00  0.00     0.012 A 
ATOM     80  C   UNL A   1      43.976  25.837  34.460  1.00  0.00     0.148 A 
ATOM     81  C   UNL A   1      44.087  23.126  33.712  1.00  0.00     0.002 A 
ATOM     82  C   UNL A   1      43.020  24.923  34.921  1.00  0.00     0.091 A 
ATOM     83  F   UNL A   1      43.918  27.131  34.799  1.00  0.00    -0.205 F 
ATOM     84  C   UNL A   1      43.099  23.563  34.583  1.00  0.00     0.022 A 
BRANCH  82  85
ATOM     85  S   UNL A   1      41.718  25.422  36.065  1.00  0.00     0.127 S 
ATOM     86  O   UNL A   1      40.866  24.237  36.077  1.00  0.00    -0.237 OA
ATOM     87  O   UNL A   1      42.448  25.665  37.311  1.00  0.00    -0.237 OA
ATOM     88  O   UNL A   1      41.159  26.627  35.470  1.00  0.00    -0.744 OA
ENDBRANCH  82  85
ENDBRANCH  54  78
BRANCH  66  89
ATOM     89  C   UNL A   1      52.076  24.030  32.511  1.00  0.00     0.023 A 
ATOM     90  C   UNL A   1      53.354  24.618  32.493  1.00  0.00     0.012 A 
ATOM     91  C   UNL A   1      51.988  22.707  33.023  1.00  0.00     0.148 A 
ATOM     92  C   UNL A   1      54.493  23.917  32.894  1.00  0.00     0.002 A 
ATOM     93  C   UNL A   1      53.104  22.066  33.545  1.00  0.00     0.091 A 
ATOM     94  F   UNL A   1      50.821  22.048  33.000  1.00  0.00    -0.205 F 
ATOM     95  C   UNL A   1      54.366  22.651  33.446  1.00  0.00     0.022 A 
BRANCH  93  96
ATOM     96  S   UNL A   1      52.938  20.562  34.517  1.00  0.00     0.127 S 
ATOM     97  O   UNL A   1      54.316  20.316  34.932  1.00  0.00    -0.237 OA
ATOM     98  O   UNL A   1      52.043  20.988  35.596  1.00  0.00    -0.237 OA
ATOM     99  O   UNL A   1      52.352  19.583  33.611  1.00  0.00    -0.744 OA
ENDBRANCH  93  96
ENDBRANCH  66  89
ENDBRANCH  40  41
ENDBRANCH  33  35
ENDBRANCH  32  33
ENDBRANCH   1  32
TORSDOF 16
ENDMDL
