MODEL 1
REMARK VINA RESULT:     -10.9      0.000      0.000
REMARK SMILES O=C(OCCOC(=O)c1ccc(COc2cccc(Cl)c2Cl)o1)c1ccc(-c2c3nc(c(-c4cccc(S(=O)(=O)[O-])c4F)c4ccc([nH]4)c(-c4cccc(S(=O)(=O)[O-])c4F)c4nc(c(-c5cccc(S(=O)(=O)[O-])c5F)c5ccc2[nH]5)C=C4)C=C3)cc1
REMARK SMILES IDX 4 1 3 2 2 3 1 4 24 5 25 6 86 7 26 8 85 9 27 10 28 11 29 12
REMARK SMILES IDX 79 13 30 14 84 15 78 16 80 17 31 18 83 19 77 20 76 21 32 23
REMARK SMILES IDX 64 24 44 25 63 26 45 27 48 28 62 29 81 30 46 31 47 32 61 34
REMARK SMILES IDX 82 35 49 36 33 37 34 38 42 39 35 40 37 41 43 42 36 43 38 44
REMARK SMILES IDX 39 45 40 46 41 47 65 48 66 49 74 50 67 51 69 52 75 53 68 54
REMARK SMILES IDX 70 55 71 56 72 57 73 58 50 59 51 60 59 61 52 62 54 63 60 64
REMARK SMILES IDX 53 65 55 66 56 67 57 68 58 69 5 70 6 71 7 72 8 73 9 74 10 75
REMARK SMILES IDX 23 76 11 77 12 78 13 79 14 80 15 81 16 82 21 83 17 84 19 85
REMARK SMILES IDX 22 86 18 87 20 88
REMARK H PARENT 80 22 48 33
REMARK Flexibility Score: inf
ROOT
ATOM      1  C   UNL A   1      34.208  32.883  28.175  1.00  0.00     0.275 C 
ENDROOT
BRANCH   1   2
ATOM      2  O   UNL A   1      33.645  31.617  27.789  1.00  0.00    -0.458 OA
BRANCH   2   3
ATOM      3  C   UNL A   1      34.296  30.471  27.471  1.00  0.00     0.338 C 
ATOM      4  O   UNL A   1      33.695  29.584  26.868  1.00  0.00    -0.246 OA
BRANCH   3   5
ATOM      5  C   UNL A   1      35.666  30.162  27.983  1.00  0.00     0.060 A 
ATOM      6  C   UNL A   1      36.843  30.223  27.233  1.00  0.00     0.016 A 
ATOM      7  C   UNL A   1      35.750  29.695  29.308  1.00  0.00     0.016 A 
ATOM      8  C   UNL A   1      38.072  29.860  27.792  1.00  0.00     0.010 A 
ATOM      9  C   UNL A   1      36.978  29.328  29.871  1.00  0.00     0.010 A 
ATOM     10  C   UNL A   1      38.147  29.390  29.105  1.00  0.00    -0.014 A 
BRANCH  10  11
ATOM     11  C   UNL A   1      39.421  28.819  29.600  1.00  0.00     0.031 A 
ATOM     12  C   UNL A   1      40.046  29.418  30.824  1.00  0.00     0.074 A 
ATOM     13  C   UNL A   1      39.987  27.754  29.002  1.00  0.00     0.049 A 
ATOM     14  N   UNL A   1      41.062  28.985  31.522  1.00  0.00    -0.248 NA
ATOM     15  C   UNL A   1      39.433  30.650  31.349  1.00  0.00     0.031 C 
ATOM     16  C   UNL A   1      39.454  27.069  27.830  1.00  0.00     0.029 A 
ATOM     17  N   UNL A   1      41.138  27.065  29.288  1.00  0.00    -0.354 N 
ATOM     18  C   UNL A   1      41.197  29.877  32.576  1.00  0.00     0.074 A 
ATOM     19  C   UNL A   1      40.193  30.902  32.403  1.00  0.00     0.031 C 
ATOM     20  C   UNL A   1      40.300  26.097  27.456  1.00  0.00     0.029 A 
ATOM     21  C   UNL A   1      41.419  26.061  28.392  1.00  0.00     0.049 A 
ATOM     22  H   UNL A   1      41.709  27.271  30.064  1.00  0.00     0.167 HD
ATOM     23  C   UNL A   1      42.055  29.823  33.621  1.00  0.00     0.034 A 
ATOM     24  C   UNL A   1      42.448  25.191  28.348  1.00  0.00     0.034 A 
ATOM     25  C   UNL A   1      43.056  28.807  33.780  1.00  0.00     0.049 A 
ATOM     26  C   UNL A   1      43.429  25.188  29.490  1.00  0.00     0.074 A 
ATOM     27  C   UNL A   1      43.960  28.640  34.812  1.00  0.00     0.029 A 
ATOM     28  N   UNL A   1      43.298  27.795  32.863  1.00  0.00    -0.354 N 
ATOM     29  N   UNL A   1      43.437  25.934  30.569  1.00  0.00    -0.248 NA
ATOM     30  C   UNL A   1      44.500  24.182  29.446  1.00  0.00     0.031 C 
ATOM     31  C   UNL A   1      44.764  27.535  34.507  1.00  0.00     0.029 A 
ATOM     32  C   UNL A   1      44.348  27.005  33.295  1.00  0.00     0.049 A 
ATOM     33  H   UNL A   1      42.797  27.659  32.027  1.00  0.00     0.167 HD
ATOM     34  C   UNL A   1      44.468  25.447  31.362  1.00  0.00     0.074 A 
ATOM     35  C   UNL A   1      45.067  24.344  30.635  1.00  0.00     0.031 C 
ATOM     36  C   UNL A   1      44.882  25.872  32.581  1.00  0.00     0.034 A 
BRANCH  23  37
ATOM     37  C   UNL A   1      41.904  30.883  34.675  1.00  0.00     0.023 A 
ATOM     38  C   UNL A   1      40.996  30.678  35.734  1.00  0.00     0.012 A 
ATOM     39  C   UNL A   1      42.630  32.086  34.606  1.00  0.00     0.148 A 
ATOM     40  C   UNL A   1      40.782  31.672  36.688  1.00  0.00     0.002 A 
ATOM     41  C   UNL A   1      42.437  33.057  35.581  1.00  0.00     0.091 A 
ATOM     42  F   UNL A   1      43.463  32.273  33.573  1.00  0.00    -0.205 F 
ATOM     43  C   UNL A   1      41.507  32.858  36.615  1.00  0.00     0.022 A 
BRANCH  41  44
ATOM     44  S   UNL A   1      43.360  34.598  35.594  1.00  0.00     0.127 S 
ATOM     45  O   UNL A   1      42.759  35.292  36.733  1.00  0.00    -0.237 OA
ATOM     46  O   UNL A   1      44.731  34.137  35.815  1.00  0.00    -0.237 OA
ATOM     47  O   UNL A   1      43.131  35.206  34.291  1.00  0.00    -0.744 OA
ENDBRANCH  41  44
ENDBRANCH  23  37
BRANCH  24  48
ATOM     48  C   UNL A   1      42.532  24.185  27.252  1.00  0.00     0.023 A 
ATOM     49  C   UNL A   1      43.243  24.497  26.077  1.00  0.00     0.012 A 
ATOM     50  C   UNL A   1      41.941  22.913  27.378  1.00  0.00     0.148 A 
ATOM     51  C   UNL A   1      43.337  23.572  25.035  1.00  0.00     0.002 A 
ATOM     52  C   UNL A   1      42.074  21.980  26.355  1.00  0.00     0.091 A 
ATOM     53  F   UNL A   1      41.260  22.637  28.501  1.00  0.00    -0.205 F 
ATOM     54  C   UNL A   1      42.761  22.312  25.176  1.00  0.00     0.022 A 
BRANCH  52  55
ATOM     55  S   UNL A   1      41.464  20.296  26.499  1.00  0.00     0.127 S 
ATOM     56  O   UNL A   1      40.025  20.484  26.342  1.00  0.00    -0.237 OA
ATOM     57  O   UNL A   1      42.127  19.635  25.375  1.00  0.00    -0.237 OA
ATOM     58  O   UNL A   1      41.908  19.834  27.808  1.00  0.00    -0.744 OA
ENDBRANCH  52  55
ENDBRANCH  24  48
BRANCH  36  59
ATOM     59  C   UNL A   1      46.004  25.117  33.238  1.00  0.00     0.023 A 
ATOM     60  C   UNL A   1      47.326  25.587  33.121  1.00  0.00     0.012 A 
ATOM     61  C   UNL A   1      45.733  23.997  34.047  1.00  0.00     0.148 A 
ATOM     62  C   UNL A   1      48.367  24.937  33.785  1.00  0.00     0.002 A 
ATOM     63  C   UNL A   1      46.767  23.384  34.742  1.00  0.00     0.091 A 
ATOM     64  F   UNL A   1      44.471  23.549  34.122  1.00  0.00    -0.205 F 
ATOM     65  C   UNL A   1      48.086  23.848  34.606  1.00  0.00     0.022 A 
BRANCH  63  66
ATOM     66  S   UNL A   1      46.466  22.042  35.898  1.00  0.00     0.127 S 
ATOM     67  O   UNL A   1      45.951  20.998  35.015  1.00  0.00    -0.237 OA
ATOM     68  O   UNL A   1      47.802  21.782  36.437  1.00  0.00    -0.237 OA
ATOM     69  O   UNL A   1      45.521  22.569  36.873  1.00  0.00    -0.744 OA
ENDBRANCH  63  66
ENDBRANCH  36  59
ENDBRANCH  10  11
ENDBRANCH   3   5
ENDBRANCH   2   3
ENDBRANCH   1   2
BRANCH   1  70
ATOM     70  C   UNL A   1      33.210  34.040  28.136  1.00  0.00     0.275 C 
BRANCH  70  71
ATOM     71  O   UNL A   1      32.853  34.512  29.440  1.00  0.00    -0.456 OA
BRANCH  71  72
ATOM     72  C   UNL A   1      33.033  35.855  29.624  1.00  0.00     0.374 C 
ATOM     73  O   UNL A   1      32.811  36.708  28.772  1.00  0.00    -0.242 OA
BRANCH  72  74
ATOM     74  C   UNL A   1      33.445  36.109  30.976  1.00  0.00     0.211 A 
ATOM     75  C   UNL A   1      33.281  37.182  31.831  1.00  0.00     0.058 A 
ATOM     76  O   UNL A   1      34.168  35.138  31.608  1.00  0.00    -0.450 OA
ATOM     77  C   UNL A   1      33.932  36.843  33.047  1.00  0.00     0.050 A 
ATOM     78  C   UNL A   1      34.457  35.582  32.865  1.00  0.00     0.142 A 
BRANCH  78  79
ATOM     79  C   UNL A   1      35.171  34.630  33.758  1.00  0.00     0.304 C 
BRANCH  79  80
ATOM     80  O   UNL A   1      35.909  33.686  32.955  1.00  0.00    -0.484 OA
BRANCH  80  81
ATOM     81  C   UNL A   1      37.244  34.000  32.872  1.00  0.00     0.140 A 
ATOM     82  C   UNL A   1      37.981  34.160  34.052  1.00  0.00     0.048 A 
ATOM     83  C   UNL A   1      37.885  34.060  31.630  1.00  0.00     0.101 A 
ATOM     84  C   UNL A   1      39.333  34.478  34.005  1.00  0.00     0.005 A 
ATOM     85  C   UNL A   1      39.256  34.347  31.588  1.00  0.00     0.063 A 
ATOM     86  Cl  UNL A   1      36.975  33.770  30.184  1.00  0.00    -0.079 Cl
ATOM     87  C   UNL A   1      39.970  34.575  32.772  1.00  0.00     0.022 A 
ATOM     88  Cl  UNL A   1      40.146  34.416  30.106  1.00  0.00    -0.083 Cl
ENDBRANCH  80  81
ENDBRANCH  79  80
ENDBRANCH  78  79
ENDBRANCH  72  74
ENDBRANCH  71  72
ENDBRANCH  70  71
ENDBRANCH   1  70
TORSDOF 17
ENDMDL
MODEL 2
REMARK VINA RESULT:     -10.3      1.819      2.139
REMARK SMILES O=C(OCCOC(=O)c1ccc(COc2cccc(Cl)c2Cl)o1)c1ccc(-c2c3nc(c(-c4cccc(S(=O)(=O)[O-])c4F)c4ccc([nH]4)c(-c4cccc(S(=O)(=O)[O-])c4F)c4nc(c(-c5cccc(S(=O)(=O)[O-])c5F)c5ccc2[nH]5)C=C4)C=C3)cc1
REMARK SMILES IDX 4 1 3 2 2 3 1 4 24 5 25 6 86 7 26 8 85 9 27 10 28 11 29 12
REMARK SMILES IDX 79 13 30 14 84 15 78 16 80 17 31 18 83 19 77 20 76 21 32 23
REMARK SMILES IDX 64 24 44 25 63 26 45 27 48 28 62 29 81 30 46 31 47 32 61 34
REMARK SMILES IDX 82 35 49 36 33 37 34 38 42 39 35 40 37 41 43 42 36 43 38 44
REMARK SMILES IDX 39 45 40 46 41 47 65 48 66 49 74 50 67 51 69 52 75 53 68 54
REMARK SMILES IDX 70 55 71 56 72 57 73 58 50 59 51 60 59 61 52 62 54 63 60 64
REMARK SMILES IDX 53 65 55 66 56 67 57 68 58 69 5 70 6 71 7 72 8 73 9 74 10 75
REMARK SMILES IDX 23 76 11 77 12 78 13 79 14 80 15 81 16 82 21 83 17 84 19 85
REMARK SMILES IDX 22 86 18 87 20 88
REMARK H PARENT 80 22 48 33
REMARK Flexibility Score: inf
ROOT
ATOM      1  C   UNL A   1      34.340  32.841  28.027  1.00  0.00     0.275 C 
ENDROOT
BRANCH   1   2
ATOM      2  O   UNL A   1      33.797  31.537  27.756  1.00  0.00    -0.458 OA
BRANCH   2   3
ATOM      3  C   UNL A   1      34.465  30.387  27.491  1.00  0.00     0.338 C 
ATOM      4  O   UNL A   1      33.872  29.456  26.952  1.00  0.00    -0.246 OA
BRANCH   3   5
ATOM      5  C   UNL A   1      35.850  30.135  27.994  1.00  0.00     0.060 A 
ATOM      6  C   UNL A   1      37.027  30.402  27.291  1.00  0.00     0.016 A 
ATOM      7  C   UNL A   1      35.957  29.502  29.247  1.00  0.00     0.016 A 
ATOM      8  C   UNL A   1      38.276  30.077  27.829  1.00  0.00     0.010 A 
ATOM      9  C   UNL A   1      37.206  29.173  29.789  1.00  0.00     0.010 A 
ATOM     10  C   UNL A   1      38.374  29.443  29.070  1.00  0.00    -0.014 A 
BRANCH  10  11
ATOM     11  C   UNL A   1      39.689  28.925  29.517  1.00  0.00     0.031 A 
ATOM     12  C   UNL A   1      40.354  29.581  30.690  1.00  0.00     0.074 A 
ATOM     13  C   UNL A   1      40.257  27.859  28.924  1.00  0.00     0.049 A 
ATOM     14  N   UNL A   1      41.415  29.201  31.349  1.00  0.00    -0.248 NA
ATOM     15  C   UNL A   1      39.728  30.810  31.207  1.00  0.00     0.031 C 
ATOM     16  C   UNL A   1      39.690  27.122  27.802  1.00  0.00     0.029 A 
ATOM     17  N   UNL A   1      41.442  27.215  29.173  1.00  0.00    -0.354 N 
ATOM     18  C   UNL A   1      41.574  30.129  32.368  1.00  0.00     0.074 A 
ATOM     19  C   UNL A   1      40.530  31.118  32.215  1.00  0.00     0.031 C 
ATOM     20  C   UNL A   1      40.547  26.164  27.415  1.00  0.00     0.029 A 
ATOM     21  C   UNL A   1      41.710  26.191  28.295  1.00  0.00     0.049 A 
ATOM     22  H   UNL A   1      42.044  27.462  29.913  1.00  0.00     0.167 HD
ATOM     23  C   UNL A   1      42.483  30.134  33.370  1.00  0.00     0.034 A 
ATOM     24  C   UNL A   1      42.763  25.352  28.227  1.00  0.00     0.034 A 
ATOM     25  C   UNL A   1      43.521  29.154  33.510  1.00  0.00     0.049 A 
ATOM     26  C   UNL A   1      43.798  25.413  29.318  1.00  0.00     0.074 A 
ATOM     27  C   UNL A   1      44.479  29.046  34.501  1.00  0.00     0.029 A 
ATOM     28  N   UNL A   1      43.750  28.121  32.613  1.00  0.00    -0.354 N 
ATOM     29  N   UNL A   1      43.835  26.193  30.372  1.00  0.00    -0.248 NA
ATOM     30  C   UNL A   1      44.896  24.439  29.251  1.00  0.00     0.031 C 
ATOM     31  C   UNL A   1      45.302  27.956  34.190  1.00  0.00     0.029 A 
ATOM     32  C   UNL A   1      44.844  27.376  33.016  1.00  0.00     0.049 A 
ATOM     33  H   UNL A   1      43.213  27.944  31.807  1.00  0.00     0.167 HD
ATOM     34  C   UNL A   1      44.918  25.762  31.127  1.00  0.00     0.074 A 
ATOM     35  C   UNL A   1      45.515  24.656  30.405  1.00  0.00     0.031 C 
ATOM     36  C   UNL A   1      45.377  26.238  32.311  1.00  0.00     0.034 A 
BRANCH  23  37
ATOM     37  C   UNL A   1      42.350  31.222  34.398  1.00  0.00     0.023 A 
ATOM     38  C   UNL A   1      41.658  30.957  35.598  1.00  0.00     0.012 A 
ATOM     39  C   UNL A   1      42.878  32.506  34.171  1.00  0.00     0.148 A 
ATOM     40  C   UNL A   1      41.458  31.965  36.540  1.00  0.00     0.002 A 
ATOM     41  C   UNL A   1      42.705  33.496  35.131  1.00  0.00     0.091 A 
ATOM     42  F   UNL A   1      43.503  32.745  33.010  1.00  0.00    -0.205 F 
ATOM     43  C   UNL A   1      41.986  33.231  36.309  1.00  0.00     0.022 A 
BRANCH  41  44
ATOM     44  S   UNL A   1      43.390  35.144  34.940  1.00  0.00     0.127 S 
ATOM     45  O   UNL A   1      43.278  35.669  36.301  1.00  0.00    -0.237 OA
ATOM     46  O   UNL A   1      44.758  34.864  34.505  1.00  0.00    -0.237 OA
ATOM     47  O   UNL A   1      42.562  35.803  33.939  1.00  0.00    -0.744 OA
ENDBRANCH  41  44
ENDBRANCH  23  37
BRANCH  24  48
ATOM     48  C   UNL A   1      42.825  24.314  27.159  1.00  0.00     0.023 A 
ATOM     49  C   UNL A   1      43.554  24.572  25.982  1.00  0.00     0.012 A 
ATOM     50  C   UNL A   1      42.194  23.064  27.313  1.00  0.00     0.148 A 
ATOM     51  C   UNL A   1      43.628  23.617  24.966  1.00  0.00     0.002 A 
ATOM     52  C   UNL A   1      42.307  22.101  26.316  1.00  0.00     0.091 A 
ATOM     53  F   UNL A   1      41.496  22.839  28.437  1.00  0.00    -0.205 F 
ATOM     54  C   UNL A   1      43.013  22.380  25.135  1.00  0.00     0.022 A 
BRANCH  52  55
ATOM     55  S   UNL A   1      41.645  20.441  26.500  1.00  0.00     0.127 S 
ATOM     56  O   UNL A   1      42.341  19.721  25.437  1.00  0.00    -0.237 OA
ATOM     57  O   UNL A   1      42.066  20.094  27.858  1.00  0.00    -0.237 OA
ATOM     58  O   UNL A   1      40.203  20.578  26.339  1.00  0.00    -0.744 OA
ENDBRANCH  52  55
ENDBRANCH  24  48
BRANCH  36  59
ATOM     59  C   UNL A   1      46.554  25.538  32.934  1.00  0.00     0.023 A 
ATOM     60  C   UNL A   1      46.344  24.576  33.940  1.00  0.00     0.012 A 
ATOM     61  C   UNL A   1      47.857  25.769  32.453  1.00  0.00     0.148 A 
ATOM     62  C   UNL A   1      47.421  23.869  34.474  1.00  0.00     0.002 A 
ATOM     63  C   UNL A   1      48.918  25.028  32.957  1.00  0.00     0.091 A 
ATOM     64  F   UNL A   1      48.039  26.710  31.514  1.00  0.00    -0.205 F 
ATOM     65  C   UNL A   1      48.703  24.083  33.974  1.00  0.00     0.022 A 
BRANCH  63  66
ATOM     66  S   UNL A   1      50.579  25.176  32.289  1.00  0.00     0.127 S 
ATOM     67  O   UNL A   1      51.370  24.476  33.298  1.00  0.00    -0.237 OA
ATOM     68  O   UNL A   1      50.468  24.477  31.008  1.00  0.00    -0.237 OA
ATOM     69  O   UNL A   1      50.827  26.606  32.169  1.00  0.00    -0.744 OA
ENDBRANCH  63  66
ENDBRANCH  36  59
ENDBRANCH  10  11
ENDBRANCH   3   5
ENDBRANCH   2   3
ENDBRANCH   1   2
BRANCH   1  70
ATOM     70  C   UNL A   1      33.278  33.912  28.281  1.00  0.00     0.275 C 
BRANCH  70  71
ATOM     71  O   UNL A   1      33.271  34.379  29.634  1.00  0.00    -0.456 OA
BRANCH  71  72
ATOM     72  C   UNL A   1      32.963  35.705  29.773  1.00  0.00     0.374 C 
ATOM     73  O   UNL A   1      32.349  36.365  28.942  1.00  0.00    -0.242 OA
BRANCH  72  74
ATOM     74  C   UNL A   1      33.401  36.173  31.058  1.00  0.00     0.211 A 
ATOM     75  C   UNL A   1      33.284  37.382  31.716  1.00  0.00     0.058 A 
ATOM     76  O   UNL A   1      34.099  35.300  31.844  1.00  0.00    -0.450 OA
ATOM     77  C   UNL A   1      33.939  37.235  32.967  1.00  0.00     0.050 A 
ATOM     78  C   UNL A   1      34.418  35.944  33.002  1.00  0.00     0.142 A 
BRANCH  78  79
ATOM     79  C   UNL A   1      35.111  35.136  34.042  1.00  0.00     0.304 C 
BRANCH  79  80
ATOM     80  O   UNL A   1      36.467  34.881  33.622  1.00  0.00    -0.484 OA
BRANCH  80  81
ATOM     81  C   UNL A   1      36.981  33.732  34.175  1.00  0.00     0.140 A 
ATOM     82  C   UNL A   1      37.476  33.769  35.483  1.00  0.00     0.048 A 
ATOM     83  C   UNL A   1      36.919  32.520  33.480  1.00  0.00     0.101 A 
ATOM     84  C   UNL A   1      38.003  32.626  36.073  1.00  0.00     0.005 A 
ATOM     85  C   UNL A   1      37.420  31.363  34.092  1.00  0.00     0.063 A 
ATOM     86  Cl  UNL A   1      36.219  32.478  31.895  1.00  0.00    -0.079 Cl
ATOM     87  C   UNL A   1      37.978  31.422  35.375  1.00  0.00     0.022 A 
ATOM     88  Cl  UNL A   1      37.363  29.810  33.328  1.00  0.00    -0.083 Cl
ENDBRANCH  80  81
ENDBRANCH  79  80
ENDBRANCH  78  79
ENDBRANCH  72  74
ENDBRANCH  71  72
ENDBRANCH  70  71
ENDBRANCH   1  70
TORSDOF 17
ENDMDL
MODEL 3
REMARK VINA RESULT:     -10.1      4.988     12.311
REMARK SMILES O=C(OCCOC(=O)c1ccc(COc2cccc(Cl)c2Cl)o1)c1ccc(-c2c3nc(c(-c4cccc(S(=O)(=O)[O-])c4F)c4ccc([nH]4)c(-c4cccc(S(=O)(=O)[O-])c4F)c4nc(c(-c5cccc(S(=O)(=O)[O-])c5F)c5ccc2[nH]5)C=C4)C=C3)cc1
REMARK SMILES IDX 4 1 3 2 2 3 1 4 24 5 25 6 86 7 26 8 85 9 27 10 28 11 29 12
REMARK SMILES IDX 79 13 30 14 84 15 78 16 80 17 31 18 83 19 77 20 76 21 32 23
REMARK SMILES IDX 64 24 44 25 63 26 45 27 48 28 62 29 81 30 46 31 47 32 61 34
REMARK SMILES IDX 82 35 49 36 33 37 34 38 42 39 35 40 37 41 43 42 36 43 38 44
REMARK SMILES IDX 39 45 40 46 41 47 65 48 66 49 74 50 67 51 69 52 75 53 68 54
REMARK SMILES IDX 70 55 71 56 72 57 73 58 50 59 51 60 59 61 52 62 54 63 60 64
REMARK SMILES IDX 53 65 55 66 56 67 57 68 58 69 5 70 6 71 7 72 8 73 9 74 10 75
REMARK SMILES IDX 23 76 11 77 12 78 13 79 14 80 15 81 16 82 21 83 17 84 19 85
REMARK SMILES IDX 22 86 18 87 20 88
REMARK H PARENT 80 22 48 33
REMARK Flexibility Score: inf
ROOT
ATOM      1  C   UNL A   1      41.242  19.612  26.126  1.00  0.00     0.275 C 
ENDROOT
BRANCH   1   2
ATOM      2  O   UNL A   1      40.323  20.415  26.888  1.00  0.00    -0.458 OA
BRANCH   2   3
ATOM      3  C   UNL A   1      39.605  21.488  26.475  1.00  0.00     0.338 C 
ATOM      4  O   UNL A   1      38.772  21.347  25.581  1.00  0.00    -0.246 OA
BRANCH   3   5
ATOM      5  C   UNL A   1      39.909  22.878  26.932  1.00  0.00     0.060 A 
ATOM      6  C   UNL A   1      39.385  24.046  26.374  1.00  0.00     0.016 A 
ATOM      7  C   UNL A   1      40.865  23.005  27.958  1.00  0.00     0.016 A 
ATOM      8  C   UNL A   1      39.778  25.305  26.841  1.00  0.00     0.010 A 
ATOM      9  C   UNL A   1      41.262  24.263  28.427  1.00  0.00     0.010 A 
ATOM     10  C   UNL A   1      40.732  25.424  27.854  1.00  0.00    -0.014 A 
BRANCH  10  11
ATOM     11  C   UNL A   1      41.278  26.761  28.181  1.00  0.00     0.031 A 
ATOM     12  C   UNL A   1      42.624  27.136  27.637  1.00  0.00     0.074 A 
ATOM     13  C   UNL A   1      40.570  27.646  28.907  1.00  0.00     0.049 A 
ATOM     14  N   UNL A   1      43.223  28.297  27.658  1.00  0.00    -0.248 NA
ATOM     15  C   UNL A   1      43.385  26.076  26.954  1.00  0.00     0.031 C 
ATOM     16  C   UNL A   1      39.241  27.406  29.458  1.00  0.00     0.029 A 
ATOM     17  N   UNL A   1      40.868  28.921  29.315  1.00  0.00    -0.354 N 
ATOM     18  C   UNL A   1      44.418  28.113  26.978  1.00  0.00     0.074 A 
ATOM     19  C   UNL A   1      44.485  26.720  26.597  1.00  0.00     0.031 C 
ATOM     20  C   UNL A   1      38.858  28.468  30.183  1.00  0.00     0.029 A 
ATOM     21  C   UNL A   1      39.900  29.487  30.111  1.00  0.00     0.049 A 
ATOM     22  H   UNL A   1      41.698  29.387  29.061  1.00  0.00     0.167 HD
ATOM     23  C   UNL A   1      45.359  29.032  26.662  1.00  0.00     0.034 A 
ATOM     24  C   UNL A   1      39.848  30.703  30.693  1.00  0.00     0.034 A 
ATOM     25  C   UNL A   1      45.290  30.411  27.052  1.00  0.00     0.049 A 
ATOM     26  C   UNL A   1      40.937  31.693  30.377  1.00  0.00     0.074 A 
ATOM     27  C   UNL A   1      46.172  31.436  26.764  1.00  0.00     0.029 A 
ATOM     28  N   UNL A   1      44.286  30.953  27.842  1.00  0.00    -0.354 N 
ATOM     29  N   UNL A   1      41.975  31.549  29.589  1.00  0.00    -0.248 NA
ATOM     30  C   UNL A   1      40.815  33.031  30.973  1.00  0.00     0.031 C 
ATOM     31  C   UNL A   1      45.709  32.595  27.397  1.00  0.00     0.029 A 
ATOM     32  C   UNL A   1      44.530  32.296  28.065  1.00  0.00     0.049 A 
ATOM     33  H   UNL A   1      43.512  30.455  28.191  1.00  0.00     0.167 HD
ATOM     34  C   UNL A   1      42.593  32.792  29.539  1.00  0.00     0.074 A 
ATOM     35  C   UNL A   1      41.814  33.677  30.384  1.00  0.00     0.031 C 
ATOM     36  C   UNL A   1      43.701  33.169  28.857  1.00  0.00     0.034 A 
BRANCH  23  37
ATOM     37  C   UNL A   1      46.512  28.558  25.824  1.00  0.00     0.023 A 
ATOM     38  C   UNL A   1      46.274  28.132  24.500  1.00  0.00     0.012 A 
ATOM     39  C   UNL A   1      47.817  28.505  26.345  1.00  0.00     0.148 A 
ATOM     40  C   UNL A   1      47.311  27.622  23.721  1.00  0.00     0.002 A 
ATOM     41  C   UNL A   1      48.852  28.028  25.550  1.00  0.00     0.091 A 
ATOM     42  F   UNL A   1      48.015  28.884  27.615  1.00  0.00    -0.205 F 
ATOM     43  C   UNL A   1      48.600  27.576  24.243  1.00  0.00     0.022 A 
BRANCH  41  44
ATOM     44  S   UNL A   1      50.553  27.974  26.123  1.00  0.00     0.127 S 
ATOM     45  O   UNL A   1      51.183  27.141  25.099  1.00  0.00    -0.237 OA
ATOM     46  O   UNL A   1      50.939  29.385  26.084  1.00  0.00    -0.237 OA
ATOM     47  O   UNL A   1      50.502  27.401  27.460  1.00  0.00    -0.744 OA
ENDBRANCH  41  44
ENDBRANCH  23  37
BRANCH  24  48
ATOM     48  C   UNL A   1      38.674  31.083  31.528  1.00  0.00     0.023 A 
ATOM     49  C   UNL A   1      38.734  30.917  32.926  1.00  0.00     0.012 A 
ATOM     50  C   UNL A   1      37.513  31.636  30.953  1.00  0.00     0.148 A 
ATOM     51  C   UNL A   1      37.649  31.265  33.732  1.00  0.00     0.002 A 
ATOM     52  C   UNL A   1      36.452  32.021  31.766  1.00  0.00     0.091 A 
ATOM     53  F   UNL A   1      37.471  31.779  29.620  1.00  0.00    -0.205 F 
ATOM     54  C   UNL A   1      36.512  31.824  33.154  1.00  0.00     0.022 A 
BRANCH  52  55
ATOM     55  S   UNL A   1      34.997  32.855  31.120  1.00  0.00     0.127 S 
ATOM     56  O   UNL A   1      34.722  32.084  29.911  1.00  0.00    -0.237 OA
ATOM     57  O   UNL A   1      34.033  32.669  32.205  1.00  0.00    -0.237 OA
ATOM     58  O   UNL A   1      35.403  34.240  30.914  1.00  0.00    -0.744 OA
ENDBRANCH  52  55
ENDBRANCH  24  48
BRANCH  36  59
ATOM     59  C   UNL A   1      44.120  34.611  28.948  1.00  0.00     0.023 A 
ATOM     60  C   UNL A   1      43.655  35.537  27.995  1.00  0.00     0.012 A 
ATOM     61  C   UNL A   1      44.896  35.060  30.034  1.00  0.00     0.148 A 
ATOM     62  C   UNL A   1      43.977  36.889  28.110  1.00  0.00     0.002 A 
ATOM     63  C   UNL A   1      45.174  36.415  30.167  1.00  0.00     0.091 A 
ATOM     64  F   UNL A   1      45.353  34.158  30.915  1.00  0.00    -0.205 F 
ATOM     65  C   UNL A   1      44.722  37.329  29.202  1.00  0.00     0.022 A 
BRANCH  63  66
ATOM     66  S   UNL A   1      46.038  37.068  31.600  1.00  0.00     0.127 S 
ATOM     67  O   UNL A   1      46.095  38.494  31.290  1.00  0.00    -0.237 OA
ATOM     68  O   UNL A   1      45.138  36.717  32.699  1.00  0.00    -0.237 OA
ATOM     69  O   UNL A   1      47.320  36.376  31.633  1.00  0.00    -0.744 OA
ENDBRANCH  63  66
ENDBRANCH  36  59
ENDBRANCH  10  11
ENDBRANCH   3   5
ENDBRANCH   2   3
ENDBRANCH   1   2
BRANCH   1  70
ATOM     70  C   UNL A   1      42.685  20.116  26.169  1.00  0.00     0.275 C 
BRANCH  70  71
ATOM     71  O   UNL A   1      43.457  19.688  25.041  1.00  0.00    -0.456 OA
BRANCH  71  72
ATOM     72  C   UNL A   1      44.797  19.944  25.145  1.00  0.00     0.374 C 
ATOM     73  O   UNL A   1      45.645  19.102  25.422  1.00  0.00    -0.242 OA
BRANCH  72  74
ATOM     74  C   UNL A   1      45.057  21.316  24.810  1.00  0.00     0.211 A 
ATOM     75  C   UNL A   1      44.610  22.145  23.799  1.00  0.00     0.058 A 
ATOM     76  O   UNL A   1      45.930  22.005  25.602  1.00  0.00    -0.450 OA
ATOM     77  C   UNL A   1      45.240  23.404  23.990  1.00  0.00     0.050 A 
ATOM     78  C   UNL A   1      46.034  23.271  25.108  1.00  0.00     0.142 A 
BRANCH  78  79
ATOM     79  C   UNL A   1      46.877  24.220  25.885  1.00  0.00     0.304 C 
BRANCH  79  80
ATOM     80  O   UNL A   1      47.157  23.656  27.182  1.00  0.00    -0.484 OA
BRANCH  80  81
ATOM     81  C   UNL A   1      46.863  24.524  28.206  1.00  0.00     0.140 A 
ATOM     82  C   UNL A   1      47.718  25.605  28.449  1.00  0.00     0.048 A 
ATOM     83  C   UNL A   1      45.675  24.391  28.933  1.00  0.00     0.101 A 
ATOM     84  C   UNL A   1      47.452  26.502  29.477  1.00  0.00     0.005 A 
ATOM     85  C   UNL A   1      45.393  25.317  29.945  1.00  0.00     0.063 A 
ATOM     86  Cl  UNL A   1      44.584  23.097  28.556  1.00  0.00    -0.079 Cl
ATOM     87  C   UNL A   1      46.289  26.356  30.228  1.00  0.00     0.022 A 
ATOM     88  Cl  UNL A   1      43.937  25.256  30.880  1.00  0.00    -0.083 Cl
ENDBRANCH  80  81
ENDBRANCH  79  80
ENDBRANCH  78  79
ENDBRANCH  72  74
ENDBRANCH  71  72
ENDBRANCH  70  71
ENDBRANCH   1  70
TORSDOF 17
ENDMDL
