MODEL 1
REMARK VINA RESULT:     -10.4      0.000      0.000
REMARK SMILES C=CCN(CC(=O)OCCOC(=O)c1ccc(-c2c3nc(c(-c4cccc(S(=O)(=O)[O-])c4F)c4ccc([nH]4)c(-c4cccc(S(=O)(=O)[O-])c4F)c4nc(c(-c5cccc(S(=O)(=O)[O-])c5F)c5ccc2[nH]5)C=C4)C=C3)cc1)S(=O)(=O)c1ccccc1OC
REMARK SMILES IDX 9 1 8 2 6 3 7 4 5 5 4 6 3 7 2 8 1 9 77 10 78 11 79 12 80 13
REMARK SMILES IDX 81 14 85 15 82 16 84 17 83 18 86 19 87 20 10 21 11 22 12 23
REMARK SMILES IDX 13 24 14 25 15 26 76 27 16 28 75 29 17 30 18 31 19 32 69 33
REMARK SMILES IDX 20 34 74 35 68 36 70 37 21 38 73 39 67 40 66 41 22 43 54 44
REMARK SMILES IDX 34 45 53 46 35 47 38 48 52 49 71 50 36 51 37 52 51 54 72 55
REMARK SMILES IDX 39 56 23 57 24 58 32 59 25 60 27 61 33 62 26 63 28 64 29 65
REMARK SMILES IDX 30 66 31 67 55 68 56 69 64 70 57 71 59 72 65 73 58 74 60 75
REMARK SMILES IDX 61 76 62 77 63 78 40 79 41 80 49 81 42 82 44 83 50 84 43 85
REMARK SMILES IDX 45 86 46 87 47 88 48 89
REMARK H PARENT 70 42 38 53
REMARK Flexibility Score: inf
ROOT
ATOM      1  C   UNL A   1      31.399  28.993  25.113  1.00  0.00     0.274 C 
ENDROOT
BRANCH   1   2
ATOM      2  O   UNL A   1      32.004  27.962  25.932  1.00  0.00    -0.461 OA
BRANCH   2   3
ATOM      3  C   UNL A   1      31.218  26.905  26.277  1.00  0.00     0.321 C 
ATOM      4  O   UNL A   1      30.682  26.787  27.377  1.00  0.00    -0.251 OA
BRANCH   3   5
ATOM      5  C   UNL A   1      30.998  25.896  25.160  1.00  0.00     0.225 C 
BRANCH   5   6
ATOM      6  N   UNL A   1      31.802  24.647  24.985  1.00  0.00    -0.183 NA
BRANCH   6   7
ATOM      7  C   UNL A   1      31.924  24.250  23.571  1.00  0.00     0.130 C 
BRANCH   7   8
ATOM      8  C   UNL A   1      32.220  25.447  22.726  1.00  0.00    -0.018 C 
ATOM      9  C   UNL A   1      33.411  25.661  22.150  1.00  0.00     0.005 C 
ENDBRANCH   7   8
ENDBRANCH   6   7
BRANCH   6  10
ATOM     10  S   UNL A   1      31.523  23.352  26.074  1.00  0.00     0.247 S 
ATOM     11  O   UNL A   1      31.844  23.791  27.417  1.00  0.00    -0.207 OA
ATOM     12  O   UNL A   1      30.190  22.831  25.855  1.00  0.00    -0.207 OA
BRANCH  10  13
ATOM     13  C   UNL A   1      32.659  22.069  25.581  1.00  0.00     0.124 A 
ATOM     14  C   UNL A   1      32.166  20.898  24.990  1.00  0.00     0.026 A 
ATOM     15  C   UNL A   1      34.041  22.250  25.692  1.00  0.00     0.138 A 
ATOM     16  C   UNL A   1      33.049  19.910  24.546  1.00  0.00     0.002 A 
ATOM     17  C   UNL A   1      34.921  21.264  25.225  1.00  0.00     0.048 A 
ATOM     18  C   UNL A   1      34.424  20.097  24.648  1.00  0.00     0.004 A 
BRANCH  15  19
ATOM     19  O   UNL A   1      34.584  23.321  26.346  1.00  0.00    -0.495 OA
ATOM     20  C   UNL A   1      35.959  23.502  25.997  1.00  0.00     0.278 C 
ENDBRANCH  15  19
ENDBRANCH  10  13
ENDBRANCH   6  10
ENDBRANCH   5   6
ENDBRANCH   3   5
ENDBRANCH   2   3
ENDBRANCH   1   2
BRANCH   1  21
ATOM     21  C   UNL A   1      31.725  30.393  25.679  1.00  0.00     0.275 C 
BRANCH  21  22
ATOM     22  O   UNL A   1      32.304  30.383  27.009  1.00  0.00    -0.458 OA
BRANCH  22  23
ATOM     23  C   UNL A   1      33.122  31.419  27.246  1.00  0.00     0.338 C 
ATOM     24  O   UNL A   1      32.807  32.601  27.281  1.00  0.00    -0.246 OA
BRANCH  23  25
ATOM     25  C   UNL A   1      34.508  31.135  27.564  1.00  0.00     0.060 A 
ATOM     26  C   UNL A   1      34.746  29.801  27.920  1.00  0.00     0.016 A 
ATOM     27  C   UNL A   1      35.412  32.147  27.885  1.00  0.00     0.016 A 
ATOM     28  C   UNL A   1      35.853  29.487  28.680  1.00  0.00     0.010 A 
ATOM     29  C   UNL A   1      36.571  31.809  28.587  1.00  0.00     0.010 A 
ATOM     30  C   UNL A   1      36.784  30.484  29.010  1.00  0.00    -0.014 A 
BRANCH  30  31
ATOM     31  C   UNL A   1      38.006  30.088  29.742  1.00  0.00     0.031 A 
ATOM     32  C   UNL A   1      39.004  29.136  29.153  1.00  0.00     0.074 A 
ATOM     33  C   UNL A   1      38.214  30.650  30.947  1.00  0.00     0.049 A 
ATOM     34  N   UNL A   1      40.107  28.679  29.687  1.00  0.00    -0.248 NA
ATOM     35  C   UNL A   1      38.757  28.649  27.785  1.00  0.00     0.031 C 
ATOM     36  C   UNL A   1      37.317  31.620  31.585  1.00  0.00     0.029 A 
ATOM     37  N   UNL A   1      39.226  30.486  31.855  1.00  0.00    -0.354 N 
ATOM     38  C   UNL A   1      40.679  27.847  28.733  1.00  0.00     0.074 A 
ATOM     39  C   UNL A   1      39.812  27.869  27.577  1.00  0.00     0.031 C 
ATOM     40  C   UNL A   1      37.816  31.964  32.777  1.00  0.00     0.029 A 
ATOM     41  C   UNL A   1      39.011  31.170  33.027  1.00  0.00     0.049 A 
ATOM     42  H   UNL A   1      40.024  29.936  31.685  1.00  0.00     0.167 HD
ATOM     43  C   UNL A   1      41.826  27.135  28.824  1.00  0.00     0.034 A 
ATOM     44  C   UNL A   1      39.661  31.115  34.204  1.00  0.00     0.034 A 
ATOM     45  C   UNL A   1      42.663  27.107  29.994  1.00  0.00     0.049 A 
ATOM     46  C   UNL A   1      40.858  30.223  34.316  1.00  0.00     0.074 A 
ATOM     47  C   UNL A   1      43.842  26.410  30.191  1.00  0.00     0.029 A 
ATOM     48  N   UNL A   1      42.398  27.786  31.173  1.00  0.00    -0.354 N 
ATOM     49  N   UNL A   1      41.420  29.491  33.385  1.00  0.00    -0.248 NA
ATOM     50  C   UNL A   1      41.513  30.152  35.626  1.00  0.00     0.031 C 
ATOM     51  C   UNL A   1      44.277  26.650  31.499  1.00  0.00     0.029 A 
ATOM     52  C   UNL A   1      43.378  27.510  32.110  1.00  0.00     0.049 A 
ATOM     53  H   UNL A   1      41.627  28.379  31.322  1.00  0.00     0.167 HD
ATOM     54  C   UNL A   1      42.513  28.885  33.990  1.00  0.00     0.074 A 
ATOM     55  C   UNL A   1      42.537  29.349  35.364  1.00  0.00     0.031 C 
ATOM     56  C   UNL A   1      43.404  28.015  33.458  1.00  0.00     0.034 A 
BRANCH  43  57
ATOM     57  C   UNL A   1      42.258  26.331  27.628  1.00  0.00     0.023 A 
ATOM     58  C   UNL A   1      43.105  26.920  26.670  1.00  0.00     0.012 A 
ATOM     59  C   UNL A   1      41.905  24.974  27.501  1.00  0.00     0.148 A 
ATOM     60  C   UNL A   1      43.593  26.170  25.599  1.00  0.00     0.002 A 
ATOM     61  C   UNL A   1      42.416  24.225  26.445  1.00  0.00     0.091 A 
ATOM     62  F   UNL A   1      41.074  24.442  28.409  1.00  0.00    -0.205 F 
ATOM     63  C   UNL A   1      43.258  24.822  25.493  1.00  0.00     0.022 A 
BRANCH  61  64
ATOM     64  S   UNL A   1      42.085  22.468  26.264  1.00  0.00     0.127 S 
ATOM     65  O   UNL A   1      40.625  22.450  26.187  1.00  0.00    -0.237 OA
ATOM     66  O   UNL A   1      42.766  22.150  25.009  1.00  0.00    -0.237 OA
ATOM     67  O   UNL A   1      42.662  21.833  27.440  1.00  0.00    -0.744 OA
ENDBRANCH  61  64
ENDBRANCH  43  57
BRANCH  44  68
ATOM     68  C   UNL A   1      39.153  31.924  35.344  1.00  0.00     0.023 A 
ATOM     69  C   UNL A   1      38.316  31.330  36.304  1.00  0.00     0.012 A 
ATOM     70  C   UNL A   1      39.601  33.246  35.544  1.00  0.00     0.148 A 
ATOM     71  C   UNL A   1      37.938  32.040  37.447  1.00  0.00     0.002 A 
ATOM     72  C   UNL A   1      39.280  33.919  36.716  1.00  0.00     0.091 A 
ATOM     73  F   UNL A   1      40.376  33.808  34.604  1.00  0.00    -0.205 F 
ATOM     74  C   UNL A   1      38.437  33.323  37.663  1.00  0.00     0.022 A 
BRANCH  72  75
ATOM     75  S   UNL A   1      40.050  35.489  37.130  1.00  0.00     0.127 S 
ATOM     76  O   UNL A   1      39.489  35.763  38.449  1.00  0.00    -0.237 OA
ATOM     77  O   UNL A   1      41.475  35.151  37.125  1.00  0.00    -0.237 OA
ATOM     78  O   UNL A   1      39.657  36.397  36.060  1.00  0.00    -0.744 OA
ENDBRANCH  72  75
ENDBRANCH  44  68
BRANCH  56  79
ATOM     79  C   UNL A   1      44.499  27.522  34.360  1.00  0.00     0.023 A 
ATOM     80  C   UNL A   1      45.699  28.252  34.458  1.00  0.00     0.012 A 
ATOM     81  C   UNL A   1      44.307  26.383  35.163  1.00  0.00     0.148 A 
ATOM     82  C   UNL A   1      46.703  27.842  35.333  1.00  0.00     0.002 A 
ATOM     83  C   UNL A   1      45.296  26.004  36.062  1.00  0.00     0.091 A 
ATOM     84  F   UNL A   1      43.166  25.692  35.032  1.00  0.00    -0.205 F 
ATOM     85  C   UNL A   1      46.496  26.727  36.143  1.00  0.00     0.022 A 
BRANCH  83  86
ATOM     86  S   UNL A   1      45.078  24.631  37.200  1.00  0.00     0.127 S 
ATOM     87  O   UNL A   1      44.914  23.507  36.280  1.00  0.00    -0.237 OA
ATOM     88  O   UNL A   1      46.340  24.636  37.940  1.00  0.00    -0.237 OA
ATOM     89  O   UNL A   1      43.907  24.962  38.002  1.00  0.00    -0.744 OA
ENDBRANCH  83  86
ENDBRANCH  56  79
ENDBRANCH  30  31
ENDBRANCH  23  25
ENDBRANCH  22  23
ENDBRANCH  21  22
ENDBRANCH   1  21
TORSDOF 20
ENDMDL
MODEL 2
REMARK VINA RESULT:     -10.4      4.845     10.051
REMARK SMILES C=CCN(CC(=O)OCCOC(=O)c1ccc(-c2c3nc(c(-c4cccc(S(=O)(=O)[O-])c4F)c4ccc([nH]4)c(-c4cccc(S(=O)(=O)[O-])c4F)c4nc(c(-c5cccc(S(=O)(=O)[O-])c5F)c5ccc2[nH]5)C=C4)C=C3)cc1)S(=O)(=O)c1ccccc1OC
REMARK SMILES IDX 9 1 8 2 6 3 7 4 5 5 4 6 3 7 2 8 1 9 77 10 78 11 79 12 80 13
REMARK SMILES IDX 81 14 85 15 82 16 84 17 83 18 86 19 87 20 10 21 11 22 12 23
REMARK SMILES IDX 13 24 14 25 15 26 76 27 16 28 75 29 17 30 18 31 19 32 69 33
REMARK SMILES IDX 20 34 74 35 68 36 70 37 21 38 73 39 67 40 66 41 22 43 54 44
REMARK SMILES IDX 34 45 53 46 35 47 38 48 52 49 71 50 36 51 37 52 51 54 72 55
REMARK SMILES IDX 39 56 23 57 24 58 32 59 25 60 27 61 33 62 26 63 28 64 29 65
REMARK SMILES IDX 30 66 31 67 55 68 56 69 64 70 57 71 59 72 65 73 58 74 60 75
REMARK SMILES IDX 61 76 62 77 63 78 40 79 41 80 49 81 42 82 44 83 50 84 43 85
REMARK SMILES IDX 45 86 46 87 47 88 48 89
REMARK H PARENT 70 42 38 53
REMARK Flexibility Score: inf
ROOT
ATOM      1  C   UNL A   1      35.736  21.270  25.948  1.00  0.00     0.274 C 
ENDROOT
BRANCH   1   2
ATOM      2  O   UNL A   1      34.682  21.977  25.251  1.00  0.00    -0.461 OA
BRANCH   2   3
ATOM      3  C   UNL A   1      34.633  23.330  25.411  1.00  0.00     0.321 C 
ATOM      4  O   UNL A   1      35.604  24.067  25.261  1.00  0.00    -0.251 OA
BRANCH   3   5
ATOM      5  C   UNL A   1      33.248  23.873  25.734  1.00  0.00     0.225 C 
BRANCH   5   6
ATOM      6  N   UNL A   1      32.640  25.068  25.074  1.00  0.00    -0.183 NA
BRANCH   6   7
ATOM      7  C   UNL A   1      32.042  26.002  26.044  1.00  0.00     0.130 C 
BRANCH   7   8
ATOM      8  C   UNL A   1      32.977  27.139  26.305  1.00  0.00    -0.018 C 
ATOM      9  C   UNL A   1      32.612  28.425  26.210  1.00  0.00     0.005 C 
ENDBRANCH   7   8
ENDBRANCH   6   7
BRANCH   6  10
ATOM     10  S   UNL A   1      31.714  24.818  23.652  1.00  0.00     0.247 S 
ATOM     11  O   UNL A   1      32.603  24.433  22.575  1.00  0.00    -0.207 OA
ATOM     12  O   UNL A   1      30.621  23.918  23.954  1.00  0.00    -0.207 OA
BRANCH  10  13
ATOM     13  C   UNL A   1      30.983  26.402  23.281  1.00  0.00     0.124 A 
ATOM     14  C   UNL A   1      29.644  26.641  23.615  1.00  0.00     0.026 A 
ATOM     15  C   UNL A   1      31.751  27.441  22.745  1.00  0.00     0.138 A 
ATOM     16  C   UNL A   1      29.076  27.897  23.383  1.00  0.00     0.002 A 
ATOM     17  C   UNL A   1      31.181  28.704  22.535  1.00  0.00     0.048 A 
ATOM     18  C   UNL A   1      29.844  28.931  22.859  1.00  0.00     0.004 A 
BRANCH  15  19
ATOM     19  O   UNL A   1      33.032  27.247  22.307  1.00  0.00    -0.495 OA
ATOM     20  C   UNL A   1      33.845  28.397  22.552  1.00  0.00     0.278 C 
ENDBRANCH  15  19
ENDBRANCH  10  13
ENDBRANCH   6  10
ENDBRANCH   5   6
ENDBRANCH   3   5
ENDBRANCH   2   3
ENDBRANCH   1   2
BRANCH   1  21
ATOM     21  C   UNL A   1      36.748  20.679  24.940  1.00  0.00     0.275 C 
BRANCH  21  22
ATOM     22  O   UNL A   1      37.974  21.441  24.804  1.00  0.00    -0.458 OA
BRANCH  22  23
ATOM     23  C   UNL A   1      38.859  21.216  25.785  1.00  0.00     0.338 C 
ATOM     24  O   UNL A   1      39.384  20.144  26.059  1.00  0.00    -0.246 OA
BRANCH  23  25
ATOM     25  C   UNL A   1      39.309  22.348  26.572  1.00  0.00     0.060 A 
ATOM     26  C   UNL A   1      38.864  23.585  26.090  1.00  0.00     0.016 A 
ATOM     27  C   UNL A   1      40.391  22.253  27.446  1.00  0.00     0.016 A 
ATOM     28  C   UNL A   1      39.558  24.732  26.415  1.00  0.00     0.010 A 
ATOM     29  C   UNL A   1      41.042  23.427  27.833  1.00  0.00     0.010 A 
ATOM     30  C   UNL A   1      40.645  24.667  27.299  1.00  0.00    -0.014 A 
BRANCH  30  31
ATOM     31  C   UNL A   1      41.302  25.930  27.698  1.00  0.00     0.031 A 
ATOM     32  C   UNL A   1      40.569  26.993  28.462  1.00  0.00     0.074 A 
ATOM     33  C   UNL A   1      42.603  26.077  27.384  1.00  0.00     0.049 A 
ATOM     34  N   UNL A   1      41.007  28.160  28.857  1.00  0.00    -0.248 NA
ATOM     35  C   UNL A   1      39.180  26.710  28.860  1.00  0.00     0.031 C 
ATOM     36  C   UNL A   1      43.411  25.078  26.677  1.00  0.00     0.029 A 
ATOM     37  N   UNL A   1      43.471  27.112  27.604  1.00  0.00    -0.354 N 
ATOM     38  C   UNL A   1      39.953  28.755  29.537  1.00  0.00     0.074 A 
ATOM     39  C   UNL A   1      38.853  27.818  29.517  1.00  0.00     0.031 C 
ATOM     40  C   UNL A   1      44.654  25.548  26.519  1.00  0.00     0.029 A 
ATOM     41  C   UNL A   1      44.703  26.911  27.027  1.00  0.00     0.049 A 
ATOM     42  H   UNL A   1      43.239  27.916  28.121  1.00  0.00     0.167 HD
ATOM     43  C   UNL A   1      39.917  29.974  30.123  1.00  0.00     0.034 A 
ATOM     44  C   UNL A   1      45.738  27.754  26.859  1.00  0.00     0.034 A 
ATOM     45  C   UNL A   1      41.015  30.904  30.111  1.00  0.00     0.049 A 
ATOM     46  C   UNL A   1      45.625  29.141  27.410  1.00  0.00     0.074 A 
ATOM     47  C   UNL A   1      41.077  32.168  30.668  1.00  0.00     0.029 A 
ATOM     48  N   UNL A   1      42.235  30.680  29.490  1.00  0.00    -0.354 N 
ATOM     49  N   UNL A   1      44.644  29.666  28.104  1.00  0.00    -0.248 NA
ATOM     50  C   UNL A   1      46.752  30.046  27.167  1.00  0.00     0.031 C 
ATOM     51  C   UNL A   1      42.327  32.719  30.363  1.00  0.00     0.029 A 
ATOM     52  C   UNL A   1      43.049  31.789  29.632  1.00  0.00     0.049 A 
ATOM     53  H   UNL A   1      42.485  29.852  29.019  1.00  0.00     0.167 HD
ATOM     54  C   UNL A   1      45.044  30.961  28.402  1.00  0.00     0.074 A 
ATOM     55  C   UNL A   1      46.363  31.133  27.822  1.00  0.00     0.031 C 
ATOM     56  C   UNL A   1      44.374  31.922  29.081  1.00  0.00     0.034 A 
BRANCH  43  57
ATOM     57  C   UNL A   1      38.657  30.381  30.839  1.00  0.00     0.023 A 
ATOM     58  C   UNL A   1      38.538  30.135  32.220  1.00  0.00     0.012 A 
ATOM     59  C   UNL A   1      37.638  31.084  30.169  1.00  0.00     0.148 A 
ATOM     60  C   UNL A   1      37.419  30.581  32.925  1.00  0.00     0.002 A 
ATOM     61  C   UNL A   1      36.538  31.549  30.883  1.00  0.00     0.091 A 
ATOM     62  F   UNL A   1      37.759  31.281  28.848  1.00  0.00    -0.205 F 
ATOM     63  C   UNL A   1      36.427  31.297  32.260  1.00  0.00     0.022 A 
BRANCH  61  64
ATOM     64  S   UNL A   1      35.241  32.531  30.120  1.00  0.00     0.127 S 
ATOM     65  O   UNL A   1      34.307  32.701  31.232  1.00  0.00    -0.237 OA
ATOM     66  O   UNL A   1      35.956  33.747  29.733  1.00  0.00    -0.237 OA
ATOM     67  O   UNL A   1      34.750  31.739  29.001  1.00  0.00    -0.744 OA
ENDBRANCH  61  64
ENDBRANCH  43  57
BRANCH  44  68
ATOM     68  C   UNL A   1      46.937  27.280  26.117  1.00  0.00     0.023 A 
ATOM     69  C   UNL A   1      47.107  27.628  24.767  1.00  0.00     0.012 A 
ATOM     70  C   UNL A   1      47.970  26.590  26.786  1.00  0.00     0.148 A 
ATOM     71  C   UNL A   1      48.288  27.300  24.096  1.00  0.00     0.002 A 
ATOM     72  C   UNL A   1      49.168  26.332  26.134  1.00  0.00     0.091 A 
ATOM     73  F   UNL A   1      47.780  26.240  28.068  1.00  0.00    -0.205 F 
ATOM     74  C   UNL A   1      49.325  26.674  24.784  1.00  0.00     0.022 A 
BRANCH  72  75
ATOM     75  S   UNL A   1      50.598  25.705  27.026  1.00  0.00     0.127 S 
ATOM     76  O   UNL A   1      50.130  24.395  27.467  1.00  0.00    -0.237 OA
ATOM     77  O   UNL A   1      51.628  25.673  25.984  1.00  0.00    -0.237 OA
ATOM     78  O   UNL A   1      50.850  26.687  28.073  1.00  0.00    -0.744 OA
ENDBRANCH  72  75
ENDBRANCH  44  68
BRANCH  56  79
ATOM     79  C   UNL A   1      45.065  33.244  29.256  1.00  0.00     0.023 A 
ATOM     80  C   UNL A   1      45.958  33.423  30.330  1.00  0.00     0.012 A 
ATOM     81  C   UNL A   1      44.887  34.275  28.316  1.00  0.00     0.148 A 
ATOM     82  C   UNL A   1      46.653  34.622  30.475  1.00  0.00     0.002 A 
ATOM     83  C   UNL A   1      45.613  35.452  28.444  1.00  0.00     0.091 A 
ATOM     84  F   UNL A   1      44.012  34.088  27.318  1.00  0.00    -0.205 F 
ATOM     85  C   UNL A   1      46.490  35.630  29.526  1.00  0.00     0.022 A 
BRANCH  83  86
ATOM     86  S   UNL A   1      45.526  36.767  27.224  1.00  0.00     0.127 S 
ATOM     87  O   UNL A   1      46.297  36.199  26.120  1.00  0.00    -0.237 OA
ATOM     88  O   UNL A   1      44.088  36.868  26.977  1.00  0.00    -0.237 OA
ATOM     89  O   UNL A   1      46.112  37.940  27.861  1.00  0.00    -0.744 OA
ENDBRANCH  83  86
ENDBRANCH  56  79
ENDBRANCH  30  31
ENDBRANCH  23  25
ENDBRANCH  22  23
ENDBRANCH  21  22
ENDBRANCH   1  21
TORSDOF 20
ENDMDL
MODEL 3
REMARK VINA RESULT:     -10.1      4.697      9.784
REMARK SMILES C=CCN(CC(=O)OCCOC(=O)c1ccc(-c2c3nc(c(-c4cccc(S(=O)(=O)[O-])c4F)c4ccc([nH]4)c(-c4cccc(S(=O)(=O)[O-])c4F)c4nc(c(-c5cccc(S(=O)(=O)[O-])c5F)c5ccc2[nH]5)C=C4)C=C3)cc1)S(=O)(=O)c1ccccc1OC
REMARK SMILES IDX 9 1 8 2 6 3 7 4 5 5 4 6 3 7 2 8 1 9 77 10 78 11 79 12 80 13
REMARK SMILES IDX 81 14 85 15 82 16 84 17 83 18 86 19 87 20 10 21 11 22 12 23
REMARK SMILES IDX 13 24 14 25 15 26 76 27 16 28 75 29 17 30 18 31 19 32 69 33
REMARK SMILES IDX 20 34 74 35 68 36 70 37 21 38 73 39 67 40 66 41 22 43 54 44
REMARK SMILES IDX 34 45 53 46 35 47 38 48 52 49 71 50 36 51 37 52 51 54 72 55
REMARK SMILES IDX 39 56 23 57 24 58 32 59 25 60 27 61 33 62 26 63 28 64 29 65
REMARK SMILES IDX 30 66 31 67 55 68 56 69 64 70 57 71 59 72 65 73 58 74 60 75
REMARK SMILES IDX 61 76 62 77 63 78 40 79 41 80 49 81 42 82 44 83 50 84 43 85
REMARK SMILES IDX 45 86 46 87 47 88 48 89
REMARK H PARENT 70 42 38 53
REMARK Flexibility Score: inf
ROOT
ATOM      1  C   UNL A   1      35.468  21.354  26.116  1.00  0.00     0.274 C 
ENDROOT
BRANCH   1   2
ATOM      2  O   UNL A   1      34.415  22.162  25.535  1.00  0.00    -0.461 OA
BRANCH   2   3
ATOM      3  C   UNL A   1      34.302  23.445  25.982  1.00  0.00     0.321 C 
ATOM      4  O   UNL A   1      35.215  24.055  26.533  1.00  0.00    -0.251 OA
BRANCH   3   5
ATOM      5  C   UNL A   1      32.959  24.095  25.685  1.00  0.00     0.225 C 
BRANCH   5   6
ATOM      6  N   UNL A   1      32.769  25.234  24.734  1.00  0.00    -0.183 NA
BRANCH   6   7
ATOM      7  C   UNL A   1      33.570  25.081  23.507  1.00  0.00     0.130 C 
BRANCH   7   8
ATOM      8  C   UNL A   1      32.830  24.249  22.511  1.00  0.00    -0.018 C 
ATOM      9  C   UNL A   1      33.106  22.957  22.284  1.00  0.00     0.005 C 
ENDBRANCH   7   8
ENDBRANCH   6   7
BRANCH   6  10
ATOM     10  S   UNL A   1      32.735  26.822  25.379  1.00  0.00     0.247 S 
ATOM     11  O   UNL A   1      32.370  26.753  26.779  1.00  0.00    -0.207 OA
ATOM     12  O   UNL A   1      33.981  27.487  25.058  1.00  0.00    -0.207 OA
BRANCH  10  13
ATOM     13  C   UNL A   1      31.456  27.672  24.472  1.00  0.00     0.124 A 
ATOM     14  C   UNL A   1      30.500  26.931  23.766  1.00  0.00     0.026 A 
ATOM     15  C   UNL A   1      31.338  29.065  24.529  1.00  0.00     0.138 A 
ATOM     16  C   UNL A   1      29.458  27.583  23.100  1.00  0.00     0.002 A 
ATOM     17  C   UNL A   1      30.279  29.710  23.876  1.00  0.00     0.048 A 
ATOM     18  C   UNL A   1      29.337  28.967  23.166  1.00  0.00     0.004 A 
BRANCH  15  19
ATOM     19  O   UNL A   1      32.290  29.852  25.116  1.00  0.00    -0.495 OA
ATOM     20  C   UNL A   1      31.832  30.377  26.365  1.00  0.00     0.278 C 
ENDBRANCH  15  19
ENDBRANCH  10  13
ENDBRANCH   6  10
ENDBRANCH   5   6
ENDBRANCH   3   5
ENDBRANCH   2   3
ENDBRANCH   1   2
BRANCH   1  21
ATOM     21  C   UNL A   1      36.374  20.770  25.007  1.00  0.00     0.275 C 
BRANCH  21  22
ATOM     22  O   UNL A   1      37.584  21.530  24.758  1.00  0.00    -0.458 OA
BRANCH  22  23
ATOM     23  C   UNL A   1      38.566  21.278  25.635  1.00  0.00     0.338 C 
ATOM     24  O   UNL A   1      39.136  20.207  25.801  1.00  0.00    -0.246 OA
BRANCH  23  25
ATOM     25  C   UNL A   1      39.071  22.381  26.431  1.00  0.00     0.060 A 
ATOM     26  C   UNL A   1      38.601  23.635  26.022  1.00  0.00     0.016 A 
ATOM     27  C   UNL A   1      40.205  22.252  27.230  1.00  0.00     0.016 A 
ATOM     28  C   UNL A   1      39.321  24.768  26.341  1.00  0.00     0.010 A 
ATOM     29  C   UNL A   1      40.885  23.411  27.616  1.00  0.00     0.010 A 
ATOM     30  C   UNL A   1      40.461  24.669  27.151  1.00  0.00    -0.014 A 
BRANCH  30  31
ATOM     31  C   UNL A   1      41.148  25.917  27.551  1.00  0.00     0.031 A 
ATOM     32  C   UNL A   1      40.443  26.992  28.323  1.00  0.00     0.074 A 
ATOM     33  C   UNL A   1      42.450  26.035  27.232  1.00  0.00     0.049 A 
ATOM     34  N   UNL A   1      40.908  28.148  28.720  1.00  0.00    -0.248 NA
ATOM     35  C   UNL A   1      39.050  26.739  28.726  1.00  0.00     0.031 C 
ATOM     36  C   UNL A   1      43.232  25.021  26.517  1.00  0.00     0.029 A 
ATOM     37  N   UNL A   1      43.343  27.050  27.450  1.00  0.00    -0.354 N 
ATOM     38  C   UNL A   1      39.871  28.764  29.406  1.00  0.00     0.074 A 
ATOM     39  C   UNL A   1      38.750  27.851  29.389  1.00  0.00     0.031 C 
ATOM     40  C   UNL A   1      44.484  25.463  26.355  1.00  0.00     0.029 A 
ATOM     41  C   UNL A   1      44.566  26.823  26.867  1.00  0.00     0.049 A 
ATOM     42  H   UNL A   1      43.131  27.857  27.972  1.00  0.00     0.167 HD
ATOM     43  C   UNL A   1      39.865  29.982  29.997  1.00  0.00     0.034 A 
ATOM     44  C   UNL A   1      45.620  27.644  26.696  1.00  0.00     0.034 A 
ATOM     45  C   UNL A   1      40.984  30.887  29.983  1.00  0.00     0.049 A 
ATOM     46  C   UNL A   1      45.540  29.031  27.254  1.00  0.00     0.074 A 
ATOM     47  C   UNL A   1      41.077  32.147  30.545  1.00  0.00     0.029 A 
ATOM     48  N   UNL A   1      42.195  30.637  29.355  1.00  0.00    -0.354 N 
ATOM     49  N   UNL A   1      44.575  29.575  27.954  1.00  0.00    -0.248 NA
ATOM     50  C   UNL A   1      46.686  29.911  27.008  1.00  0.00     0.031 C 
ATOM     51  C   UNL A   1      42.337  32.671  30.235  1.00  0.00     0.029 A 
ATOM     52  C   UNL A   1      43.035  31.728  29.497  1.00  0.00     0.049 A 
ATOM     53  H   UNL A   1      42.424  29.806  28.880  1.00  0.00     0.167 HD
ATOM     54  C   UNL A   1      45.004  30.860  28.254  1.00  0.00     0.074 A 
ATOM     55  C   UNL A   1      46.324  31.004  27.669  1.00  0.00     0.031 C 
ATOM     56  C   UNL A   1      44.360  31.833  28.940  1.00  0.00     0.034 A 
BRANCH  43  57
ATOM     57  C   UNL A   1      38.618  30.413  30.720  1.00  0.00     0.023 A 
ATOM     58  C   UNL A   1      38.512  30.190  32.107  1.00  0.00     0.012 A 
ATOM     59  C   UNL A   1      37.599  31.118  30.051  1.00  0.00     0.148 A 
ATOM     60  C   UNL A   1      37.407  30.660  32.817  1.00  0.00     0.002 A 
ATOM     61  C   UNL A   1      36.513  31.606  30.770  1.00  0.00     0.091 A 
ATOM     62  F   UNL A   1      37.707  31.293  28.726  1.00  0.00    -0.205 F 
ATOM     63  C   UNL A   1      36.415  31.377  32.152  1.00  0.00     0.022 A 
BRANCH  61  64
ATOM     64  S   UNL A   1      35.219  32.591  30.006  1.00  0.00     0.127 S 
ATOM     65  O   UNL A   1      34.732  31.683  28.968  1.00  0.00    -0.237 OA
ATOM     66  O   UNL A   1      34.289  32.801  31.116  1.00  0.00    -0.237 OA
ATOM     67  O   UNL A   1      35.871  33.801  29.528  1.00  0.00    -0.744 OA
ENDBRANCH  61  64
ENDBRANCH  43  57
BRANCH  44  68
ATOM     68  C   UNL A   1      46.804  27.146  25.948  1.00  0.00     0.023 A 
ATOM     69  C   UNL A   1      46.954  27.460  24.586  1.00  0.00     0.012 A 
ATOM     70  C   UNL A   1      47.844  26.467  26.616  1.00  0.00     0.148 A 
ATOM     71  C   UNL A   1      48.122  27.110  23.905  1.00  0.00     0.002 A 
ATOM     72  C   UNL A   1      49.031  26.187  25.952  1.00  0.00     0.091 A 
ATOM     73  F   UNL A   1      47.674  26.149  27.909  1.00  0.00    -0.205 F 
ATOM     74  C   UNL A   1      49.167  26.496  24.591  1.00  0.00     0.022 A 
BRANCH  72  75
ATOM     75  S   UNL A   1      50.472  25.575  26.835  1.00  0.00     0.127 S 
ATOM     76  O   UNL A   1      51.380  25.247  25.740  1.00  0.00    -0.237 OA
ATOM     77  O   UNL A   1      50.866  26.736  27.636  1.00  0.00    -0.237 OA
ATOM     78  O   UNL A   1      49.982  24.453  27.625  1.00  0.00    -0.744 OA
ENDBRANCH  72  75
ENDBRANCH  44  68
BRANCH  56  79
ATOM     79  C   UNL A   1      45.080  33.139  29.116  1.00  0.00     0.023 A 
ATOM     80  C   UNL A   1      44.883  34.172  28.181  1.00  0.00     0.012 A 
ATOM     81  C   UNL A   1      45.888  33.365  30.246  1.00  0.00     0.148 A 
ATOM     82  C   UNL A   1      45.496  35.410  28.359  1.00  0.00     0.002 A 
ATOM     83  C   UNL A   1      46.463  34.614  30.438  1.00  0.00     0.091 A 
ATOM     84  F   UNL A   1      46.079  32.356  31.109  1.00  0.00    -0.205 F 
ATOM     85  C   UNL A   1      46.275  35.635  29.493  1.00  0.00     0.022 A 
BRANCH  83  86
ATOM     86  S   UNL A   1      47.412  35.014  31.910  1.00  0.00     0.127 S 
ATOM     87  O   UNL A   1      46.448  34.727  32.971  1.00  0.00    -0.237 OA
ATOM     88  O   UNL A   1      48.528  34.071  31.827  1.00  0.00    -0.237 OA
ATOM     89  O   UNL A   1      47.793  36.413  31.770  1.00  0.00    -0.744 OA
ENDBRANCH  83  86
ENDBRANCH  56  79
ENDBRANCH  30  31
ENDBRANCH  23  25
ENDBRANCH  22  23
ENDBRANCH  21  22
ENDBRANCH   1  21
TORSDOF 20
ENDMDL
