MODEL 1
REMARK VINA RESULT:     -12.3      0.000      0.000
REMARK SMILES Cc1cc(F)cc(-n2nc(C(=O)OCCOC(=O)c3ccc(-c4c5nc(c(-c6cccc(S(=O)(=O)[O-])c6F)c6ccc([nH]6)c(-c6cccc(S(=O)(=O)[O-])c6F)c6nc(c(-c7cccc(S(=O)(=O)[O-])c7F)c7ccc4[nH]7)C=C6)C=C5)cc3)c3c2CC[C@H](C)C3)c1
REMARK SMILES IDX 15 1 14 2 13 3 11 4 12 5 10 6 8 7 9 8 83 9 82 10 84 11 88 12
REMARK SMILES IDX 85 13 86 14 87 15 7 16 1 17 2 18 3 19 89 20 4 21 5 22 6 23
REMARK SMILES IDX 16 24 17 25 18 26 19 27 20 28 81 29 21 30 80 31 22 32 23 33
REMARK SMILES IDX 24 34 74 35 25 36 79 37 73 38 75 39 26 40 78 41 72 42 71 43
REMARK SMILES IDX 27 45 59 46 39 47 58 48 40 49 43 50 57 51 76 52 41 53 42 54
REMARK SMILES IDX 56 56 77 57 44 58 28 59 29 60 37 61 30 62 32 63 38 64 31 65
REMARK SMILES IDX 33 66 34 67 35 68 36 69 60 70 61 71 69 72 62 73 64 74 70 75
REMARK SMILES IDX 63 76 65 77 66 78 67 79 68 80 45 81 46 82 54 83 47 84 49 85
REMARK SMILES IDX 55 86 48 87 50 88 51 89 52 90 53 91
REMARK H PARENT 75 44 43 55
REMARK Flexibility Score: inf
ROOT
ATOM      1  C   UNL A   1      37.962  20.390  25.138  1.00  0.00     0.275 C 
ENDROOT
BRANCH   1   2
ATOM      2  C   UNL A   1      36.915  21.409  25.556  1.00  0.00     0.275 C 
BRANCH   2   3
ATOM      3  O   UNL A   1      37.155  22.675  24.921  1.00  0.00    -0.457 OA
BRANCH   3   4
ATOM      4  C   UNL A   1      36.454  23.012  23.791  1.00  0.00     0.359 C 
ATOM      5  O   UNL A   1      36.910  22.915  22.653  1.00  0.00    -0.244 OA
BRANCH   4   6
ATOM      6  C   UNL A   1      35.094  23.486  24.128  1.00  0.00     0.174 A 
ATOM      7  N   UNL A   1      33.459  24.770  24.694  1.00  0.00    -0.237 N 
ATOM      8  N   UNL A   1      34.748  24.785  24.265  1.00  0.00    -0.160 NA
ATOM      9  C   UNL A   1      32.983  23.485  24.836  1.00  0.00     0.048 A 
ATOM     10  C   UNL A   1      33.961  22.660  24.333  1.00  0.00     0.009 A 
ATOM     11  C   UNL A   1      31.641  23.025  25.285  1.00  0.00     0.057 C 
ATOM     12  C   UNL A   1      33.801  21.194  24.149  1.00  0.00     0.043 C 
ATOM     13  C   UNL A   1      31.677  21.493  25.518  1.00  0.00     0.010 C 
ATOM     14  C   UNL A   1      32.343  20.741  24.341  1.00  0.00    -0.009 C 
ATOM     15  C   UNL A   1      32.323  19.226  24.538  1.00  0.00     0.008 C 
BRANCH   7  16
ATOM     16  C   UNL A   1      32.805  25.978  25.033  1.00  0.00     0.068 A 
ATOM     17  C   UNL A   1      30.090  28.296  23.666  1.00  0.00     0.044 C 
ATOM     18  C   UNL A   1      31.177  27.714  24.523  1.00  0.00    -0.046 A 
ATOM     19  C   UNL A   1      31.523  28.357  25.720  1.00  0.00     0.042 A 
ATOM     20  C   UNL A   1      31.858  26.538  24.159  1.00  0.00     0.032 A 
ATOM     21  C   UNL A   1      32.493  27.809  26.552  1.00  0.00     0.125 A 
ATOM     22  F   UNL A   1      32.829  28.448  27.681  1.00  0.00    -0.207 F 
ATOM     23  C   UNL A   1      33.123  26.613  26.236  1.00  0.00     0.067 A 
ENDBRANCH   7  16
ENDBRANCH   4   6
ENDBRANCH   3   4
ENDBRANCH   2   3
ENDBRANCH   1   2
BRANCH   1  24
ATOM     24  O   UNL A   1      39.247  20.968  25.302  1.00  0.00    -0.458 OA
BRANCH  24  25
ATOM     25  C   UNL A   1      40.216  20.146  25.762  1.00  0.00     0.338 C 
ATOM     26  O   UNL A   1      40.222  18.929  25.722  1.00  0.00    -0.246 OA
BRANCH  25  27
ATOM     27  C   UNL A   1      41.182  20.964  26.495  1.00  0.00     0.060 A 
ATOM     28  C   UNL A   1      41.079  20.947  27.886  1.00  0.00     0.016 A 
ATOM     29  C   UNL A   1      41.872  21.969  25.799  1.00  0.00     0.016 A 
ATOM     30  C   UNL A   1      41.426  22.091  28.560  1.00  0.00     0.010 A 
ATOM     31  C   UNL A   1      42.187  23.119  26.467  1.00  0.00     0.010 A 
ATOM     32  C   UNL A   1      41.867  23.192  27.816  1.00  0.00    -0.014 A 
BRANCH  32  33
ATOM     33  C   UNL A   1      42.117  24.426  28.516  1.00  0.00     0.031 A 
ATOM     34  C   UNL A   1      41.041  25.398  28.252  1.00  0.00     0.074 A 
ATOM     35  C   UNL A   1      43.148  24.563  29.369  1.00  0.00     0.049 A 
ATOM     36  N   UNL A   1      41.083  26.413  27.458  1.00  0.00    -0.248 NA
ATOM     37  C   UNL A   1      39.684  25.047  28.709  1.00  0.00     0.031 C 
ATOM     38  C   UNL A   1      44.020  23.500  29.887  1.00  0.00     0.029 A 
ATOM     39  N   UNL A   1      43.543  25.656  30.072  1.00  0.00    -0.354 N 
ATOM     40  C   UNL A   1      39.826  26.996  27.585  1.00  0.00     0.074 A 
ATOM     41  C   UNL A   1      38.954  25.976  28.091  1.00  0.00     0.031 C 
ATOM     42  C   UNL A   1      44.644  23.948  31.001  1.00  0.00     0.029 A 
ATOM     43  C   UNL A   1      44.327  25.354  31.181  1.00  0.00     0.049 A 
ATOM     44  H   UNL A   1      43.299  26.576  29.821  1.00  0.00     0.167 HD
ATOM     45  C   UNL A   1      39.715  28.349  27.670  1.00  0.00     0.034 A 
ATOM     46  C   UNL A   1      44.602  26.189  32.212  1.00  0.00     0.034 A 
ATOM     47  C   UNL A   1      40.944  28.986  27.270  1.00  0.00     0.049 A 
ATOM     48  C   UNL A   1      44.371  27.571  31.734  1.00  0.00     0.074 A 
ATOM     49  C   UNL A   1      41.630  29.200  26.096  1.00  0.00     0.029 A 
ATOM     50  N   UNL A   1      41.831  29.136  28.305  1.00  0.00    -0.354 N 
ATOM     51  N   UNL A   1      45.078  28.127  30.788  1.00  0.00    -0.248 NA
ATOM     52  C   UNL A   1      43.102  28.226  32.032  1.00  0.00     0.031 C 
ATOM     53  C   UNL A   1      43.003  29.328  26.462  1.00  0.00     0.029 A 
ATOM     54  C   UNL A   1      43.114  29.232  27.850  1.00  0.00     0.049 A 
ATOM     55  H   UNL A   1      41.574  29.171  29.255  1.00  0.00     0.167 HD
ATOM     56  C   UNL A   1      44.158  28.887  30.086  1.00  0.00     0.074 A 
ATOM     57  C   UNL A   1      43.030  29.062  30.992  1.00  0.00     0.031 C 
ATOM     58  C   UNL A   1      44.244  29.015  28.730  1.00  0.00     0.034 A 
BRANCH  45  59
ATOM     59  C   UNL A   1      38.754  29.076  28.591  1.00  0.00     0.023 A 
ATOM     60  C   UNL A   1      38.016  30.139  28.024  1.00  0.00     0.012 A 
ATOM     61  C   UNL A   1      38.750  28.984  30.003  1.00  0.00     0.148 A 
ATOM     62  C   UNL A   1      37.349  31.077  28.820  1.00  0.00     0.002 A 
ATOM     63  C   UNL A   1      38.023  29.871  30.787  1.00  0.00     0.091 A 
ATOM     64  F   UNL A   1      39.565  28.133  30.628  1.00  0.00    -0.205 F 
ATOM     65  C   UNL A   1      37.343  30.938  30.202  1.00  0.00     0.022 A 
BRANCH  63  66
ATOM     66  S   UNL A   1      37.964  29.714  32.578  1.00  0.00     0.127 S 
ATOM     67  O   UNL A   1      37.444  28.358  32.734  1.00  0.00    -0.237 OA
ATOM     68  O   UNL A   1      39.374  29.883  32.935  1.00  0.00    -0.237 OA
ATOM     69  O   UNL A   1      37.099  30.790  33.040  1.00  0.00    -0.744 OA
ENDBRANCH  63  66
ENDBRANCH  45  59
BRANCH  46  70
ATOM     70  C   UNL A   1      44.768  25.869  33.648  1.00  0.00     0.023 A 
ATOM     71  C   UNL A   1      46.057  25.688  34.188  1.00  0.00     0.012 A 
ATOM     72  C   UNL A   1      43.682  26.009  34.542  1.00  0.00     0.148 A 
ATOM     73  C   UNL A   1      46.261  25.675  35.574  1.00  0.00     0.002 A 
ATOM     74  C   UNL A   1      43.888  25.987  35.919  1.00  0.00     0.091 A 
ATOM     75  F   UNL A   1      42.464  26.249  34.040  1.00  0.00    -0.205 F 
ATOM     76  C   UNL A   1      45.180  25.833  36.438  1.00  0.00     0.022 A 
BRANCH  74  77
ATOM     77  S   UNL A   1      42.548  26.201  37.098  1.00  0.00     0.127 S 
ATOM     78  O   UNL A   1      41.971  27.475  36.664  1.00  0.00    -0.237 OA
ATOM     79  O   UNL A   1      41.717  25.031  36.828  1.00  0.00    -0.237 OA
ATOM     80  O   UNL A   1      43.173  26.241  38.413  1.00  0.00    -0.744 OA
ENDBRANCH  74  77
ENDBRANCH  46  70
BRANCH  58  81
ATOM     81  C   UNL A   1      45.575  28.760  28.088  1.00  0.00     0.023 A 
ATOM     82  C   UNL A   1      46.643  29.676  28.126  1.00  0.00     0.012 A 
ATOM     83  C   UNL A   1      45.783  27.486  27.534  1.00  0.00     0.148 A 
ATOM     84  C   UNL A   1      47.895  29.326  27.609  1.00  0.00     0.002 A 
ATOM     85  C   UNL A   1      47.036  27.126  27.065  1.00  0.00     0.091 A 
ATOM     86  F   UNL A   1      44.746  26.635  27.501  1.00  0.00    -0.205 F 
ATOM     87  C   UNL A   1      48.095  28.047  27.091  1.00  0.00     0.022 A 
BRANCH  85  88
ATOM     88  S   UNL A   1      47.377  25.458  26.506  1.00  0.00     0.127 S 
ATOM     89  O   UNL A   1      46.515  25.346  25.332  1.00  0.00    -0.237 OA
ATOM     90  O   UNL A   1      48.810  25.513  26.212  1.00  0.00    -0.237 OA
ATOM     91  O   UNL A   1      47.035  24.582  27.621  1.00  0.00    -0.744 OA
ENDBRANCH  85  88
ENDBRANCH  58  81
ENDBRANCH  32  33
ENDBRANCH  25  27
ENDBRANCH  24  25
ENDBRANCH   1  24
TORSDOF 15
ENDMDL
MODEL 2
REMARK VINA RESULT:     -12.1      2.966      7.875
REMARK SMILES Cc1cc(F)cc(-n2nc(C(=O)OCCOC(=O)c3ccc(-c4c5nc(c(-c6cccc(S(=O)(=O)[O-])c6F)c6ccc([nH]6)c(-c6cccc(S(=O)(=O)[O-])c6F)c6nc(c(-c7cccc(S(=O)(=O)[O-])c7F)c7ccc4[nH]7)C=C6)C=C5)cc3)c3c2CC[C@H](C)C3)c1
REMARK SMILES IDX 15 1 14 2 13 3 11 4 12 5 10 6 8 7 9 8 83 9 82 10 84 11 88 12
REMARK SMILES IDX 85 13 86 14 87 15 7 16 1 17 2 18 3 19 89 20 4 21 5 22 6 23
REMARK SMILES IDX 16 24 17 25 18 26 19 27 20 28 81 29 21 30 80 31 22 32 23 33
REMARK SMILES IDX 24 34 74 35 25 36 79 37 73 38 75 39 26 40 78 41 72 42 71 43
REMARK SMILES IDX 27 45 59 46 39 47 58 48 40 49 43 50 57 51 76 52 41 53 42 54
REMARK SMILES IDX 56 56 77 57 44 58 28 59 29 60 37 61 30 62 32 63 38 64 31 65
REMARK SMILES IDX 33 66 34 67 35 68 36 69 60 70 61 71 69 72 62 73 64 74 70 75
REMARK SMILES IDX 63 76 65 77 66 78 67 79 68 80 45 81 46 82 54 83 47 84 49 85
REMARK SMILES IDX 55 86 48 87 50 88 51 89 52 90 53 91
REMARK H PARENT 75 44 43 55
REMARK Flexibility Score: inf
ROOT
ATOM      1  C   UNL A   1      35.286  32.262  27.927  1.00  0.00     0.275 C 
ENDROOT
BRANCH   1   2
ATOM      2  C   UNL A   1      33.856  31.759  28.037  1.00  0.00     0.275 C 
BRANCH   2   3
ATOM      3  O   UNL A   1      33.582  30.783  27.020  1.00  0.00    -0.457 OA
BRANCH   3   4
ATOM      4  C   UNL A   1      32.293  30.599  26.584  1.00  0.00     0.359 C 
ATOM      5  O   UNL A   1      31.426  31.469  26.638  1.00  0.00    -0.244 OA
BRANCH   4   6
ATOM      6  C   UNL A   1      32.103  29.237  26.038  1.00  0.00     0.174 A 
ATOM      7  N   UNL A   1      32.334  27.122  25.694  1.00  0.00    -0.237 N 
ATOM      8  N   UNL A   1      32.655  28.119  26.560  1.00  0.00    -0.160 NA
ATOM      9  C   UNL A   1      31.591  27.589  24.631  1.00  0.00     0.048 A 
ATOM     10  C   UNL A   1      31.306  28.904  24.915  1.00  0.00     0.009 A 
ATOM     11  C   UNL A   1      31.045  26.841  23.466  1.00  0.00     0.057 C 
ATOM     12  C   UNL A   1      30.394  29.752  24.105  1.00  0.00     0.043 C 
ATOM     13  C   UNL A   1      30.501  27.847  22.421  1.00  0.00     0.010 C 
ATOM     14  C   UNL A   1      29.607  28.932  23.068  1.00  0.00    -0.009 C 
ATOM     15  C   UNL A   1      29.017  29.888  22.033  1.00  0.00     0.008 C 
BRANCH   7  16
ATOM     16  C   UNL A   1      32.839  25.816  25.890  1.00  0.00     0.068 A 
ATOM     17  C   UNL A   1      36.109  23.875  25.495  1.00  0.00     0.044 C 
ATOM     18  C   UNL A   1      34.675  24.221  25.773  1.00  0.00    -0.046 A 
ATOM     19  C   UNL A   1      33.820  23.236  26.288  1.00  0.00     0.042 A 
ATOM     20  C   UNL A   1      34.163  25.510  25.532  1.00  0.00     0.032 A 
ATOM     21  C   UNL A   1      32.501  23.548  26.597  1.00  0.00     0.125 A 
ATOM     22  F   UNL A   1      31.690  22.590  27.067  1.00  0.00    -0.207 F 
ATOM     23  C   UNL A   1      32.005  24.834  26.427  1.00  0.00     0.067 A 
ENDBRANCH   7  16
ENDBRANCH   4   6
ENDBRANCH   3   4
ENDBRANCH   2   3
ENDBRANCH   1   2
BRANCH   1  24
ATOM     24  O   UNL A   1      35.734  32.639  29.219  1.00  0.00    -0.458 OA
BRANCH  24  25
ATOM     25  C   UNL A   1      36.130  31.633  30.029  1.00  0.00     0.338 C 
ATOM     26  O   UNL A   1      35.659  31.337  31.112  1.00  0.00    -0.246 OA
BRANCH  25  27
ATOM     27  C   UNL A   1      37.360  31.071  29.470  1.00  0.00     0.060 A 
ATOM     28  C   UNL A   1      37.334  29.710  29.160  1.00  0.00     0.016 A 
ATOM     29  C   UNL A   1      38.555  31.790  29.624  1.00  0.00     0.016 A 
ATOM     30  C   UNL A   1      38.508  29.011  29.287  1.00  0.00     0.010 A 
ATOM     31  C   UNL A   1      39.717  31.087  29.781  1.00  0.00     0.010 A 
ATOM     32  C   UNL A   1      39.650  29.703  29.706  1.00  0.00    -0.014 A 
BRANCH  32  33
ATOM     33  C   UNL A   1      40.850  28.943  29.951  1.00  0.00     0.031 A 
ATOM     34  C   UNL A   1      41.175  28.936  31.388  1.00  0.00     0.074 A 
ATOM     35  C   UNL A   1      41.472  28.261  28.971  1.00  0.00     0.049 A 
ATOM     36  N   UNL A   1      42.083  29.630  31.987  1.00  0.00    -0.248 NA
ATOM     37  C   UNL A   1      40.207  28.297  32.298  1.00  0.00     0.031 C 
ATOM     38  C   UNL A   1      40.968  27.992  27.618  1.00  0.00     0.029 A 
ATOM     39  N   UNL A   1      42.619  27.535  29.023  1.00  0.00    -0.354 N 
ATOM     40  C   UNL A   1      41.979  29.246  33.320  1.00  0.00     0.074 A 
ATOM     41  C   UNL A   1      40.663  28.699  33.485  1.00  0.00     0.031 C 
ATOM     42  C   UNL A   1      41.662  26.960  27.088  1.00  0.00     0.029 A 
ATOM     43  C   UNL A   1      42.736  26.602  27.998  1.00  0.00     0.049 A 
ATOM     44  H   UNL A   1      43.303  27.657  29.720  1.00  0.00     0.167 HD
ATOM     45  C   UNL A   1      43.107  29.019  34.047  1.00  0.00     0.034 A 
ATOM     46  C   UNL A   1      43.599  25.558  27.968  1.00  0.00     0.034 A 
ATOM     47  C   UNL A   1      44.261  29.555  33.372  1.00  0.00     0.049 A 
ATOM     48  C   UNL A   1      44.694  25.863  28.917  1.00  0.00     0.074 A 
ATOM     49  C   UNL A   1      44.783  30.801  33.107  1.00  0.00     0.029 A 
ATOM     50  N   UNL A   1      44.824  28.670  32.489  1.00  0.00    -0.354 N 
ATOM     51  N   UNL A   1      45.524  26.856  28.754  1.00  0.00    -0.248 NA
ATOM     52  C   UNL A   1      44.647  25.302  30.263  1.00  0.00     0.031 C 
ATOM     53  C   UNL A   1      45.563  30.654  31.922  1.00  0.00     0.029 A 
ATOM     54  C   UNL A   1      45.534  29.318  31.519  1.00  0.00     0.049 A 
ATOM     55  H   UNL A   1      44.729  27.692  32.548  1.00  0.00     0.167 HD
ATOM     56  C   UNL A   1      45.740  27.325  30.039  1.00  0.00     0.074 A 
ATOM     57  C   UNL A   1      45.343  26.234  30.920  1.00  0.00     0.031 C 
ATOM     58  C   UNL A   1      45.894  28.659  30.281  1.00  0.00     0.034 A 
BRANCH  45  59
ATOM     59  C   UNL A   1      43.273  27.891  35.046  1.00  0.00     0.023 A 
ATOM     60  C   UNL A   1      43.640  28.257  36.359  1.00  0.00     0.012 A 
ATOM     61  C   UNL A   1      43.384  26.519  34.716  1.00  0.00     0.148 A 
ATOM     62  C   UNL A   1      44.128  27.319  37.275  1.00  0.00     0.002 A 
ATOM     63  C   UNL A   1      43.795  25.578  35.652  1.00  0.00     0.091 A 
ATOM     64  F   UNL A   1      43.240  26.112  33.454  1.00  0.00    -0.205 F 
ATOM     65  C   UNL A   1      44.197  25.976  36.926  1.00  0.00     0.022 A 
BRANCH  63  66
ATOM     66  S   UNL A   1      43.873  23.826  35.252  1.00  0.00     0.127 S 
ATOM     67  O   UNL A   1      44.601  23.297  36.402  1.00  0.00    -0.237 OA
ATOM     68  O   UNL A   1      42.452  23.472  35.199  1.00  0.00    -0.237 OA
ATOM     69  O   UNL A   1      44.554  23.744  33.967  1.00  0.00    -0.744 OA
ENDBRANCH  63  66
ENDBRANCH  45  59
BRANCH  46  70
ATOM     70  C   UNL A   1      43.400  24.204  27.403  1.00  0.00     0.023 A 
ATOM     71  C   UNL A   1      42.174  23.534  27.586  1.00  0.00     0.012 A 
ATOM     72  C   UNL A   1      44.310  23.684  26.455  1.00  0.00     0.148 A 
ATOM     73  C   UNL A   1      41.855  22.398  26.830  1.00  0.00     0.002 A 
ATOM     74  C   UNL A   1      43.993  22.550  25.713  1.00  0.00     0.091 A 
ATOM     75  F   UNL A   1      45.448  24.351  26.225  1.00  0.00    -0.205 F 
ATOM     76  C   UNL A   1      42.759  21.912  25.889  1.00  0.00     0.022 A 
BRANCH  74  77
ATOM     77  S   UNL A   1      45.099  21.872  24.467  1.00  0.00     0.127 S 
ATOM     78  O   UNL A   1      45.078  22.923  23.448  1.00  0.00    -0.237 OA
ATOM     79  O   UNL A   1      46.354  21.761  25.204  1.00  0.00    -0.237 OA
ATOM     80  O   UNL A   1      44.502  20.612  24.044  1.00  0.00    -0.744 OA
ENDBRANCH  74  77
ENDBRANCH  46  70
BRANCH  58  81
ATOM     81  C   UNL A   1      46.320  29.532  29.138  1.00  0.00     0.023 A 
ATOM     82  C   UNL A   1      47.620  29.524  28.599  1.00  0.00     0.012 A 
ATOM     83  C   UNL A   1      45.321  30.295  28.511  1.00  0.00     0.148 A 
ATOM     84  C   UNL A   1      47.918  30.277  27.458  1.00  0.00     0.002 A 
ATOM     85  C   UNL A   1      45.607  31.001  27.354  1.00  0.00     0.091 A 
ATOM     86  F   UNL A   1      44.092  30.292  29.050  1.00  0.00    -0.205 F 
ATOM     87  C   UNL A   1      46.909  31.004  26.827  1.00  0.00     0.022 A 
BRANCH  85  88
ATOM     88  S   UNL A   1      44.321  31.849  26.438  1.00  0.00     0.127 S 
ATOM     89  O   UNL A   1      43.390  30.763  26.140  1.00  0.00    -0.237 OA
ATOM     90  O   UNL A   1      43.833  32.824  27.414  1.00  0.00    -0.237 OA
ATOM     91  O   UNL A   1      44.978  32.447  25.281  1.00  0.00    -0.744 OA
ENDBRANCH  85  88
ENDBRANCH  58  81
ENDBRANCH  32  33
ENDBRANCH  25  27
ENDBRANCH  24  25
ENDBRANCH   1  24
TORSDOF 15
ENDMDL
MODEL 3
REMARK VINA RESULT:     -12.0      3.146      7.646
REMARK SMILES Cc1cc(F)cc(-n2nc(C(=O)OCCOC(=O)c3ccc(-c4c5nc(c(-c6cccc(S(=O)(=O)[O-])c6F)c6ccc([nH]6)c(-c6cccc(S(=O)(=O)[O-])c6F)c6nc(c(-c7cccc(S(=O)(=O)[O-])c7F)c7ccc4[nH]7)C=C6)C=C5)cc3)c3c2CC[C@H](C)C3)c1
REMARK SMILES IDX 15 1 14 2 13 3 11 4 12 5 10 6 8 7 9 8 83 9 82 10 84 11 88 12
REMARK SMILES IDX 85 13 86 14 87 15 7 16 1 17 2 18 3 19 89 20 4 21 5 22 6 23
REMARK SMILES IDX 16 24 17 25 18 26 19 27 20 28 81 29 21 30 80 31 22 32 23 33
REMARK SMILES IDX 24 34 74 35 25 36 79 37 73 38 75 39 26 40 78 41 72 42 71 43
REMARK SMILES IDX 27 45 59 46 39 47 58 48 40 49 43 50 57 51 76 52 41 53 42 54
REMARK SMILES IDX 56 56 77 57 44 58 28 59 29 60 37 61 30 62 32 63 38 64 31 65
REMARK SMILES IDX 33 66 34 67 35 68 36 69 60 70 61 71 69 72 62 73 64 74 70 75
REMARK SMILES IDX 63 76 65 77 66 78 67 79 68 80 45 81 46 82 54 83 47 84 49 85
REMARK SMILES IDX 55 86 48 87 50 88 51 89 52 90 53 91
REMARK H PARENT 75 44 43 55
REMARK Flexibility Score: inf
ROOT
ATOM      1  C   UNL A   1      33.629  30.881  27.526  1.00  0.00     0.275 C 
ENDROOT
BRANCH   1   2
ATOM      2  C   UNL A   1      33.292  29.744  26.575  1.00  0.00     0.275 C 
BRANCH   2   3
ATOM      3  O   UNL A   1      33.216  28.496  27.282  1.00  0.00    -0.457 OA
BRANCH   3   4
ATOM      4  C   UNL A   1      32.042  27.787  27.285  1.00  0.00     0.359 C 
ATOM      5  O   UNL A   1      31.120  28.000  28.072  1.00  0.00    -0.244 OA
BRANCH   4   6
ATOM      6  C   UNL A   1      32.035  26.760  26.220  1.00  0.00     0.174 A 
ATOM      7  N   UNL A   1      32.459  24.959  25.115  1.00  0.00    -0.237 N 
ATOM      8  N   UNL A   1      32.565  25.523  26.346  1.00  0.00    -0.160 NA
ATOM      9  C   UNL A   1      31.875  25.818  24.209  1.00  0.00     0.048 A 
ATOM     10  C   UNL A   1      31.460  26.911  24.934  1.00  0.00     0.009 A 
ATOM     11  C   UNL A   1      31.581  25.604  22.766  1.00  0.00     0.057 C 
ATOM     12  C   UNL A   1      30.642  28.019  24.377  1.00  0.00     0.043 C 
ATOM     13  C   UNL A   1      31.153  26.949  22.126  1.00  0.00     0.010 C 
ATOM     14  C   UNL A   1      30.094  27.689  22.977  1.00  0.00    -0.009 C 
ATOM     15  C   UNL A   1      29.624  28.984  22.318  1.00  0.00     0.008 C 
BRANCH   7  16
ATOM     16  C   UNL A   1      33.010  23.681  24.864  1.00  0.00     0.068 A 
ATOM     17  C   UNL A   1      36.398  22.068  24.135  1.00  0.00     0.044 C 
ATOM     18  C   UNL A   1      34.927  22.268  24.364  1.00  0.00    -0.046 A 
ATOM     19  C   UNL A   1      34.079  21.152  24.379  1.00  0.00     0.042 A 
ATOM     20  C   UNL A   1      34.376  23.547  24.565  1.00  0.00     0.032 A 
ATOM     21  C   UNL A   1      32.721  21.310  24.636  1.00  0.00     0.125 A 
ATOM     22  F   UNL A   1      31.919  20.236  24.625  1.00  0.00    -0.207 F 
ATOM     23  C   UNL A   1      32.179  22.559  24.904  1.00  0.00     0.067 A 
ENDBRANCH   7  16
ENDBRANCH   4   6
ENDBRANCH   3   4
ENDBRANCH   2   3
ENDBRANCH   1   2
BRANCH   1  24
ATOM     24  O   UNL A   1      35.038  30.960  27.657  1.00  0.00    -0.458 OA
BRANCH  24  25
ATOM     25  C   UNL A   1      35.504  31.824  28.586  1.00  0.00     0.338 C 
ATOM     26  O   UNL A   1      35.254  33.013  28.669  1.00  0.00    -0.246 OA
BRANCH  25  27
ATOM     27  C   UNL A   1      36.520  31.124  29.373  1.00  0.00     0.060 A 
ATOM     28  C   UNL A   1      37.632  31.875  29.756  1.00  0.00     0.016 A 
ATOM     29  C   UNL A   1      36.517  29.721  29.374  1.00  0.00     0.016 A 
ATOM     30  C   UNL A   1      38.831  31.217  29.867  1.00  0.00     0.010 A 
ATOM     31  C   UNL A   1      37.716  29.072  29.453  1.00  0.00     0.010 A 
ATOM     32  C   UNL A   1      38.861  29.843  29.600  1.00  0.00    -0.014 A 
BRANCH  32  33
ATOM     33  C   UNL A   1      40.141  29.182  29.603  1.00  0.00     0.031 A 
ATOM     34  C   UNL A   1      40.654  29.052  30.977  1.00  0.00     0.074 A 
ATOM     35  C   UNL A   1      40.680  28.672  28.480  1.00  0.00     0.049 A 
ATOM     36  N   UNL A   1      41.574  29.763  31.538  1.00  0.00    -0.248 NA
ATOM     37  C   UNL A   1      39.873  28.228  31.918  1.00  0.00     0.031 C 
ATOM     38  C   UNL A   1      40.024  28.503  27.177  1.00  0.00     0.029 A 
ATOM     39  N   UNL A   1      41.880  28.059  28.303  1.00  0.00    -0.354 N 
ATOM     40  C   UNL A   1      41.681  29.230  32.819  1.00  0.00     0.074 A 
ATOM     41  C   UNL A   1      40.449  28.544  33.079  1.00  0.00     0.031 C 
ATOM     42  C   UNL A   1      40.724  27.605  26.446  1.00  0.00     0.029 A 
ATOM     43  C   UNL A   1      41.936  27.258  27.168  1.00  0.00     0.049 A 
ATOM     44  H   UNL A   1      42.639  28.172  28.920  1.00  0.00     0.167 HD
ATOM     45  C   UNL A   1      42.911  29.038  33.369  1.00  0.00     0.034 A 
ATOM     46  C   UNL A   1      42.869  26.311  26.908  1.00  0.00     0.034 A 
ATOM     47  C   UNL A   1      43.917  29.752  32.626  1.00  0.00     0.049 A 
ATOM     48  C   UNL A   1      44.053  26.618  27.744  1.00  0.00     0.074 A 
ATOM     49  C   UNL A   1      44.294  31.064  32.448  1.00  0.00     0.029 A 
ATOM     50  N   UNL A   1      44.427  29.025  31.581  1.00  0.00    -0.354 N 
ATOM     51  N   UNL A   1      44.769  27.699  27.599  1.00  0.00    -0.248 NA
ATOM     52  C   UNL A   1      44.233  25.914  29.009  1.00  0.00     0.031 C 
ATOM     53  C   UNL A   1      44.918  31.121  31.167  1.00  0.00     0.029 A 
ATOM     54  C   UNL A   1      44.945  29.839  30.615  1.00  0.00     0.049 A 
ATOM     55  H   UNL A   1      44.422  28.042  31.534  1.00  0.00     0.167 HD
ATOM     56  C   UNL A   1      45.115  28.046  28.894  1.00  0.00     0.074 A 
ATOM     57  C   UNL A   1      44.930  26.834  29.682  1.00  0.00     0.031 C 
ATOM     58  C   UNL A   1      45.190  29.355  29.272  1.00  0.00     0.034 A 
BRANCH  45  59
ATOM     59  C   UNL A   1      43.301  27.830  34.199  1.00  0.00     0.023 A 
ATOM     60  C   UNL A   1      43.772  28.085  35.505  1.00  0.00     0.012 A 
ATOM     61  C   UNL A   1      43.516  26.526  33.691  1.00  0.00     0.148 A 
ATOM     62  C   UNL A   1      44.451  27.112  36.246  1.00  0.00     0.002 A 
ATOM     63  C   UNL A   1      44.122  25.539  34.458  1.00  0.00     0.091 A 
ATOM     64  F   UNL A   1      43.277  26.251  32.408  1.00  0.00    -0.205 F 
ATOM     65  C   UNL A   1      44.619  25.834  35.727  1.00  0.00     0.022 A 
BRANCH  63  66
ATOM     66  S   UNL A   1      44.336  23.864  33.837  1.00  0.00     0.127 S 
ATOM     67  O   UNL A   1      45.395  23.364  34.708  1.00  0.00    -0.237 OA
ATOM     68  O   UNL A   1      43.010  23.289  34.078  1.00  0.00    -0.237 OA
ATOM     69  O   UNL A   1      44.676  24.006  32.428  1.00  0.00    -0.744 OA
ENDBRANCH  63  66
ENDBRANCH  45  59
BRANCH  46  70
ATOM     70  C   UNL A   1      42.709  25.013  26.215  1.00  0.00     0.023 A 
ATOM     71  C   UNL A   1      43.674  24.586  25.281  1.00  0.00     0.012 A 
ATOM     72  C   UNL A   1      41.755  24.074  26.668  1.00  0.00     0.148 A 
ATOM     73  C   UNL A   1      43.704  23.258  24.834  1.00  0.00     0.002 A 
ATOM     74  C   UNL A   1      41.784  22.757  26.215  1.00  0.00     0.091 A 
ATOM     75  F   UNL A   1      40.877  24.451  27.606  1.00  0.00    -0.205 F 
ATOM     76  C   UNL A   1      42.766  22.343  25.307  1.00  0.00     0.022 A 
BRANCH  74  77
ATOM     77  S   UNL A   1      40.619  21.514  26.791  1.00  0.00     0.127 S 
ATOM     78  O   UNL A   1      40.834  21.554  28.238  1.00  0.00    -0.237 OA
ATOM     79  O   UNL A   1      39.342  22.065  26.347  1.00  0.00    -0.237 OA
ATOM     80  O   UNL A   1      41.021  20.265  26.158  1.00  0.00    -0.744 OA
ENDBRANCH  74  77
ENDBRANCH  46  70
BRANCH  58  81
ATOM     81  C   UNL A   1      45.386  30.382  28.197  1.00  0.00     0.023 A 
ATOM     82  C   UNL A   1      44.322  31.022  27.533  1.00  0.00     0.012 A 
ATOM     83  C   UNL A   1      46.703  30.799  27.945  1.00  0.00     0.148 A 
ATOM     84  C   UNL A   1      44.575  32.055  26.624  1.00  0.00     0.002 A 
ATOM     85  C   UNL A   1      46.947  31.854  27.080  1.00  0.00     0.091 A 
ATOM     86  F   UNL A   1      47.699  30.166  28.584  1.00  0.00    -0.205 F 
ATOM     87  C   UNL A   1      45.886  32.480  26.408  1.00  0.00     0.022 A 
BRANCH  85  88
ATOM     88  S   UNL A   1      48.597  32.518  26.864  1.00  0.00     0.127 S 
ATOM     89  O   UNL A   1      48.891  33.049  28.193  1.00  0.00    -0.237 OA
ATOM     90  O   UNL A   1      49.367  31.329  26.495  1.00  0.00    -0.237 OA
ATOM     91  O   UNL A   1      48.495  33.511  25.800  1.00  0.00    -0.744 OA
ENDBRANCH  85  88
ENDBRANCH  58  81
ENDBRANCH  32  33
ENDBRANCH  25  27
ENDBRANCH  24  25
ENDBRANCH   1  24
TORSDOF 15
ENDMDL
