MODEL 1
REMARK VINA RESULT:     -12.2      0.000      0.000
REMARK SMILES C[C@@H]1C(C(=O)OCCOC(=O)c2ccc(-c3c4nc(c(-c5cccc(S(=O)(=O)[O-])c5F)c5ccc([nH]5)c(-c5cccc(S(=O)(=O)[O-])c5F)c5nc(c(-c6cccc(S(=O)(=O)[O-])c6F)c6ccc3[nH]6)C=C5)C=C4)cc2)=NC2=C1C(=O)C[C@H](c1ccccc1)C2
REMARK SMILES IDX 8 1 7 2 6 3 4 4 5 5 3 6 1 7 2 8 77 9 75 10 76 11 78 12 88 13
REMARK SMILES IDX 79 14 80 15 81 16 82 17 83 18 87 19 84 20 86 21 85 22 9 23
REMARK SMILES IDX 10 24 11 25 12 26 13 27 74 28 14 29 73 30 15 31 16 32 17 33
REMARK SMILES IDX 67 34 18 35 72 36 66 37 68 38 19 39 71 40 65 41 64 42 20 44
REMARK SMILES IDX 52 45 32 46 51 47 33 48 36 49 50 50 69 51 34 52 35 53 49 55
REMARK SMILES IDX 70 56 37 57 21 58 22 59 30 60 23 61 25 62 31 63 24 64 26 65
REMARK SMILES IDX 27 66 28 67 29 68 53 69 54 70 62 71 55 72 57 73 63 74 56 75
REMARK SMILES IDX 58 76 59 77 60 78 61 79 38 80 39 81 47 82 40 83 42 84 48 85
REMARK SMILES IDX 41 86 43 87 44 88 45 89 46 90
REMARK H PARENT 68 43 36 54
REMARK Flexibility Score: inf
ROOT
ATOM      1  C   UNL A   1      32.169  29.740  27.275  1.00  0.00     0.275 C 
ENDROOT
BRANCH   1   2
ATOM      2  C   UNL A   1      33.616  29.303  27.141  1.00  0.00     0.275 C 
BRANCH   2   3
ATOM      3  O   UNL A   1      33.679  27.881  26.935  1.00  0.00    -0.458 OA
BRANCH   3   4
ATOM      4  C   UNL A   1      33.733  27.453  25.647  1.00  0.00     0.353 C 
ATOM      5  O   UNL A   1      34.066  28.094  24.669  1.00  0.00    -0.245 OA
BRANCH   4   6
ATOM      6  C   UNL A   1      33.446  25.956  25.637  1.00  0.00     0.133 C 
ATOM      7  C   UNL A   1      35.420  24.529  25.940  1.00  0.00     0.020 C 
ATOM      8  C   UNL A   1      34.401  25.029  24.929  1.00  0.00     0.078 C 
ATOM      9  C   UNL A   1      33.341  24.034  24.634  1.00  0.00     0.026 C 
ATOM     10  N   UNL A   1      32.366  25.398  26.135  1.00  0.00    -0.249 NA
ATOM     11  C   UNL A   1      32.274  24.220  25.418  1.00  0.00     0.049 C 
ATOM     12  C   UNL A   1      33.157  23.402  23.321  1.00  0.00     0.161 C 
ATOM     13  C   UNL A   1      30.951  23.607  25.059  1.00  0.00     0.065 C 
ATOM     14  O   UNL A   1      34.126  22.895  22.757  1.00  0.00    -0.294 OA
ATOM     15  C   UNL A   1      31.771  23.452  22.677  1.00  0.00     0.089 C 
ATOM     16  C   UNL A   1      30.628  23.968  23.593  1.00  0.00     0.033 C 
BRANCH  16  17
ATOM     17  C   UNL A   1      30.303  25.464  23.434  1.00  0.00    -0.044 A 
ATOM     18  C   UNL A   1      31.515  26.600  22.672  1.00  0.00     0.004 A 
ATOM     19  C   UNL A   1      28.651  26.133  23.897  1.00  0.00     0.004 A 
ATOM     20  C   UNL A   1      31.093  28.325  22.316  1.00  0.00     0.000 A 
ATOM     21  C   UNL A   1      28.216  27.859  23.525  1.00  0.00     0.000 A 
ATOM     22  C   UNL A   1      29.417  28.973  22.726  1.00  0.00     0.000 A 
ENDBRANCH  16  17
ENDBRANCH   4   6
ENDBRANCH   3   4
ENDBRANCH   2   3
ENDBRANCH   1   2
BRANCH   1  23
ATOM     23  O   UNL A   1      31.954  30.886  26.421  1.00  0.00    -0.458 OA
BRANCH  23  24
ATOM     24  C   UNL A   1      32.161  32.212  27.087  1.00  0.00     0.338 C 
ATOM     25  O   UNL A   1      31.102  32.777  26.693  1.00  0.00    -0.246 OA
BRANCH  24  26
ATOM     26  C   UNL A   1      33.860  32.850  28.253  1.00  0.00     0.060 A 
ATOM     27  C   UNL A   1      35.003  33.702  27.907  1.00  0.00     0.016 A 
ATOM     28  C   UNL A   1      34.335  32.423  29.578  1.00  0.00     0.016 A 
ATOM     29  C   UNL A   1      36.321  33.286  28.061  1.00  0.00     0.010 A 
ATOM     30  C   UNL A   1      35.569  31.808  29.725  1.00  0.00     0.010 A 
ATOM     31  C   UNL A   1      36.561  32.182  28.855  1.00  0.00    -0.014 A 
BRANCH  31  32
ATOM     32  C   UNL A   1      37.924  31.923  29.250  1.00  0.00     0.031 A 
ATOM     33  C   UNL A   1      38.259  30.527  28.862  1.00  0.00     0.074 A 
ATOM     34  C   UNL A   1      38.785  32.820  29.751  1.00  0.00     0.049 A 
ATOM     35  N   UNL A   1      38.264  29.501  29.648  1.00  0.00    -0.248 NA
ATOM     36  C   UNL A   1      38.209  30.176  27.427  1.00  0.00     0.031 C 
ATOM     37  C   UNL A   1      38.664  34.271  29.871  1.00  0.00     0.029 A 
ATOM     38  N   UNL A   1      40.056  32.585  30.159  1.00  0.00    -0.354 N 
ATOM     39  C   UNL A   1      38.480  28.419  28.804  1.00  0.00     0.074 A 
ATOM     40  C   UNL A   1      38.109  28.849  27.491  1.00  0.00     0.031 C 
ATOM     41  C   UNL A   1      39.900  34.797  30.074  1.00  0.00     0.029 A 
ATOM     42  C   UNL A   1      40.862  33.714  30.218  1.00  0.00     0.049 A 
ATOM     43  H   UNL A   1      40.383  31.687  30.395  1.00  0.00     0.167 HD
ATOM     44  C   UNL A   1      39.293  27.402  29.189  1.00  0.00     0.034 A 
ATOM     45  C   UNL A   1      42.219  33.706  30.278  1.00  0.00     0.034 A 
ATOM     46  C   UNL A   1      39.455  27.396  30.624  1.00  0.00     0.049 A 
ATOM     47  C   UNL A   1      42.629  32.346  30.719  1.00  0.00     0.074 A 
ATOM     48  C   UNL A   1      38.579  27.338  31.692  1.00  0.00     0.029 A 
ATOM     49  N   UNL A   1      40.620  27.936  31.115  1.00  0.00    -0.354 N 
ATOM     50  N   UNL A   1      42.376  31.874  31.908  1.00  0.00    -0.248 NA
ATOM     51  C   UNL A   1      42.891  31.347  29.692  1.00  0.00     0.031 C 
ATOM     52  C   UNL A   1      39.093  28.273  32.639  1.00  0.00     0.029 A 
ATOM     53  C   UNL A   1      40.293  28.783  32.142  1.00  0.00     0.049 A 
ATOM     54  H   UNL A   1      41.530  27.747  30.788  1.00  0.00     0.167 HD
ATOM     55  C   UNL A   1      41.980  30.561  31.680  1.00  0.00     0.074 A 
ATOM     56  C   UNL A   1      42.411  30.264  30.313  1.00  0.00     0.031 C 
ATOM     57  C   UNL A   1      41.075  29.946  32.498  1.00  0.00     0.034 A 
BRANCH  44  58
ATOM     58  C   UNL A   1      40.277  26.727  28.258  1.00  0.00     0.023 A 
ATOM     59  C   UNL A   1      40.454  25.340  28.432  1.00  0.00     0.012 A 
ATOM     60  C   UNL A   1      41.222  27.392  27.435  1.00  0.00     0.148 A 
ATOM     61  C   UNL A   1      41.553  24.669  27.884  1.00  0.00     0.002 A 
ATOM     62  C   UNL A   1      42.267  26.709  26.831  1.00  0.00     0.091 A 
ATOM     63  F   UNL A   1      41.215  28.717  27.317  1.00  0.00    -0.205 F 
ATOM     64  C   UNL A   1      42.460  25.353  27.082  1.00  0.00     0.022 A 
BRANCH  62  65
ATOM     65  S   UNL A   1      43.444  27.551  25.761  1.00  0.00     0.127 S 
ATOM     66  O   UNL A   1      42.575  28.020  24.687  1.00  0.00    -0.237 OA
ATOM     67  O   UNL A   1      43.955  28.595  26.651  1.00  0.00    -0.237 OA
ATOM     68  O   UNL A   1      44.436  26.550  25.389  1.00  0.00    -0.744 OA
ENDBRANCH  62  65
ENDBRANCH  44  58
BRANCH  45  69
ATOM     69  C   UNL A   1      43.214  34.646  29.703  1.00  0.00     0.023 A 
ATOM     70  C   UNL A   1      43.901  35.535  30.558  1.00  0.00     0.012 A 
ATOM     71  C   UNL A   1      43.716  34.466  28.396  1.00  0.00     0.148 A 
ATOM     72  C   UNL A   1      45.071  36.184  30.142  1.00  0.00     0.002 A 
ATOM     73  C   UNL A   1      44.879  35.114  27.987  1.00  0.00     0.091 A 
ATOM     74  F   UNL A   1      43.111  33.585  27.589  1.00  0.00    -0.205 F 
ATOM     75  C   UNL A   1      45.567  35.964  28.862  1.00  0.00     0.022 A 
BRANCH  73  76
ATOM     76  S   UNL A   1      45.602  34.844  26.363  1.00  0.00     0.127 S 
ATOM     77  O   UNL A   1      46.390  36.063  26.177  1.00  0.00    -0.237 OA
ATOM     78  O   UNL A   1      46.389  33.633  26.579  1.00  0.00    -0.237 OA
ATOM     79  O   UNL A   1      44.479  34.712  25.444  1.00  0.00    -0.744 OA
ENDBRANCH  73  76
ENDBRANCH  45  69
BRANCH  57  80
ATOM     80  C   UNL A   1      40.701  30.643  33.783  1.00  0.00     0.023 A 
ATOM     81  C   UNL A   1      41.515  30.626  34.937  1.00  0.00     0.012 A 
ATOM     82  C   UNL A   1      39.561  31.462  33.774  1.00  0.00     0.148 A 
ATOM     83  C   UNL A   1      41.181  31.386  36.062  1.00  0.00     0.002 A 
ATOM     84  C   UNL A   1      39.258  32.251  34.874  1.00  0.00     0.091 A 
ATOM     85  F   UNL A   1      38.798  31.470  32.670  1.00  0.00    -0.205 F 
ATOM     86  C   UNL A   1      40.058  32.209  36.027  1.00  0.00     0.022 A 
BRANCH  84  87
ATOM     87  S   UNL A   1      37.894  33.414  34.834  1.00  0.00     0.127 S 
ATOM     88  O   UNL A   1      37.969  34.016  36.163  1.00  0.00    -0.237 OA
ATOM     89  O   UNL A   1      38.270  34.304  33.735  1.00  0.00    -0.237 OA
ATOM     90  O   UNL A   1      36.699  32.619  34.570  1.00  0.00    -0.744 OA
ENDBRANCH  84  87
ENDBRANCH  57  80
ENDBRANCH  31  32
ENDBRANCH  24  26
ENDBRANCH  23  24
ENDBRANCH   1  23
TORSDOF 15
ENDMDL
MODEL 2
REMARK VINA RESULT:     -12.0      4.381      9.122
REMARK SMILES C[C@@H]1C(C(=O)OCCOC(=O)c2ccc(-c3c4nc(c(-c5cccc(S(=O)(=O)[O-])c5F)c5ccc([nH]5)c(-c5cccc(S(=O)(=O)[O-])c5F)c5nc(c(-c6cccc(S(=O)(=O)[O-])c6F)c6ccc3[nH]6)C=C5)C=C4)cc2)=NC2=C1C(=O)C[C@H](c1ccccc1)C2
REMARK SMILES IDX 8 1 7 2 6 3 4 4 5 5 3 6 1 7 2 8 77 9 75 10 76 11 78 12 88 13
REMARK SMILES IDX 79 14 80 15 81 16 82 17 83 18 87 19 84 20 86 21 85 22 9 23
REMARK SMILES IDX 10 24 11 25 12 26 13 27 74 28 14 29 73 30 15 31 16 32 17 33
REMARK SMILES IDX 67 34 18 35 72 36 66 37 68 38 19 39 71 40 65 41 64 42 20 44
REMARK SMILES IDX 52 45 32 46 51 47 33 48 36 49 50 50 69 51 34 52 35 53 49 55
REMARK SMILES IDX 70 56 37 57 21 58 22 59 30 60 23 61 25 62 31 63 24 64 26 65
REMARK SMILES IDX 27 66 28 67 29 68 53 69 54 70 62 71 55 72 57 73 63 74 56 75
REMARK SMILES IDX 58 76 59 77 60 78 61 79 38 80 39 81 47 82 40 83 42 84 48 85
REMARK SMILES IDX 41 86 43 87 44 88 45 89 46 90
REMARK H PARENT 68 43 36 54
REMARK Flexibility Score: inf
ROOT
ATOM      1  C   UNL A   1      37.445  21.708  25.139  1.00  0.00     0.275 C 
ENDROOT
BRANCH   1   2
ATOM      2  C   UNL A   1      36.463  22.290  24.140  1.00  0.00     0.275 C 
BRANCH   2   3
ATOM      3  O   UNL A   1      35.343  22.866  24.836  1.00  0.00    -0.458 OA
BRANCH   3   4
ATOM      4  C   UNL A   1      35.522  24.110  25.352  1.00  0.00     0.353 C 
ATOM      5  O   UNL A   1      36.459  24.506  26.018  1.00  0.00    -0.245 OA
BRANCH   4   6
ATOM      6  C   UNL A   1      34.402  25.001  24.827  1.00  0.00     0.133 C 
ATOM      7  C   UNL A   1      34.363  27.267  25.771  1.00  0.00     0.020 C 
ATOM      8  C   UNL A   1      33.676  25.911  25.786  1.00  0.00     0.078 C 
ATOM      9  C   UNL A   1      32.427  25.885  24.987  1.00  0.00     0.026 C 
ATOM     10  N   UNL A   1      33.947  24.984  23.595  1.00  0.00    -0.249 NA
ATOM     11  C   UNL A   1      32.661  25.468  23.739  1.00  0.00     0.049 C 
ATOM     12  C   UNL A   1      31.091  25.684  25.566  1.00  0.00     0.161 C 
ATOM     13  C   UNL A   1      31.530  24.995  22.870  1.00  0.00     0.065 C 
ATOM     14  O   UNL A   1      30.746  26.364  26.530  1.00  0.00    -0.294 OA
ATOM     15  C   UNL A   1      30.201  24.588  24.978  1.00  0.00     0.089 C 
ATOM     16  C   UNL A   1      30.714  23.948  23.658  1.00  0.00     0.033 C 
BRANCH  16  17
ATOM     17  C   UNL A   1      31.500  22.638  23.844  1.00  0.00    -0.044 A 
ATOM     18  C   UNL A   1      32.117  22.152  25.494  1.00  0.00     0.004 A 
ATOM     19  C   UNL A   1      31.743  21.468  22.443  1.00  0.00     0.004 A 
ATOM     20  C   UNL A   1      32.891  20.538  25.771  1.00  0.00     0.000 A 
ATOM     21  C   UNL A   1      32.502  19.840  22.720  1.00  0.00     0.000 A 
ATOM     22  C   UNL A   1      33.076  19.348  24.378  1.00  0.00     0.000 A 
ENDBRANCH  16  17
ENDBRANCH   4   6
ENDBRANCH   3   4
ENDBRANCH   2   3
ENDBRANCH   1   2
BRANCH   1  23
ATOM     23  O   UNL A   1      37.945  20.457  24.617  1.00  0.00    -0.458 OA
BRANCH  23  24
ATOM     24  C   UNL A   1      39.049  19.839  25.419  1.00  0.00     0.338 C 
ATOM     25  O   UNL A   1      38.629  18.647  25.412  1.00  0.00    -0.246 OA
BRANCH  24  26
ATOM     26  C   UNL A   1      40.731  20.832  26.333  1.00  0.00     0.060 A 
ATOM     27  C   UNL A   1      41.236  20.807  27.710  1.00  0.00     0.016 A 
ATOM     28  C   UNL A   1      41.618  21.890  25.824  1.00  0.00     0.016 A 
ATOM     29  C   UNL A   1      41.425  21.962  28.460  1.00  0.00     0.010 A 
ATOM     30  C   UNL A   1      41.666  23.132  26.438  1.00  0.00     0.010 A 
ATOM     31  C   UNL A   1      41.449  23.170  27.791  1.00  0.00    -0.014 A 
BRANCH  31  32
ATOM     32  C   UNL A   1      41.928  24.326  28.510  1.00  0.00     0.031 A 
ATOM     33  C   UNL A   1      40.957  25.434  28.300  1.00  0.00     0.074 A 
ATOM     34  C   UNL A   1      42.984  24.362  29.334  1.00  0.00     0.049 A 
ATOM     35  N   UNL A   1      41.086  26.406  27.460  1.00  0.00    -0.248 NA
ATOM     36  C   UNL A   1      39.572  25.240  28.777  1.00  0.00     0.031 C 
ATOM     37  C   UNL A   1      43.804  23.271  29.857  1.00  0.00     0.029 A 
ATOM     38  N   UNL A   1      43.467  25.446  29.989  1.00  0.00    -0.354 N 
ATOM     39  C   UNL A   1      39.873  27.080  27.521  1.00  0.00     0.074 A 
ATOM     40  C   UNL A   1      38.923  26.155  28.059  1.00  0.00     0.031 C 
ATOM     41  C   UNL A   1      44.499  23.724  30.932  1.00  0.00     0.029 A 
ATOM     42  C   UNL A   1      44.262  25.151  31.087  1.00  0.00     0.049 A 
ATOM     43  H   UNL A   1      43.270  26.369  29.708  1.00  0.00     0.167 HD
ATOM     44  C   UNL A   1      39.840  28.437  27.480  1.00  0.00     0.034 A 
ATOM     45  C   UNL A   1      44.590  26.025  32.075  1.00  0.00     0.034 A 
ATOM     46  C   UNL A   1      41.065  28.958  26.922  1.00  0.00     0.049 A 
ATOM     47  C   UNL A   1      44.344  27.394  31.546  1.00  0.00     0.074 A 
ATOM     48  C   UNL A   1      41.743  28.761  25.733  1.00  0.00     0.029 A 
ATOM     49  N   UNL A   1      41.993  29.440  27.815  1.00  0.00    -0.354 N 
ATOM     50  N   UNL A   1      45.039  27.921  30.577  1.00  0.00    -0.248 NA
ATOM     51  C   UNL A   1      43.031  27.983  31.767  1.00  0.00     0.031 C 
ATOM     52  C   UNL A   1      43.118  28.681  26.105  1.00  0.00     0.029 A 
ATOM     53  C   UNL A   1      43.215  28.921  27.476  1.00  0.00     0.049 A 
ATOM     54  H   UNL A   1      41.812  30.052  28.566  1.00  0.00     0.167 HD
ATOM     55  C   UNL A   1      44.093  28.557  29.782  1.00  0.00     0.074 A 
ATOM     56  C   UNL A   1      42.892  28.645  30.614  1.00  0.00     0.031 C 
ATOM     57  C   UNL A   1      44.271  28.672  28.433  1.00  0.00     0.034 A 
BRANCH  44  58
ATOM     58  C   UNL A   1      38.922  29.272  28.347  1.00  0.00     0.023 A 
ATOM     59  C   UNL A   1      39.050  29.102  29.740  1.00  0.00     0.012 A 
ATOM     60  C   UNL A   1      37.782  29.983  27.894  1.00  0.00     0.148 A 
ATOM     61  C   UNL A   1      38.060  29.544  30.623  1.00  0.00     0.002 A 
ATOM     62  C   UNL A   1      36.839  30.486  28.779  1.00  0.00     0.091 A 
ATOM     63  F   UNL A   1      37.506  30.081  26.595  1.00  0.00    -0.205 F 
ATOM     64  C   UNL A   1      36.955  30.237  30.144  1.00  0.00     0.022 A 
BRANCH  62  65
ATOM     65  S   UNL A   1      35.411  31.416  28.201  1.00  0.00     0.127 S 
ATOM     66  O   UNL A   1      34.725  30.418  27.387  1.00  0.00    -0.237 OA
ATOM     67  O   UNL A   1      34.751  31.753  29.462  1.00  0.00    -0.237 OA
ATOM     68  O   UNL A   1      35.945  32.567  27.483  1.00  0.00    -0.744 OA
ENDBRANCH  62  65
ENDBRANCH  44  58
BRANCH  45  69
ATOM     69  C   UNL A   1      44.800  25.802  33.527  1.00  0.00     0.023 A 
ATOM     70  C   UNL A   1      46.116  25.743  34.035  1.00  0.00     0.012 A 
ATOM     71  C   UNL A   1      43.743  25.959  34.449  1.00  0.00     0.148 A 
ATOM     72  C   UNL A   1      46.373  25.882  35.406  1.00  0.00     0.002 A 
ATOM     73  C   UNL A   1      44.002  26.096  35.810  1.00  0.00     0.091 A 
ATOM     74  F   UNL A   1      42.493  26.072  33.982  1.00  0.00    -0.205 F 
ATOM     75  C   UNL A   1      45.317  26.072  36.291  1.00  0.00     0.022 A 
BRANCH  73  76
ATOM     76  S   UNL A   1      42.693  26.387  37.008  1.00  0.00     0.127 S 
ATOM     77  O   UNL A   1      42.215  27.714  36.618  1.00  0.00    -0.237 OA
ATOM     78  O   UNL A   1      41.770  25.293  36.718  1.00  0.00    -0.237 OA
ATOM     79  O   UNL A   1      43.334  26.342  38.316  1.00  0.00    -0.744 OA
ENDBRANCH  73  76
ENDBRANCH  45  69
BRANCH  57  80
ATOM     80  C   UNL A   1      45.621  28.306  27.866  1.00  0.00     0.023 A 
ATOM     81  C   UNL A   1      46.716  29.197  27.842  1.00  0.00     0.012 A 
ATOM     82  C   UNL A   1      45.829  26.972  27.483  1.00  0.00     0.148 A 
ATOM     83  C   UNL A   1      47.979  28.771  27.418  1.00  0.00     0.002 A 
ATOM     84  C   UNL A   1      47.093  26.541  27.107  1.00  0.00     0.091 A 
ATOM     85  F   UNL A   1      44.780  26.136  27.513  1.00  0.00    -0.205 F 
ATOM     86  C   UNL A   1      48.170  27.439  27.061  1.00  0.00     0.022 A 
BRANCH  84  87
ATOM     87  S   UNL A   1      47.417  24.813  26.755  1.00  0.00     0.127 S 
ATOM     88  O   UNL A   1      48.861  24.726  26.960  1.00  0.00    -0.237 OA
ATOM     89  O   UNL A   1      46.611  24.128  27.766  1.00  0.00    -0.237 OA
ATOM     90  O   UNL A   1      46.962  24.592  25.387  1.00  0.00    -0.744 OA
ENDBRANCH  84  87
ENDBRANCH  57  80
ENDBRANCH  31  32
ENDBRANCH  24  26
ENDBRANCH  23  24
ENDBRANCH   1  23
TORSDOF 15
ENDMDL
MODEL 3
REMARK VINA RESULT:     -12.0      4.178      8.956
REMARK SMILES C[C@@H]1C(C(=O)OCCOC(=O)c2ccc(-c3c4nc(c(-c5cccc(S(=O)(=O)[O-])c5F)c5ccc([nH]5)c(-c5cccc(S(=O)(=O)[O-])c5F)c5nc(c(-c6cccc(S(=O)(=O)[O-])c6F)c6ccc3[nH]6)C=C5)C=C4)cc2)=NC2=C1C(=O)C[C@H](c1ccccc1)C2
REMARK SMILES IDX 8 1 7 2 6 3 4 4 5 5 3 6 1 7 2 8 77 9 75 10 76 11 78 12 88 13
REMARK SMILES IDX 79 14 80 15 81 16 82 17 83 18 87 19 84 20 86 21 85 22 9 23
REMARK SMILES IDX 10 24 11 25 12 26 13 27 74 28 14 29 73 30 15 31 16 32 17 33
REMARK SMILES IDX 67 34 18 35 72 36 66 37 68 38 19 39 71 40 65 41 64 42 20 44
REMARK SMILES IDX 52 45 32 46 51 47 33 48 36 49 50 50 69 51 34 52 35 53 49 55
REMARK SMILES IDX 70 56 37 57 21 58 22 59 30 60 23 61 25 62 31 63 24 64 26 65
REMARK SMILES IDX 27 66 28 67 29 68 53 69 54 70 62 71 55 72 57 73 63 74 56 75
REMARK SMILES IDX 58 76 59 77 60 78 61 79 38 80 39 81 47 82 40 83 42 84 48 85
REMARK SMILES IDX 41 86 43 87 44 88 45 89 46 90
REMARK H PARENT 68 43 36 54
REMARK Flexibility Score: inf
ROOT
ATOM      1  C   UNL A   1      36.613  21.107  25.361  1.00  0.00     0.275 C 
ENDROOT
BRANCH   1   2
ATOM      2  C   UNL A   1      36.819  22.468  25.997  1.00  0.00     0.275 C 
BRANCH   2   3
ATOM      3  O   UNL A   1      35.568  22.966  26.503  1.00  0.00    -0.458 OA
BRANCH   3   4
ATOM      4  C   UNL A   1      34.900  23.848  25.715  1.00  0.00     0.353 C 
ATOM      5  O   UNL A   1      35.376  24.720  25.013  1.00  0.00    -0.245 OA
BRANCH   4   6
ATOM      6  C   UNL A   1      33.424  23.470  25.735  1.00  0.00     0.133 C 
ATOM      7  C   UNL A   1      32.896  21.338  24.638  1.00  0.00     0.020 C 
ATOM      8  C   UNL A   1      32.808  22.850  24.505  1.00  0.00     0.078 C 
ATOM      9  C   UNL A   1      31.459  23.381  24.817  1.00  0.00     0.026 C 
ATOM     10  N   UNL A   1      32.600  23.719  26.726  1.00  0.00    -0.249 NA
ATOM     11  C   UNL A   1      31.368  23.744  26.100  1.00  0.00     0.049 C 
ATOM     12  C   UNL A   1      30.592  24.038  23.829  1.00  0.00     0.161 C 
ATOM     13  C   UNL A   1      30.261  24.650  26.558  1.00  0.00     0.065 C 
ATOM     14  O   UNL A   1      30.390  23.488  22.748  1.00  0.00    -0.294 OA
ATOM     15  C   UNL A   1      30.020  25.416  24.165  1.00  0.00     0.089 C 
ATOM     16  C   UNL A   1      30.225  25.884  25.631  1.00  0.00     0.033 C 
BRANCH  16  17
ATOM     17  C   UNL A   1      31.447  26.794  25.850  1.00  0.00    -0.044 A 
ATOM     18  C   UNL A   1      32.746  26.925  24.570  1.00  0.00     0.004 A 
ATOM     19  C   UNL A   1      31.584  27.861  27.345  1.00  0.00     0.004 A 
ATOM     20  C   UNL A   1      34.102  28.116  24.726  1.00  0.00     0.000 A 
ATOM     21  C   UNL A   1      32.933  29.070  27.496  1.00  0.00     0.000 A 
ATOM     22  C   UNL A   1      34.200  29.223  26.195  1.00  0.00     0.000 A 
ENDBRANCH  16  17
ENDBRANCH   4   6
ENDBRANCH   3   4
ENDBRANCH   2   3
ENDBRANCH   1   2
BRANCH   1  23
ATOM     23  O   UNL A   1      37.754  20.813  24.524  1.00  0.00    -0.458 OA
BRANCH  23  24
ATOM     24  C   UNL A   1      38.872  20.097  25.218  1.00  0.00     0.338 C 
ATOM     25  O   UNL A   1      38.468  18.914  25.035  1.00  0.00    -0.246 OA
BRANCH  24  26
ATOM     26  C   UNL A   1      40.548  20.968  26.260  1.00  0.00     0.060 A 
ATOM     27  C   UNL A   1      40.948  20.902  27.669  1.00  0.00     0.016 A 
ATOM     28  C   UNL A   1      41.542  21.962  25.826  1.00  0.00     0.016 A 
ATOM     29  C   UNL A   1      41.161  22.039  28.441  1.00  0.00     0.010 A 
ATOM     30  C   UNL A   1      41.631  23.195  26.451  1.00  0.00     0.010 A 
ATOM     31  C   UNL A   1      41.319  23.245  27.785  1.00  0.00    -0.014 A 
BRANCH  31  32
ATOM     32  C   UNL A   1      41.824  24.362  28.545  1.00  0.00     0.031 A 
ATOM     33  C   UNL A   1      40.863  25.489  28.403  1.00  0.00     0.074 A 
ATOM     34  C   UNL A   1      42.895  24.350  29.352  1.00  0.00     0.049 A 
ATOM     35  N   UNL A   1      40.988  26.496  27.605  1.00  0.00    -0.248 NA
ATOM     36  C   UNL A   1      39.483  25.288  28.896  1.00  0.00     0.031 C 
ATOM     37  C   UNL A   1      43.710  23.227  29.810  1.00  0.00     0.029 A 
ATOM     38  N   UNL A   1      43.401  25.398  30.045  1.00  0.00    -0.354 N 
ATOM     39  C   UNL A   1      39.784  27.180  27.718  1.00  0.00     0.074 A 
ATOM     40  C   UNL A   1      38.833  26.242  28.231  1.00  0.00     0.031 C 
ATOM     41  C   UNL A   1      44.429  23.624  30.892  1.00  0.00     0.029 A 
ATOM     42  C   UNL A   1      44.212  25.046  31.115  1.00  0.00     0.049 A 
ATOM     43  H   UNL A   1      43.210  26.334  29.810  1.00  0.00     0.167 HD
ATOM     44  C   UNL A   1      39.766  28.537  27.738  1.00  0.00     0.034 A 
ATOM     45  C   UNL A   1      44.567  25.871  32.135  1.00  0.00     0.034 A 
ATOM     46  C   UNL A   1      40.987  29.070  27.182  1.00  0.00     0.049 A 
ATOM     47  C   UNL A   1      44.328  27.265  31.672  1.00  0.00     0.074 A 
ATOM     48  C   UNL A   1      41.642  28.919  25.973  1.00  0.00     0.029 A 
ATOM     49  N   UNL A   1      41.936  29.501  28.079  1.00  0.00    -0.354 N 
ATOM     50  N   UNL A   1      45.012  27.827  30.716  1.00  0.00    -0.248 NA
ATOM     51  C   UNL A   1      43.026  27.857  31.943  1.00  0.00     0.031 C 
ATOM     52  C   UNL A   1      43.022  28.808  26.316  1.00  0.00     0.029 A 
ATOM     53  C   UNL A   1      43.146  28.984  27.695  1.00  0.00     0.049 A 
ATOM     54  H   UNL A   1      41.775  30.081  28.859  1.00  0.00     0.167 HD
ATOM     55  C   UNL A   1      44.060  28.508  29.967  1.00  0.00     0.074 A 
ATOM     56  C   UNL A   1      42.875  28.572  30.823  1.00  0.00     0.031 C 
ATOM     57  C   UNL A   1      44.215  28.681  28.621  1.00  0.00     0.034 A 
BRANCH  44  58
ATOM     58  C   UNL A   1      38.873  29.342  28.657  1.00  0.00     0.023 A 
ATOM     59  C   UNL A   1      38.171  30.413  28.070  1.00  0.00     0.012 A 
ATOM     60  C   UNL A   1      38.894  29.295  30.075  1.00  0.00     0.148 A 
ATOM     61  C   UNL A   1      37.592  31.421  28.848  1.00  0.00     0.002 A 
ATOM     62  C   UNL A   1      38.254  30.256  30.844  1.00  0.00     0.091 A 
ATOM     63  F   UNL A   1      39.638  28.400  30.721  1.00  0.00    -0.205 F 
ATOM     64  C   UNL A   1      37.632  31.343  30.235  1.00  0.00     0.022 A 
BRANCH  62  65
ATOM     65  S   UNL A   1      38.255  30.174  32.642  1.00  0.00     0.127 S 
ATOM     66  O   UNL A   1      39.661  30.424  32.942  1.00  0.00    -0.237 OA
ATOM     67  O   UNL A   1      37.340  31.262  32.986  1.00  0.00    -0.237 OA
ATOM     68  O   UNL A   1      37.756  28.847  32.983  1.00  0.00    -0.744 OA
ENDBRANCH  62  65
ENDBRANCH  44  58
BRANCH  45  69
ATOM     69  C   UNL A   1      44.800  25.580  33.572  1.00  0.00     0.023 A 
ATOM     70  C   UNL A   1      46.122  25.409  34.038  1.00  0.00     0.012 A 
ATOM     71  C   UNL A   1      43.782  25.779  34.529  1.00  0.00     0.148 A 
ATOM     72  C   UNL A   1      46.425  25.479  35.404  1.00  0.00     0.002 A 
ATOM     73  C   UNL A   1      44.088  25.848  35.886  1.00  0.00     0.091 A 
ATOM     74  F   UNL A   1      42.532  25.999  34.104  1.00  0.00    -0.205 F 
ATOM     75  C   UNL A   1      45.411  25.712  36.326  1.00  0.00     0.022 A 
BRANCH  73  76
ATOM     76  S   UNL A   1      42.837  26.188  37.132  1.00  0.00     0.127 S 
ATOM     77  O   UNL A   1      43.640  26.272  38.352  1.00  0.00    -0.237 OA
ATOM     78  O   UNL A   1      42.289  27.461  36.671  1.00  0.00    -0.237 OA
ATOM     79  O   UNL A   1      41.920  25.056  37.095  1.00  0.00    -0.744 OA
ENDBRANCH  73  76
ENDBRANCH  45  69
BRANCH  57  80
ATOM     80  C   UNL A   1      45.551  28.327  28.014  1.00  0.00     0.023 A 
ATOM     81  C   UNL A   1      46.643  29.221  27.974  1.00  0.00     0.012 A 
ATOM     82  C   UNL A   1      45.751  26.999  27.608  1.00  0.00     0.148 A 
ATOM     83  C   UNL A   1      47.895  28.804  27.511  1.00  0.00     0.002 A 
ATOM     84  C   UNL A   1      47.006  26.576  27.193  1.00  0.00     0.091 A 
ATOM     85  F   UNL A   1      44.706  26.160  27.653  1.00  0.00    -0.205 F 
ATOM     86  C   UNL A   1      48.080  27.478  27.132  1.00  0.00     0.022 A 
BRANCH  84  87
ATOM     87  S   UNL A   1      47.325  24.854  26.809  1.00  0.00     0.127 S 
ATOM     88  O   UNL A   1      46.217  24.182  27.485  1.00  0.00    -0.237 OA
ATOM     89  O   UNL A   1      47.251  24.838  25.347  1.00  0.00    -0.237 OA
ATOM     90  O   UNL A   1      48.652  24.565  27.338  1.00  0.00    -0.744 OA
ENDBRANCH  84  87
ENDBRANCH  57  80
ENDBRANCH  31  32
ENDBRANCH  24  26
ENDBRANCH  23  24
ENDBRANCH   1  23
TORSDOF 15
ENDMDL
