MODEL 1
REMARK VINA RESULT:     -12.0      0.000      0.000
REMARK SMILES CC(C)c1ccc(O[C@H](C)C(=O)Nc2ccccc2C(=O)OCCOC(=O)c2ccc(-c3c4nc(c(-c5cccc(S(=O)(=O)[O-])c5F)c5ccc([nH]5)c(-c5cccc(S(=O)(=O)[O-])c5F)c5nc(c(-c6cccc(S(=O)(=O)[O-])c6F)c6ccc3[nH]6)C=C5)C=C4)cc2)cc1
REMARK SMILES IDX 23 1 22 2 20 3 21 4 19 5 14 6 15 7 16 8 18 9 17 10 13 11
REMARK SMILES IDX 11 12 12 13 9 15 10 16 8 17 7 18 4 19 5 20 92 21 6 22 91 23
REMARK SMILES IDX 2 24 1 25 3 26 24 27 25 28 26 29 27 30 28 31 29 32 90 33
REMARK SMILES IDX 30 34 89 35 31 36 32 37 33 38 83 39 34 40 88 41 82 42 84 43
REMARK SMILES IDX 35 44 87 45 81 46 80 47 36 49 68 50 48 51 67 52 49 53 52 54
REMARK SMILES IDX 66 55 85 56 50 57 51 58 65 60 86 61 53 62 37 63 38 64 46 65
REMARK SMILES IDX 39 66 41 67 47 68 40 69 42 70 43 71 44 72 45 73 69 74 70 75
REMARK SMILES IDX 78 76 71 77 73 78 79 79 72 80 74 81 75 82 76 83 77 84 54 85
REMARK SMILES IDX 55 86 63 87 56 88 58 89 64 90 57 91 59 92 60 93 61 94 62 95
REMARK H PARENT 13 14 84 48 52 59
REMARK Flexibility Score: inf
ROOT
ATOM      1  C   UNL A   1      35.794  21.869  24.018  1.00  0.00     0.275 C 
ENDROOT
BRANCH   1   2
ATOM      2  O   UNL A   1      35.814  23.283  23.725  1.00  0.00    -0.458 OA
BRANCH   2   3
ATOM      3  C   UNL A   1      34.623  23.762  23.309  1.00  0.00     0.340 C 
ATOM      4  O   UNL A   1      33.938  23.268  22.420  1.00  0.00    -0.246 OA
BRANCH   3   5
ATOM      5  C   UNL A   1      34.216  24.997  23.983  1.00  0.00     0.083 A 
ATOM      6  C   UNL A   1      34.143  25.086  25.380  1.00  0.00     0.055 A 
ATOM      7  C   UNL A   1      33.730  26.291  25.962  1.00  0.00     0.027 A 
ATOM      8  C   UNL A   1      33.516  27.424  25.170  1.00  0.00     0.002 A 
ATOM      9  C   UNL A   1      33.968  26.129  23.192  1.00  0.00     0.018 A 
ATOM     10  C   UNL A   1      33.645  27.347  23.787  1.00  0.00     0.001 A 
BRANCH   6  11
ATOM     11  N   UNL A   1      34.456  24.023  26.249  1.00  0.00    -0.322 N 
ATOM     12  C   UNL A   1      33.647  23.005  26.703  1.00  0.00     0.265 C 
ATOM     13  O   UNL A   1      33.955  22.468  27.774  1.00  0.00    -0.270 OA
ATOM     14  H   UNL A   1      35.384  24.005  26.578  1.00  0.00     0.170 HD
BRANCH  12  15
ATOM     15  C   UNL A   1      32.516  22.408  25.801  1.00  0.00     0.259 C 
ATOM     16  C   UNL A   1      32.691  20.895  25.659  1.00  0.00     0.064 C 
BRANCH  15  17
ATOM     17  O   UNL A   1      31.234  22.891  26.181  1.00  0.00    -0.481 OA
BRANCH  17  18
ATOM     18  C   UNL A   1      30.637  23.881  25.465  1.00  0.00     0.120 A 
ATOM     19  C   UNL A   1      30.046  26.218  24.015  1.00  0.00    -0.045 A 
ATOM     20  C   UNL A   1      29.885  26.177  25.404  1.00  0.00     0.008 A 
ATOM     21  C   UNL A   1      30.446  25.045  23.355  1.00  0.00     0.008 A 
ATOM     22  C   UNL A   1      30.185  25.022  26.117  1.00  0.00     0.047 A 
ATOM     23  C   UNL A   1      30.759  23.886  24.080  1.00  0.00     0.047 A 
BRANCH  19  24
ATOM     24  C   UNL A   1      29.791  27.534  23.305  1.00  0.00     0.013 C 
ATOM     25  C   UNL A   1      28.304  27.860  23.143  1.00  0.00     0.012 C 
ATOM     26  C   UNL A   1      30.537  28.671  23.999  1.00  0.00     0.012 C 
ENDBRANCH  19  24
ENDBRANCH  17  18
ENDBRANCH  15  17
ENDBRANCH  12  15
ENDBRANCH   6  11
ENDBRANCH   3   5
ENDBRANCH   2   3
ENDBRANCH   1   2
BRANCH   1  27
ATOM     27  C   UNL A   1      36.802  21.402  25.078  1.00  0.00     0.275 C 
BRANCH  27  28
ATOM     28  O   UNL A   1      38.141  21.890  24.868  1.00  0.00    -0.458 OA
BRANCH  28  29
ATOM     29  C   UNL A   1      39.026  21.521  25.822  1.00  0.00     0.338 C 
ATOM     30  O   UNL A   1      39.504  20.410  25.986  1.00  0.00    -0.246 OA
BRANCH  29  31
ATOM     31  C   UNL A   1      39.412  22.655  26.677  1.00  0.00     0.060 A 
ATOM     32  C   UNL A   1      38.937  23.931  26.368  1.00  0.00     0.016 A 
ATOM     33  C   UNL A   1      40.444  22.498  27.598  1.00  0.00     0.016 A 
ATOM     34  C   UNL A   1      39.563  25.062  26.877  1.00  0.00     0.010 A 
ATOM     35  C   UNL A   1      41.026  23.633  28.170  1.00  0.00     0.010 A 
ATOM     36  C   UNL A   1      40.629  24.923  27.768  1.00  0.00    -0.014 A 
BRANCH  36  37
ATOM     37  C   UNL A   1      41.409  26.106  28.202  1.00  0.00     0.031 A 
ATOM     38  C   UNL A   1      40.714  27.181  28.992  1.00  0.00     0.074 A 
ATOM     39  C   UNL A   1      42.708  26.231  27.874  1.00  0.00     0.049 A 
ATOM     40  N   UNL A   1      41.085  28.411  29.222  1.00  0.00    -0.248 NA
ATOM     41  C   UNL A   1      39.413  26.825  29.586  1.00  0.00     0.031 C 
ATOM     42  C   UNL A   1      43.509  25.222  27.179  1.00  0.00     0.029 A 
ATOM     43  N   UNL A   1      43.572  27.282  28.049  1.00  0.00    -0.354 N 
ATOM     44  C   UNL A   1      40.028  29.003  29.903  1.00  0.00     0.074 A 
ATOM     45  C   UNL A   1      39.012  27.989  30.077  1.00  0.00     0.031 C 
ATOM     46  C   UNL A   1      44.739  25.712  26.960  1.00  0.00     0.029 A 
ATOM     47  C   UNL A   1      44.782  27.095  27.422  1.00  0.00     0.049 A 
ATOM     48  H   UNL A   1      43.349  28.088  28.570  1.00  0.00     0.167 HD
ATOM     49  C   UNL A   1      39.919  30.281  30.335  1.00  0.00     0.034 A 
ATOM     50  C   UNL A   1      45.783  27.963  27.184  1.00  0.00     0.034 A 
ATOM     51  C   UNL A   1      40.972  31.251  30.209  1.00  0.00     0.049 A 
ATOM     52  C   UNL A   1      45.637  29.383  27.662  1.00  0.00     0.074 A 
ATOM     53  C   UNL A   1      40.987  32.569  30.629  1.00  0.00     0.029 A 
ATOM     54  N   UNL A   1      42.206  31.002  29.625  1.00  0.00    -0.354 N 
ATOM     55  N   UNL A   1      44.640  29.934  28.311  1.00  0.00    -0.248 NA
ATOM     56  C   UNL A   1      46.755  30.295  27.387  1.00  0.00     0.031 C 
ATOM     57  C   UNL A   1      42.227  33.118  30.290  1.00  0.00     0.029 A 
ATOM     58  C   UNL A   1      42.993  32.136  29.679  1.00  0.00     0.049 A 
ATOM     59  H   UNL A   1      42.481  30.142  29.232  1.00  0.00     0.167 HD
ATOM     60  C   UNL A   1      45.024  31.248  28.555  1.00  0.00     0.074 A 
ATOM     61  C   UNL A   1      46.351  31.404  27.993  1.00  0.00     0.031 C 
ATOM     62  C   UNL A   1      44.338  32.240  29.173  1.00  0.00     0.034 A 
BRANCH  49  63
ATOM     63  C   UNL A   1      38.624  30.702  30.979  1.00  0.00     0.023 A 
ATOM     64  C   UNL A   1      38.424  30.504  32.360  1.00  0.00     0.012 A 
ATOM     65  C   UNL A   1      37.621  31.338  30.220  1.00  0.00     0.148 A 
ATOM     66  C   UNL A   1      37.233  30.903  32.968  1.00  0.00     0.002 A 
ATOM     67  C   UNL A   1      36.456  31.772  30.842  1.00  0.00     0.091 A 
ATOM     68  F   UNL A   1      37.819  31.497  28.904  1.00  0.00    -0.205 F 
ATOM     69  C   UNL A   1      36.256  31.545  32.213  1.00  0.00     0.022 A 
BRANCH  67  70
ATOM     70  S   UNL A   1      35.171  32.677  29.969  1.00  0.00     0.127 S 
ATOM     71  O   UNL A   1      35.917  33.821  29.448  1.00  0.00    -0.237 OA
ATOM     72  O   UNL A   1      34.749  31.711  28.954  1.00  0.00    -0.237 OA
ATOM     73  O   UNL A   1      34.156  32.991  30.965  1.00  0.00    -0.744 OA
ENDBRANCH  67  70
ENDBRANCH  49  63
BRANCH  50  74
ATOM     74  C   UNL A   1      47.001  27.510  26.453  1.00  0.00     0.023 A 
ATOM     75  C   UNL A   1      47.955  26.720  27.121  1.00  0.00     0.012 A 
ATOM     76  C   UNL A   1      47.195  27.813  25.090  1.00  0.00     0.148 A 
ATOM     77  C   UNL A   1      49.088  26.257  26.453  1.00  0.00     0.002 A 
ATOM     78  C   UNL A   1      48.295  27.298  24.414  1.00  0.00     0.091 A 
ATOM     79  F   UNL A   1      46.286  28.583  24.473  1.00  0.00    -0.205 F 
ATOM     80  C   UNL A   1      49.252  26.533  25.098  1.00  0.00     0.022 A 
BRANCH  78  81
ATOM     81  S   UNL A   1      48.507  27.483  22.640  1.00  0.00     0.127 S 
ATOM     82  O   UNL A   1      47.312  28.239  22.274  1.00  0.00    -0.237 OA
ATOM     83  O   UNL A   1      49.759  28.236  22.560  1.00  0.00    -0.237 OA
ATOM     84  O   UNL A   1      48.590  26.128  22.112  1.00  0.00    -0.744 OA
ENDBRANCH  78  81
ENDBRANCH  50  74
BRANCH  62  85
ATOM     85  C   UNL A   1      45.028  33.565  29.338  1.00  0.00     0.023 A 
ATOM     86  C   UNL A   1      45.825  33.806  30.473  1.00  0.00     0.012 A 
ATOM     87  C   UNL A   1      44.964  34.529  28.312  1.00  0.00     0.148 A 
ATOM     88  C   UNL A   1      46.534  35.000  30.595  1.00  0.00     0.002 A 
ATOM     89  C   UNL A   1      45.711  35.695  28.420  1.00  0.00     0.091 A 
ATOM     90  F   UNL A   1      44.183  34.283  27.252  1.00  0.00    -0.205 F 
ATOM     91  C   UNL A   1      46.489  35.936  29.564  1.00  0.00     0.022 A 
BRANCH  89  92
ATOM     92  S   UNL A   1      45.790  36.909  27.099  1.00  0.00     0.127 S 
ATOM     93  O   UNL A   1      44.385  37.286  26.957  1.00  0.00    -0.237 OA
ATOM     94  O   UNL A   1      46.644  37.945  27.680  1.00  0.00    -0.237 OA
ATOM     95  O   UNL A   1      46.369  36.221  25.953  1.00  0.00    -0.744 OA
ENDBRANCH  89  92
ENDBRANCH  62  85
ENDBRANCH  36  37
ENDBRANCH  29  31
ENDBRANCH  28  29
ENDBRANCH  27  28
ENDBRANCH   1  27
TORSDOF 19
ENDMDL
MODEL 2
REMARK VINA RESULT:     -12.0      1.728      2.788
REMARK SMILES CC(C)c1ccc(O[C@H](C)C(=O)Nc2ccccc2C(=O)OCCOC(=O)c2ccc(-c3c4nc(c(-c5cccc(S(=O)(=O)[O-])c5F)c5ccc([nH]5)c(-c5cccc(S(=O)(=O)[O-])c5F)c5nc(c(-c6cccc(S(=O)(=O)[O-])c6F)c6ccc3[nH]6)C=C5)C=C4)cc2)cc1
REMARK SMILES IDX 23 1 22 2 20 3 21 4 19 5 14 6 15 7 16 8 18 9 17 10 13 11
REMARK SMILES IDX 11 12 12 13 9 15 10 16 8 17 7 18 4 19 5 20 92 21 6 22 91 23
REMARK SMILES IDX 2 24 1 25 3 26 24 27 25 28 26 29 27 30 28 31 29 32 90 33
REMARK SMILES IDX 30 34 89 35 31 36 32 37 33 38 83 39 34 40 88 41 82 42 84 43
REMARK SMILES IDX 35 44 87 45 81 46 80 47 36 49 68 50 48 51 67 52 49 53 52 54
REMARK SMILES IDX 66 55 85 56 50 57 51 58 65 60 86 61 53 62 37 63 38 64 46 65
REMARK SMILES IDX 39 66 41 67 47 68 40 69 42 70 43 71 44 72 45 73 69 74 70 75
REMARK SMILES IDX 78 76 71 77 73 78 79 79 72 80 74 81 75 82 76 83 77 84 54 85
REMARK SMILES IDX 55 86 63 87 56 88 58 89 64 90 57 91 59 92 60 93 61 94 62 95
REMARK H PARENT 13 14 84 48 52 59
REMARK Flexibility Score: inf
ROOT
ATOM      1  C   UNL A   1      35.588  21.782  26.121  1.00  0.00     0.275 C 
ENDROOT
BRANCH   1   2
ATOM      2  O   UNL A   1      34.375  21.126  26.548  1.00  0.00    -0.458 OA
BRANCH   2   3
ATOM      3  C   UNL A   1      33.254  21.800  26.216  1.00  0.00     0.340 C 
ATOM      4  O   UNL A   1      32.589  22.482  26.987  1.00  0.00    -0.246 OA
BRANCH   3   5
ATOM      5  C   UNL A   1      32.839  21.606  24.824  1.00  0.00     0.083 A 
ATOM      6  C   UNL A   1      32.891  22.647  23.886  1.00  0.00     0.055 A 
ATOM      7  C   UNL A   1      32.463  22.401  22.576  1.00  0.00     0.027 A 
ATOM      8  C   UNL A   1      32.110  21.108  22.176  1.00  0.00     0.002 A 
ATOM      9  C   UNL A   1      32.453  20.318  24.425  1.00  0.00     0.018 A 
ATOM     10  C   UNL A   1      32.115  20.064  23.096  1.00  0.00     0.001 A 
BRANCH   6  11
ATOM     11  N   UNL A   1      33.345  23.946  24.184  1.00  0.00    -0.322 N 
ATOM     12  C   UNL A   1      32.631  25.122  24.250  1.00  0.00     0.265 C 
ATOM     13  O   UNL A   1      33.254  26.176  24.069  1.00  0.00    -0.270 OA
ATOM     14  H   UNL A   1      34.309  24.025  24.373  1.00  0.00     0.170 HD
BRANCH  12  15
ATOM     15  C   UNL A   1      31.148  25.141  24.745  1.00  0.00     0.259 C 
ATOM     16  C   UNL A   1      31.033  25.918  26.057  1.00  0.00     0.064 C 
BRANCH  15  17
ATOM     17  O   UNL A   1      30.251  25.482  23.696  1.00  0.00    -0.481 OA
BRANCH  17  18
ATOM     18  C   UNL A   1      29.630  26.693  23.692  1.00  0.00     0.120 A 
ATOM     19  C   UNL A   1      28.262  29.049  22.998  1.00  0.00    -0.045 A 
ATOM     20  C   UNL A   1      29.657  28.990  22.942  1.00  0.00     0.008 A 
ATOM     21  C   UNL A   1      27.564  27.927  23.472  1.00  0.00     0.008 A 
ATOM     22  C   UNL A   1      30.330  27.820  23.279  1.00  0.00     0.047 A 
ATOM     23  C   UNL A   1      28.245  26.746  23.800  1.00  0.00     0.047 A 
BRANCH  19  24
ATOM     24  C   UNL A   1      27.582  30.323  22.529  1.00  0.00     0.013 C 
ATOM     25  C   UNL A   1      27.689  31.474  23.532  1.00  0.00     0.012 C 
ATOM     26  C   UNL A   1      28.102  30.733  21.153  1.00  0.00     0.012 C 
ENDBRANCH  19  24
ENDBRANCH  17  18
ENDBRANCH  15  17
ENDBRANCH  12  15
ENDBRANCH   6  11
ENDBRANCH   3   5
ENDBRANCH   2   3
ENDBRANCH   1   2
BRANCH   1  27
ATOM     27  C   UNL A   1      36.510  20.942  25.225  1.00  0.00     0.275 C 
BRANCH  27  28
ATOM     28  O   UNL A   1      37.725  21.614  24.845  1.00  0.00    -0.458 OA
BRANCH  28  29
ATOM     29  C   UNL A   1      38.800  21.295  25.601  1.00  0.00     0.338 C 
ATOM     30  O   UNL A   1      39.413  20.240  25.592  1.00  0.00    -0.246 OA
BRANCH  29  31
ATOM     31  C   UNL A   1      39.213  22.413  26.464  1.00  0.00     0.060 A 
ATOM     32  C   UNL A   1      38.762  23.702  26.169  1.00  0.00     0.016 A 
ATOM     33  C   UNL A   1      40.247  22.227  27.379  1.00  0.00     0.016 A 
ATOM     34  C   UNL A   1      39.413  24.815  26.685  1.00  0.00     0.010 A 
ATOM     35  C   UNL A   1      40.853  23.345  27.957  1.00  0.00     0.010 A 
ATOM     36  C   UNL A   1      40.480  24.647  27.569  1.00  0.00    -0.014 A 
BRANCH  36  37
ATOM     37  C   UNL A   1      41.286  25.810  28.010  1.00  0.00     0.031 A 
ATOM     38  C   UNL A   1      40.614  26.897  28.803  1.00  0.00     0.074 A 
ATOM     39  C   UNL A   1      42.588  25.908  27.684  1.00  0.00     0.049 A 
ATOM     40  N   UNL A   1      41.012  28.117  29.040  1.00  0.00    -0.248 NA
ATOM     41  C   UNL A   1      39.304  26.567  29.394  1.00  0.00     0.031 C 
ATOM     42  C   UNL A   1      43.367  24.884  26.987  1.00  0.00     0.029 A 
ATOM     43  N   UNL A   1      43.475  26.938  27.866  1.00  0.00    -0.354 N 
ATOM     44  C   UNL A   1      39.967  28.730  29.722  1.00  0.00     0.074 A 
ATOM     45  C   UNL A   1      38.929  27.738  29.890  1.00  0.00     0.031 C 
ATOM     46  C   UNL A   1      44.608  25.348  26.772  1.00  0.00     0.029 A 
ATOM     47  C   UNL A   1      44.682  26.727  27.240  1.00  0.00     0.049 A 
ATOM     48  H   UNL A   1      43.269  27.747  28.390  1.00  0.00     0.167 HD
ATOM     49  C   UNL A   1      39.886  30.008  30.160  1.00  0.00     0.034 A 
ATOM     50  C   UNL A   1      45.703  27.573  27.007  1.00  0.00     0.034 A 
ATOM     51  C   UNL A   1      40.961  30.955  30.039  1.00  0.00     0.049 A 
ATOM     52  C   UNL A   1      45.587  28.994  27.492  1.00  0.00     0.074 A 
ATOM     53  C   UNL A   1      41.004  32.270  30.465  1.00  0.00     0.029 A 
ATOM     54  N   UNL A   1      42.189  30.680  29.457  1.00  0.00    -0.354 N 
ATOM     55  N   UNL A   1      44.602  29.564  28.142  1.00  0.00    -0.248 NA
ATOM     56  C   UNL A   1      46.726  29.882  27.222  1.00  0.00     0.031 C 
ATOM     57  C   UNL A   1      42.258  32.793  30.131  1.00  0.00     0.029 A 
ATOM     58  C   UNL A   1      43.002  31.796  29.517  1.00  0.00     0.049 A 
ATOM     59  H   UNL A   1      42.446  29.816  29.060  1.00  0.00     0.167 HD
ATOM     60  C   UNL A   1      45.015  30.868  28.392  1.00  0.00     0.074 A 
ATOM     61  C   UNL A   1      46.346  30.997  27.833  1.00  0.00     0.031 C 
ATOM     62  C   UNL A   1      44.350  31.872  29.014  1.00  0.00     0.034 A 
BRANCH  49  63
ATOM     63  C   UNL A   1      38.600  30.455  30.803  1.00  0.00     0.023 A 
ATOM     64  C   UNL A   1      38.387  30.244  32.180  1.00  0.00     0.012 A 
ATOM     65  C   UNL A   1      37.618  31.128  30.048  1.00  0.00     0.148 A 
ATOM     66  C   UNL A   1      37.205  30.666  32.788  1.00  0.00     0.002 A 
ATOM     67  C   UNL A   1      36.462  31.585  30.670  1.00  0.00     0.091 A 
ATOM     68  F   UNL A   1      37.827  31.300  28.735  1.00  0.00    -0.205 F 
ATOM     69  C   UNL A   1      36.249  31.345  32.038  1.00  0.00     0.022 A 
BRANCH  67  70
ATOM     70  S   UNL A   1      35.206  32.536  29.804  1.00  0.00     0.127 S 
ATOM     71  O   UNL A   1      34.763  31.583  28.788  1.00  0.00    -0.237 OA
ATOM     72  O   UNL A   1      34.231  32.796  30.862  1.00  0.00    -0.237 OA
ATOM     73  O   UNL A   1      35.882  33.723  29.298  1.00  0.00    -0.744 OA
ENDBRANCH  67  70
ENDBRANCH  49  63
BRANCH  50  74
ATOM     74  C   UNL A   1      46.911  27.096  26.277  1.00  0.00     0.023 A 
ATOM     75  C   UNL A   1      47.013  27.316  24.891  1.00  0.00     0.012 A 
ATOM     76  C   UNL A   1      47.979  26.472  26.953  1.00  0.00     0.148 A 
ATOM     77  C   UNL A   1      48.145  26.907  24.188  1.00  0.00     0.002 A 
ATOM     78  C   UNL A   1      49.131  26.122  26.257  1.00  0.00     0.091 A 
ATOM     79  F   UNL A   1      47.858  26.253  28.270  1.00  0.00    -0.205 F 
ATOM     80  C   UNL A   1      49.210  26.323  24.871  1.00  0.00     0.022 A 
BRANCH  78  81
ATOM     81  S   UNL A   1      50.600  25.500  27.081  1.00  0.00     0.127 S 
ATOM     82  O   UNL A   1      50.890  26.575  28.027  1.00  0.00    -0.237 OA
ATOM     83  O   UNL A   1      50.108  24.262  27.688  1.00  0.00    -0.237 OA
ATOM     84  O   UNL A   1      51.585  25.298  26.027  1.00  0.00    -0.744 OA
ENDBRANCH  78  81
ENDBRANCH  50  74
BRANCH  62  85
ATOM     85  C   UNL A   1      45.069  33.181  29.186  1.00  0.00     0.023 A 
ATOM     86  C   UNL A   1      45.983  33.347  30.243  1.00  0.00     0.012 A 
ATOM     87  C   UNL A   1      44.911  34.207  28.233  1.00  0.00     0.148 A 
ATOM     88  C   UNL A   1      46.715  34.527  30.363  1.00  0.00     0.002 A 
ATOM     89  C   UNL A   1      45.678  35.360  28.332  1.00  0.00     0.091 A 
ATOM     90  F   UNL A   1      44.020  34.031  27.247  1.00  0.00    -0.205 F 
ATOM     91  C   UNL A   1      46.574  35.526  29.401  1.00  0.00     0.022 A 
BRANCH  89  92
ATOM     92  S   UNL A   1      45.633  36.653  27.086  1.00  0.00     0.127 S 
ATOM     93  O   UNL A   1      46.452  37.692  27.707  1.00  0.00    -0.237 OA
ATOM     94  O   UNL A   1      46.252  35.995  25.934  1.00  0.00    -0.237 OA
ATOM     95  O   UNL A   1      44.228  36.991  26.906  1.00  0.00    -0.744 OA
ENDBRANCH  89  92
ENDBRANCH  62  85
ENDBRANCH  36  37
ENDBRANCH  29  31
ENDBRANCH  28  29
ENDBRANCH  27  28
ENDBRANCH   1  27
TORSDOF 19
ENDMDL
MODEL 3
REMARK VINA RESULT:     -11.7      1.231      2.826
REMARK SMILES CC(C)c1ccc(O[C@H](C)C(=O)Nc2ccccc2C(=O)OCCOC(=O)c2ccc(-c3c4nc(c(-c5cccc(S(=O)(=O)[O-])c5F)c5ccc([nH]5)c(-c5cccc(S(=O)(=O)[O-])c5F)c5nc(c(-c6cccc(S(=O)(=O)[O-])c6F)c6ccc3[nH]6)C=C5)C=C4)cc2)cc1
REMARK SMILES IDX 23 1 22 2 20 3 21 4 19 5 14 6 15 7 16 8 18 9 17 10 13 11
REMARK SMILES IDX 11 12 12 13 9 15 10 16 8 17 7 18 4 19 5 20 92 21 6 22 91 23
REMARK SMILES IDX 2 24 1 25 3 26 24 27 25 28 26 29 27 30 28 31 29 32 90 33
REMARK SMILES IDX 30 34 89 35 31 36 32 37 33 38 83 39 34 40 88 41 82 42 84 43
REMARK SMILES IDX 35 44 87 45 81 46 80 47 36 49 68 50 48 51 67 52 49 53 52 54
REMARK SMILES IDX 66 55 85 56 50 57 51 58 65 60 86 61 53 62 37 63 38 64 46 65
REMARK SMILES IDX 39 66 41 67 47 68 40 69 42 70 43 71 44 72 45 73 69 74 70 75
REMARK SMILES IDX 78 76 71 77 73 78 79 79 72 80 74 81 75 82 76 83 77 84 54 85
REMARK SMILES IDX 55 86 63 87 56 88 58 89 64 90 57 91 59 92 60 93 61 94 62 95
REMARK H PARENT 13 14 84 48 52 59
REMARK Flexibility Score: inf
ROOT
ATOM      1  C   UNL A   1      35.836  21.760  24.535  1.00  0.00     0.275 C 
ENDROOT
BRANCH   1   2
ATOM      2  O   UNL A   1      35.665  23.186  24.670  1.00  0.00    -0.458 OA
BRANCH   2   3
ATOM      3  C   UNL A   1      34.758  23.702  23.814  1.00  0.00     0.340 C 
ATOM      4  O   UNL A   1      34.558  23.298  22.674  1.00  0.00    -0.246 OA
BRANCH   3   5
ATOM      5  C   UNL A   1      34.040  24.863  24.343  1.00  0.00     0.083 A 
ATOM      6  C   UNL A   1      33.549  24.892  25.657  1.00  0.00     0.055 A 
ATOM      7  C   UNL A   1      32.855  26.026  26.097  1.00  0.00     0.027 A 
ATOM      8  C   UNL A   1      32.763  27.161  25.283  1.00  0.00     0.002 A 
ATOM      9  C   UNL A   1      33.915  25.994  23.521  1.00  0.00     0.018 A 
ATOM     10  C   UNL A   1      33.302  27.150  24.000  1.00  0.00     0.001 A 
BRANCH   6  11
ATOM     11  N   UNL A   1      33.705  23.834  26.573  1.00  0.00    -0.322 N 
ATOM     12  C   UNL A   1      32.745  23.019  27.130  1.00  0.00     0.265 C 
ATOM     13  O   UNL A   1      33.010  22.488  28.216  1.00  0.00    -0.270 OA
ATOM     14  H   UNL A   1      34.631  23.652  26.855  1.00  0.00     0.170 HD
BRANCH  12  15
ATOM     15  C   UNL A   1      31.467  22.608  26.326  1.00  0.00     0.259 C 
ATOM     16  C   UNL A   1      30.326  23.588  26.604  1.00  0.00     0.064 C 
BRANCH  15  17
ATOM     17  O   UNL A   1      31.774  22.319  24.968  1.00  0.00    -0.481 OA
BRANCH  17  18
ATOM     18  C   UNL A   1      32.320  21.121  24.630  1.00  0.00     0.120 A 
ATOM     19  C   UNL A   1      32.788  18.413  24.031  1.00  0.00    -0.045 A 
ATOM     20  C   UNL A   1      32.930  18.891  25.337  1.00  0.00     0.008 A 
ATOM     21  C   UNL A   1      32.472  19.329  23.015  1.00  0.00     0.008 A 
ATOM     22  C   UNL A   1      32.691  20.230  25.630  1.00  0.00     0.047 A 
ATOM     23  C   UNL A   1      32.220  20.675  23.317  1.00  0.00     0.047 A 
BRANCH  19  24
ATOM     24  C   UNL A   1      32.973  16.926  23.791  1.00  0.00     0.013 C 
ATOM     25  C   UNL A   1      34.269  16.585  23.051  1.00  0.00     0.012 C 
ATOM     26  C   UNL A   1      32.862  16.153  25.104  1.00  0.00     0.012 C 
ENDBRANCH  19  24
ENDBRANCH  17  18
ENDBRANCH  15  17
ENDBRANCH  12  15
ENDBRANCH   6  11
ENDBRANCH   3   5
ENDBRANCH   2   3
ENDBRANCH   1   2
BRANCH   1  27
ATOM     27  C   UNL A   1      37.127  21.191  25.142  1.00  0.00     0.275 C 
BRANCH  27  28
ATOM     28  O   UNL A   1      38.230  22.117  25.143  1.00  0.00    -0.458 OA
BRANCH  28  29
ATOM     29  C   UNL A   1      39.225  21.799  26.002  1.00  0.00     0.338 C 
ATOM     30  O   UNL A   1      39.825  20.738  26.066  1.00  0.00    -0.246 OA
BRANCH  29  31
ATOM     31  C   UNL A   1      39.566  22.927  26.885  1.00  0.00     0.060 A 
ATOM     32  C   UNL A   1      38.986  24.175  26.648  1.00  0.00     0.016 A 
ATOM     33  C   UNL A   1      40.648  22.813  27.754  1.00  0.00     0.016 A 
ATOM     34  C   UNL A   1      39.551  25.329  27.174  1.00  0.00     0.010 A 
ATOM     35  C   UNL A   1      41.171  23.966  28.345  1.00  0.00     0.010 A 
ATOM     36  C   UNL A   1      40.663  25.237  28.012  1.00  0.00    -0.014 A 
BRANCH  36  37
ATOM     37  C   UNL A   1      41.375  26.459  28.460  1.00  0.00     0.031 A 
ATOM     38  C   UNL A   1      40.595  27.532  29.167  1.00  0.00     0.074 A 
ATOM     39  C   UNL A   1      42.688  26.618  28.215  1.00  0.00     0.049 A 
ATOM     40  N   UNL A   1      40.910  28.780  29.383  1.00  0.00    -0.248 NA
ATOM     41  C   UNL A   1      39.268  27.149  29.685  1.00  0.00     0.031 C 
ATOM     42  C   UNL A   1      43.566  25.617  27.607  1.00  0.00     0.029 A 
ATOM     43  N   UNL A   1      43.505  27.702  28.414  1.00  0.00    -0.354 N 
ATOM     44  C   UNL A   1      39.790  29.355  29.974  1.00  0.00     0.074 A 
ATOM     45  C   UNL A   1      38.798  28.313  30.111  1.00  0.00     0.031 C 
ATOM     46  C   UNL A   1      44.791  26.142  27.455  1.00  0.00     0.029 A 
ATOM     47  C   UNL A   1      44.759  27.538  27.875  1.00  0.00     0.049 A 
ATOM     48  H   UNL A   1      43.221  28.515  28.893  1.00  0.00     0.167 HD
ATOM     49  C   UNL A   1      39.612  30.641  30.357  1.00  0.00     0.034 A 
ATOM     50  C   UNL A   1      45.746  28.432  27.676  1.00  0.00     0.034 A 
ATOM     51  C   UNL A   1      40.639  31.643  30.270  1.00  0.00     0.049 A 
ATOM     52  C   UNL A   1      45.523  29.859  28.099  1.00  0.00     0.074 A 
ATOM     53  C   UNL A   1      40.584  32.971  30.648  1.00  0.00     0.029 A 
ATOM     54  N   UNL A   1      41.917  31.418  29.778  1.00  0.00    -0.354 N 
ATOM     55  N   UNL A   1      44.468  30.395  28.662  1.00  0.00    -0.248 NA
ATOM     56  C   UNL A   1      46.628  30.801  27.869  1.00  0.00     0.031 C 
ATOM     57  C   UNL A   1      41.827  33.553  30.375  1.00  0.00     0.029 A 
ATOM     58  C   UNL A   1      42.663  32.579  29.848  1.00  0.00     0.049 A 
ATOM     59  H   UNL A   1      42.245  30.557  29.431  1.00  0.00     0.167 HD
ATOM     60  C   UNL A   1      44.792  31.728  28.890  1.00  0.00     0.074 A 
ATOM     61  C   UNL A   1      46.148  31.913  28.412  1.00  0.00     0.031 C 
ATOM     62  C   UNL A   1      44.035  32.714  29.429  1.00  0.00     0.034 A 
BRANCH  49  63
ATOM     63  C   UNL A   1      38.264  31.037  30.900  1.00  0.00     0.023 A 
ATOM     64  C   UNL A   1      37.959  30.826  32.259  1.00  0.00     0.012 A 
ATOM     65  C   UNL A   1      37.313  31.662  30.068  1.00  0.00     0.148 A 
ATOM     66  C   UNL A   1      36.719  31.201  32.775  1.00  0.00     0.002 A 
ATOM     67  C   UNL A   1      36.095  32.073  30.599  1.00  0.00     0.091 A 
ATOM     68  F   UNL A   1      37.610  31.834  28.772  1.00  0.00    -0.205 F 
ATOM     69  C   UNL A   1      35.792  31.833  31.949  1.00  0.00     0.022 A 
BRANCH  67  70
ATOM     70  S   UNL A   1      34.868  32.963  29.634  1.00  0.00     0.127 S 
ATOM     71  O   UNL A   1      35.689  33.979  28.976  1.00  0.00    -0.237 OA
ATOM     72  O   UNL A   1      34.360  31.920  28.743  1.00  0.00    -0.237 OA
ATOM     73  O   UNL A   1      33.895  33.468  30.592  1.00  0.00    -0.744 OA
ENDBRANCH  67  70
ENDBRANCH  49  63
BRANCH  50  74
ATOM     74  C   UNL A   1      47.024  27.999  27.042  1.00  0.00     0.023 A 
ATOM     75  C   UNL A   1      48.126  27.680  27.857  1.00  0.00     0.012 A 
ATOM     76  C   UNL A   1      47.138  27.854  25.645  1.00  0.00     0.148 A 
ATOM     77  C   UNL A   1      49.324  27.243  27.292  1.00  0.00     0.002 A 
ATOM     78  C   UNL A   1      48.315  27.361  25.093  1.00  0.00     0.091 A 
ATOM     79  F   UNL A   1      46.085  28.181  24.882  1.00  0.00    -0.205 F 
ATOM     80  C   UNL A   1      49.415  27.069  25.913  1.00  0.00     0.022 A 
BRANCH  78  81
ATOM     81  S   UNL A   1      48.467  26.971  23.346  1.00  0.00     0.127 S 
ATOM     82  O   UNL A   1      47.947  25.607  23.297  1.00  0.00    -0.237 OA
ATOM     83  O   UNL A   1      47.604  27.982  22.733  1.00  0.00    -0.237 OA
ATOM     84  O   UNL A   1      49.882  27.124  23.032  1.00  0.00    -0.744 OA
ENDBRANCH  78  81
ENDBRANCH  50  74
BRANCH  62  85
ATOM     85  C   UNL A   1      44.669  34.066  29.598  1.00  0.00     0.023 A 
ATOM     86  C   UNL A   1      45.330  34.387  30.798  1.00  0.00     0.012 A 
ATOM     87  C   UNL A   1      44.695  34.976  28.521  1.00  0.00     0.148 A 
ATOM     88  C   UNL A   1      45.992  35.607  30.933  1.00  0.00     0.002 A 
ATOM     89  C   UNL A   1      45.396  36.167  28.648  1.00  0.00     0.091 A 
ATOM     90  F   UNL A   1      44.042  34.653  27.397  1.00  0.00    -0.205 F 
ATOM     91  C   UNL A   1      46.037  36.489  29.855  1.00  0.00     0.022 A 
BRANCH  89  92
ATOM     92  S   UNL A   1      45.590  37.316  27.281  1.00  0.00     0.127 S 
ATOM     93  O   UNL A   1      44.217  37.775  27.081  1.00  0.00    -0.237 OA
ATOM     94  O   UNL A   1      46.494  38.319  27.843  1.00  0.00    -0.237 OA
ATOM     95  O   UNL A   1      46.154  36.543  26.181  1.00  0.00    -0.744 OA
ENDBRANCH  89  92
ENDBRANCH  62  85
ENDBRANCH  36  37
ENDBRANCH  29  31
ENDBRANCH  28  29
ENDBRANCH  27  28
ENDBRANCH   1  27
TORSDOF 19
ENDMDL
