MODEL 1
REMARK VINA RESULT:     -14.6      0.000      0.000
REMARK SMILES Cc1coc2cc3oc(=O)c(CC(=O)N[C@H](Cc4c[nH]c5ccc(O)cc45)C(=O)OCCOC(=O)c4ccc(-c5c6nc(c(-c7cccc(S(=O)(=O)[O-])c7F)c7ccc([nH]7)c(-c7cccc(S(=O)(=O)[O-])c7F)c7nc(c(-c8cccc(S(=O)(=O)[O-])c8F)c8ccc5[nH]8)C=C7)C=C6)cc4)c(C)c3cc12
REMARK SMILES IDX 31 1 30 2 28 3 29 4 16 5 15 6 13 7 14 8 12 10 11 11 1 12
REMARK SMILES IDX 2 13 3 14 103 15 4 16 5 17 102 18 6 19 101 20 7 21 99 22
REMARK SMILES IDX 8 23 100 24 9 25 10 26 17 27 18 28 19 29 27 30 20 31 21 32
REMARK SMILES IDX 26 33 22 35 24 36 23 37 25 38 32 40 33 41 34 42 35 43 36 44
REMARK SMILES IDX 37 45 98 46 38 47 97 48 39 49 40 50 41 51 91 52 42 53 96 54
REMARK SMILES IDX 90 55 92 56 43 57 95 58 89 59 88 60 44 62 76 63 56 64 75 65
REMARK SMILES IDX 57 66 60 67 74 68 93 69 58 70 59 71 73 73 94 74 61 75 45 76
REMARK SMILES IDX 46 77 54 78 47 79 49 80 55 81 48 82 50 83 51 84 52 85 53 86
REMARK SMILES IDX 77 87 78 88 86 89 79 90 81 91 87 92 80 93 82 94 83 95 84 96
REMARK SMILES IDX 85 97 62 98 63 99 71 100 64 101 66 102 72 103 65 104 67 105
REMARK SMILES IDX 68 106 69 107 70 108
REMARK H PARENT 15 9 20 34 25 39 92 61 60 72
REMARK Flexibility Score: inf
ROOT
ATOM      1  C   UNL A   1      31.887  29.789  27.106  1.00  0.00     0.274 C 
ENDROOT
BRANCH   1   2
ATOM      2  O   UNL A   1      32.304  28.492  27.610  1.00  0.00    -0.461 OA
BRANCH   2   3
ATOM      3  C   UNL A   1      32.671  27.605  26.648  1.00  0.00     0.329 C 
ATOM      4  O   UNL A   1      33.851  27.402  26.386  1.00  0.00    -0.250 OA
BRANCH   3   5
ATOM      5  C   UNL A   1      31.513  26.999  25.819  1.00  0.00     0.196 C 
BRANCH   5   6
ATOM      6  N   UNL A   1      31.215  25.670  26.409  1.00  0.00    -0.342 N 
ATOM      7  C   UNL A   1      31.954  24.546  26.602  1.00  0.00     0.225 C 
ATOM      8  O   UNL A   1      31.538  23.713  27.411  1.00  0.00    -0.275 OA
ATOM      9  H   UNL A   1      30.288  25.584  26.727  1.00  0.00     0.164 HD
BRANCH   7  10
ATOM     10  C   UNL A   1      33.296  24.322  25.910  1.00  0.00     0.143 C 
BRANCH  10  11
ATOM     11  C   UNL A   1      33.453  23.079  25.047  1.00  0.00     0.051 A 
ATOM     12  C   UNL A   1      35.499  16.288  25.226  1.00  0.00     0.048 C 
ATOM     13  C   UNL A   1      34.373  16.892  24.475  1.00  0.00    -0.005 A 
ATOM     14  C   UNL A   1      33.438  16.218  23.714  1.00  0.00     0.199 A 
ATOM     15  C   UNL A   1      34.018  18.274  24.388  1.00  0.00     0.024 A 
ATOM     16  O   UNL A   1      32.559  17.079  23.142  1.00  0.00    -0.464 OA
ATOM     17  C   UNL A   1      32.913  18.329  23.549  1.00  0.00     0.137 A 
ATOM     18  C   UNL A   1      34.505  19.482  24.939  1.00  0.00     0.024 A 
ATOM     19  C   UNL A   1      32.275  19.505  23.184  1.00  0.00     0.095 A 
ATOM     20  C   UNL A   1      33.891  20.711  24.614  1.00  0.00     0.022 A 
ATOM     21  C   UNL A   1      32.813  20.680  23.726  1.00  0.00     0.142 A 
ATOM     22  C   UNL A   1      34.223  21.992  25.295  1.00  0.00    -0.029 A 
ATOM     23  O   UNL A   1      32.175  21.867  23.329  1.00  0.00    -0.422 OA
ATOM     24  C   UNL A   1      35.282  21.936  26.371  1.00  0.00     0.046 C 
ATOM     25  C   UNL A   1      32.502  23.084  23.895  1.00  0.00     0.340 A 
ATOM     26  O   UNL A   1      31.958  24.115  23.508  1.00  0.00    -0.246 OA
ENDBRANCH  10  11
ENDBRANCH   7  10
ENDBRANCH   5   6
BRANCH   5  27
ATOM     27  C   UNL A   1      31.633  26.986  24.305  1.00  0.00     0.074 C 
BRANCH  27  28
ATOM     28  C   UNL A   1      31.264  28.130  23.411  1.00  0.00    -0.020 A 
ATOM     29  C   UNL A   1      32.180  28.879  22.690  1.00  0.00     0.087 A 
ATOM     30  C   UNL A   1      29.963  28.560  22.970  1.00  0.00     0.006 A 
ATOM     31  N   UNL A   1      31.501  29.777  21.916  1.00  0.00    -0.361 N 
ATOM     32  C   UNL A   1      30.148  29.655  22.123  1.00  0.00     0.046 A 
ATOM     33  C   UNL A   1      28.639  28.151  23.234  1.00  0.00     0.056 A 
ATOM     34  H   UNL A   1      31.920  30.420  21.299  1.00  0.00     0.166 HD
ATOM     35  C   UNL A   1      29.085  30.419  21.617  1.00  0.00     0.030 A 
ATOM     36  C   UNL A   1      27.572  28.916  22.747  1.00  0.00     0.116 A 
ATOM     37  C   UNL A   1      27.782  30.048  21.973  1.00  0.00     0.048 A 
BRANCH  36  38
ATOM     38  O   UNL A   1      26.322  28.519  23.125  1.00  0.00    -0.508 OA
ATOM     39  H   UNL A   1      25.781  28.044  22.526  1.00  0.00     0.293 HD
ENDBRANCH  36  38
ENDBRANCH  27  28
ENDBRANCH   5  27
ENDBRANCH   3   5
ENDBRANCH   2   3
ENDBRANCH   1   2
BRANCH   1  40
ATOM     40  C   UNL A   1      33.097  30.629  26.694  1.00  0.00     0.275 C 
BRANCH  40  41
ATOM     41  O   UNL A   1      34.118  30.512  27.700  1.00  0.00    -0.458 OA
BRANCH  41  42
ATOM     42  C   UNL A   1      34.989  31.555  27.787  1.00  0.00     0.338 C 
ATOM     43  O   UNL A   1      34.737  32.726  27.635  1.00  0.00    -0.246 OA
BRANCH  42  44
ATOM     44  C   UNL A   1      36.160  31.011  28.520  1.00  0.00     0.060 A 
ATOM     45  C   UNL A   1      37.257  31.782  28.907  1.00  0.00     0.016 A 
ATOM     46  C   UNL A   1      36.262  29.634  28.496  1.00  0.00     0.016 A 
ATOM     47  C   UNL A   1      38.515  31.178  29.042  1.00  0.00     0.010 A 
ATOM     48  C   UNL A   1      37.516  29.055  28.584  1.00  0.00     0.010 A 
ATOM     49  C   UNL A   1      38.669  29.823  28.745  1.00  0.00    -0.014 A 
BRANCH  49  50
ATOM     50  C   UNL A   1      39.965  29.124  28.846  1.00  0.00     0.031 A 
ATOM     51  C   UNL A   1      40.337  28.926  30.273  1.00  0.00     0.074 A 
ATOM     52  C   UNL A   1      40.694  28.528  27.867  1.00  0.00     0.049 A 
ATOM     53  N   UNL A   1      41.157  29.636  30.976  1.00  0.00    -0.248 NA
ATOM     54  C   UNL A   1      39.545  27.984  31.074  1.00  0.00     0.031 C 
ATOM     55  C   UNL A   1      40.386  28.353  26.448  1.00  0.00     0.029 A 
ATOM     56  N   UNL A   1      41.883  27.851  27.964  1.00  0.00    -0.354 N 
ATOM     57  C   UNL A   1      41.143  29.046  32.237  1.00  0.00     0.074 A 
ATOM     58  C   UNL A   1      39.949  28.261  32.310  1.00  0.00     0.031 C 
ATOM     59  C   UNL A   1      41.203  27.432  25.882  1.00  0.00     0.029 A 
ATOM     60  C   UNL A   1      42.232  27.092  26.838  1.00  0.00     0.049 A 
ATOM     61  H   UNL A   1      42.452  27.896  28.766  1.00  0.00     0.167 HD
ATOM     62  C   UNL A   1      42.267  28.969  32.997  1.00  0.00     0.034 A 
ATOM     63  C   UNL A   1      43.307  26.273  26.686  1.00  0.00     0.034 A 
ATOM     64  C   UNL A   1      43.295  29.836  32.483  1.00  0.00     0.049 A 
ATOM     65  C   UNL A   1      44.298  26.712  27.683  1.00  0.00     0.074 A 
ATOM     66  C   UNL A   1      43.421  31.192  32.277  1.00  0.00     0.029 A 
ATOM     67  N   UNL A   1      44.215  29.221  31.673  1.00  0.00    -0.354 N 
ATOM     68  N   UNL A   1      44.911  27.859  27.640  1.00  0.00    -0.248 NA
ATOM     69  C   UNL A   1      44.352  26.007  28.948  1.00  0.00     0.031 C 
ATOM     70  C   UNL A   1      44.155  31.318  31.060  1.00  0.00     0.029 A 
ATOM     71  C   UNL A   1      44.512  30.042  30.619  1.00  0.00     0.049 A 
ATOM     72  H   UNL A   1      44.601  28.329  31.825  1.00  0.00     0.167 HD
ATOM     73  C   UNL A   1      45.001  28.234  28.969  1.00  0.00     0.074 A 
ATOM     74  C   UNL A   1      44.791  27.000  29.724  1.00  0.00     0.031 C 
ATOM     75  C   UNL A   1      44.939  29.551  29.322  1.00  0.00     0.034 A 
BRANCH  62  76
ATOM     76  C   UNL A   1      42.578  27.828  33.939  1.00  0.00     0.023 A 
ATOM     77  C   UNL A   1      42.317  28.031  35.310  1.00  0.00     0.012 A 
ATOM     78  C   UNL A   1      43.312  26.667  33.598  1.00  0.00     0.148 A 
ATOM     79  C   UNL A   1      42.767  27.130  36.284  1.00  0.00     0.002 A 
ATOM     80  C   UNL A   1      43.668  25.724  34.554  1.00  0.00     0.091 A 
ATOM     81  F   UNL A   1      43.804  26.516  32.364  1.00  0.00    -0.205 F 
ATOM     82  C   UNL A   1      43.424  25.964  35.906  1.00  0.00     0.022 A 
BRANCH  80  83
ATOM     83  S   UNL A   1      44.431  24.164  34.083  1.00  0.00     0.127 S 
ATOM     84  O   UNL A   1      45.822  24.561  33.893  1.00  0.00    -0.237 OA
ATOM     85  O   UNL A   1      44.177  23.339  35.265  1.00  0.00    -0.237 OA
ATOM     86  O   UNL A   1      43.711  23.722  32.889  1.00  0.00    -0.744 OA
ENDBRANCH  80  83
ENDBRANCH  62  76
BRANCH  63  87
ATOM     87  C   UNL A   1      43.529  25.005  25.939  1.00  0.00     0.023 A 
ATOM     88  C   UNL A   1      44.793  24.765  25.344  1.00  0.00     0.012 A 
ATOM     89  C   UNL A   1      42.677  23.900  26.148  1.00  0.00     0.148 A 
ATOM     90  C   UNL A   1      45.225  23.466  25.048  1.00  0.00     0.002 A 
ATOM     91  C   UNL A   1      43.118  22.607  25.862  1.00  0.00     0.091 A 
ATOM     92  F   UNL A   1      41.487  24.112  26.723  1.00  0.00    -0.205 F 
ATOM     93  C   UNL A   1      44.397  22.385  25.329  1.00  0.00     0.022 A 
BRANCH  91  94
ATOM     94  S   UNL A   1      42.150  21.145  26.273  1.00  0.00     0.127 S 
ATOM     95  O   UNL A   1      40.814  21.525  25.812  1.00  0.00    -0.237 OA
ATOM     96  O   UNL A   1      42.802  20.118  25.465  1.00  0.00    -0.237 OA
ATOM     97  O   UNL A   1      42.266  20.976  27.715  1.00  0.00    -0.744 OA
ENDBRANCH  91  94
ENDBRANCH  63  87
BRANCH  75  98
ATOM     98  C   UNL A   1      45.137  30.584  28.235  1.00  0.00     0.023 A 
ATOM     99  C   UNL A   1      44.073  31.190  27.534  1.00  0.00     0.012 A 
ATOM    100  C   UNL A   1      46.442  31.056  28.017  1.00  0.00     0.148 A 
ATOM    101  C   UNL A   1      44.311  32.232  26.628  1.00  0.00     0.002 A 
ATOM    102  C   UNL A   1      46.669  32.127  27.163  1.00  0.00     0.091 A 
ATOM    103  F   UNL A   1      47.448  30.459  28.675  1.00  0.00    -0.205 F 
ATOM    104  C   UNL A   1      45.607  32.712  26.456  1.00  0.00     0.022 A 
BRANCH 102 105
ATOM    105  S   UNL A   1      48.293  32.875  27.017  1.00  0.00     0.127 S 
ATOM    106  O   UNL A   1      48.586  33.246  28.400  1.00  0.00    -0.237 OA
ATOM    107  O   UNL A   1      49.102  31.772  26.494  1.00  0.00    -0.237 OA
ATOM    108  O   UNL A   1      48.139  33.989  26.087  1.00  0.00    -0.744 OA
ENDBRANCH 102 105
ENDBRANCH  75  98
ENDBRANCH  49  50
ENDBRANCH  42  44
ENDBRANCH  41  42
ENDBRANCH  40  41
ENDBRANCH   1  40
TORSDOF 20
ENDMDL
MODEL 2
REMARK VINA RESULT:     -14.2      2.928      6.650
REMARK SMILES Cc1coc2cc3oc(=O)c(CC(=O)N[C@H](Cc4c[nH]c5ccc(O)cc45)C(=O)OCCOC(=O)c4ccc(-c5c6nc(c(-c7cccc(S(=O)(=O)[O-])c7F)c7ccc([nH]7)c(-c7cccc(S(=O)(=O)[O-])c7F)c7nc(c(-c8cccc(S(=O)(=O)[O-])c8F)c8ccc5[nH]8)C=C7)C=C6)cc4)c(C)c3cc12
REMARK SMILES IDX 31 1 30 2 28 3 29 4 16 5 15 6 13 7 14 8 12 10 11 11 1 12
REMARK SMILES IDX 2 13 3 14 103 15 4 16 5 17 102 18 6 19 101 20 7 21 99 22
REMARK SMILES IDX 8 23 100 24 9 25 10 26 17 27 18 28 19 29 27 30 20 31 21 32
REMARK SMILES IDX 26 33 22 35 24 36 23 37 25 38 32 40 33 41 34 42 35 43 36 44
REMARK SMILES IDX 37 45 98 46 38 47 97 48 39 49 40 50 41 51 91 52 42 53 96 54
REMARK SMILES IDX 90 55 92 56 43 57 95 58 89 59 88 60 44 62 76 63 56 64 75 65
REMARK SMILES IDX 57 66 60 67 74 68 93 69 58 70 59 71 73 73 94 74 61 75 45 76
REMARK SMILES IDX 46 77 54 78 47 79 49 80 55 81 48 82 50 83 51 84 52 85 53 86
REMARK SMILES IDX 77 87 78 88 86 89 79 90 81 91 87 92 80 93 82 94 83 95 84 96
REMARK SMILES IDX 85 97 62 98 63 99 71 100 64 101 66 102 72 103 65 104 67 105
REMARK SMILES IDX 68 106 69 107 70 108
REMARK H PARENT 15 9 20 34 25 39 92 61 60 72
REMARK Flexibility Score: inf
ROOT
ATOM      1  C   UNL A   1      31.613  30.121  26.458  1.00  0.00     0.274 C 
ENDROOT
BRANCH   1   2
ATOM      2  O   UNL A   1      31.569  28.958  27.328  1.00  0.00    -0.461 OA
BRANCH   2   3
ATOM      3  C   UNL A   1      32.142  27.842  26.807  1.00  0.00     0.329 C 
ATOM      4  O   UNL A   1      33.331  27.596  26.977  1.00  0.00    -0.250 OA
BRANCH   3   5
ATOM      5  C   UNL A   1      31.239  27.001  25.872  1.00  0.00     0.196 C 
BRANCH   5   6
ATOM      6  N   UNL A   1      31.166  25.640  26.459  1.00  0.00    -0.342 N 
ATOM      7  C   UNL A   1      32.009  24.574  26.455  1.00  0.00     0.225 C 
ATOM      8  O   UNL A   1      31.828  23.693  27.300  1.00  0.00    -0.275 OA
ATOM      9  H   UNL A   1      30.332  25.474  26.955  1.00  0.00     0.164 HD
BRANCH   7  10
ATOM     10  C   UNL A   1      33.193  24.472  25.497  1.00  0.00     0.143 C 
BRANCH  10  11
ATOM     11  C   UNL A   1      33.372  23.175  24.722  1.00  0.00     0.051 A 
ATOM     12  C   UNL A   1      35.516  16.443  25.373  1.00  0.00     0.048 C 
ATOM     13  C   UNL A   1      34.385  16.978  24.578  1.00  0.00    -0.005 A 
ATOM     14  C   UNL A   1      33.463  16.240  23.861  1.00  0.00     0.199 A 
ATOM     15  C   UNL A   1      34.010  18.345  24.395  1.00  0.00     0.024 A 
ATOM     16  O   UNL A   1      32.575  17.047  23.228  1.00  0.00    -0.464 OA
ATOM     17  C   UNL A   1      32.908  18.327  23.551  1.00  0.00     0.137 A 
ATOM     18  C   UNL A   1      34.477  19.596  24.864  1.00  0.00     0.024 A 
ATOM     19  C   UNL A   1      32.255  19.466  23.103  1.00  0.00     0.095 A 
ATOM     20  C   UNL A   1      33.847  20.790  24.454  1.00  0.00     0.022 A 
ATOM     21  C   UNL A   1      32.774  20.683  23.565  1.00  0.00     0.142 A 
ATOM     22  C   UNL A   1      34.157  22.119  25.047  1.00  0.00    -0.029 A 
ATOM     23  O   UNL A   1      32.120  21.830  23.086  1.00  0.00    -0.422 OA
ATOM     24  C   UNL A   1      35.211  22.153  26.129  1.00  0.00     0.046 C 
ATOM     25  C   UNL A   1      32.427  23.088  23.568  1.00  0.00     0.340 A 
ATOM     26  O   UNL A   1      31.870  24.082  23.110  1.00  0.00    -0.246 OA
ENDBRANCH  10  11
ENDBRANCH   7  10
ENDBRANCH   5   6
BRANCH   5  27
ATOM     27  C   UNL A   1      31.528  27.012  24.380  1.00  0.00     0.074 C 
BRANCH  27  28
ATOM     28  C   UNL A   1      31.203  28.147  23.458  1.00  0.00    -0.020 A 
ATOM     29  C   UNL A   1      32.151  28.866  22.748  1.00  0.00     0.087 A 
ATOM     30  C   UNL A   1      29.922  28.594  22.978  1.00  0.00     0.006 A 
ATOM     31  N   UNL A   1      31.509  29.763  21.942  1.00  0.00    -0.361 N 
ATOM     32  C   UNL A   1      30.149  29.670  22.117  1.00  0.00     0.046 A 
ATOM     33  C   UNL A   1      28.585  28.215  23.217  1.00  0.00     0.056 A 
ATOM     34  H   UNL A   1      31.956  30.386  21.324  1.00  0.00     0.166 HD
ATOM     35  C   UNL A   1      29.114  30.445  21.572  1.00  0.00     0.030 A 
ATOM     36  C   UNL A   1      27.544  28.992  22.690  1.00  0.00     0.116 A 
ATOM     37  C   UNL A   1      27.796  30.105  21.903  1.00  0.00     0.048 A 
BRANCH  36  38
ATOM     38  O   UNL A   1      26.279  28.625  23.044  1.00  0.00    -0.508 OA
ATOM     39  H   UNL A   1      26.121  28.230  23.878  1.00  0.00     0.293 HD
ENDBRANCH  36  38
ENDBRANCH  27  28
ENDBRANCH   5  27
ENDBRANCH   3   5
ENDBRANCH   2   3
ENDBRANCH   1   2
BRANCH   1  40
ATOM     40  C   UNL A   1      32.804  31.017  26.803  1.00  0.00     0.275 C 
BRANCH  40  41
ATOM     41  O   UNL A   1      32.461  31.847  27.925  1.00  0.00    -0.458 OA
BRANCH  41  42
ATOM     42  C   UNL A   1      32.816  33.158  27.825  1.00  0.00     0.338 C 
ATOM     43  O   UNL A   1      32.091  34.089  27.571  1.00  0.00    -0.246 OA
BRANCH  42  44
ATOM     44  C   UNL A   1      34.131  33.248  28.507  1.00  0.00     0.060 A 
ATOM     45  C   UNL A   1      35.176  34.066  28.071  1.00  0.00     0.016 A 
ATOM     46  C   UNL A   1      34.387  32.222  29.396  1.00  0.00     0.016 A 
ATOM     47  C   UNL A   1      36.501  33.703  28.348  1.00  0.00     0.010 A 
ATOM     48  C   UNL A   1      35.700  31.846  29.622  1.00  0.00     0.010 A 
ATOM     49  C   UNL A   1      36.768  32.507  29.016  1.00  0.00    -0.014 A 
BRANCH  49  50
ATOM     50  C   UNL A   1      38.137  32.052  29.326  1.00  0.00     0.031 A 
ATOM     51  C   UNL A   1      38.319  30.636  28.906  1.00  0.00     0.074 A 
ATOM     52  C   UNL A   1      39.207  32.779  29.740  1.00  0.00     0.049 A 
ATOM     53  N   UNL A   1      38.266  29.583  29.653  1.00  0.00    -0.248 NA
ATOM     54  C   UNL A   1      38.334  30.333  27.470  1.00  0.00     0.031 C 
ATOM     55  C   UNL A   1      39.335  34.222  29.943  1.00  0.00     0.029 A 
ATOM     56  N   UNL A   1      40.489  32.362  29.999  1.00  0.00    -0.354 N 
ATOM     57  C   UNL A   1      38.490  28.520  28.783  1.00  0.00     0.074 A 
ATOM     58  C   UNL A   1      38.226  29.008  27.463  1.00  0.00     0.031 C 
ATOM     59  C   UNL A   1      40.637  34.586  30.042  1.00  0.00     0.029 A 
ATOM     60  C   UNL A   1      41.438  33.387  30.114  1.00  0.00     0.049 A 
ATOM     61  H   UNL A   1      40.725  31.412  30.098  1.00  0.00     0.167 HD
ATOM     62  C   UNL A   1      39.198  27.426  29.167  1.00  0.00     0.034 A 
ATOM     63  C   UNL A   1      42.781  33.262  30.294  1.00  0.00     0.034 A 
ATOM     64  C   UNL A   1      39.355  27.391  30.596  1.00  0.00     0.049 A 
ATOM     65  C   UNL A   1      42.994  31.918  30.858  1.00  0.00     0.074 A 
ATOM     66  C   UNL A   1      38.500  27.326  31.676  1.00  0.00     0.029 A 
ATOM     67  N   UNL A   1      40.544  27.896  31.057  1.00  0.00    -0.354 N 
ATOM     68  N   UNL A   1      42.596  31.559  32.044  1.00  0.00    -0.248 NA
ATOM     69  C   UNL A   1      43.346  30.845  29.951  1.00  0.00     0.031 C 
ATOM     70  C   UNL A   1      39.093  28.158  32.672  1.00  0.00     0.029 A 
ATOM     71  C   UNL A   1      40.316  28.631  32.190  1.00  0.00     0.049 A 
ATOM     72  H   UNL A   1      41.422  27.753  30.640  1.00  0.00     0.167 HD
ATOM     73  C   UNL A   1      42.191  30.247  31.872  1.00  0.00     0.074 A 
ATOM     74  C   UNL A   1      42.818  29.820  30.623  1.00  0.00     0.031 C 
ATOM     75  C   UNL A   1      41.153  29.742  32.600  1.00  0.00     0.034 A 
BRANCH  62  76
ATOM     76  C   UNL A   1      40.085  26.622  28.243  1.00  0.00     0.023 A 
ATOM     77  C   UNL A   1      39.985  25.217  28.306  1.00  0.00     0.012 A 
ATOM     78  C   UNL A   1      41.162  27.148  27.487  1.00  0.00     0.148 A 
ATOM     79  C   UNL A   1      40.906  24.386  27.659  1.00  0.00     0.002 A 
ATOM     80  C   UNL A   1      42.012  26.323  26.762  1.00  0.00     0.091 A 
ATOM     81  F   UNL A   1      41.471  28.446  27.564  1.00  0.00    -0.205 F 
ATOM     82  C   UNL A   1      41.909  24.936  26.868  1.00  0.00     0.022 A 
BRANCH  80  83
ATOM     83  S   UNL A   1      43.253  27.010  25.656  1.00  0.00     0.127 S 
ATOM     84  O   UNL A   1      42.433  27.804  24.748  1.00  0.00    -0.237 OA
ATOM     85  O   UNL A   1      44.082  27.784  26.581  1.00  0.00    -0.237 OA
ATOM     86  O   UNL A   1      43.939  25.857  25.074  1.00  0.00    -0.744 OA
ENDBRANCH  80  83
ENDBRANCH  62  76
BRANCH  63  87
ATOM     87  C   UNL A   1      43.952  34.063  29.844  1.00  0.00     0.023 A 
ATOM     88  C   UNL A   1      44.903  34.496  30.802  1.00  0.00     0.012 A 
ATOM     89  C   UNL A   1      44.337  34.055  28.487  1.00  0.00     0.148 A 
ATOM     90  C   UNL A   1      46.213  34.825  30.431  1.00  0.00     0.002 A 
ATOM     91  C   UNL A   1      45.648  34.372  28.126  1.00  0.00     0.091 A 
ATOM     92  F   UNL A   1      43.453  33.634  27.575  1.00  0.00    -0.205 F 
ATOM     93  C   UNL A   1      46.592  34.740  29.096  1.00  0.00     0.022 A 
BRANCH  91  94
ATOM     94  S   UNL A   1      46.250  34.207  26.437  1.00  0.00     0.127 S 
ATOM     95  O   UNL A   1      45.400  35.157  25.716  1.00  0.00    -0.237 OA
ATOM     96  O   UNL A   1      47.643  34.621  26.573  1.00  0.00    -0.237 OA
ATOM     97  O   UNL A   1      46.043  32.813  26.069  1.00  0.00    -0.744 OA
ENDBRANCH  91  94
ENDBRANCH  63  87
BRANCH  75  98
ATOM     98  C   UNL A   1      40.712  30.510  33.826  1.00  0.00     0.023 A 
ATOM     99  C   UNL A   1      41.403  30.478  35.056  1.00  0.00     0.012 A 
ATOM    100  C   UNL A   1      39.638  31.405  33.681  1.00  0.00     0.148 A 
ATOM    101  C   UNL A   1      41.020  31.309  36.117  1.00  0.00     0.002 A 
ATOM    102  C   UNL A   1      39.298  32.269  34.714  1.00  0.00     0.091 A 
ATOM    103  F   UNL A   1      38.976  31.414  32.514  1.00  0.00    -0.205 F 
ATOM    104  C   UNL A   1      39.979  32.217  35.940  1.00  0.00     0.022 A 
BRANCH 102 105
ATOM    105  S   UNL A   1      38.064  33.551  34.488  1.00  0.00     0.127 S 
ATOM    106  O   UNL A   1      36.830  32.775  34.388  1.00  0.00    -0.237 OA
ATOM    107  O   UNL A   1      38.197  34.337  35.716  1.00  0.00    -0.237 OA
ATOM    108  O   UNL A   1      38.452  34.272  33.280  1.00  0.00    -0.744 OA
ENDBRANCH 102 105
ENDBRANCH  75  98
ENDBRANCH  49  50
ENDBRANCH  42  44
ENDBRANCH  41  42
ENDBRANCH  40  41
ENDBRANCH   1  40
TORSDOF 20
ENDMDL
MODEL 3
REMARK VINA RESULT:     -14.1      1.896      3.420
REMARK SMILES Cc1coc2cc3oc(=O)c(CC(=O)N[C@H](Cc4c[nH]c5ccc(O)cc45)C(=O)OCCOC(=O)c4ccc(-c5c6nc(c(-c7cccc(S(=O)(=O)[O-])c7F)c7ccc([nH]7)c(-c7cccc(S(=O)(=O)[O-])c7F)c7nc(c(-c8cccc(S(=O)(=O)[O-])c8F)c8ccc5[nH]8)C=C7)C=C6)cc4)c(C)c3cc12
REMARK SMILES IDX 31 1 30 2 28 3 29 4 16 5 15 6 13 7 14 8 12 10 11 11 1 12
REMARK SMILES IDX 2 13 3 14 103 15 4 16 5 17 102 18 6 19 101 20 7 21 99 22
REMARK SMILES IDX 8 23 100 24 9 25 10 26 17 27 18 28 19 29 27 30 20 31 21 32
REMARK SMILES IDX 26 33 22 35 24 36 23 37 25 38 32 40 33 41 34 42 35 43 36 44
REMARK SMILES IDX 37 45 98 46 38 47 97 48 39 49 40 50 41 51 91 52 42 53 96 54
REMARK SMILES IDX 90 55 92 56 43 57 95 58 89 59 88 60 44 62 76 63 56 64 75 65
REMARK SMILES IDX 57 66 60 67 74 68 93 69 58 70 59 71 73 73 94 74 61 75 45 76
REMARK SMILES IDX 46 77 54 78 47 79 49 80 55 81 48 82 50 83 51 84 52 85 53 86
REMARK SMILES IDX 77 87 78 88 86 89 79 90 81 91 87 92 80 93 82 94 83 95 84 96
REMARK SMILES IDX 85 97 62 98 63 99 71 100 64 101 66 102 72 103 65 104 67 105
REMARK SMILES IDX 68 106 69 107 70 108
REMARK H PARENT 15 9 20 34 25 39 92 61 60 72
REMARK Flexibility Score: inf
ROOT
ATOM      1  C   UNL A   1      33.884  29.095  26.084  1.00  0.00     0.274 C 
ENDROOT
BRANCH   1   2
ATOM      2  O   UNL A   1      33.104  28.760  24.906  1.00  0.00    -0.461 OA
BRANCH   2   3
ATOM      3  C   UNL A   1      32.156  27.807  25.109  1.00  0.00     0.329 C 
ATOM      4  O   UNL A   1      31.015  28.105  25.439  1.00  0.00    -0.250 OA
BRANCH   3   5
ATOM      5  C   UNL A   1      32.656  26.342  25.046  1.00  0.00     0.196 C 
BRANCH   5   6
ATOM      6  N   UNL A   1      32.328  25.722  26.354  1.00  0.00    -0.342 N 
ATOM      7  C   UNL A   1      31.743  24.549  26.712  1.00  0.00     0.225 C 
ATOM      8  O   UNL A   1      31.900  24.155  27.870  1.00  0.00    -0.275 OA
ATOM      9  H   UNL A   1      32.589  26.276  27.124  1.00  0.00     0.164 HD
BRANCH   7  10
ATOM     10  C   UNL A   1      30.970  23.685  25.718  1.00  0.00     0.143 C 
BRANCH  10  11
ATOM     11  C   UNL A   1      31.753  22.671  24.897  1.00  0.00     0.051 A 
ATOM     12  C   UNL A   1      35.468  16.648  25.397  1.00  0.00     0.048 C 
ATOM     13  C   UNL A   1      34.535  17.069  24.326  1.00  0.00    -0.005 A 
ATOM     14  C   UNL A   1      34.140  16.316  23.237  1.00  0.00     0.199 A 
ATOM     15  C   UNL A   1      33.851  18.317  24.199  1.00  0.00     0.024 A 
ATOM     16  O   UNL A   1      33.296  17.015  22.438  1.00  0.00    -0.464 OA
ATOM     17  C   UNL A   1      33.121  18.233  23.021  1.00  0.00     0.137 A 
ATOM     18  C   UNL A   1      33.760  19.505  24.962  1.00  0.00     0.024 A 
ATOM     19  C   UNL A   1      32.335  19.260  22.520  1.00  0.00     0.095 A 
ATOM     20  C   UNL A   1      32.966  20.582  24.512  1.00  0.00     0.022 A 
ATOM     21  C   UNL A   1      32.302  20.429  23.291  1.00  0.00     0.142 A 
ATOM     22  C   UNL A   1      32.672  21.780  25.343  1.00  0.00    -0.029 A 
ATOM     23  O   UNL A   1      31.523  21.471  22.762  1.00  0.00    -0.422 OA
ATOM     24  C   UNL A   1      33.280  21.816  26.725  1.00  0.00     0.046 C 
ATOM     25  C   UNL A   1      31.281  22.626  23.481  1.00  0.00     0.340 A 
ATOM     26  O   UNL A   1      30.627  23.540  22.986  1.00  0.00    -0.246 OA
ENDBRANCH  10  11
ENDBRANCH   7  10
ENDBRANCH   5   6
BRANCH   5  27
ATOM     27  C   UNL A   1      34.078  26.080  24.581  1.00  0.00     0.074 C 
BRANCH  27  28
ATOM     28  C   UNL A   1      34.579  24.762  24.074  1.00  0.00    -0.020 A 
ATOM     29  C   UNL A   1      34.134  24.158  22.909  1.00  0.00     0.087 A 
ATOM     30  C   UNL A   1      35.689  23.971  24.535  1.00  0.00     0.006 A 
ATOM     31  N   UNL A   1      34.859  23.020  22.700  1.00  0.00    -0.361 N 
ATOM     32  C   UNL A   1      35.766  22.841  23.718  1.00  0.00     0.046 A 
ATOM     33  C   UNL A   1      36.619  24.082  25.589  1.00  0.00     0.056 A 
ATOM     34  H   UNL A   1      34.749  22.414  21.931  1.00  0.00     0.166 HD
ATOM     35  C   UNL A   1      36.648  21.777  23.964  1.00  0.00     0.030 A 
ATOM     36  C   UNL A   1      37.492  23.019  25.853  1.00  0.00     0.116 A 
ATOM     37  C   UNL A   1      37.495  21.871  25.075  1.00  0.00     0.048 A 
BRANCH  36  38
ATOM     38  O   UNL A   1      38.294  23.154  26.949  1.00  0.00    -0.508 OA
ATOM     39  H   UNL A   1      37.984  22.889  27.792  1.00  0.00     0.293 HD
ENDBRANCH  36  38
ENDBRANCH  27  28
ENDBRANCH   5  27
ENDBRANCH   3   5
ENDBRANCH   2   3
ENDBRANCH   1   2
BRANCH   1  40
ATOM     40  C   UNL A   1      33.435  30.435  26.672  1.00  0.00     0.275 C 
BRANCH  40  41
ATOM     41  O   UNL A   1      34.153  30.680  27.893  1.00  0.00    -0.458 OA
BRANCH  41  42
ATOM     42  C   UNL A   1      35.099  31.658  27.841  1.00  0.00     0.338 C 
ATOM     43  O   UNL A   1      34.918  32.830  27.613  1.00  0.00    -0.246 OA
BRANCH  42  44
ATOM     44  C   UNL A   1      36.277  31.084  28.537  1.00  0.00     0.060 A 
ATOM     45  C   UNL A   1      37.380  31.838  28.943  1.00  0.00     0.016 A 
ATOM     46  C   UNL A   1      36.378  29.709  28.454  1.00  0.00     0.016 A 
ATOM     47  C   UNL A   1      38.638  31.228  29.038  1.00  0.00     0.010 A 
ATOM     48  C   UNL A   1      37.633  29.127  28.503  1.00  0.00     0.010 A 
ATOM     49  C   UNL A   1      38.789  29.888  28.683  1.00  0.00    -0.014 A 
BRANCH  49  50
ATOM     50  C   UNL A   1      40.085  29.185  28.740  1.00  0.00     0.031 A 
ATOM     51  C   UNL A   1      40.501  28.979  30.153  1.00  0.00     0.074 A 
ATOM     52  C   UNL A   1      40.781  28.591  27.735  1.00  0.00     0.049 A 
ATOM     53  N   UNL A   1      41.345  29.683  30.833  1.00  0.00    -0.248 NA
ATOM     54  C   UNL A   1      39.733  28.035  30.974  1.00  0.00     0.031 C 
ATOM     55  C   UNL A   1      40.427  28.424  26.326  1.00  0.00     0.029 A 
ATOM     56  N   UNL A   1      41.970  27.911  27.791  1.00  0.00    -0.354 N 
ATOM     57  C   UNL A   1      41.370  29.088  32.091  1.00  0.00     0.074 A 
ATOM     58  C   UNL A   1      40.177  28.306  32.198  1.00  0.00     0.031 C 
ATOM     59  C   UNL A   1      41.224  27.503  25.730  1.00  0.00     0.029 A 
ATOM     60  C   UNL A   1      42.281  27.155  26.651  1.00  0.00     0.049 A 
ATOM     61  H   UNL A   1      42.565  27.950  28.574  1.00  0.00     0.167 HD
ATOM     62  C   UNL A   1      42.518  29.005  32.814  1.00  0.00     0.034 A 
ATOM     63  C   UNL A   1      43.349  26.335  26.461  1.00  0.00     0.034 A 
ATOM     64  C   UNL A   1      43.531  29.871  32.272  1.00  0.00     0.049 A 
ATOM     65  C   UNL A   1      44.373  26.766  27.428  1.00  0.00     0.074 A 
ATOM     66  C   UNL A   1      43.654  31.228  32.067  1.00  0.00     0.029 A 
ATOM     67  N   UNL A   1      44.423  29.257  31.430  1.00  0.00    -0.354 N 
ATOM     68  N   UNL A   1      44.986  27.912  27.370  1.00  0.00    -0.248 NA
ATOM     69  C   UNL A   1      44.465  26.055  28.688  1.00  0.00     0.031 C 
ATOM     70  C   UNL A   1      44.350  31.358  30.828  1.00  0.00     0.029 A 
ATOM     71  C   UNL A   1      44.688  30.083  30.370  1.00  0.00     0.049 A 
ATOM     72  H   UNL A   1      44.811  28.364  31.566  1.00  0.00     0.167 HD
ATOM     73  C   UNL A   1      45.120  28.281  28.698  1.00  0.00     0.074 A 
ATOM     74  C   UNL A   1      44.931  27.044  29.454  1.00  0.00     0.031 C 
ATOM     75  C   UNL A   1      45.073  29.596  29.059  1.00  0.00     0.034 A 
BRANCH  62  76
ATOM     76  C   UNL A   1      42.855  27.859  33.741  1.00  0.00     0.023 A 
ATOM     77  C   UNL A   1      43.774  26.896  33.275  1.00  0.00     0.012 A 
ATOM     78  C   UNL A   1      42.163  27.548  34.937  1.00  0.00     0.148 A 
ATOM     79  C   UNL A   1      43.987  25.693  33.958  1.00  0.00     0.002 A 
ATOM     80  C   UNL A   1      42.450  26.401  35.666  1.00  0.00     0.091 A 
ATOM     81  F   UNL A   1      41.115  28.283  35.322  1.00  0.00    -0.205 F 
ATOM     82  C   UNL A   1      43.342  25.452  35.166  1.00  0.00     0.022 A 
BRANCH  80  83
ATOM     83  S   UNL A   1      41.704  26.113  37.277  1.00  0.00     0.127 S 
ATOM     84  O   UNL A   1      42.817  26.403  38.174  1.00  0.00    -0.237 OA
ATOM     85  O   UNL A   1      40.625  27.102  37.288  1.00  0.00    -0.237 OA
ATOM     86  O   UNL A   1      41.234  24.729  37.249  1.00  0.00    -0.744 OA
ENDBRANCH  80  83
ENDBRANCH  62  76
BRANCH  63  87
ATOM     87  C   UNL A   1      43.544  25.069  25.702  1.00  0.00     0.023 A 
ATOM     88  C   UNL A   1      44.767  24.853  25.021  1.00  0.00     0.012 A 
ATOM     89  C   UNL A   1      42.730  23.949  25.971  1.00  0.00     0.148 A 
ATOM     90  C   UNL A   1      45.203  23.562  24.697  1.00  0.00     0.002 A 
ATOM     91  C   UNL A   1      43.176  22.664  25.657  1.00  0.00     0.091 A 
ATOM     92  F   UNL A   1      41.579  24.138  26.628  1.00  0.00    -0.205 F 
ATOM     93  C   UNL A   1      44.418  22.465  25.036  1.00  0.00     0.022 A 
BRANCH  91  94
ATOM     94  S   UNL A   1      42.268  21.184  26.135  1.00  0.00     0.127 S 
ATOM     95  O   UNL A   1      40.897  21.532  25.758  1.00  0.00    -0.237 OA
ATOM     96  O   UNL A   1      42.890  20.165  25.293  1.00  0.00    -0.237 OA
ATOM     97  O   UNL A   1      42.478  21.027  27.568  1.00  0.00    -0.744 OA
ENDBRANCH  91  94
ENDBRANCH  63  87
BRANCH  75  98
ATOM     98  C   UNL A   1      45.239  30.633  27.970  1.00  0.00     0.023 A 
ATOM     99  C   UNL A   1      44.157  31.199  27.262  1.00  0.00     0.012 A 
ATOM    100  C   UNL A   1      46.527  31.152  27.758  1.00  0.00     0.148 A 
ATOM    101  C   UNL A   1      44.363  32.247  26.355  1.00  0.00     0.002 A 
ATOM    102  C   UNL A   1      46.719  32.230  26.904  1.00  0.00     0.091 A 
ATOM    103  F   UNL A   1      47.551  30.594  28.423  1.00  0.00    -0.205 F 
ATOM    104  C   UNL A   1      45.641  32.774  26.189  1.00  0.00     0.022 A 
BRANCH 102 105
ATOM    105  S   UNL A   1      48.316  33.036  26.765  1.00  0.00     0.127 S 
ATOM    106  O   UNL A   1      48.054  34.064  25.759  1.00  0.00    -0.237 OA
ATOM    107  O   UNL A   1      48.532  33.545  28.120  1.00  0.00    -0.237 OA
ATOM    108  O   UNL A   1      49.257  31.994  26.367  1.00  0.00    -0.744 OA
ENDBRANCH 102 105
ENDBRANCH  75  98
ENDBRANCH  49  50
ENDBRANCH  42  44
ENDBRANCH  41  42
ENDBRANCH  40  41
ENDBRANCH   1  40
TORSDOF 20
ENDMDL
