MODEL 1
REMARK VINA RESULT:     -11.6      0.000      0.000
REMARK SMILES CC[C@H]1CCC[C@@H]([NH2+][C@@](C)(CC)C(=O)OCCOC(=O)c2ccc(-c3c4nc(c(-c5cccc(S(=O)(=O)[O-])c5F)c5ccc([nH]5)c(-c5cccc(S(=O)(=O)[O-])c5F)c5nc(c(-c6cccc(S(=O)(=O)[O-])c6F)c6ccc3[nH]6)C=C5)C=C4)cc2)C1
REMARK SMILES IDX 16 1 15 2 13 3 14 4 9 5 10 6 8 7 7 10 3 11 4 12 84 13 5 14
REMARK SMILES IDX 6 15 2 16 1 17 11 18 12 19 17 20 18 21 19 22 20 23 21 24
REMARK SMILES IDX 22 25 83 26 23 27 82 28 24 29 25 30 26 31 76 32 27 33 81 34
REMARK SMILES IDX 75 35 77 36 28 37 80 38 74 39 73 40 29 42 61 43 41 44 60 45
REMARK SMILES IDX 42 46 45 47 59 48 78 49 43 50 44 51 58 53 79 54 46 55 30 56
REMARK SMILES IDX 31 57 39 58 32 59 34 60 40 61 33 62 35 63 36 64 37 65 38 66
REMARK SMILES IDX 62 67 63 68 71 69 64 70 66 71 72 72 65 73 67 74 68 75 69 76
REMARK SMILES IDX 70 77 47 78 48 79 56 80 49 81 51 82 57 83 50 84 52 85 53 86
REMARK SMILES IDX 54 87 55 88
REMARK H PARENT 8 8 8 9 77 41 45 52
REMARK Flexibility Score: inf
ROOT
ATOM      1  C   UNL A   1      34.231  22.066  24.990  1.00  0.00     0.274 C 
ENDROOT
BRANCH   1   2
ATOM      2  O   UNL A   1      34.487  23.390  24.428  1.00  0.00    -0.457 OA
BRANCH   2   3
ATOM      3  C   UNL A   1      33.825  23.660  23.262  1.00  0.00     0.367 C 
ATOM      4  O   UNL A   1      34.281  23.288  22.178  1.00  0.00    -0.245 OA
BRANCH   3   5
ATOM      5  C   UNL A   1      32.598  24.645  23.382  1.00  0.00     0.191 C 
ATOM      6  C   UNL A   1      31.435  23.589  23.150  1.00  0.00     0.092 C 
BRANCH   5   7
ATOM      7  N   UNL A   1      32.154  25.247  24.687  1.00  0.00    -0.330 N 
ATOM      8  H   UNL A   1      32.520  24.585  25.371  1.00  0.00     0.347 HD
ATOM      9  H   UNL A   1      32.420  26.197  24.431  1.00  0.00     0.347 HD
BRANCH   7  10
ATOM     10  C   UNL A   1      30.825  25.663  25.311  1.00  0.00     0.183 C 
ATOM     11  C   UNL A   1      31.484  28.777  25.671  1.00  0.00    -0.006 C 
ATOM     12  C   UNL A   1      30.781  29.337  23.971  1.00  0.00     0.004 C 
ATOM     13  C   UNL A   1      31.234  27.082  26.331  1.00  0.00     0.068 C 
ATOM     14  C   UNL A   1      29.429  28.083  23.105  1.00  0.00     0.006 C 
ATOM     15  C   UNL A   1      29.340  26.180  24.224  1.00  0.00     0.065 C 
BRANCH  11  16
ATOM     16  C   UNL A   1      32.972  29.178  25.842  1.00  0.00     0.000 C 
ATOM     17  C   UNL A   1      33.362  29.833  27.162  1.00  0.00     0.004 C 
ENDBRANCH  11  16
ENDBRANCH   7  10
ENDBRANCH   5   7
BRANCH   5  18
ATOM     18  C   UNL A   1      32.500  25.580  22.160  1.00  0.00     0.077 C 
ATOM     19  C   UNL A   1      33.186  26.918  22.327  1.00  0.00     0.011 C 
ENDBRANCH   5  18
ENDBRANCH   3   5
ENDBRANCH   2   3
ENDBRANCH   1   2
BRANCH   1  20
ATOM     20  C   UNL A   1      35.386  21.109  24.718  1.00  0.00     0.275 C 
BRANCH  20  21
ATOM     21  O   UNL A   1      36.407  21.364  25.697  1.00  0.00    -0.458 OA
BRANCH  21  22
ATOM     22  C   UNL A   1      37.617  20.937  25.296  1.00  0.00     0.338 C 
ATOM     23  O   UNL A   1      37.840  19.937  24.625  1.00  0.00    -0.246 OA
BRANCH  22  24
ATOM     24  C   UNL A   1      38.695  21.923  25.567  1.00  0.00     0.060 A 
ATOM     25  C   UNL A   1      40.069  21.303  26.391  1.00  0.00     0.016 A 
ATOM     26  C   UNL A   1      38.021  23.443  25.954  1.00  0.00     0.016 A 
ATOM     27  C   UNL A   1      40.807  22.291  27.693  1.00  0.00     0.010 A 
ATOM     28  C   UNL A   1      38.624  24.500  27.132  1.00  0.00     0.010 A 
ATOM     29  C   UNL A   1      40.067  24.064  28.073  1.00  0.00    -0.014 A 
BRANCH  29  30
ATOM     30  C   UNL A   1      40.612  25.714  28.148  1.00  0.00     0.031 A 
ATOM     31  C   UNL A   1      42.045  26.013  27.648  1.00  0.00     0.074 A 
ATOM     32  C   UNL A   1      40.159  26.713  29.009  1.00  0.00     0.049 A 
ATOM     33  N   UNL A   1      42.716  27.147  27.640  1.00  0.00    -0.248 NA
ATOM     34  C   UNL A   1      42.842  24.865  27.194  1.00  0.00     0.031 C 
ATOM     35  C   UNL A   1      39.006  26.671  29.930  1.00  0.00     0.029 A 
ATOM     36  N   UNL A   1      40.595  28.027  29.244  1.00  0.00    -0.354 N 
ATOM     37  C   UNL A   1      44.011  26.849  27.211  1.00  0.00     0.074 A 
ATOM     38  C   UNL A   1      44.034  25.416  26.991  1.00  0.00     0.031 C 
ATOM     39  C   UNL A   1      38.738  27.855  30.466  1.00  0.00     0.029 A 
ATOM     40  C   UNL A   1      39.770  28.776  30.083  1.00  0.00     0.049 A 
ATOM     41  H   UNL A   1      41.419  28.391  28.847  1.00  0.00     0.167 HD
ATOM     42  C   UNL A   1      45.086  27.664  27.016  1.00  0.00     0.034 A 
ATOM     43  C   UNL A   1      39.746  30.043  30.552  1.00  0.00     0.034 A 
ATOM     44  C   UNL A   1      45.115  29.087  27.271  1.00  0.00     0.049 A 
ATOM     45  C   UNL A   1      40.836  30.976  30.176  1.00  0.00     0.074 A 
ATOM     46  C   UNL A   1      46.101  30.003  26.931  1.00  0.00     0.029 A 
ATOM     47  N   UNL A   1      44.159  29.796  27.982  1.00  0.00    -0.354 N 
ATOM     48  N   UNL A   1      41.908  30.716  29.479  1.00  0.00    -0.248 NA
ATOM     49  C   UNL A   1      40.716  32.371  30.622  1.00  0.00     0.031 C 
ATOM     50  C   UNL A   1      45.765  31.249  27.475  1.00  0.00     0.029 A 
ATOM     51  C   UNL A   1      44.542  31.126  28.108  1.00  0.00     0.049 A 
ATOM     52  H   UNL A   1      43.328  29.413  28.344  1.00  0.00     0.167 HD
ATOM     53  C   UNL A   1      42.589  31.916  29.384  1.00  0.00     0.074 A 
ATOM     54  C   UNL A   1      41.794  32.912  30.072  1.00  0.00     0.031 C 
ATOM     55  C   UNL A   1      43.775  32.144  28.779  1.00  0.00     0.034 A 
BRANCH  42  56
ATOM     56  C   UNL A   1      46.342  27.047  26.422  1.00  0.00     0.023 A 
ATOM     57  C   UNL A   1      46.475  26.980  25.018  1.00  0.00     0.012 A 
ATOM     58  C   UNL A   1      47.417  26.614  27.229  1.00  0.00     0.148 A 
ATOM     59  C   UNL A   1      47.619  26.439  24.430  1.00  0.00     0.002 A 
ATOM     60  C   UNL A   1      48.575  26.117  26.633  1.00  0.00     0.091 A 
ATOM     61  F   UNL A   1      47.289  26.687  28.561  1.00  0.00    -0.205 F 
ATOM     62  C   UNL A   1      48.669  26.013  25.236  1.00  0.00     0.022 A 
BRANCH  60  63
ATOM     63  S   UNL A   1      50.023  25.622  27.577  1.00  0.00     0.127 S 
ATOM     64  O   UNL A   1      51.110  26.065  26.703  1.00  0.00    -0.237 OA
ATOM     65  O   UNL A   1      49.876  26.403  28.805  1.00  0.00    -0.237 OA
ATOM     66  O   UNL A   1      49.911  24.182  27.758  1.00  0.00    -0.744 OA
ENDBRANCH  60  63
ENDBRANCH  42  56
BRANCH  43  67
ATOM     67  C   UNL A   1      38.569  30.518  31.365  1.00  0.00     0.023 A 
ATOM     68  C   UNL A   1      38.671  30.544  32.771  1.00  0.00     0.012 A 
ATOM     69  C   UNL A   1      37.419  31.068  30.758  1.00  0.00     0.148 A 
ATOM     70  C   UNL A   1      37.657  31.102  33.555  1.00  0.00     0.002 A 
ATOM     71  C   UNL A   1      36.448  31.688  31.540  1.00  0.00     0.091 A 
ATOM     72  F   UNL A   1      37.334  31.038  29.421  1.00  0.00    -0.205 F 
ATOM     73  C   UNL A   1      36.557  31.692  32.939  1.00  0.00     0.022 A 
BRANCH  71  74
ATOM     74  S   UNL A   1      35.095  32.639  30.829  1.00  0.00     0.127 S 
ATOM     75  O   UNL A   1      34.095  32.574  31.891  1.00  0.00    -0.237 OA
ATOM     76  O   UNL A   1      35.712  33.954  30.646  1.00  0.00    -0.237 OA
ATOM     77  O   UNL A   1      34.748  31.962  29.588  1.00  0.00    -0.744 OA
ENDBRANCH  71  74
ENDBRANCH  43  67
BRANCH  55  78
ATOM     78  C   UNL A   1      44.296  33.552  28.803  1.00  0.00     0.023 A 
ATOM     79  C   UNL A   1      43.955  34.456  27.777  1.00  0.00     0.012 A 
ATOM     80  C   UNL A   1      45.104  33.987  29.870  1.00  0.00     0.148 A 
ATOM     81  C   UNL A   1      44.433  35.766  27.801  1.00  0.00     0.002 A 
ATOM     82  C   UNL A   1      45.533  35.306  29.914  1.00  0.00     0.091 A 
ATOM     83  F   UNL A   1      45.447  33.099  30.813  1.00  0.00    -0.205 F 
ATOM     84  C   UNL A   1      45.210  36.194  28.874  1.00  0.00     0.022 A 
BRANCH  82  85
ATOM     85  S   UNL A   1      46.458  35.969  31.302  1.00  0.00     0.127 S 
ATOM     86  O   UNL A   1      45.553  35.700  32.419  1.00  0.00    -0.237 OA
ATOM     87  O   UNL A   1      47.667  35.147  31.284  1.00  0.00    -0.237 OA
ATOM     88  O   UNL A   1      46.678  37.378  31.006  1.00  0.00    -0.744 OA
ENDBRANCH  82  85
ENDBRANCH  55  78
ENDBRANCH  29  30
ENDBRANCH  22  24
ENDBRANCH  21  22
ENDBRANCH  20  21
ENDBRANCH   1  20
TORSDOF 18
ENDMDL
MODEL 2
REMARK VINA RESULT:     -11.6      4.655      9.860
REMARK SMILES CC[C@H]1CCC[C@@H]([NH2+][C@@](C)(CC)C(=O)OCCOC(=O)c2ccc(-c3c4nc(c(-c5cccc(S(=O)(=O)[O-])c5F)c5ccc([nH]5)c(-c5cccc(S(=O)(=O)[O-])c5F)c5nc(c(-c6cccc(S(=O)(=O)[O-])c6F)c6ccc3[nH]6)C=C5)C=C4)cc2)C1
REMARK SMILES IDX 16 1 15 2 13 3 14 4 9 5 10 6 8 7 7 10 3 11 4 12 84 13 5 14
REMARK SMILES IDX 6 15 2 16 1 17 11 18 12 19 17 20 18 21 19 22 20 23 21 24
REMARK SMILES IDX 22 25 83 26 23 27 82 28 24 29 25 30 26 31 76 32 27 33 81 34
REMARK SMILES IDX 75 35 77 36 28 37 80 38 74 39 73 40 29 42 61 43 41 44 60 45
REMARK SMILES IDX 42 46 45 47 59 48 78 49 43 50 44 51 58 53 79 54 46 55 30 56
REMARK SMILES IDX 31 57 39 58 32 59 34 60 40 61 33 62 35 63 36 64 37 65 38 66
REMARK SMILES IDX 62 67 63 68 71 69 64 70 66 71 72 72 65 73 67 74 68 75 69 76
REMARK SMILES IDX 70 77 47 78 48 79 56 80 49 81 51 82 57 83 50 84 52 85 53 86
REMARK SMILES IDX 54 87 55 88
REMARK H PARENT 8 8 8 9 77 41 45 52
REMARK Flexibility Score: inf
ROOT
ATOM      1  C   UNL A   1      31.858  28.316  24.250  1.00  0.00     0.274 C 
ENDROOT
BRANCH   1   2
ATOM      2  O   UNL A   1      31.186  27.195  24.902  1.00  0.00    -0.457 OA
BRANCH   2   3
ATOM      3  C   UNL A   1      32.020  26.254  25.438  1.00  0.00     0.367 C 
ATOM      4  O   UNL A   1      32.780  26.541  26.366  1.00  0.00    -0.245 OA
BRANCH   3   5
ATOM      5  C   UNL A   1      32.101  24.885  24.658  1.00  0.00     0.191 C 
ATOM      6  C   UNL A   1      30.771  25.034  23.801  1.00  0.00     0.092 C 
BRANCH   5   7
ATOM      7  N   UNL A   1      33.096  24.623  23.560  1.00  0.00    -0.330 N 
ATOM      8  H   UNL A   1      32.858  25.338  22.872  1.00  0.00     0.347 HD
ATOM      9  H   UNL A   1      33.885  24.507  24.196  1.00  0.00     0.347 HD
BRANCH   7  10
ATOM     10  C   UNL A   1      33.478  23.435  22.682  1.00  0.00     0.183 C 
ATOM     11  C   UNL A   1      35.369  21.941  24.793  1.00  0.00    -0.006 C 
ATOM     12  C   UNL A   1      33.994  20.840  25.562  1.00  0.00     0.004 C 
ATOM     13  C   UNL A   1      35.098  22.941  23.277  1.00  0.00     0.068 C 
ATOM     14  C   UNL A   1      32.340  20.539  24.413  1.00  0.00     0.006 C 
ATOM     15  C   UNL A   1      32.406  21.853  22.637  1.00  0.00     0.065 C 
BRANCH  11  16
ATOM     16  C   UNL A   1      36.078  22.814  25.861  1.00  0.00     0.000 C 
ATOM     17  C   UNL A   1      37.584  22.995  25.714  1.00  0.00     0.004 C 
ENDBRANCH  11  16
ENDBRANCH   7  10
ENDBRANCH   5   7
BRANCH   5  18
ATOM     18  C   UNL A   1      31.814  23.686  25.584  1.00  0.00     0.077 C 
ATOM     19  C   UNL A   1      30.658  23.882  26.539  1.00  0.00     0.011 C 
ENDBRANCH   5  18
ENDBRANCH   3   5
ENDBRANCH   2   3
ENDBRANCH   1   2
BRANCH   1  20
ATOM     20  C   UNL A   1      31.599  29.628  24.982  1.00  0.00     0.275 C 
BRANCH  20  21
ATOM     21  O   UNL A   1      32.804  29.987  25.679  1.00  0.00    -0.458 OA
BRANCH  21  22
ATOM     22  C   UNL A   1      32.561  30.738  26.767  1.00  0.00     0.338 C 
ATOM     23  O   UNL A   1      31.483  31.235  27.071  1.00  0.00    -0.246 OA
BRANCH  22  24
ATOM     24  C   UNL A   1      33.698  30.751  27.724  1.00  0.00     0.060 A 
ATOM     25  C   UNL A   1      34.367  32.299  28.049  1.00  0.00     0.016 A 
ATOM     26  C   UNL A   1      34.680  29.374  27.493  1.00  0.00     0.016 A 
ATOM     27  C   UNL A   1      36.150  32.460  28.145  1.00  0.00     0.010 A 
ATOM     28  C   UNL A   1      36.371  29.363  27.586  1.00  0.00     0.010 A 
ATOM     29  C   UNL A   1      37.259  30.857  27.951  1.00  0.00    -0.014 A 
BRANCH  29  30
ATOM     30  C   UNL A   1      38.481  30.004  28.847  1.00  0.00     0.031 A 
ATOM     31  C   UNL A   1      38.874  30.570  30.233  1.00  0.00     0.074 A 
ATOM     32  C   UNL A   1      39.487  29.186  28.332  1.00  0.00     0.049 A 
ATOM     33  N   UNL A   1      39.791  30.157  31.083  1.00  0.00    -0.248 NA
ATOM     34  C   UNL A   1      38.211  31.812  30.653  1.00  0.00     0.031 C 
ATOM     35  C   UNL A   1      39.655  28.708  26.945  1.00  0.00     0.029 A 
ATOM     36  N   UNL A   1      40.586  28.550  28.931  1.00  0.00    -0.354 N 
ATOM     37  C   UNL A   1      39.835  31.092  32.118  1.00  0.00     0.074 A 
ATOM     38  C   UNL A   1      38.863  32.110  31.772  1.00  0.00     0.031 C 
ATOM     39  C   UNL A   1      40.610  27.794  26.834  1.00  0.00     0.029 A 
ATOM     40  C   UNL A   1      41.282  27.676  28.095  1.00  0.00     0.049 A 
ATOM     41  H   UNL A   1      40.845  28.708  29.867  1.00  0.00     0.167 HD
ATOM     42  C   UNL A   1      40.599  31.124  33.248  1.00  0.00     0.034 A 
ATOM     43  C   UNL A   1      42.336  26.839  28.218  1.00  0.00     0.034 A 
ATOM     44  C   UNL A   1      41.611  30.155  33.602  1.00  0.00     0.049 A 
ATOM     45  C   UNL A   1      43.045  26.751  29.518  1.00  0.00     0.074 A 
ATOM     46  C   UNL A   1      42.294  30.022  34.804  1.00  0.00     0.029 A 
ATOM     47  N   UNL A   1      42.140  29.197  32.750  1.00  0.00    -0.354 N 
ATOM     48  N   UNL A   1      42.830  27.454  30.597  1.00  0.00    -0.248 NA
ATOM     49  C   UNL A   1      44.116  25.753  29.638  1.00  0.00     0.031 C 
ATOM     50  C   UNL A   1      43.263  29.021  34.662  1.00  0.00     0.029 A 
ATOM     51  C   UNL A   1      43.150  28.490  33.391  1.00  0.00     0.049 A 
ATOM     52  H   UNL A   1      41.843  29.041  31.825  1.00  0.00     0.167 HD
ATOM     53  C   UNL A   1      43.727  26.977  31.535  1.00  0.00     0.074 A 
ATOM     54  C   UNL A   1      44.471  25.904  30.907  1.00  0.00     0.031 C 
ATOM     55  C   UNL A   1      43.906  27.414  32.801  1.00  0.00     0.034 A 
BRANCH  42  56
ATOM     56  C   UNL A   1      40.326  32.231  34.253  1.00  0.00     0.023 A 
ATOM     57  C   UNL A   1      41.001  33.463  34.115  1.00  0.00     0.012 A 
ATOM     58  C   UNL A   1      39.359  32.096  35.272  1.00  0.00     0.148 A 
ATOM     59  C   UNL A   1      40.768  34.514  35.003  1.00  0.00     0.002 A 
ATOM     60  C   UNL A   1      39.099  33.165  36.128  1.00  0.00     0.091 A 
ATOM     61  F   UNL A   1      38.715  30.927  35.395  1.00  0.00    -0.205 F 
ATOM     62  C   UNL A   1      39.815  34.367  36.005  1.00  0.00     0.022 A 
BRANCH  60  63
ATOM     63  S   UNL A   1      37.827  33.112  37.399  1.00  0.00     0.127 S 
ATOM     64  O   UNL A   1      36.607  33.075  36.593  1.00  0.00    -0.237 OA
ATOM     65  O   UNL A   1      38.134  31.861  38.093  1.00  0.00    -0.237 OA
ATOM     66  O   UNL A   1      38.013  34.312  38.203  1.00  0.00    -0.744 OA
ENDBRANCH  60  63
ENDBRANCH  42  56
BRANCH  43  67
ATOM     67  C   UNL A   1      42.715  25.939  27.070  1.00  0.00     0.023 A 
ATOM     68  C   UNL A   1      43.660  26.391  26.126  1.00  0.00     0.012 A 
ATOM     69  C   UNL A   1      42.258  24.606  26.988  1.00  0.00     0.148 A 
ATOM     70  C   UNL A   1      44.138  25.540  25.125  1.00  0.00     0.002 A 
ATOM     71  C   UNL A   1      42.794  23.743  26.035  1.00  0.00     0.091 A 
ATOM     72  F   UNL A   1      41.360  24.188  27.891  1.00  0.00    -0.205 F 
ATOM     73  C   UNL A   1      43.722  24.212  25.093  1.00  0.00     0.022 A 
BRANCH  71  74
ATOM     74  S   UNL A   1      42.462  21.974  26.036  1.00  0.00     0.127 S 
ATOM     75  O   UNL A   1      41.039  21.937  25.713  1.00  0.00    -0.237 OA
ATOM     76  O   UNL A   1      43.348  21.499  24.971  1.00  0.00    -0.237 OA
ATOM     77  O   UNL A   1      42.822  21.507  27.367  1.00  0.00    -0.744 OA
ENDBRANCH  71  74
ENDBRANCH  43  67
BRANCH  55  78
ATOM     78  C   UNL A   1      44.943  26.711  33.628  1.00  0.00     0.023 A 
ATOM     79  C   UNL A   1      46.262  27.205  33.687  1.00  0.00     0.012 A 
ATOM     80  C   UNL A   1      44.595  25.571  34.375  1.00  0.00     0.148 A 
ATOM     81  C   UNL A   1      47.225  26.556  34.460  1.00  0.00     0.002 A 
ATOM     82  C   UNL A   1      45.545  24.962  35.182  1.00  0.00     0.091 A 
ATOM     83  F   UNL A   1      43.345  25.098  34.272  1.00  0.00    -0.205 F 
ATOM     84  C   UNL A   1      46.864  25.444  35.216  1.00  0.00     0.022 A 
BRANCH  82  85
ATOM     85  S   UNL A   1      45.147  23.584  36.261  1.00  0.00     0.127 S 
ATOM     86  O   UNL A   1      46.386  22.807  36.222  1.00  0.00    -0.237 OA
ATOM     87  O   UNL A   1      44.886  24.255  37.533  1.00  0.00    -0.237 OA
ATOM     88  O   UNL A   1      43.986  22.930  35.671  1.00  0.00    -0.744 OA
ENDBRANCH  82  85
ENDBRANCH  55  78
ENDBRANCH  29  30
ENDBRANCH  22  24
ENDBRANCH  21  22
ENDBRANCH  20  21
ENDBRANCH   1  20
TORSDOF 18
ENDMDL
MODEL 3
REMARK VINA RESULT:     -11.4      4.495      9.879
REMARK SMILES CC[C@H]1CCC[C@@H]([NH2+][C@@](C)(CC)C(=O)OCCOC(=O)c2ccc(-c3c4nc(c(-c5cccc(S(=O)(=O)[O-])c5F)c5ccc([nH]5)c(-c5cccc(S(=O)(=O)[O-])c5F)c5nc(c(-c6cccc(S(=O)(=O)[O-])c6F)c6ccc3[nH]6)C=C5)C=C4)cc2)C1
REMARK SMILES IDX 16 1 15 2 13 3 14 4 9 5 10 6 8 7 7 10 3 11 4 12 84 13 5 14
REMARK SMILES IDX 6 15 2 16 1 17 11 18 12 19 17 20 18 21 19 22 20 23 21 24
REMARK SMILES IDX 22 25 83 26 23 27 82 28 24 29 25 30 26 31 76 32 27 33 81 34
REMARK SMILES IDX 75 35 77 36 28 37 80 38 74 39 73 40 29 42 61 43 41 44 60 45
REMARK SMILES IDX 42 46 45 47 59 48 78 49 43 50 44 51 58 53 79 54 46 55 30 56
REMARK SMILES IDX 31 57 39 58 32 59 34 60 40 61 33 62 35 63 36 64 37 65 38 66
REMARK SMILES IDX 62 67 63 68 71 69 64 70 66 71 72 72 65 73 67 74 68 75 69 76
REMARK SMILES IDX 70 77 47 78 48 79 56 80 49 81 51 82 57 83 50 84 52 85 53 86
REMARK SMILES IDX 54 87 55 88
REMARK H PARENT 8 8 8 9 77 41 45 52
REMARK Flexibility Score: inf
ROOT
ATOM      1  C   UNL A   1      30.519  28.302  24.286  1.00  0.00     0.274 C 
ENDROOT
BRANCH   1   2
ATOM      2  O   UNL A   1      30.855  27.092  25.032  1.00  0.00    -0.457 OA
BRANCH   2   3
ATOM      3  C   UNL A   1      31.180  26.009  24.261  1.00  0.00     0.367 C 
ATOM      4  O   UNL A   1      30.934  26.000  23.053  1.00  0.00    -0.245 OA
BRANCH   3   5
ATOM      5  C   UNL A   1      31.664  24.729  25.047  1.00  0.00     0.191 C 
ATOM      6  C   UNL A   1      31.076  23.626  24.067  1.00  0.00     0.092 C 
BRANCH   5   7
ATOM      7  N   UNL A   1      33.103  24.296  25.103  1.00  0.00    -0.330 N 
ATOM      8  H   UNL A   1      33.092  23.425  24.573  1.00  0.00     0.347 HD
ATOM      9  H   UNL A   1      33.473  25.225  24.903  1.00  0.00     0.347 HD
BRANCH   7  10
ATOM     10  C   UNL A   1      34.120  24.000  26.201  1.00  0.00     0.183 C 
ATOM     11  C   UNL A   1      34.391  20.850  25.688  1.00  0.00    -0.006 C 
ATOM     12  C   UNL A   1      35.862  20.965  24.455  1.00  0.00     0.004 C 
ATOM     13  C   UNL A   1      33.803  22.294  26.657  1.00  0.00     0.068 C 
ATOM     14  C   UNL A   1      36.978  22.666  24.549  1.00  0.00     0.006 C 
ATOM     15  C   UNL A   1      35.999  24.139  25.874  1.00  0.00     0.065 C 
BRANCH  11  16
ATOM     16  C   UNL A   1      33.172  20.119  25.068  1.00  0.00     0.000 C 
ATOM     17  C   UNL A   1      32.802  18.766  25.666  1.00  0.00     0.004 C 
ENDBRANCH  11  16
ENDBRANCH   7  10
ENDBRANCH   5   7
BRANCH   5  18
ATOM     18  C   UNL A   1      30.867  24.529  26.351  1.00  0.00     0.077 C 
ATOM     19  C   UNL A   1      30.394  23.113  26.597  1.00  0.00     0.011 C 
ENDBRANCH   5  18
ENDBRANCH   3   5
ENDBRANCH   2   3
ENDBRANCH   1   2
BRANCH   1  20
ATOM     20  C   UNL A   1      31.654  29.318  24.326  1.00  0.00     0.275 C 
BRANCH  20  21
ATOM     21  O   UNL A   1      32.321  29.181  25.593  1.00  0.00    -0.458 OA
BRANCH  21  22
ATOM     22  C   UNL A   1      32.237  30.297  26.337  1.00  0.00     0.338 C 
ATOM     23  O   UNL A   1      31.320  31.109  26.316  1.00  0.00    -0.246 OA
BRANCH  22  24
ATOM     24  C   UNL A   1      33.290  30.371  27.384  1.00  0.00     0.060 A 
ATOM     25  C   UNL A   1      33.735  31.958  27.869  1.00  0.00     0.016 A 
ATOM     26  C   UNL A   1      34.449  29.142  27.143  1.00  0.00     0.016 A 
ATOM     27  C   UNL A   1      35.472  32.321  28.124  1.00  0.00     0.010 A 
ATOM     28  C   UNL A   1      36.117  29.324  27.376  1.00  0.00     0.010 A 
ATOM     29  C   UNL A   1      36.783  30.881  27.915  1.00  0.00    -0.014 A 
BRANCH  29  30
ATOM     30  C   UNL A   1      38.031  30.111  28.850  1.00  0.00     0.031 A 
ATOM     31  C   UNL A   1      38.231  30.594  30.306  1.00  0.00     0.074 A 
ATOM     32  C   UNL A   1      39.177  29.477  28.367  1.00  0.00     0.049 A 
ATOM     33  N   UNL A   1      39.123  30.225  31.203  1.00  0.00    -0.248 NA
ATOM     34  C   UNL A   1      37.376  31.699  30.760  1.00  0.00     0.031 C 
ATOM     35  C   UNL A   1      39.519  29.152  26.968  1.00  0.00     0.029 A 
ATOM     36  N   UNL A   1      40.299  28.934  29.012  1.00  0.00    -0.354 N 
ATOM     37  C   UNL A   1      38.957  31.061  32.308  1.00  0.00     0.074 A 
ATOM     38  C   UNL A   1      37.888  31.975  31.955  1.00  0.00     0.031 C 
ATOM     39  C   UNL A   1      40.594  28.380  26.873  1.00  0.00     0.029 A 
ATOM     40  C   UNL A   1      41.171  28.235  28.178  1.00  0.00     0.049 A 
ATOM     41  H   UNL A   1      40.457  29.038  29.979  1.00  0.00     0.167 HD
ATOM     42  C   UNL A   1      39.614  31.087  33.502  1.00  0.00     0.034 A 
ATOM     43  C   UNL A   1      42.314  27.530  28.331  1.00  0.00     0.034 A 
ATOM     44  C   UNL A   1      40.716  30.226  33.871  1.00  0.00     0.049 A 
ATOM     45  C   UNL A   1      42.920  27.414  29.681  1.00  0.00     0.074 A 
ATOM     46  C   UNL A   1      41.310  30.072  35.116  1.00  0.00     0.029 A 
ATOM     47  N   UNL A   1      41.436  29.424  32.999  1.00  0.00    -0.354 N 
ATOM     48  N   UNL A   1      42.525  27.984  30.787  1.00  0.00    -0.248 NA
ATOM     49  C   UNL A   1      44.102  26.554  29.819  1.00  0.00     0.031 C 
ATOM     50  C   UNL A   1      42.412  29.219  34.986  1.00  0.00     0.029 A 
ATOM     51  C   UNL A   1      42.476  28.795  33.672  1.00  0.00     0.049 A 
ATOM     52  H   UNL A   1      41.239  29.316  32.040  1.00  0.00     0.167 HD
ATOM     53  C   UNL A   1      43.399  27.542  31.763  1.00  0.00     0.074 A 
ATOM     54  C   UNL A   1      44.329  26.633  31.124  1.00  0.00     0.031 C 
ATOM     55  C   UNL A   1      43.414  27.881  33.071  1.00  0.00     0.034 A 
BRANCH  42  56
ATOM     56  C   UNL A   1      39.115  32.055  34.562  1.00  0.00     0.023 A 
ATOM     57  C   UNL A   1      38.006  31.691  35.356  1.00  0.00     0.012 A 
ATOM     58  C   UNL A   1      39.776  33.273  34.836  1.00  0.00     0.148 A 
ATOM     59  C   UNL A   1      37.526  32.540  36.354  1.00  0.00     0.002 A 
ATOM     60  C   UNL A   1      39.318  34.095  35.864  1.00  0.00     0.091 A 
ATOM     61  F   UNL A   1      40.834  33.611  34.085  1.00  0.00    -0.205 F 
ATOM     62  C   UNL A   1      38.184  33.738  36.610  1.00  0.00     0.022 A 
BRANCH  60  63
ATOM     63  S   UNL A   1      40.146  35.620  36.336  1.00  0.00     0.127 S 
ATOM     64  O   UNL A   1      41.550  35.207  36.331  1.00  0.00    -0.237 OA
ATOM     65  O   UNL A   1      39.776  36.525  35.248  1.00  0.00    -0.237 OA
ATOM     66  O   UNL A   1      39.604  35.984  37.638  1.00  0.00    -0.744 OA
ENDBRANCH  60  63
ENDBRANCH  42  56
BRANCH  43  67
ATOM     67  C   UNL A   1      42.902  26.793  27.156  1.00  0.00     0.023 A 
ATOM     68  C   UNL A   1      43.925  27.405  26.403  1.00  0.00     0.012 A 
ATOM     69  C   UNL A   1      42.559  25.453  26.870  1.00  0.00     0.148 A 
ATOM     70  C   UNL A   1      44.589  26.706  25.391  1.00  0.00     0.002 A 
ATOM     71  C   UNL A   1      43.275  24.740  25.912  1.00  0.00     0.091 A 
ATOM     72  F   UNL A   1      41.586  24.882  27.593  1.00  0.00    -0.205 F 
ATOM     73  C   UNL A   1      44.279  25.368  25.160  1.00  0.00     0.022 A 
BRANCH  71  74
ATOM     74  S   UNL A   1      43.077  22.966  25.679  1.00  0.00     0.127 S 
ATOM     75  O   UNL A   1      43.626  22.779  24.339  1.00  0.00    -0.237 OA
ATOM     76  O   UNL A   1      43.900  22.424  26.762  1.00  0.00    -0.237 OA
ATOM     77  O   UNL A   1      41.651  22.707  25.822  1.00  0.00    -0.744 OA
ENDBRANCH  71  74
ENDBRANCH  43  67
BRANCH  55  78
ATOM     78  C   UNL A   1      44.465  27.244  33.932  1.00  0.00     0.023 A 
ATOM     79  C   UNL A   1      45.757  27.802  34.012  1.00  0.00     0.012 A 
ATOM     80  C   UNL A   1      44.157  26.099  34.691  1.00  0.00     0.148 A 
ATOM     81  C   UNL A   1      46.733  27.214  34.816  1.00  0.00     0.002 A 
ATOM     82  C   UNL A   1      45.117  25.551  35.529  1.00  0.00     0.091 A 
ATOM     83  F   UNL A   1      42.933  25.564  34.568  1.00  0.00    -0.205 F 
ATOM     84  C   UNL A   1      46.409  26.097  35.583  1.00  0.00     0.022 A 
BRANCH  82  85
ATOM     85  S   UNL A   1      44.762  24.172  36.622  1.00  0.00     0.127 S 
ATOM     86  O   UNL A   1      46.059  23.957  37.263  1.00  0.00    -0.237 OA
ATOM     87  O   UNL A   1      43.733  24.731  37.496  1.00  0.00    -0.237 OA
ATOM     88  O   UNL A   1      44.306  23.084  35.766  1.00  0.00    -0.744 OA
ENDBRANCH  82  85
ENDBRANCH  55  78
ENDBRANCH  29  30
ENDBRANCH  22  24
ENDBRANCH  21  22
ENDBRANCH  20  21
ENDBRANCH   1  20
TORSDOF 18
ENDMDL
