MODEL 1
REMARK VINA RESULT:     -13.2      0.000      0.000
REMARK SMILES COc1cccc(-c2nn(-c3cc4c(cc3C(N)=O)OCO4)cc2C(=O)OCCOC(=O)c2ccc(-c3c4nc(c(-c5cccc(S(=O)(=O)[O-])c5F)c5ccc([nH]5)c(-c5cccc(S(=O)(=O)[O-])c5F)c5nc(c(-c6cccc(S(=O)(=O)[O-])c6F)c6ccc3[nH]6)C=C5)C=C4)cc2)c1
REMARK SMILES IDX 29 1 28 2 27 3 25 4 26 5 24 6 8 7 9 8 10 9 23 10 7 11 3 12
REMARK SMILES IDX 4 13 96 14 5 15 6 16 2 17 1 18 11 19 12 20 16 21 13 22 15 23
REMARK SMILES IDX 14 24 22 25 20 26 21 27 17 28 18 29 19 30 30 33 31 34 32 35
REMARK SMILES IDX 33 36 34 37 95 38 35 39 94 40 36 41 37 42 38 43 88 44 39 45
REMARK SMILES IDX 93 46 87 47 89 48 40 49 92 50 86 51 85 52 41 54 73 55 53 56
REMARK SMILES IDX 72 57 54 58 57 59 71 60 90 61 55 62 56 63 70 65 91 66 58 67
REMARK SMILES IDX 42 68 43 69 51 70 44 71 46 72 52 73 45 74 47 75 48 76 49 77
REMARK SMILES IDX 50 78 74 79 75 80 83 81 76 82 78 83 84 84 77 85 79 86 80 87
REMARK SMILES IDX 81 88 82 89 59 90 60 91 68 92 61 93 63 94 69 95 62 96 64 97
REMARK SMILES IDX 65 98 66 99 67 100
REMARK H PARENT 18 31 18 32 89 53 57 64
REMARK Flexibility Score: inf
ROOT
ATOM      1  C   UNL A   1      33.411  31.675  27.476  1.00  0.00     0.275 C 
ENDROOT
BRANCH   1   2
ATOM      2  C   UNL A   1      32.316  30.805  26.863  1.00  0.00     0.275 C 
BRANCH   2   3
ATOM      3  O   UNL A   1      32.812  29.535  26.406  1.00  0.00    -0.458 OA
BRANCH   3   4
ATOM      4  C   UNL A   1      32.148  28.413  26.837  1.00  0.00     0.342 C 
ATOM      5  O   UNL A   1      31.420  28.380  27.816  1.00  0.00    -0.246 OA
BRANCH   4   6
ATOM      6  C   UNL A   1      32.439  27.257  26.007  1.00  0.00     0.106 A 
ATOM      7  C   UNL A   1      31.679  26.639  24.969  1.00  0.00     0.107 A 
ATOM      8  N   UNL A   1      32.288  25.524  24.514  1.00  0.00    -0.167 NA
ATOM      9  N   UNL A   1      33.316  25.347  25.374  1.00  0.00    -0.239 N 
ATOM     10  C   UNL A   1      33.581  26.487  26.079  1.00  0.00     0.131 A 
BRANCH   7  11
ATOM     11  C   UNL A   1      30.436  27.112  24.373  1.00  0.00     0.007 A 
ATOM     12  C   UNL A   1      29.194  28.711  23.038  1.00  0.00     0.119 A 
ATOM     13  C   UNL A   1      28.069  27.882  23.117  1.00  0.00     0.046 A 
ATOM     14  C   UNL A   1      30.388  28.312  23.647  1.00  0.00     0.056 A 
ATOM     15  C   UNL A   1      28.107  26.701  23.854  1.00  0.00     0.005 A 
ATOM     16  C   UNL A   1      29.281  26.333  24.504  1.00  0.00     0.011 A 
BRANCH  12  17
ATOM     17  O   UNL A   1      28.979  29.869  22.342  1.00  0.00    -0.497 OA
ATOM     18  C   UNL A   1      27.800  30.603  22.631  1.00  0.00     0.278 C 
ENDBRANCH  12  17
ENDBRANCH   7  11
BRANCH   9  19
ATOM     19  C   UNL A   1      34.033  24.129  25.447  1.00  0.00     0.081 A 
ATOM     20  C   UNL A   1      35.225  24.027  24.700  1.00  0.00     0.079 A 
ATOM     21  C   UNL A   1      33.576  23.037  26.246  1.00  0.00     0.069 A 
ATOM     22  C   UNL A   1      35.954  22.864  24.818  1.00  0.00     0.167 A 
ATOM     23  C   UNL A   1      34.421  21.927  26.423  1.00  0.00     0.066 A 
ATOM     24  C   UNL A   1      35.576  21.860  25.676  1.00  0.00     0.166 A 
ATOM     25  O   UNL A   1      37.086  22.543  24.134  1.00  0.00    -0.454 OA
ATOM     26  O   UNL A   1      36.414  20.789  25.632  1.00  0.00    -0.454 OA
ATOM     27  C   UNL A   1      37.224  21.154  24.495  1.00  0.00     0.468 C 
BRANCH  21  28
ATOM     28  C   UNL A   1      32.140  22.910  26.697  1.00  0.00     0.251 C 
ATOM     29  N   UNL A   1      31.322  22.030  26.041  1.00  0.00    -0.366 N 
ATOM     30  O   UNL A   1      31.614  23.605  27.554  1.00  0.00    -0.269 OA
ATOM     31  H   UNL A   1      31.692  21.445  25.340  1.00  0.00     0.159 HD
ATOM     32  H   UNL A   1      30.366  21.984  26.268  1.00  0.00     0.159 HD
ENDBRANCH  21  28
ENDBRANCH   9  19
ENDBRANCH   4   6
ENDBRANCH   3   4
ENDBRANCH   2   3
ENDBRANCH   1   2
BRANCH   1  33
ATOM     33  O   UNL A   1      34.657  30.990  27.561  1.00  0.00    -0.458 OA
BRANCH  33  34
ATOM     34  C   UNL A   1      35.680  31.773  27.965  1.00  0.00     0.338 C 
ATOM     35  O   UNL A   1      35.796  32.977  27.787  1.00  0.00    -0.246 OA
BRANCH  34  36
ATOM     36  C   UNL A   1      36.750  30.968  28.546  1.00  0.00     0.060 A 
ATOM     37  C   UNL A   1      37.807  31.675  29.126  1.00  0.00     0.016 A 
ATOM     38  C   UNL A   1      36.814  29.587  28.326  1.00  0.00     0.016 A 
ATOM     39  C   UNL A   1      38.982  31.019  29.396  1.00  0.00     0.010 A 
ATOM     40  C   UNL A   1      37.999  28.930  28.577  1.00  0.00     0.010 A 
ATOM     41  C   UNL A   1      39.081  29.669  29.059  1.00  0.00    -0.014 A 
BRANCH  41  42
ATOM     42  C   UNL A   1      40.346  29.020  29.333  1.00  0.00     0.031 A 
ATOM     43  C   UNL A   1      40.558  28.782  30.785  1.00  0.00     0.074 A 
ATOM     44  C   UNL A   1      41.154  28.647  28.321  1.00  0.00     0.049 A 
ATOM     45  N   UNL A   1      41.510  29.239  31.528  1.00  0.00    -0.248 NA
ATOM     46  C   UNL A   1      39.479  28.120  31.543  1.00  0.00     0.031 C 
ATOM     47  C   UNL A   1      40.849  28.680  26.886  1.00  0.00     0.029 A 
ATOM     48  N   UNL A   1      42.357  28.011  28.358  1.00  0.00    -0.354 N 
ATOM     49  C   UNL A   1      41.287  28.690  32.791  1.00  0.00     0.074 A 
ATOM     50  C   UNL A   1      39.934  28.212  32.793  1.00  0.00     0.031 C 
ATOM     51  C   UNL A   1      41.688  27.844  26.237  1.00  0.00     0.029 A 
ATOM     52  C   UNL A   1      42.645  27.308  27.188  1.00  0.00     0.049 A 
ATOM     53  H   UNL A   1      42.963  28.045  29.133  1.00  0.00     0.167 HD
ATOM     54  C   UNL A   1      42.334  28.389  33.603  1.00  0.00     0.034 A 
ATOM     55  C   UNL A   1      43.515  26.273  27.056  1.00  0.00     0.034 A 
ATOM     56  C   UNL A   1      43.503  29.151  33.237  1.00  0.00     0.049 A 
ATOM     57  C   UNL A   1      44.431  26.317  28.218  1.00  0.00     0.074 A 
ATOM     58  C   UNL A   1      43.799  30.495  33.130  1.00  0.00     0.029 A 
ATOM     59  N   UNL A   1      44.473  28.488  32.528  1.00  0.00    -0.354 N 
ATOM     60  N   UNL A   1      45.291  27.276  28.415  1.00  0.00    -0.248 NA
ATOM     61  C   UNL A   1      44.062  25.549  29.397  1.00  0.00     0.031 C 
ATOM     62  C   UNL A   1      44.648  30.594  31.990  1.00  0.00     0.029 A 
ATOM     63  C   UNL A   1      44.888  29.304  31.514  1.00  0.00     0.049 A 
ATOM     64  H   UNL A   1      44.812  27.583  32.717  1.00  0.00     0.167 HD
ATOM     65  C   UNL A   1      45.188  27.545  29.773  1.00  0.00     0.074 A 
ATOM     66  C   UNL A   1      44.500  26.386  30.343  1.00  0.00     0.031 C 
ATOM     67  C   UNL A   1      45.386  28.808  30.252  1.00  0.00     0.034 A 
BRANCH  54  68
ATOM     68  C   UNL A   1      42.452  27.092  34.388  1.00  0.00     0.023 A 
ATOM     69  C   UNL A   1      42.061  27.140  35.746  1.00  0.00     0.012 A 
ATOM     70  C   UNL A   1      43.200  25.961  33.982  1.00  0.00     0.148 A 
ATOM     71  C   UNL A   1      42.486  26.179  36.668  1.00  0.00     0.002 A 
ATOM     72  C   UNL A   1      43.566  24.974  34.890  1.00  0.00     0.091 A 
ATOM     73  F   UNL A   1      43.673  25.870  32.739  1.00  0.00    -0.205 F 
ATOM     74  C   UNL A   1      43.244  25.098  36.241  1.00  0.00     0.022 A 
BRANCH  72  75
ATOM     75  S   UNL A   1      44.522  23.534  34.390  1.00  0.00     0.127 S 
ATOM     76  O   UNL A   1      44.629  22.806  35.651  1.00  0.00    -0.237 OA
ATOM     77  O   UNL A   1      43.638  22.927  33.395  1.00  0.00    -0.237 OA
ATOM     78  O   UNL A   1      45.772  24.051  33.847  1.00  0.00    -0.744 OA
ENDBRANCH  72  75
ENDBRANCH  54  68
BRANCH  55  79
ATOM     79  C   UNL A   1      43.402  25.061  26.202  1.00  0.00     0.023 A 
ATOM     80  C   UNL A   1      44.357  24.827  25.190  1.00  0.00     0.012 A 
ATOM     81  C   UNL A   1      42.540  23.998  26.552  1.00  0.00     0.148 A 
ATOM     82  C   UNL A   1      44.467  23.571  24.573  1.00  0.00     0.002 A 
ATOM     83  C   UNL A   1      42.644  22.757  25.929  1.00  0.00     0.091 A 
ATOM     84  F   UNL A   1      41.682  24.166  27.565  1.00  0.00    -0.205 F 
ATOM     85  C   UNL A   1      43.615  22.536  24.947  1.00  0.00     0.022 A 
BRANCH  83  86
ATOM     86  S   UNL A   1      41.590  21.372  26.384  1.00  0.00     0.127 S 
ATOM     87  O   UNL A   1      41.842  21.260  27.821  1.00  0.00    -0.237 OA
ATOM     88  O   UNL A   1      40.264  21.871  26.031  1.00  0.00    -0.237 OA
ATOM     89  O   UNL A   1      42.066  20.236  25.605  1.00  0.00    -0.744 OA
ENDBRANCH  83  86
ENDBRANCH  55  79
BRANCH  67  90
ATOM     90  C   UNL A   1      45.969  29.837  29.320  1.00  0.00     0.023 A 
ATOM     91  C   UNL A   1      47.352  29.952  29.073  1.00  0.00     0.012 A 
ATOM     92  C   UNL A   1      45.072  30.586  28.543  1.00  0.00     0.148 A 
ATOM     93  C   UNL A   1      47.830  30.814  28.080  1.00  0.00     0.002 A 
ATOM     94  C   UNL A   1      45.546  31.404  27.528  1.00  0.00     0.091 A 
ATOM     95  F   UNL A   1      43.760  30.457  28.793  1.00  0.00    -0.205 F 
ATOM     96  C   UNL A   1      46.925  31.529  27.298  1.00  0.00     0.022 A 
BRANCH  94  97
ATOM     97  S   UNL A   1      44.422  32.245  26.413  1.00  0.00     0.127 S 
ATOM     98  O   UNL A   1      43.951  33.356  27.236  1.00  0.00    -0.237 OA
ATOM     99  O   UNL A   1      45.304  32.630  25.309  1.00  0.00    -0.237 OA
ATOM    100  O   UNL A   1      43.409  31.262  26.047  1.00  0.00    -0.744 OA
ENDBRANCH  94  97
ENDBRANCH  67  90
ENDBRANCH  41  42
ENDBRANCH  34  36
ENDBRANCH  33  34
ENDBRANCH   1  33
TORSDOF 18
ENDMDL
MODEL 2
REMARK VINA RESULT:     -12.6      2.976      8.872
REMARK SMILES COc1cccc(-c2nn(-c3cc4c(cc3C(N)=O)OCO4)cc2C(=O)OCCOC(=O)c2ccc(-c3c4nc(c(-c5cccc(S(=O)(=O)[O-])c5F)c5ccc([nH]5)c(-c5cccc(S(=O)(=O)[O-])c5F)c5nc(c(-c6cccc(S(=O)(=O)[O-])c6F)c6ccc3[nH]6)C=C5)C=C4)cc2)c1
REMARK SMILES IDX 29 1 28 2 27 3 25 4 26 5 24 6 8 7 9 8 10 9 23 10 7 11 3 12
REMARK SMILES IDX 4 13 96 14 5 15 6 16 2 17 1 18 11 19 12 20 16 21 13 22 15 23
REMARK SMILES IDX 14 24 22 25 20 26 21 27 17 28 18 29 19 30 30 33 31 34 32 35
REMARK SMILES IDX 33 36 34 37 95 38 35 39 94 40 36 41 37 42 38 43 88 44 39 45
REMARK SMILES IDX 93 46 87 47 89 48 40 49 92 50 86 51 85 52 41 54 73 55 53 56
REMARK SMILES IDX 72 57 54 58 57 59 71 60 90 61 55 62 56 63 70 65 91 66 58 67
REMARK SMILES IDX 42 68 43 69 51 70 44 71 46 72 52 73 45 74 47 75 48 76 49 77
REMARK SMILES IDX 50 78 74 79 75 80 83 81 76 82 78 83 84 84 77 85 79 86 80 87
REMARK SMILES IDX 81 88 82 89 59 90 60 91 68 92 61 93 63 94 69 95 62 96 64 97
REMARK SMILES IDX 65 98 66 99 67 100
REMARK H PARENT 18 31 18 32 89 53 57 64
REMARK Flexibility Score: inf
ROOT
ATOM      1  C   UNL A   1      37.982  20.742  25.258  1.00  0.00     0.275 C 
ENDROOT
BRANCH   1   2
ATOM      2  C   UNL A   1      36.486  20.748  24.952  1.00  0.00     0.275 C 
BRANCH   2   3
ATOM      3  O   UNL A   1      35.901  22.055  25.086  1.00  0.00    -0.458 OA
BRANCH   3   4
ATOM      4  C   UNL A   1      35.355  22.614  23.956  1.00  0.00     0.342 C 
ATOM      5  O   UNL A   1      35.974  22.822  22.926  1.00  0.00    -0.246 OA
BRANCH   4   6
ATOM      6  C   UNL A   1      33.956  22.959  24.144  1.00  0.00     0.106 A 
ATOM      7  C   UNL A   1      32.781  22.152  24.084  1.00  0.00     0.107 A 
ATOM      8  N   UNL A   1      31.667  22.899  24.233  1.00  0.00    -0.167 NA
ATOM      9  N   UNL A   1      32.127  24.170  24.205  1.00  0.00    -0.239 N 
ATOM     10  C   UNL A   1      33.474  24.220  24.426  1.00  0.00     0.131 A 
BRANCH   7  11
ATOM     11  C   UNL A   1      32.701  20.703  23.947  1.00  0.00     0.007 A 
ATOM     12  C   UNL A   1      32.733  18.474  24.902  1.00  0.00     0.119 A 
ATOM     13  C   UNL A   1      32.373  17.950  23.656  1.00  0.00     0.046 A 
ATOM     14  C   UNL A   1      32.873  19.858  25.054  1.00  0.00     0.056 A 
ATOM     15  C   UNL A   1      32.222  18.784  22.550  1.00  0.00     0.005 A 
ATOM     16  C   UNL A   1      32.415  20.155  22.692  1.00  0.00     0.011 A 
BRANCH  12  17
ATOM     17  O   UNL A   1      32.916  17.524  25.869  1.00  0.00    -0.497 OA
ATOM     18  C   UNL A   1      33.641  16.356  25.517  1.00  0.00     0.278 C 
ENDBRANCH  12  17
ENDBRANCH   7  11
BRANCH   9  19
ATOM     19  C   UNL A   1      31.263  25.278  24.027  1.00  0.00     0.081 A 
ATOM     20  C   UNL A   1      31.513  26.130  22.932  1.00  0.00     0.079 A 
ATOM     21  C   UNL A   1      30.175  25.529  24.917  1.00  0.00     0.069 A 
ATOM     22  C   UNL A   1      30.636  27.172  22.723  1.00  0.00     0.167 A 
ATOM     23  C   UNL A   1      29.247  26.531  24.584  1.00  0.00     0.066 A 
ATOM     24  C   UNL A   1      29.524  27.347  23.510  1.00  0.00     0.166 A 
ATOM     25  O   UNL A   1      30.739  28.141  21.772  1.00  0.00    -0.454 OA
ATOM     26  O   UNL A   1      28.798  28.442  23.156  1.00  0.00    -0.454 OA
ATOM     27  C   UNL A   1      29.704  29.045  22.208  1.00  0.00     0.468 C 
BRANCH  21  28
ATOM     28  C   UNL A   1      30.118  24.948  26.310  1.00  0.00     0.251 C 
ATOM     29  N   UNL A   1      31.294  24.650  26.944  1.00  0.00    -0.366 N 
ATOM     30  O   UNL A   1      29.091  24.632  26.892  1.00  0.00    -0.269 OA
ATOM     31  H   UNL A   1      32.152  24.882  26.522  1.00  0.00     0.159 HD
ATOM     32  H   UNL A   1      31.280  24.204  27.821  1.00  0.00     0.159 HD
ENDBRANCH  21  28
ENDBRANCH   9  19
ENDBRANCH   4   6
ENDBRANCH   3   4
ENDBRANCH   2   3
ENDBRANCH   1   2
BRANCH   1  33
ATOM     33  O   UNL A   1      38.423  21.981  25.807  1.00  0.00    -0.458 OA
BRANCH  33  34
ATOM     34  C   UNL A   1      39.549  21.876  26.545  1.00  0.00     0.338 C 
ATOM     35  O   UNL A   1      39.999  20.860  27.055  1.00  0.00    -0.246 OA
BRANCH  34  36
ATOM     36  C   UNL A   1      40.128  23.193  26.797  1.00  0.00     0.060 A 
ATOM     37  C   UNL A   1      41.248  23.223  27.632  1.00  0.00     0.016 A 
ATOM     38  C   UNL A   1      39.458  24.360  26.409  1.00  0.00     0.016 A 
ATOM     39  C   UNL A   1      41.646  24.420  28.172  1.00  0.00     0.010 A 
ATOM     40  C   UNL A   1      39.843  25.560  26.966  1.00  0.00     0.010 A 
ATOM     41  C   UNL A   1      40.899  25.562  27.880  1.00  0.00    -0.014 A 
BRANCH  41  42
ATOM     42  C   UNL A   1      41.334  26.800  28.492  1.00  0.00     0.031 A 
ATOM     43  C   UNL A   1      42.681  27.220  28.025  1.00  0.00     0.074 A 
ATOM     44  C   UNL A   1      40.519  27.468  29.332  1.00  0.00     0.049 A 
ATOM     45  N   UNL A   1      43.745  27.392  28.738  1.00  0.00    -0.248 NA
ATOM     46  C   UNL A   1      42.928  27.265  26.571  1.00  0.00     0.031 C 
ATOM     47  C   UNL A   1      39.111  27.173  29.621  1.00  0.00     0.029 A 
ATOM     48  N   UNL A   1      40.721  28.645  29.986  1.00  0.00    -0.354 N 
ATOM     49  C   UNL A   1      44.720  27.831  27.842  1.00  0.00     0.074 A 
ATOM     50  C   UNL A   1      44.235  27.520  26.528  1.00  0.00     0.031 C 
ATOM     51  C   UNL A   1      38.526  28.276  30.136  1.00  0.00     0.029 A 
ATOM     52  C   UNL A   1      39.534  29.305  30.309  1.00  0.00     0.049 A 
ATOM     53  H   UNL A   1      41.613  28.994  30.209  1.00  0.00     0.167 HD
ATOM     54  C   UNL A   1      45.684  28.699  28.249  1.00  0.00     0.034 A 
ATOM     55  C   UNL A   1      39.389  30.631  30.568  1.00  0.00     0.034 A 
ATOM     56  C   UNL A   1      45.851  28.647  29.681  1.00  0.00     0.049 A 
ATOM     57  C   UNL A   1      40.728  31.164  30.906  1.00  0.00     0.074 A 
ATOM     58  C   UNL A   1      46.168  27.659  30.591  1.00  0.00     0.029 A 
ATOM     59  N   UNL A   1      45.289  29.668  30.405  1.00  0.00    -0.354 N 
ATOM     60  N   UNL A   1      41.385  30.822  31.978  1.00  0.00    -0.248 NA
ATOM     61  C   UNL A   1      41.531  31.705  29.821  1.00  0.00     0.031 C 
ATOM     62  C   UNL A   1      45.364  27.940  31.733  1.00  0.00     0.029 A 
ATOM     63  C   UNL A   1      44.663  29.122  31.491  1.00  0.00     0.049 A 
ATOM     64  H   UNL A   1      45.329  30.626  30.182  1.00  0.00     0.167 HD
ATOM     65  C   UNL A   1      42.686  30.640  31.531  1.00  0.00     0.074 A 
ATOM     66  C   UNL A   1      42.739  31.298  30.225  1.00  0.00     0.031 C 
ATOM     67  C   UNL A   1      43.501  29.712  32.113  1.00  0.00     0.034 A 
BRANCH  54  68
ATOM     68  C   UNL A   1      46.120  29.915  27.448  1.00  0.00     0.023 A 
ATOM     69  C   UNL A   1      47.505  30.200  27.439  1.00  0.00     0.012 A 
ATOM     70  C   UNL A   1      45.257  30.943  26.996  1.00  0.00     0.148 A 
ATOM     71  C   UNL A   1      47.993  31.467  27.108  1.00  0.00     0.002 A 
ATOM     72  C   UNL A   1      45.754  32.181  26.605  1.00  0.00     0.091 A 
ATOM     73  F   UNL A   1      43.935  30.788  27.041  1.00  0.00    -0.205 F 
ATOM     74  C   UNL A   1      47.117  32.461  26.697  1.00  0.00     0.022 A 
BRANCH  72  75
ATOM     75  S   UNL A   1      44.669  33.499  26.034  1.00  0.00     0.127 S 
ATOM     76  O   UNL A   1      45.637  34.515  25.630  1.00  0.00    -0.237 OA
ATOM     77  O   UNL A   1      43.964  32.841  24.934  1.00  0.00    -0.237 OA
ATOM     78  O   UNL A   1      43.823  33.843  27.169  1.00  0.00    -0.744 OA
ENDBRANCH  72  75
ENDBRANCH  54  68
BRANCH  55  79
ATOM     79  C   UNL A   1      38.261  31.534  30.215  1.00  0.00     0.023 A 
ATOM     80  C   UNL A   1      37.740  31.522  28.904  1.00  0.00     0.012 A 
ATOM     81  C   UNL A   1      37.512  32.194  31.215  1.00  0.00     0.148 A 
ATOM     82  C   UNL A   1      36.506  32.120  28.609  1.00  0.00     0.002 A 
ATOM     83  C   UNL A   1      36.294  32.797  30.915  1.00  0.00     0.091 A 
ATOM     84  F   UNL A   1      37.941  32.148  32.482  1.00  0.00    -0.205 F 
ATOM     85  C   UNL A   1      35.781  32.751  29.615  1.00  0.00     0.022 A 
BRANCH  83  86
ATOM     86  S   UNL A   1      35.297  33.607  32.176  1.00  0.00     0.127 S 
ATOM     87  O   UNL A   1      34.096  33.971  31.422  1.00  0.00    -0.237 OA
ATOM     88  O   UNL A   1      35.109  32.535  33.149  1.00  0.00    -0.237 OA
ATOM     89  O   UNL A   1      36.083  34.747  32.633  1.00  0.00    -0.744 OA
ENDBRANCH  83  86
ENDBRANCH  55  79
BRANCH  67  90
ATOM     90  C   UNL A   1      43.051  29.082  33.404  1.00  0.00     0.023 A 
ATOM     91  C   UNL A   1      42.178  27.976  33.454  1.00  0.00     0.012 A 
ATOM     92  C   UNL A   1      43.671  29.515  34.585  1.00  0.00     0.148 A 
ATOM     93  C   UNL A   1      41.916  27.327  34.665  1.00  0.00     0.002 A 
ATOM     94  C   UNL A   1      43.447  28.842  35.777  1.00  0.00     0.091 A 
ATOM     95  F   UNL A   1      44.501  30.568  34.514  1.00  0.00    -0.205 F 
ATOM     96  C   UNL A   1      42.562  27.752  35.824  1.00  0.00     0.022 A 
BRANCH  94  97
ATOM     97  S   UNL A   1      44.348  29.265  37.267  1.00  0.00     0.127 S 
ATOM     98  O   UNL A   1      44.205  28.051  38.066  1.00  0.00    -0.237 OA
ATOM     99  O   UNL A   1      45.699  29.510  36.759  1.00  0.00    -0.237 OA
ATOM    100  O   UNL A   1      43.694  30.451  37.808  1.00  0.00    -0.744 OA
ENDBRANCH  94  97
ENDBRANCH  67  90
ENDBRANCH  41  42
ENDBRANCH  34  36
ENDBRANCH  33  34
ENDBRANCH   1  33
TORSDOF 18
ENDMDL
MODEL 3
REMARK VINA RESULT:     -12.4      2.102      2.496
REMARK SMILES COc1cccc(-c2nn(-c3cc4c(cc3C(N)=O)OCO4)cc2C(=O)OCCOC(=O)c2ccc(-c3c4nc(c(-c5cccc(S(=O)(=O)[O-])c5F)c5ccc([nH]5)c(-c5cccc(S(=O)(=O)[O-])c5F)c5nc(c(-c6cccc(S(=O)(=O)[O-])c6F)c6ccc3[nH]6)C=C5)C=C4)cc2)c1
REMARK SMILES IDX 29 1 28 2 27 3 25 4 26 5 24 6 8 7 9 8 10 9 23 10 7 11 3 12
REMARK SMILES IDX 4 13 96 14 5 15 6 16 2 17 1 18 11 19 12 20 16 21 13 22 15 23
REMARK SMILES IDX 14 24 22 25 20 26 21 27 17 28 18 29 19 30 30 33 31 34 32 35
REMARK SMILES IDX 33 36 34 37 95 38 35 39 94 40 36 41 37 42 38 43 88 44 39 45
REMARK SMILES IDX 93 46 87 47 89 48 40 49 92 50 86 51 85 52 41 54 73 55 53 56
REMARK SMILES IDX 72 57 54 58 57 59 71 60 90 61 55 62 56 63 70 65 91 66 58 67
REMARK SMILES IDX 42 68 43 69 51 70 44 71 46 72 52 73 45 74 47 75 48 76 49 77
REMARK SMILES IDX 50 78 74 79 75 80 83 81 76 82 78 83 84 84 77 85 79 86 80 87
REMARK SMILES IDX 81 88 82 89 59 90 60 91 68 92 61 93 63 94 69 95 62 96 64 97
REMARK SMILES IDX 65 98 66 99 67 100
REMARK H PARENT 18 31 18 32 89 53 57 64
REMARK Flexibility Score: inf
ROOT
ATOM      1  C   UNL A   1      33.545  30.118  27.293  1.00  0.00     0.275 C 
ENDROOT
BRANCH   1   2
ATOM      2  C   UNL A   1      32.597  30.229  26.102  1.00  0.00     0.275 C 
BRANCH   2   3
ATOM      3  O   UNL A   1      32.470  28.991  25.380  1.00  0.00    -0.458 OA
BRANCH   3   4
ATOM      4  C   UNL A   1      31.708  28.006  25.958  1.00  0.00     0.342 C 
ATOM      5  O   UNL A   1      31.288  28.046  27.103  1.00  0.00    -0.246 OA
BRANCH   4   6
ATOM      6  C   UNL A   1      31.487  26.890  25.054  1.00  0.00     0.106 A 
ATOM      7  C   UNL A   1      30.515  26.702  24.026  1.00  0.00     0.107 A 
ATOM      8  N   UNL A   1      30.611  25.471  23.483  1.00  0.00    -0.167 NA
ATOM      9  N   UNL A   1      31.504  24.838  24.277  1.00  0.00    -0.239 N 
ATOM     10  C   UNL A   1      32.224  25.724  25.027  1.00  0.00     0.131 A 
BRANCH   7  11
ATOM     11  C   UNL A   1      29.552  27.673  23.522  1.00  0.00     0.007 A 
ATOM     12  C   UNL A   1      29.013  29.664  22.247  1.00  0.00     0.119 A 
ATOM     13  C   UNL A   1      27.652  29.405  22.445  1.00  0.00     0.046 A 
ATOM     14  C   UNL A   1      29.965  28.781  22.766  1.00  0.00     0.056 A 
ATOM     15  C   UNL A   1      27.239  28.318  23.212  1.00  0.00     0.005 A 
ATOM     16  C   UNL A   1      28.191  27.471  23.773  1.00  0.00     0.011 A 
BRANCH  12  17
ATOM     17  O   UNL A   1      29.260  30.807  21.537  1.00  0.00    -0.497 OA
ATOM     18  C   UNL A   1      28.513  31.965  21.870  1.00  0.00     0.278 C 
ENDBRANCH  12  17
ENDBRANCH   7  11
BRANCH   9  19
ATOM     19  C   UNL A   1      31.671  23.432  24.248  1.00  0.00     0.081 A 
ATOM     20  C   UNL A   1      31.814  22.818  22.987  1.00  0.00     0.079 A 
ATOM     21  C   UNL A   1      31.697  22.656  25.447  1.00  0.00     0.069 A 
ATOM     22  C   UNL A   1      32.038  21.459  22.961  1.00  0.00     0.167 A 
ATOM     23  C   UNL A   1      32.049  21.297  25.365  1.00  0.00     0.066 A 
ATOM     24  C   UNL A   1      32.179  20.730  24.117  1.00  0.00     0.166 A 
ATOM     25  O   UNL A   1      32.133  20.673  21.854  1.00  0.00    -0.454 OA
ATOM     26  O   UNL A   1      32.373  19.404  23.880  1.00  0.00    -0.454 OA
ATOM     27  C   UNL A   1      32.117  19.365  22.461  1.00  0.00     0.468 C 
BRANCH  21  28
ATOM     28  C   UNL A   1      31.123  23.160  26.750  1.00  0.00     0.251 C 
ATOM     29  N   UNL A   1      29.826  23.597  26.769  1.00  0.00    -0.366 N 
ATOM     30  O   UNL A   1      31.758  23.297  27.785  1.00  0.00    -0.269 OA
ATOM     31  H   UNL A   1      29.267  23.512  25.963  1.00  0.00     0.159 HD
ATOM     32  H   UNL A   1      29.454  23.997  27.587  1.00  0.00     0.159 HD
ENDBRANCH  21  28
ENDBRANCH   9  19
ENDBRANCH   4   6
ENDBRANCH   3   4
ENDBRANCH   2   3
ENDBRANCH   1   2
BRANCH   1  33
ATOM     33  O   UNL A   1      34.582  31.095  27.246  1.00  0.00    -0.458 OA
BRANCH  33  34
ATOM     34  C   UNL A   1      34.934  31.570  28.460  1.00  0.00     0.338 C 
ATOM     35  O   UNL A   1      34.394  32.477  29.077  1.00  0.00    -0.246 OA
BRANCH  34  36
ATOM     36  C   UNL A   1      36.172  30.947  28.921  1.00  0.00     0.060 A 
ATOM     37  C   UNL A   1      37.225  31.816  29.217  1.00  0.00     0.016 A 
ATOM     38  C   UNL A   1      36.352  29.560  28.844  1.00  0.00     0.016 A 
ATOM     39  C   UNL A   1      38.495  31.310  29.338  1.00  0.00     0.010 A 
ATOM     40  C   UNL A   1      37.628  29.052  28.945  1.00  0.00     0.010 A 
ATOM     41  C   UNL A   1      38.687  29.943  29.139  1.00  0.00    -0.014 A 
BRANCH  41  42
ATOM     42  C   UNL A   1      40.044  29.451  29.247  1.00  0.00     0.031 A 
ATOM     43  C   UNL A   1      40.516  29.395  30.655  1.00  0.00     0.074 A 
ATOM     44  C   UNL A   1      40.713  29.050  28.148  1.00  0.00     0.049 A 
ATOM     45  N   UNL A   1      41.520  30.021  31.176  1.00  0.00    -0.248 NA
ATOM     46  C   UNL A   1      39.658  28.720  31.647  1.00  0.00     0.031 C 
ATOM     47  C   UNL A   1      40.176  28.896  26.791  1.00  0.00     0.029 A 
ATOM     48  N   UNL A   1      41.970  28.540  28.033  1.00  0.00    -0.354 N 
ATOM     49  C   UNL A   1      41.569  29.594  32.503  1.00  0.00     0.074 A 
ATOM     50  C   UNL A   1      40.297  28.991  32.784  1.00  0.00     0.031 C 
ATOM     51  C   UNL A   1      40.987  28.079  26.085  1.00  0.00     0.029 A 
ATOM     52  C   UNL A   1      42.141  27.744  26.900  1.00  0.00     0.049 A 
ATOM     53  H   UNL A   1      42.687  28.717  28.684  1.00  0.00     0.167 HD
ATOM     54  C   UNL A   1      42.762  29.486  33.145  1.00  0.00     0.034 A 
ATOM     55  C   UNL A   1      43.089  26.789  26.714  1.00  0.00     0.034 A 
ATOM     56  C   UNL A   1      43.762  30.312  32.513  1.00  0.00     0.049 A 
ATOM     57  C   UNL A   1      44.173  27.048  27.690  1.00  0.00     0.074 A 
ATOM     58  C   UNL A   1      43.882  31.658  32.234  1.00  0.00     0.029 A 
ATOM     59  N   UNL A   1      44.672  29.672  31.709  1.00  0.00    -0.354 N 
ATOM     60  N   UNL A   1      44.938  28.101  27.646  1.00  0.00    -0.248 NA
ATOM     61  C   UNL A   1      44.090  26.382  28.980  1.00  0.00     0.031 C 
ATOM     62  C   UNL A   1      44.517  31.713  30.959  1.00  0.00     0.029 A 
ATOM     63  C   UNL A   1      44.820  30.408  30.568  1.00  0.00     0.049 A 
ATOM     64  H   UNL A   1      45.137  28.830  31.918  1.00  0.00     0.167 HD
ATOM     65  C   UNL A   1      45.029  28.506  28.970  1.00  0.00     0.074 A 
ATOM     66  C   UNL A   1      44.579  27.356  29.755  1.00  0.00     0.031 C 
ATOM     67  C   UNL A   1      45.158  29.827  29.290  1.00  0.00     0.034 A 
BRANCH  54  68
ATOM     68  C   UNL A   1      43.152  28.301  34.012  1.00  0.00     0.023 A 
ATOM     69  C   UNL A   1      44.025  27.353  33.429  1.00  0.00     0.012 A 
ATOM     70  C   UNL A   1      42.484  27.904  35.196  1.00  0.00     0.148 A 
ATOM     71  C   UNL A   1      44.137  26.052  33.927  1.00  0.00     0.002 A 
ATOM     72  C   UNL A   1      42.649  26.629  35.725  1.00  0.00     0.091 A 
ATOM     73  F   UNL A   1      41.588  28.705  35.770  1.00  0.00    -0.205 F 
ATOM     74  C   UNL A   1      43.444  25.687  35.073  1.00  0.00     0.022 A 
BRANCH  72  75
ATOM     75  S   UNL A   1      41.801  26.109  37.224  1.00  0.00     0.127 S 
ATOM     76  O   UNL A   1      41.512  24.709  36.922  1.00  0.00    -0.237 OA
ATOM     77  O   UNL A   1      42.835  26.325  38.236  1.00  0.00    -0.237 OA
ATOM     78  O   UNL A   1      40.642  26.982  37.354  1.00  0.00    -0.744 OA
ENDBRANCH  72  75
ENDBRANCH  54  68
BRANCH  55  79
ATOM     79  C   UNL A   1      42.977  25.486  26.007  1.00  0.00     0.023 A 
ATOM     80  C   UNL A   1      43.951  25.120  25.055  1.00  0.00     0.012 A 
ATOM     81  C   UNL A   1      42.089  24.484  26.459  1.00  0.00     0.148 A 
ATOM     82  C   UNL A   1      44.054  23.799  24.594  1.00  0.00     0.002 A 
ATOM     83  C   UNL A   1      42.187  23.177  25.990  1.00  0.00     0.091 A 
ATOM     84  F   UNL A   1      41.210  24.784  27.423  1.00  0.00    -0.205 F 
ATOM     85  C   UNL A   1      43.177  22.827  25.066  1.00  0.00     0.022 A 
BRANCH  83  86
ATOM     86  S   UNL A   1      41.099  21.870  26.579  1.00  0.00     0.127 S 
ATOM     87  O   UNL A   1      41.626  20.699  25.876  1.00  0.00    -0.237 OA
ATOM     88  O   UNL A   1      41.354  21.888  28.017  1.00  0.00    -0.237 OA
ATOM     89  O   UNL A   1      39.754  22.256  26.170  1.00  0.00    -0.744 OA
ENDBRANCH  83  86
ENDBRANCH  55  79
BRANCH  67  90
ATOM     90  C   UNL A   1      45.460  30.799  28.180  1.00  0.00     0.023 A 
ATOM     91  C   UNL A   1      44.456  31.484  27.465  1.00  0.00     0.012 A 
ATOM     92  C   UNL A   1      46.802  31.156  27.982  1.00  0.00     0.148 A 
ATOM     93  C   UNL A   1      44.789  32.493  26.556  1.00  0.00     0.002 A 
ATOM     94  C   UNL A   1      47.127  32.189  27.115  1.00  0.00     0.091 A 
ATOM     95  F   UNL A   1      47.741  30.494  28.675  1.00  0.00    -0.205 F 
ATOM     96  C   UNL A   1      46.125  32.855  26.391  1.00  0.00     0.022 A 
BRANCH  94  97
ATOM     97  S   UNL A   1      48.813  32.778  26.963  1.00  0.00     0.127 S 
ATOM     98  O   UNL A   1      49.088  33.267  28.311  1.00  0.00    -0.237 OA
ATOM     99  O   UNL A   1      49.539  31.562  26.591  1.00  0.00    -0.237 OA
ATOM    100  O   UNL A   1      48.790  33.797  25.920  1.00  0.00    -0.744 OA
ENDBRANCH  94  97
ENDBRANCH  67  90
ENDBRANCH  41  42
ENDBRANCH  34  36
ENDBRANCH  33  34
ENDBRANCH   1  33
TORSDOF 18
ENDMDL
