MODEL 1
REMARK VINA RESULT:     -12.2      0.000      0.000
REMARK SMILES C[N@@H+]1CCC[C@@H](C(=O)N[C@H](C(=O)OCCOC(=O)c2ccc(-c3c4nc(c(-c5cccc(S(=O)(=O)[O-])c5F)c5ccc([nH]5)c(-c5cccc(S(=O)(=O)[O-])c5F)c5nc(c(-c6cccc(S(=O)(=O)[O-])c6F)c6ccc3[nH]6)C=C5)C=C4)cc2)c2ccccc2)C1
REMARK SMILES IDX 15 1 14 2 13 3 11 4 12 5 10 6 9 7 7 8 8 9 6 11 1 12 2 13
REMARK SMILES IDX 3 14 88 15 4 17 5 18 82 19 83 20 87 21 84 22 86 23 85 24
REMARK SMILES IDX 16 25 17 26 18 27 19 28 20 29 81 30 21 31 80 32 22 33 23 34
REMARK SMILES IDX 24 35 74 36 25 37 79 38 73 39 75 40 26 41 78 42 72 43 71 44
REMARK SMILES IDX 27 46 59 47 39 48 58 49 40 50 43 51 57 52 76 53 41 54 42 55
REMARK SMILES IDX 56 57 77 58 44 59 28 60 29 61 37 62 30 63 32 64 38 65 31 66
REMARK SMILES IDX 33 67 34 68 35 69 36 70 60 71 61 72 69 73 62 74 64 75 70 76
REMARK SMILES IDX 63 77 65 78 66 79 67 80 68 81 45 82 46 83 54 84 47 85 49 86
REMARK SMILES IDX 55 87 48 88 50 89 51 90 52 91 53 92
REMARK H PARENT 9 10 2 16 75 45 43 56
REMARK Flexibility Score: inf
ROOT
ATOM      1  C   UNL A   1      36.863  21.476  24.239  1.00  0.00     0.275 C 
ENDROOT
BRANCH   1   2
ATOM      2  C   UNL A   1      36.670  22.766  23.440  1.00  0.00     0.274 C 
BRANCH   2   3
ATOM      3  O   UNL A   1      35.483  23.480  23.850  1.00  0.00    -0.460 OA
BRANCH   3   4
ATOM      4  C   UNL A   1      34.317  23.107  23.270  1.00  0.00     0.333 C 
ATOM      5  O   UNL A   1      34.084  23.328  22.081  1.00  0.00    -0.249 OA
BRANCH   4   6
ATOM      6  C   UNL A   1      33.261  22.473  24.206  1.00  0.00     0.223 C 
BRANCH   6   7
ATOM      7  N   UNL A   1      32.026  23.262  24.065  1.00  0.00    -0.339 N 
ATOM      8  C   UNL A   1      31.675  24.529  24.376  1.00  0.00     0.229 C 
ATOM      9  O   UNL A   1      30.518  24.849  24.072  1.00  0.00    -0.275 OA
ATOM     10  H   UNL A   1      31.293  22.752  23.651  1.00  0.00     0.164 HD
BRANCH   8  11
ATOM     11  C   UNL A   1      32.556  25.557  25.080  1.00  0.00     0.133 C 
ATOM     12  C   UNL A   1      32.959  28.757  23.086  1.00  0.00     0.332 C 
ATOM     13  N   UNL A   1      32.393  27.829  24.054  1.00  0.00    -0.337 N 
ATOM     14  C   UNL A   1      32.205  28.446  25.369  1.00  0.00     0.262 C 
ATOM     15  C   UNL A   1      33.187  26.601  24.156  1.00  0.00     0.275 C 
ATOM     16  H   UNL A   1      31.469  27.572  23.707  1.00  0.00     0.347 HD
ATOM     17  C   UNL A   1      31.409  27.518  26.285  1.00  0.00     0.062 C 
ATOM     18  C   UNL A   1      32.000  26.117  26.390  1.00  0.00     0.025 C 
ENDBRANCH   8  11
ENDBRANCH   6   7
BRANCH   6  19
ATOM     19  C   UNL A   1      32.893  20.984  24.169  1.00  0.00    -0.014 A 
ATOM     20  C   UNL A   1      32.393  20.287  23.063  1.00  0.00     0.006 A 
ATOM     21  C   UNL A   1      33.167  20.215  25.327  1.00  0.00     0.006 A 
ATOM     22  C   UNL A   1      32.161  18.904  23.117  1.00  0.00     0.000 A 
ATOM     23  C   UNL A   1      32.937  18.840  25.385  1.00  0.00     0.000 A 
ATOM     24  C   UNL A   1      32.433  18.182  24.274  1.00  0.00     0.000 A 
ENDBRANCH   6  19
ENDBRANCH   4   6
ENDBRANCH   3   4
ENDBRANCH   2   3
ENDBRANCH   1   2
BRANCH   1  25
ATOM     25  O   UNL A   1      37.218  21.746  25.606  1.00  0.00    -0.458 OA
BRANCH  25  26
ATOM     26  C   UNL A   1      38.505  21.480  25.921  1.00  0.00     0.338 C 
ATOM     27  O   UNL A   1      39.141  20.480  25.637  1.00  0.00    -0.246 OA
BRANCH  26  28
ATOM     28  C   UNL A   1      39.109  22.633  26.600  1.00  0.00     0.060 A 
ATOM     29  C   UNL A   1      38.569  23.893  26.361  1.00  0.00     0.016 A 
ATOM     30  C   UNL A   1      40.302  22.501  27.309  1.00  0.00     0.016 A 
ATOM     31  C   UNL A   1      39.266  25.035  26.729  1.00  0.00     0.010 A 
ATOM     32  C   UNL A   1      40.960  23.652  27.758  1.00  0.00     0.010 A 
ATOM     33  C   UNL A   1      40.470  24.930  27.431  1.00  0.00    -0.014 A 
BRANCH  33  34
ATOM     34  C   UNL A   1      41.247  26.157  27.749  1.00  0.00     0.031 A 
ATOM     35  C   UNL A   1      40.642  27.212  28.632  1.00  0.00     0.074 A 
ATOM     36  C   UNL A   1      42.501  26.309  27.281  1.00  0.00     0.049 A 
ATOM     37  N   UNL A   1      41.076  28.418  28.896  1.00  0.00    -0.248 NA
ATOM     38  C   UNL A   1      39.372  26.873  29.297  1.00  0.00     0.031 C 
ATOM     39  C   UNL A   1      43.224  25.333  26.467  1.00  0.00     0.029 A 
ATOM     40  N   UNL A   1      43.392  27.341  27.433  1.00  0.00    -0.354 N 
ATOM     41  C   UNL A   1      40.096  29.008  29.684  1.00  0.00     0.074 A 
ATOM     42  C   UNL A   1      39.052  28.023  29.874  1.00  0.00     0.031 C 
ATOM     43  C   UNL A   1      44.459  25.795  26.219  1.00  0.00     0.029 A 
ATOM     44  C   UNL A   1      44.591  27.131  26.793  1.00  0.00     0.049 A 
ATOM     45  H   UNL A   1      43.193  28.155  27.949  1.00  0.00     0.167 HD
ATOM     46  C   UNL A   1      40.074  30.254  30.210  1.00  0.00     0.034 A 
ATOM     47  C   UNL A   1      45.666  27.932  26.662  1.00  0.00     0.034 A 
ATOM     48  C   UNL A   1      41.157  31.194  30.099  1.00  0.00     0.049 A 
ATOM     49  C   UNL A   1      45.629  29.302  27.279  1.00  0.00     0.074 A 
ATOM     50  C   UNL A   1      41.237  32.483  30.594  1.00  0.00     0.029 A 
ATOM     51  N   UNL A   1      42.366  30.930  29.472  1.00  0.00    -0.354 N 
ATOM     52  N   UNL A   1      44.689  29.854  28.008  1.00  0.00    -0.248 NA
ATOM     53  C   UNL A   1      46.800  30.161  27.055  1.00  0.00     0.031 C 
ATOM     54  C   UNL A   1      42.500  32.994  30.276  1.00  0.00     0.029 A 
ATOM     55  C   UNL A   1      43.205  32.025  29.580  1.00  0.00     0.049 A 
ATOM     56  H   UNL A   1      42.593  30.087  29.016  1.00  0.00     0.167 HD
ATOM     57  C   UNL A   1      45.158  31.118  28.342  1.00  0.00     0.074 A 
ATOM     58  C   UNL A   1      46.479  31.240  27.759  1.00  0.00     0.031 C 
ATOM     59  C   UNL A   1      44.538  32.101  29.041  1.00  0.00     0.034 A 
BRANCH  46  60
ATOM     60  C   UNL A   1      38.843  30.661  30.973  1.00  0.00     0.023 A 
ATOM     61  C   UNL A   1      38.767  30.418  32.358  1.00  0.00     0.012 A 
ATOM     62  C   UNL A   1      37.768  31.299  30.324  1.00  0.00     0.148 A 
ATOM     63  C   UNL A   1      37.628  30.778  33.080  1.00  0.00     0.002 A 
ATOM     64  C   UNL A   1      36.650  31.685  31.056  1.00  0.00     0.091 A 
ATOM     65  F   UNL A   1      37.839  31.493  28.999  1.00  0.00    -0.205 F 
ATOM     66  C   UNL A   1      36.575  31.419  32.432  1.00  0.00     0.022 A 
BRANCH  64  67
ATOM     67  S   UNL A   1      35.288  32.572  30.290  1.00  0.00     0.127 S 
ATOM     68  O   UNL A   1      34.886  31.650  29.232  1.00  0.00    -0.237 OA
ATOM     69  O   UNL A   1      34.327  32.695  31.388  1.00  0.00    -0.237 OA
ATOM     70  O   UNL A   1      35.855  33.841  29.854  1.00  0.00    -0.744 OA
ENDBRANCH  64  67
ENDBRANCH  46  60
BRANCH  47  71
ATOM     71  C   UNL A   1      46.877  27.431  25.952  1.00  0.00     0.023 A 
ATOM     72  C   UNL A   1      47.712  26.499  26.599  1.00  0.00     0.012 A 
ATOM     73  C   UNL A   1      47.168  27.807  24.626  1.00  0.00     0.148 A 
ATOM     74  C   UNL A   1      48.817  25.958  25.942  1.00  0.00     0.002 A 
ATOM     75  C   UNL A   1      48.236  27.220  23.957  1.00  0.00     0.091 A 
ATOM     76  F   UNL A   1      46.379  28.716  24.035  1.00  0.00    -0.205 F 
ATOM     77  C   UNL A   1      49.069  26.305  24.616  1.00  0.00     0.022 A 
BRANCH  75  78
ATOM     78  S   UNL A   1      48.536  27.500  22.207  1.00  0.00     0.127 S 
ATOM     79  O   UNL A   1      48.805  26.147  21.729  1.00  0.00    -0.237 OA
ATOM     80  O   UNL A   1      47.263  28.068  21.763  1.00  0.00    -0.237 OA
ATOM     81  O   UNL A   1      49.655  28.432  22.149  1.00  0.00    -0.744 OA
ENDBRANCH  75  78
ENDBRANCH  47  71
BRANCH  59  82
ATOM     82  C   UNL A   1      45.286  33.394  29.223  1.00  0.00     0.023 A 
ATOM     83  C   UNL A   1      46.164  33.531  30.316  1.00  0.00     0.012 A 
ATOM     84  C   UNL A   1      45.178  34.435  28.282  1.00  0.00     0.148 A 
ATOM     85  C   UNL A   1      46.911  34.696  30.480  1.00  0.00     0.002 A 
ATOM     86  C   UNL A   1      45.952  35.580  28.435  1.00  0.00     0.091 A 
ATOM     87  F   UNL A   1      44.317  34.295  27.263  1.00  0.00    -0.205 F 
ATOM     88  C   UNL A   1      46.814  35.715  29.535  1.00  0.00     0.022 A 
BRANCH  86  89
ATOM     89  S   UNL A   1      45.937  36.899  27.215  1.00  0.00     0.127 S 
ATOM     90  O   UNL A   1      46.794  37.901  27.846  1.00  0.00    -0.237 OA
ATOM     91  O   UNL A   1      46.519  36.254  26.037  1.00  0.00    -0.237 OA
ATOM     92  O   UNL A   1      44.536  37.270  27.060  1.00  0.00    -0.744 OA
ENDBRANCH  86  89
ENDBRANCH  59  82
ENDBRANCH  33  34
ENDBRANCH  26  28
ENDBRANCH  25  26
ENDBRANCH   1  25
TORSDOF 17
ENDMDL
MODEL 2
REMARK VINA RESULT:     -12.1      1.844      2.953
REMARK SMILES C[N@@H+]1CCC[C@@H](C(=O)N[C@H](C(=O)OCCOC(=O)c2ccc(-c3c4nc(c(-c5cccc(S(=O)(=O)[O-])c5F)c5ccc([nH]5)c(-c5cccc(S(=O)(=O)[O-])c5F)c5nc(c(-c6cccc(S(=O)(=O)[O-])c6F)c6ccc3[nH]6)C=C5)C=C4)cc2)c2ccccc2)C1
REMARK SMILES IDX 15 1 14 2 13 3 11 4 12 5 10 6 9 7 7 8 8 9 6 11 1 12 2 13
REMARK SMILES IDX 3 14 88 15 4 17 5 18 82 19 83 20 87 21 84 22 86 23 85 24
REMARK SMILES IDX 16 25 17 26 18 27 19 28 20 29 81 30 21 31 80 32 22 33 23 34
REMARK SMILES IDX 24 35 74 36 25 37 79 38 73 39 75 40 26 41 78 42 72 43 71 44
REMARK SMILES IDX 27 46 59 47 39 48 58 49 40 50 43 51 57 52 76 53 41 54 42 55
REMARK SMILES IDX 56 57 77 58 44 59 28 60 29 61 37 62 30 63 32 64 38 65 31 66
REMARK SMILES IDX 33 67 34 68 35 69 36 70 60 71 61 72 69 73 62 74 64 75 70 76
REMARK SMILES IDX 63 77 65 78 66 79 67 80 68 81 45 82 46 83 54 84 47 85 49 86
REMARK SMILES IDX 55 87 48 88 50 89 51 90 52 91 53 92
REMARK H PARENT 9 10 2 16 75 45 43 56
REMARK Flexibility Score: inf
ROOT
ATOM      1  C   UNL A   1      36.410  21.707  24.308  1.00  0.00     0.275 C 
ENDROOT
BRANCH   1   2
ATOM      2  C   UNL A   1      35.528  22.896  23.924  1.00  0.00     0.274 C 
BRANCH   2   3
ATOM      3  O   UNL A   1      35.354  23.815  25.025  1.00  0.00    -0.460 OA
BRANCH   3   4
ATOM      4  C   UNL A   1      34.103  23.929  25.533  1.00  0.00     0.333 C 
ATOM      5  O   UNL A   1      33.651  23.109  26.332  1.00  0.00    -0.249 OA
BRANCH   4   6
ATOM      6  C   UNL A   1      33.246  25.092  24.982  1.00  0.00     0.223 C 
BRANCH   6   7
ATOM      7  N   UNL A   1      32.016  24.501  24.428  1.00  0.00    -0.339 N 
ATOM      8  C   UNL A   1      31.249  24.760  23.347  1.00  0.00     0.229 C 
ATOM      9  O   UNL A   1      30.278  24.007  23.193  1.00  0.00    -0.275 OA
ATOM     10  H   UNL A   1      31.679  23.749  24.965  1.00  0.00     0.164 HD
BRANCH   8  11
ATOM     11  C   UNL A   1      31.460  25.893  22.346  1.00  0.00     0.133 C 
ATOM     12  C   UNL A   1      30.870  29.319  23.862  1.00  0.00     0.332 C 
ATOM     13  N   UNL A   1      31.603  28.132  23.444  1.00  0.00    -0.337 N 
ATOM     14  C   UNL A   1      32.809  28.466  22.683  1.00  0.00     0.262 C 
ATOM     15  C   UNL A   1      30.750  27.201  22.699  1.00  0.00     0.275 C 
ATOM     16  H   UNL A   1      31.905  27.661  24.297  1.00  0.00     0.347 HD
ATOM     17  C   UNL A   1      33.661  27.219  22.460  1.00  0.00     0.062 C 
ATOM     18  C   UNL A   1      32.891  26.063  21.833  1.00  0.00     0.025 C 
ENDBRANCH   8  11
ENDBRANCH   6   7
BRANCH   6  19
ATOM     19  C   UNL A   1      32.861  26.320  25.817  1.00  0.00    -0.014 A 
ATOM     20  C   UNL A   1      31.628  26.538  26.441  1.00  0.00     0.006 A 
ATOM     21  C   UNL A   1      33.869  27.285  26.061  1.00  0.00     0.006 A 
ATOM     22  C   UNL A   1      31.407  27.664  27.248  1.00  0.00     0.000 A 
ATOM     23  C   UNL A   1      33.654  28.408  26.862  1.00  0.00     0.000 A 
ATOM     24  C   UNL A   1      32.417  28.596  27.459  1.00  0.00     0.000 A 
ENDBRANCH   6  19
ENDBRANCH   4   6
ENDBRANCH   3   4
ENDBRANCH   2   3
ENDBRANCH   1   2
BRANCH   1  25
ATOM     25  O   UNL A   1      36.893  21.819  25.658  1.00  0.00    -0.458 OA
BRANCH  25  26
ATOM     26  C   UNL A   1      38.218  21.600  25.807  1.00  0.00     0.338 C 
ATOM     27  O   UNL A   1      38.862  20.658  25.376  1.00  0.00    -0.246 OA
BRANCH  26  28
ATOM     28  C   UNL A   1      38.844  22.732  26.501  1.00  0.00     0.060 A 
ATOM     29  C   UNL A   1      38.360  24.010  26.242  1.00  0.00     0.016 A 
ATOM     30  C   UNL A   1      40.008  22.556  27.247  1.00  0.00     0.016 A 
ATOM     31  C   UNL A   1      39.088  25.126  26.629  1.00  0.00     0.010 A 
ATOM     32  C   UNL A   1      40.695  23.684  27.714  1.00  0.00     0.010 A 
ATOM     33  C   UNL A   1      40.264  24.978  27.369  1.00  0.00    -0.014 A 
BRANCH  33  34
ATOM     34  C   UNL A   1      41.077  26.176  27.708  1.00  0.00     0.031 A 
ATOM     35  C   UNL A   1      40.497  27.240  28.597  1.00  0.00     0.074 A 
ATOM     36  C   UNL A   1      42.339  26.293  27.255  1.00  0.00     0.049 A 
ATOM     37  N   UNL A   1      40.966  28.428  28.879  1.00  0.00    -0.248 NA
ATOM     38  C   UNL A   1      39.210  26.935  29.246  1.00  0.00     0.031 C 
ATOM     39  C   UNL A   1      43.040  25.303  26.436  1.00  0.00     0.029 A 
ATOM     40  N   UNL A   1      43.261  27.295  27.426  1.00  0.00    -0.354 N 
ATOM     41  C   UNL A   1      39.998  29.041  29.664  1.00  0.00     0.074 A 
ATOM     42  C   UNL A   1      38.921  28.089  29.832  1.00  0.00     0.031 C 
ATOM     43  C   UNL A   1      44.291  25.728  26.206  1.00  0.00     0.029 A 
ATOM     44  C   UNL A   1      44.459  27.053  26.796  1.00  0.00     0.049 A 
ATOM     45  H   UNL A   1      43.083  28.109  27.950  1.00  0.00     0.167 HD
ATOM     46  C   UNL A   1      40.010  30.282  30.204  1.00  0.00     0.034 A 
ATOM     47  C   UNL A   1      45.561  27.821  26.685  1.00  0.00     0.034 A 
ATOM     48  C   UNL A   1      41.123  31.187  30.113  1.00  0.00     0.049 A 
ATOM     49  C   UNL A   1      45.561  29.184  27.316  1.00  0.00     0.074 A 
ATOM     50  C   UNL A   1      41.239  32.467  30.624  1.00  0.00     0.029 A 
ATOM     51  N   UNL A   1      42.329  30.891  29.495  1.00  0.00    -0.354 N 
ATOM     52  N   UNL A   1      44.632  29.758  28.042  1.00  0.00    -0.248 NA
ATOM     53  C   UNL A   1      46.762  30.008  27.114  1.00  0.00     0.031 C 
ATOM     54  C   UNL A   1      42.522  32.942  30.323  1.00  0.00     0.029 A 
ATOM     55  C   UNL A   1      43.202  31.958  29.624  1.00  0.00     0.049 A 
ATOM     56  H   UNL A   1      42.534  30.047  29.032  1.00  0.00     0.167 HD
ATOM     57  C   UNL A   1      45.137  31.002  28.395  1.00  0.00     0.074 A 
ATOM     58  C   UNL A   1      46.468  31.089  27.826  1.00  0.00     0.031 C 
ATOM     59  C   UNL A   1      44.543  31.997  29.099  1.00  0.00     0.034 A 
BRANCH  46  60
ATOM     60  C   UNL A   1      38.785  30.719  30.959  1.00  0.00     0.023 A 
ATOM     61  C   UNL A   1      38.716  30.525  32.352  1.00  0.00     0.012 A 
ATOM     62  C   UNL A   1      37.709  31.339  30.294  1.00  0.00     0.148 A 
ATOM     63  C   UNL A   1      37.583  30.913  33.067  1.00  0.00     0.002 A 
ATOM     64  C   UNL A   1      36.597  31.755  31.019  1.00  0.00     0.091 A 
ATOM     65  F   UNL A   1      37.773  31.487  28.963  1.00  0.00    -0.205 F 
ATOM     66  C   UNL A   1      36.529  31.536  32.403  1.00  0.00     0.022 A 
BRANCH  64  67
ATOM     67  S   UNL A   1      35.234  32.620  30.231  1.00  0.00     0.127 S 
ATOM     68  O   UNL A   1      34.306  32.798  31.345  1.00  0.00    -0.237 OA
ATOM     69  O   UNL A   1      35.865  33.856  29.762  1.00  0.00    -0.237 OA
ATOM     70  O   UNL A   1      34.789  31.738  29.160  1.00  0.00    -0.744 OA
ENDBRANCH  64  67
ENDBRANCH  46  60
BRANCH  47  71
ATOM     71  C   UNL A   1      46.762  27.288  25.981  1.00  0.00     0.023 A 
ATOM     72  C   UNL A   1      46.895  27.506  24.595  1.00  0.00     0.012 A 
ATOM     73  C   UNL A   1      47.801  26.638  26.675  1.00  0.00     0.148 A 
ATOM     74  C   UNL A   1      48.036  27.080  23.915  1.00  0.00     0.002 A 
ATOM     75  C   UNL A   1      48.960  26.269  26.002  1.00  0.00     0.091 A 
ATOM     76  F   UNL A   1      47.646  26.413  27.988  1.00  0.00    -0.205 F 
ATOM     77  C   UNL A   1      49.075  26.478  24.620  1.00  0.00     0.022 A 
BRANCH  75  78
ATOM     78  S   UNL A   1      50.400  25.625  26.863  1.00  0.00     0.127 S 
ATOM     79  O   UNL A   1      50.739  26.733  27.751  1.00  0.00    -0.237 OA
ATOM     80  O   UNL A   1      49.856  24.443  27.533  1.00  0.00    -0.237 OA
ATOM     81  O   UNL A   1      51.373  25.322  25.821  1.00  0.00    -0.744 OA
ENDBRANCH  75  78
ENDBRANCH  47  71
BRANCH  59  82
ATOM     82  C   UNL A   1      45.329  33.263  29.303  1.00  0.00     0.023 A 
ATOM     83  C   UNL A   1      46.226  33.347  30.385  1.00  0.00     0.012 A 
ATOM     84  C   UNL A   1      45.238  34.331  28.390  1.00  0.00     0.148 A 
ATOM     85  C   UNL A   1      47.009  34.486  30.569  1.00  0.00     0.002 A 
ATOM     86  C   UNL A   1      46.047  35.450  28.561  1.00  0.00     0.091 A 
ATOM     87  F   UNL A   1      44.359  34.242  27.381  1.00  0.00    -0.205 F 
ATOM     88  C   UNL A   1      46.927  35.532  29.651  1.00  0.00     0.022 A 
BRANCH  86  89
ATOM     89  S   UNL A   1      46.052  36.800  27.376  1.00  0.00     0.127 S 
ATOM     90  O   UNL A   1      47.180  37.604  27.841  1.00  0.00    -0.237 OA
ATOM     91  O   UNL A   1      46.278  36.110  26.104  1.00  0.00    -0.237 OA
ATOM     92  O   UNL A   1      44.739  37.423  27.490  1.00  0.00    -0.744 OA
ENDBRANCH  86  89
ENDBRANCH  59  82
ENDBRANCH  33  34
ENDBRANCH  26  28
ENDBRANCH  25  26
ENDBRANCH   1  25
TORSDOF 17
ENDMDL
MODEL 3
REMARK VINA RESULT:     -12.0      5.350     10.206
REMARK SMILES C[N@@H+]1CCC[C@@H](C(=O)N[C@H](C(=O)OCCOC(=O)c2ccc(-c3c4nc(c(-c5cccc(S(=O)(=O)[O-])c5F)c5ccc([nH]5)c(-c5cccc(S(=O)(=O)[O-])c5F)c5nc(c(-c6cccc(S(=O)(=O)[O-])c6F)c6ccc3[nH]6)C=C5)C=C4)cc2)c2ccccc2)C1
REMARK SMILES IDX 15 1 14 2 13 3 11 4 12 5 10 6 9 7 7 8 8 9 6 11 1 12 2 13
REMARK SMILES IDX 3 14 88 15 4 17 5 18 82 19 83 20 87 21 84 22 86 23 85 24
REMARK SMILES IDX 16 25 17 26 18 27 19 28 20 29 81 30 21 31 80 32 22 33 23 34
REMARK SMILES IDX 24 35 74 36 25 37 79 38 73 39 75 40 26 41 78 42 72 43 71 44
REMARK SMILES IDX 27 46 59 47 39 48 58 49 40 50 43 51 57 52 76 53 41 54 42 55
REMARK SMILES IDX 56 57 77 58 44 59 28 60 29 61 37 62 30 63 32 64 38 65 31 66
REMARK SMILES IDX 33 67 34 68 35 69 36 70 60 71 61 72 69 73 62 74 64 75 70 76
REMARK SMILES IDX 63 77 65 78 66 79 67 80 68 81 45 82 46 83 54 84 47 85 49 86
REMARK SMILES IDX 55 87 48 88 50 89 51 90 52 91 53 92
REMARK H PARENT 9 10 2 16 75 45 43 56
REMARK Flexibility Score: inf
ROOT
ATOM      1  C   UNL A   1      31.975  31.195  26.256  1.00  0.00     0.275 C 
ENDROOT
BRANCH   1   2
ATOM      2  C   UNL A   1      31.831  29.890  25.470  1.00  0.00     0.274 C 
BRANCH   2   3
ATOM      3  O   UNL A   1      33.072  29.153  25.419  1.00  0.00    -0.460 OA
BRANCH   3   4
ATOM      4  C   UNL A   1      33.087  27.942  26.026  1.00  0.00     0.333 C 
ATOM      5  O   UNL A   1      33.155  27.831  27.251  1.00  0.00    -0.249 OA
BRANCH   4   6
ATOM      6  C   UNL A   1      33.106  26.710  25.091  1.00  0.00     0.223 C 
BRANCH   6   7
ATOM      7  N   UNL A   1      33.690  27.146  23.812  1.00  0.00    -0.339 N 
ATOM      8  C   UNL A   1      33.220  27.262  22.550  1.00  0.00     0.229 C 
ATOM      9  O   UNL A   1      34.027  27.703  21.721  1.00  0.00    -0.275 OA
ATOM     10  H   UNL A   1      34.634  27.414  23.894  1.00  0.00     0.164 HD
BRANCH   8  11
ATOM     11  C   UNL A   1      31.822  26.875  22.074  1.00  0.00     0.133 C 
ATOM     12  C   UNL A   1      30.651  23.562  23.500  1.00  0.00     0.332 C 
ATOM     13  N   UNL A   1      30.837  25.003  23.402  1.00  0.00    -0.337 N 
ATOM     14  C   UNL A   1      29.580  25.736  23.566  1.00  0.00     0.262 C 
ATOM     15  C   UNL A   1      31.509  25.380  22.155  1.00  0.00     0.275 C 
ATOM     16  H   UNL A   1      31.446  25.271  24.175  1.00  0.00     0.347 HD
ATOM     17  C   UNL A   1      29.848  27.235  23.682  1.00  0.00     0.062 C 
ATOM     18  C   UNL A   1      30.689  27.790  22.539  1.00  0.00     0.025 C 
ENDBRANCH   8  11
ENDBRANCH   6   7
BRANCH   6  19
ATOM     19  C   UNL A   1      33.739  25.369  25.482  1.00  0.00    -0.014 A 
ATOM     20  C   UNL A   1      35.050  24.965  25.204  1.00  0.00     0.006 A 
ATOM     21  C   UNL A   1      32.964  24.488  26.276  1.00  0.00     0.006 A 
ATOM     22  C   UNL A   1      35.552  23.744  25.677  1.00  0.00     0.000 A 
ATOM     23  C   UNL A   1      33.459  23.272  26.748  1.00  0.00     0.000 A 
ATOM     24  C   UNL A   1      34.760  22.899  26.447  1.00  0.00     0.000 A 
ENDBRANCH   6  19
ENDBRANCH   4   6
ENDBRANCH   3   4
ENDBRANCH   2   3
ENDBRANCH   1   2
BRANCH   1  25
ATOM     25  O   UNL A   1      32.843  31.037  27.392  1.00  0.00    -0.458 OA
BRANCH  25  26
ATOM     26  C   UNL A   1      33.665  32.084  27.628  1.00  0.00     0.338 C 
ATOM     27  O   UNL A   1      33.370  33.267  27.626  1.00  0.00    -0.246 OA
BRANCH  26  28
ATOM     28  C   UNL A   1      35.001  31.604  28.001  1.00  0.00     0.060 A 
ATOM     29  C   UNL A   1      35.148  30.260  28.331  1.00  0.00     0.016 A 
ATOM     30  C   UNL A   1      36.050  32.500  28.206  1.00  0.00     0.016 A 
ATOM     31  C   UNL A   1      36.299  29.818  28.968  1.00  0.00     0.010 A 
ATOM     32  C   UNL A   1      37.244  32.033  28.767  1.00  0.00     0.010 A 
ATOM     33  C   UNL A   1      37.361  30.697  29.195  1.00  0.00    -0.014 A 
BRANCH  33  34
ATOM     34  C   UNL A   1      38.555  30.232  29.948  1.00  0.00     0.031 A 
ATOM     35  C   UNL A   1      39.523  29.285  29.296  1.00  0.00     0.074 A 
ATOM     36  C   UNL A   1      38.792  30.683  31.195  1.00  0.00     0.049 A 
ATOM     37  N   UNL A   1      40.526  28.633  29.826  1.00  0.00    -0.248 NA
ATOM     38  C   UNL A   1      39.330  29.023  27.860  1.00  0.00     0.031 C 
ATOM     39  C   UNL A   1      37.964  31.650  31.917  1.00  0.00     0.029 A 
ATOM     40  N   UNL A   1      39.805  30.392  32.073  1.00  0.00    -0.354 N 
ATOM     41  C   UNL A   1      41.028  27.825  28.814  1.00  0.00     0.074 A 
ATOM     42  C   UNL A   1      40.233  28.080  27.632  1.00  0.00     0.031 C 
ATOM     43  C   UNL A   1      38.521  31.900  33.112  1.00  0.00     0.029 A 
ATOM     44  C   UNL A   1      39.701  31.057  33.272  1.00  0.00     0.049 A 
ATOM     45  H   UNL A   1      40.537  29.768  31.866  1.00  0.00     0.167 HD
ATOM     46  C   UNL A   1      42.064  26.956  28.865  1.00  0.00     0.034 A 
ATOM     47  C   UNL A   1      40.457  30.980  34.385  1.00  0.00     0.034 A 
ATOM     48  C   UNL A   1      42.910  26.778  30.014  1.00  0.00     0.049 A 
ATOM     49  C   UNL A   1      41.620  30.028  34.407  1.00  0.00     0.074 A 
ATOM     50  C   UNL A   1      43.987  25.924  30.170  1.00  0.00     0.029 A 
ATOM     51  N   UNL A   1      42.792  27.494  31.196  1.00  0.00    -0.354 N 
ATOM     52  N   UNL A   1      42.074  29.257  33.448  1.00  0.00    -0.248 NA
ATOM     53  C   UNL A   1      42.376  29.934  35.664  1.00  0.00     0.031 C 
ATOM     54  C   UNL A   1      44.527  26.133  31.445  1.00  0.00     0.029 A 
ATOM     55  C   UNL A   1      43.785  27.114  32.082  1.00  0.00     0.049 A 
ATOM     56  H   UNL A   1      42.102  28.173  31.378  1.00  0.00     0.167 HD
ATOM     57  C   UNL A   1      43.174  28.597  33.979  1.00  0.00     0.074 A 
ATOM     58  C   UNL A   1      43.336  29.079  35.336  1.00  0.00     0.031 C 
ATOM     59  C   UNL A   1      43.961  27.652  33.407  1.00  0.00     0.034 A 
BRANCH  46  60
ATOM     60  C   UNL A   1      42.350  26.149  27.628  1.00  0.00     0.023 A 
ATOM     61  C   UNL A   1      43.020  26.745  26.543  1.00  0.00     0.012 A 
ATOM     62  C   UNL A   1      41.971  24.794  27.546  1.00  0.00     0.148 A 
ATOM     63  C   UNL A   1      43.283  26.015  25.383  1.00  0.00     0.002 A 
ATOM     64  C   UNL A   1      42.267  24.063  26.400  1.00  0.00     0.091 A 
ATOM     65  F   UNL A   1      41.304  24.247  28.572  1.00  0.00    -0.205 F 
ATOM     66  C   UNL A   1      42.915  24.673  25.315  1.00  0.00     0.022 A 
BRANCH  64  67
ATOM     67  S   UNL A   1      41.876  22.314  26.277  1.00  0.00     0.127 S 
ATOM     68  O   UNL A   1      42.595  21.930  25.065  1.00  0.00    -0.237 OA
ATOM     69  O   UNL A   1      42.439  21.771  27.515  1.00  0.00    -0.237 OA
ATOM     70  O   UNL A   1      40.423  22.251  26.207  1.00  0.00    -0.744 OA
ENDBRANCH  64  67
ENDBRANCH  46  60
BRANCH  47  71
ATOM     71  C   UNL A   1      40.153  31.865  35.545  1.00  0.00     0.023 A 
ATOM     72  C   UNL A   1      40.906  33.043  35.722  1.00  0.00     0.012 A 
ATOM     73  C   UNL A   1      39.089  31.594  36.426  1.00  0.00     0.148 A 
ATOM     74  C   UNL A   1      40.607  33.929  36.757  1.00  0.00     0.002 A 
ATOM     75  C   UNL A   1      38.759  32.509  37.419  1.00  0.00     0.091 A 
ATOM     76  F   UNL A   1      38.401  30.454  36.261  1.00  0.00    -0.205 F 
ATOM     77  C   UNL A   1      39.525  33.671  37.595  1.00  0.00     0.022 A 
BRANCH  75  78
ATOM     78  S   UNL A   1      37.292  32.324  38.440  1.00  0.00     0.127 S 
ATOM     79  O   UNL A   1      37.714  32.948  39.690  1.00  0.00    -0.237 OA
ATOM     80  O   UNL A   1      36.292  33.078  37.682  1.00  0.00    -0.237 OA
ATOM     81  O   UNL A   1      37.037  30.890  38.497  1.00  0.00    -0.744 OA
ENDBRANCH  75  78
ENDBRANCH  47  71
BRANCH  59  82
ATOM     82  C   UNL A   1      45.075  27.083  34.242  1.00  0.00     0.023 A 
ATOM     83  C   UNL A   1      46.333  27.716  34.231  1.00  0.00     0.012 A 
ATOM     84  C   UNL A   1      44.859  25.978  35.087  1.00  0.00     0.148 A 
ATOM     85  C   UNL A   1      47.369  27.245  35.036  1.00  0.00     0.002 A 
ATOM     86  C   UNL A   1      45.887  25.535  35.912  1.00  0.00     0.091 A 
ATOM     87  F   UNL A   1      43.662  25.374  35.063  1.00  0.00    -0.205 F 
ATOM     88  C   UNL A   1      47.143  26.162  35.885  1.00  0.00     0.022 A 
BRANCH  86  89
ATOM     89  S   UNL A   1      45.645  24.196  37.086  1.00  0.00     0.127 S 
ATOM     90  O   UNL A   1      45.070  23.154  36.238  1.00  0.00    -0.237 OA
ATOM     91  O   UNL A   1      47.007  23.924  37.548  1.00  0.00    -0.237 OA
ATOM     92  O   UNL A   1      44.764  24.735  38.114  1.00  0.00    -0.744 OA
ENDBRANCH  86  89
ENDBRANCH  59  82
ENDBRANCH  33  34
ENDBRANCH  26  28
ENDBRANCH  25  26
ENDBRANCH   1  25
TORSDOF 17
ENDMDL
