MODEL 1
REMARK VINA RESULT:     -11.1      0.000      0.000
REMARK SMILES O=C(Cc1cc[nH]n1)Nc1nc(CC(=O)OCCOC(=O)c2ccc(-c3c4nc(c(-c5cccc(S(=O)(=O)[O-])c5F)c5ccc([nH]5)c(-c5cccc(S(=O)(=O)[O-])c5F)c5nc(c(-c6cccc(S(=O)(=O)[O-])c6F)c6ccc3[nH]6)C=C5)C=C4)cc2)cs1
REMARK SMILES IDX 17 1 16 2 14 3 15 4 13 5 12 6 10 7 11 8 86 9 85 10 9 11 1 12
REMARK SMILES IDX 2 13 3 15 4 16 5 17 8 18 6 19 7 20 18 22 19 23 20 24 21 25
REMARK SMILES IDX 22 26 23 27 84 28 24 29 83 30 25 31 26 32 27 33 77 34 28 35
REMARK SMILES IDX 82 36 76 37 78 38 29 39 81 40 75 41 74 42 30 44 62 45 42 46
REMARK SMILES IDX 61 47 43 48 46 49 60 50 79 51 44 52 45 53 59 55 80 56 47 57
REMARK SMILES IDX 31 58 32 59 40 60 33 61 35 62 41 63 34 64 36 65 37 66 38 67
REMARK SMILES IDX 39 68 63 69 64 70 72 71 65 72 67 73 73 74 66 75 68 76 69 77
REMARK SMILES IDX 70 78 71 79 48 80 49 81 57 82 50 83 52 84 58 85 51 86 53 87
REMARK SMILES IDX 54 88 55 89 56 90
REMARK H PARENT 9 14 7 21 78 43 46 54
REMARK Flexibility Score: inf
ROOT
ATOM      1  C   UNL A   1      35.800  20.146  25.001  1.00  0.00     0.274 C 
ENDROOT
BRANCH   1   2
ATOM      2  O   UNL A   1      35.431  21.270  25.825  1.00  0.00    -0.462 OA
BRANCH   2   3
ATOM      3  C   UNL A   1      34.095  21.457  25.997  1.00  0.00     0.312 C 
ATOM      4  O   UNL A   1      33.559  21.648  27.084  1.00  0.00    -0.252 OA
BRANCH   3   5
ATOM      5  C   UNL A   1      33.287  21.347  24.730  1.00  0.00     0.179 C 
BRANCH   5   6
ATOM      6  C   UNL A   1      33.104  22.596  23.933  1.00  0.00     0.065 A 
ATOM      7  C   UNL A   1      32.305  24.646  23.729  1.00  0.00     0.189 A 
ATOM      8  N   UNL A   1      32.323  23.593  24.500  1.00  0.00    -0.224 NA
ATOM      9  S   UNL A   1      33.172  24.526  22.267  1.00  0.00    -0.105 S 
ATOM     10  C   UNL A   1      33.685  22.953  22.729  1.00  0.00     0.093 A 
BRANCH   7  11
ATOM     11  N   UNL A   1      31.677  25.839  23.925  1.00  0.00    -0.302 N 
ATOM     12  O   UNL A   1      33.343  26.855  25.196  1.00  0.00    -0.274 OA
ATOM     13  C   UNL A   1      32.231  26.855  24.670  1.00  0.00     0.232 C 
ATOM     14  H   UNL A   1      30.793  25.980  23.517  1.00  0.00     0.172 HD
BRANCH  13  15
ATOM     15  C   UNL A   1      31.296  28.027  24.911  1.00  0.00     0.158 C 
BRANCH  15  16
ATOM     16  C   UNL A   1      30.922  28.781  23.679  1.00  0.00     0.071 A 
ATOM     17  C   UNL A   1      29.661  29.328  23.345  1.00  0.00     0.045 A 
ATOM     18  N   UNL A   1      31.823  28.986  22.703  1.00  0.00    -0.180 NA
ATOM     19  C   UNL A   1      29.831  29.869  22.095  1.00  0.00     0.105 A 
ATOM     20  N   UNL A   1      31.131  29.645  21.755  1.00  0.00    -0.285 N 
ATOM     21  H   UNL A   1      31.525  29.935  20.902  1.00  0.00     0.189 HD
ENDBRANCH  15  16
ENDBRANCH  13  15
ENDBRANCH   7  11
ENDBRANCH   5   6
ENDBRANCH   3   5
ENDBRANCH   2   3
ENDBRANCH   1   2
BRANCH   1  22
ATOM     22  C   UNL A   1      37.315  19.958  24.971  1.00  0.00     0.275 C 
BRANCH  22  23
ATOM     23  O   UNL A   1      37.972  21.114  25.520  1.00  0.00    -0.458 OA
BRANCH  23  24
ATOM     24  C   UNL A   1      39.180  20.890  26.082  1.00  0.00     0.338 C 
ATOM     25  O   UNL A   1      39.788  19.837  26.148  1.00  0.00    -0.246 OA
BRANCH  24  26
ATOM     26  C   UNL A   1      39.719  22.154  26.600  1.00  0.00     0.060 A 
ATOM     27  C   UNL A   1      39.199  23.369  26.146  1.00  0.00     0.016 A 
ATOM     28  C   UNL A   1      40.824  22.125  27.452  1.00  0.00     0.016 A 
ATOM     29  C   UNL A   1      39.805  24.566  26.522  1.00  0.00     0.010 A 
ATOM     30  C   UNL A   1      41.403  23.327  27.859  1.00  0.00     0.010 A 
ATOM     31  C   UNL A   1      40.915  24.555  27.378  1.00  0.00    -0.014 A 
BRANCH  31  32
ATOM     32  C   UNL A   1      41.589  25.820  27.763  1.00  0.00     0.031 A 
ATOM     33  C   UNL A   1      40.836  26.875  28.524  1.00  0.00     0.074 A 
ATOM     34  C   UNL A   1      42.859  26.042  27.376  1.00  0.00     0.049 A 
ATOM     35  N   UNL A   1      41.215  28.082  28.855  1.00  0.00    -0.248 NA
ATOM     36  C   UNL A   1      39.473  26.532  28.960  1.00  0.00     0.031 C 
ATOM     37  C   UNL A   1      43.684  25.105  26.613  1.00  0.00     0.029 A 
ATOM     38  N   UNL A   1      43.663  27.142  27.541  1.00  0.00    -0.354 N 
ATOM     39  C   UNL A   1      40.125  28.661  29.492  1.00  0.00     0.074 A 
ATOM     40  C   UNL A   1      39.068  27.672  29.504  1.00  0.00     0.031 C 
ATOM     41  C   UNL A   1      44.871  25.678  26.355  1.00  0.00     0.029 A 
ATOM     42  C   UNL A   1      44.877  27.031  26.904  1.00  0.00     0.049 A 
ATOM     43  H   UNL A   1      43.399  27.932  28.066  1.00  0.00     0.167 HD
ATOM     44  C   UNL A   1      40.020  29.898  30.035  1.00  0.00     0.034 A 
ATOM     45  C   UNL A   1      45.872  27.927  26.755  1.00  0.00     0.034 A 
ATOM     46  C   UNL A   1      41.089  30.860  30.069  1.00  0.00     0.049 A 
ATOM     47  C   UNL A   1      45.740  29.285  27.387  1.00  0.00     0.074 A 
ATOM     48  C   UNL A   1      41.102  32.109  30.665  1.00  0.00     0.029 A 
ATOM     49  N   UNL A   1      42.332  30.684  29.482  1.00  0.00    -0.354 N 
ATOM     50  N   UNL A   1      44.751  29.770  28.099  1.00  0.00    -0.248 NA
ATOM     51  C   UNL A   1      46.870  30.210  27.222  1.00  0.00     0.031 C 
ATOM     52  C   UNL A   1      42.353  32.692  30.430  1.00  0.00     0.029 A 
ATOM     53  C   UNL A   1      43.119  31.804  29.693  1.00  0.00     0.049 A 
ATOM     54  H   UNL A   1      42.614  29.881  28.987  1.00  0.00     0.167 HD
ATOM     55  C   UNL A   1      45.146  31.046  28.483  1.00  0.00     0.074 A 
ATOM     56  C   UNL A   1      46.477  31.249  27.946  1.00  0.00     0.031 C 
ATOM     57  C   UNL A   1      44.461  31.974  29.196  1.00  0.00     0.034 A 
BRANCH  44  58
ATOM     58  C   UNL A   1      38.710  30.266  30.677  1.00  0.00     0.023 A 
ATOM     59  C   UNL A   1      38.466  29.892  32.013  1.00  0.00     0.012 A 
ATOM     60  C   UNL A   1      37.746  31.020  29.982  1.00  0.00     0.148 A 
ATOM     61  C   UNL A   1      37.269  30.241  32.640  1.00  0.00     0.002 A 
ATOM     62  C   UNL A   1      36.571  31.394  30.625  1.00  0.00     0.091 A 
ATOM     63  F   UNL A   1      37.983  31.343  28.702  1.00  0.00    -0.205 F 
ATOM     64  C   UNL A   1      36.327  30.999  31.950  1.00  0.00     0.022 A 
BRANCH  62  65
ATOM     65  S   UNL A   1      35.333  32.426  29.829  1.00  0.00     0.127 S 
ATOM     66  O   UNL A   1      34.856  31.548  28.762  1.00  0.00    -0.237 OA
ATOM     67  O   UNL A   1      34.370  32.653  30.907  1.00  0.00    -0.237 OA
ATOM     68  O   UNL A   1      36.042  33.622  29.396  1.00  0.00    -0.744 OA
ENDBRANCH  62  65
ENDBRANCH  44  58
BRANCH  45  69
ATOM     69  C   UNL A   1      47.099  27.539  26.008  1.00  0.00     0.023 A 
ATOM     70  C   UNL A   1      48.099  26.795  26.663  1.00  0.00     0.012 A 
ATOM     71  C   UNL A   1      47.251  27.842  24.640  1.00  0.00     0.148 A 
ATOM     72  C   UNL A   1      49.235  26.372  25.974  1.00  0.00     0.002 A 
ATOM     73  C   UNL A   1      48.360  27.372  23.947  1.00  0.00     0.091 A 
ATOM     74  F   UNL A   1      46.297  28.569  24.040  1.00  0.00    -0.205 F 
ATOM     75  C   UNL A   1      49.360  26.648  24.614  1.00  0.00     0.022 A 
BRANCH  73  76
ATOM     76  S   UNL A   1      48.530  27.567  22.169  1.00  0.00     0.127 S 
ATOM     77  O   UNL A   1      49.689  28.450  22.073  1.00  0.00    -0.237 OA
ATOM     78  O   UNL A   1      48.767  26.190  21.732  1.00  0.00    -0.237 OA
ATOM     79  O   UNL A   1      47.264  28.126  21.716  1.00  0.00    -0.744 OA
ENDBRANCH  73  76
ENDBRANCH  45  69
BRANCH  57  80
ATOM     80  C   UNL A   1      45.136  33.295  29.450  1.00  0.00     0.023 A 
ATOM     81  C   UNL A   1      45.978  33.436  30.570  1.00  0.00     0.012 A 
ATOM     82  C   UNL A   1      45.001  34.366  28.546  1.00  0.00     0.148 A 
ATOM     83  C   UNL A   1      46.656  34.632  30.801  1.00  0.00     0.002 A 
ATOM     84  C   UNL A   1      45.711  35.543  28.761  1.00  0.00     0.091 A 
ATOM     85  F   UNL A   1      44.177  34.222  27.497  1.00  0.00    -0.205 F 
ATOM     86  C   UNL A   1      46.531  35.681  29.892  1.00  0.00     0.022 A 
BRANCH  84  87
ATOM     87  S   UNL A   1      45.671  36.905  27.590  1.00  0.00     0.127 S 
ATOM     88  O   UNL A   1      44.242  37.009  27.300  1.00  0.00    -0.237 OA
ATOM     89  O   UNL A   1      46.217  38.014  28.373  1.00  0.00    -0.237 OA
ATOM     90  O   UNL A   1      46.513  36.488  26.476  1.00  0.00    -0.744 OA
ENDBRANCH  84  87
ENDBRANCH  57  80
ENDBRANCH  31  32
ENDBRANCH  24  26
ENDBRANCH  23  24
ENDBRANCH  22  23
ENDBRANCH   1  22
TORSDOF 18
ENDMDL
MODEL 2
REMARK VINA RESULT:     -11.0      5.384     10.470
REMARK SMILES O=C(Cc1cc[nH]n1)Nc1nc(CC(=O)OCCOC(=O)c2ccc(-c3c4nc(c(-c5cccc(S(=O)(=O)[O-])c5F)c5ccc([nH]5)c(-c5cccc(S(=O)(=O)[O-])c5F)c5nc(c(-c6cccc(S(=O)(=O)[O-])c6F)c6ccc3[nH]6)C=C5)C=C4)cc2)cs1
REMARK SMILES IDX 17 1 16 2 14 3 15 4 13 5 12 6 10 7 11 8 86 9 85 10 9 11 1 12
REMARK SMILES IDX 2 13 3 15 4 16 5 17 8 18 6 19 7 20 18 22 19 23 20 24 21 25
REMARK SMILES IDX 22 26 23 27 84 28 24 29 83 30 25 31 26 32 27 33 77 34 28 35
REMARK SMILES IDX 82 36 76 37 78 38 29 39 81 40 75 41 74 42 30 44 62 45 42 46
REMARK SMILES IDX 61 47 43 48 46 49 60 50 79 51 44 52 45 53 59 55 80 56 47 57
REMARK SMILES IDX 31 58 32 59 40 60 33 61 35 62 41 63 34 64 36 65 37 66 38 67
REMARK SMILES IDX 39 68 63 69 64 70 72 71 65 72 67 73 73 74 66 75 68 76 69 77
REMARK SMILES IDX 70 78 71 79 48 80 49 81 57 82 50 83 52 84 58 85 51 86 53 87
REMARK SMILES IDX 54 88 55 89 56 90
REMARK H PARENT 9 14 7 21 78 43 46 54
REMARK Flexibility Score: inf
ROOT
ATOM      1  C   UNL A   1      31.673  28.316  26.560  1.00  0.00     0.274 C 
ENDROOT
BRANCH   1   2
ATOM      2  O   UNL A   1      31.207  27.463  25.495  1.00  0.00    -0.462 OA
BRANCH   2   3
ATOM      3  C   UNL A   1      31.281  26.127  25.741  1.00  0.00     0.312 C 
ATOM      4  O   UNL A   1      31.578  25.640  26.828  1.00  0.00    -0.252 OA
BRANCH   3   5
ATOM      5  C   UNL A   1      31.026  25.261  24.535  1.00  0.00     0.179 C 
BRANCH   5   6
ATOM      6  C   UNL A   1      32.050  24.221  24.219  1.00  0.00     0.065 A 
ATOM      7  C   UNL A   1      32.576  22.181  23.556  1.00  0.00     0.189 A 
ATOM      8  N   UNL A   1      31.580  22.963  23.869  1.00  0.00    -0.224 NA
ATOM      9  S   UNL A   1      34.136  22.853  23.686  1.00  0.00    -0.105 S 
ATOM     10  C   UNL A   1      33.425  24.353  24.131  1.00  0.00     0.093 A 
BRANCH   7  11
ATOM     11  N   UNL A   1      32.546  20.883  23.142  1.00  0.00    -0.302 N 
ATOM     12  O   UNL A   1      32.120  19.913  25.216  1.00  0.00    -0.274 OA
ATOM     13  C   UNL A   1      32.345  19.833  24.009  1.00  0.00     0.232 C 
ATOM     14  H   UNL A   1      32.671  20.689  22.186  1.00  0.00     0.172 HD
BRANCH  13  15
ATOM     15  C   UNL A   1      32.521  18.464  23.376  1.00  0.00     0.158 C 
BRANCH  15  16
ATOM     16  C   UNL A   1      33.432  17.551  24.126  1.00  0.00     0.071 A 
ATOM     17  C   UNL A   1      33.111  16.322  24.749  1.00  0.00     0.045 A 
ATOM     18  N   UNL A   1      34.726  17.870  24.303  1.00  0.00    -0.180 NA
ATOM     19  C   UNL A   1      34.280  15.908  25.338  1.00  0.00     0.105 A 
ATOM     20  N   UNL A   1      35.212  16.857  25.044  1.00  0.00    -0.285 N 
ATOM     21  H   UNL A   1      36.148  16.807  25.344  1.00  0.00     0.189 HD
ENDBRANCH  15  16
ENDBRANCH  13  15
ENDBRANCH   7  11
ENDBRANCH   5   6
ENDBRANCH   3   5
ENDBRANCH   2   3
ENDBRANCH   1   2
BRANCH   1  22
ATOM     22  C   UNL A   1      31.661  29.783  26.136  1.00  0.00     0.275 C 
BRANCH  22  23
ATOM     23  O   UNL A   1      33.005  30.285  26.040  1.00  0.00    -0.458 OA
BRANCH  23  24
ATOM     24  C   UNL A   1      33.339  31.241  26.935  1.00  0.00     0.338 C 
ATOM     25  O   UNL A   1      32.692  32.223  27.254  1.00  0.00    -0.246 OA
BRANCH  24  26
ATOM     26  C   UNL A   1      34.637  30.912  27.539  1.00  0.00     0.060 A 
ATOM     27  C   UNL A   1      34.909  29.597  27.924  1.00  0.00     0.016 A 
ATOM     28  C   UNL A   1      35.534  31.940  27.827  1.00  0.00     0.016 A 
ATOM     29  C   UNL A   1      36.076  29.309  28.630  1.00  0.00     0.010 A 
ATOM     30  C   UNL A   1      36.720  31.643  28.499  1.00  0.00     0.010 A 
ATOM     31  C   UNL A   1      36.989  30.331  28.927  1.00  0.00    -0.014 A 
BRANCH  31  32
ATOM     32  C   UNL A   1      38.221  30.046  29.704  1.00  0.00     0.031 A 
ATOM     33  C   UNL A   1      39.245  29.085  29.168  1.00  0.00     0.074 A 
ATOM     34  C   UNL A   1      38.388  30.605  30.917  1.00  0.00     0.049 A 
ATOM     35  N   UNL A   1      40.327  28.626  29.743  1.00  0.00    -0.248 NA
ATOM     36  C   UNL A   1      39.017  28.561  27.812  1.00  0.00     0.031 C 
ATOM     37  C   UNL A   1      37.452  31.532  31.553  1.00  0.00     0.029 A 
ATOM     38  N   UNL A   1      39.387  30.445  31.844  1.00  0.00    -0.354 N 
ATOM     39  C   UNL A   1      40.882  27.725  28.844  1.00  0.00     0.074 A 
ATOM     40  C   UNL A   1      40.019  27.701  27.682  1.00  0.00     0.031 C 
ATOM     41  C   UNL A   1      37.909  31.843  32.777  1.00  0.00     0.029 A 
ATOM     42  C   UNL A   1      39.149  31.111  33.024  1.00  0.00     0.049 A 
ATOM     43  H   UNL A   1      40.195  29.908  31.681  1.00  0.00     0.167 HD
ATOM     44  C   UNL A   1      42.017  26.997  28.968  1.00  0.00     0.034 A 
ATOM     45  C   UNL A   1      39.836  31.111  34.182  1.00  0.00     0.034 A 
ATOM     46  C   UNL A   1      42.901  27.060  30.101  1.00  0.00     0.049 A 
ATOM     47  C   UNL A   1      41.106  30.312  34.285  1.00  0.00     0.074 A 
ATOM     48  C   UNL A   1      44.114  26.420  30.282  1.00  0.00     0.029 A 
ATOM     49  N   UNL A   1      42.668  27.807  31.245  1.00  0.00    -0.354 N 
ATOM     50  N   UNL A   1      41.685  29.566  33.376  1.00  0.00    -0.248 NA
ATOM     51  C   UNL A   1      41.832  30.377  35.561  1.00  0.00     0.031 C 
ATOM     52  C   UNL A   1      44.610  26.772  31.543  1.00  0.00     0.029 A 
ATOM     53  C   UNL A   1      43.709  27.637  32.143  1.00  0.00     0.049 A 
ATOM     54  H   UNL A   1      41.878  28.374  31.398  1.00  0.00     0.167 HD
ATOM     55  C   UNL A   1      42.852  29.088  33.960  1.00  0.00     0.074 A 
ATOM     56  C   UNL A   1      42.911  29.652  35.294  1.00  0.00     0.031 C 
ATOM     57  C   UNL A   1      43.780  28.243  33.448  1.00  0.00     0.034 A 
BRANCH  44  58
ATOM     58  C   UNL A   1      42.392  26.094  27.823  1.00  0.00     0.023 A 
ATOM     59  C   UNL A   1      43.276  26.565  26.833  1.00  0.00     0.012 A 
ATOM     60  C   UNL A   1      41.914  24.772  27.752  1.00  0.00     0.148 A 
ATOM     61  C   UNL A   1      43.659  25.742  25.773  1.00  0.00     0.002 A 
ATOM     62  C   UNL A   1      42.327  23.947  26.712  1.00  0.00     0.091 A 
ATOM     63  F   UNL A   1      41.051  24.350  28.687  1.00  0.00    -0.205 F 
ATOM     64  C   UNL A   1      43.192  24.431  25.718  1.00  0.00     0.022 A 
BRANCH  62  65
ATOM     65  S   UNL A   1      41.824  22.224  26.603  1.00  0.00     0.127 S 
ATOM     66  O   UNL A   1      42.364  21.678  27.846  1.00  0.00    -0.237 OA
ATOM     67  O   UNL A   1      40.364  22.323  26.565  1.00  0.00    -0.237 OA
ATOM     68  O   UNL A   1      42.422  21.719  25.375  1.00  0.00    -0.744 OA
ENDBRANCH  62  65
ENDBRANCH  44  58
BRANCH  45  69
ATOM     69  C   UNL A   1      39.349  31.938  35.320  1.00  0.00     0.023 A 
ATOM     70  C   UNL A   1      38.498  31.358  36.280  1.00  0.00     0.012 A 
ATOM     71  C   UNL A   1      39.775  33.270  35.494  1.00  0.00     0.148 A 
ATOM     72  C   UNL A   1      38.068  32.093  37.385  1.00  0.00     0.002 A 
ATOM     73  C   UNL A   1      39.386  33.979  36.624  1.00  0.00     0.091 A 
ATOM     74  F   UNL A   1      40.570  33.810  34.558  1.00  0.00    -0.205 F 
ATOM     75  C   UNL A   1      38.523  33.397  37.564  1.00  0.00     0.022 A 
BRANCH  73  76
ATOM     76  S   UNL A   1      40.035  35.612  36.999  1.00  0.00     0.127 S 
ATOM     77  O   UNL A   1      39.385  35.907  38.272  1.00  0.00    -0.237 OA
ATOM     78  O   UNL A   1      41.473  35.358  37.086  1.00  0.00    -0.237 OA
ATOM     79  O   UNL A   1      39.645  36.453  35.875  1.00  0.00    -0.744 OA
ENDBRANCH  73  76
ENDBRANCH  45  69
BRANCH  57  80
ATOM     80  C   UNL A   1      44.948  27.877  34.324  1.00  0.00     0.023 A 
ATOM     81  C   UNL A   1      46.096  28.694  34.321  1.00  0.00     0.012 A 
ATOM     82  C   UNL A   1      44.883  26.778  35.201  1.00  0.00     0.148 A 
ATOM     83  C   UNL A   1      47.172  28.407  35.160  1.00  0.00     0.002 A 
ATOM     84  C   UNL A   1      45.943  26.520  36.064  1.00  0.00     0.091 A 
ATOM     85  F   UNL A   1      43.792  25.997  35.174  1.00  0.00    -0.205 F 
ATOM     86  C   UNL A   1      47.091  27.328  36.039  1.00  0.00     0.022 A 
BRANCH  84  87
ATOM     87  S   UNL A   1      45.878  25.203  37.284  1.00  0.00     0.127 S 
ATOM     88  O   UNL A   1      47.163  25.359  37.962  1.00  0.00    -0.237 OA
ATOM     89  O   UNL A   1      44.714  25.574  38.091  1.00  0.00    -0.237 OA
ATOM     90  O   UNL A   1      45.709  23.972  36.523  1.00  0.00    -0.744 OA
ENDBRANCH  84  87
ENDBRANCH  57  80
ENDBRANCH  31  32
ENDBRANCH  24  26
ENDBRANCH  23  24
ENDBRANCH  22  23
ENDBRANCH   1  22
TORSDOF 18
ENDMDL
MODEL 3
REMARK VINA RESULT:     -10.9      1.566      1.886
REMARK SMILES O=C(Cc1cc[nH]n1)Nc1nc(CC(=O)OCCOC(=O)c2ccc(-c3c4nc(c(-c5cccc(S(=O)(=O)[O-])c5F)c5ccc([nH]5)c(-c5cccc(S(=O)(=O)[O-])c5F)c5nc(c(-c6cccc(S(=O)(=O)[O-])c6F)c6ccc3[nH]6)C=C5)C=C4)cc2)cs1
REMARK SMILES IDX 17 1 16 2 14 3 15 4 13 5 12 6 10 7 11 8 86 9 85 10 9 11 1 12
REMARK SMILES IDX 2 13 3 15 4 16 5 17 8 18 6 19 7 20 18 22 19 23 20 24 21 25
REMARK SMILES IDX 22 26 23 27 84 28 24 29 83 30 25 31 26 32 27 33 77 34 28 35
REMARK SMILES IDX 82 36 76 37 78 38 29 39 81 40 75 41 74 42 30 44 62 45 42 46
REMARK SMILES IDX 61 47 43 48 46 49 60 50 79 51 44 52 45 53 59 55 80 56 47 57
REMARK SMILES IDX 31 58 32 59 40 60 33 61 35 62 41 63 34 64 36 65 37 66 38 67
REMARK SMILES IDX 39 68 63 69 64 70 72 71 65 72 67 73 73 74 66 75 68 76 69 77
REMARK SMILES IDX 70 78 71 79 48 80 49 81 57 82 50 83 52 84 58 85 51 86 53 87
REMARK SMILES IDX 54 88 55 89 56 90
REMARK H PARENT 9 14 7 21 78 43 46 54
REMARK Flexibility Score: inf
ROOT
ATOM      1  C   UNL A   1      34.885  21.038  25.163  1.00  0.00     0.274 C 
ENDROOT
BRANCH   1   2
ATOM      2  O   UNL A   1      33.951  20.150  24.517  1.00  0.00    -0.462 OA
BRANCH   2   3
ATOM      3  C   UNL A   1      32.660  20.577  24.490  1.00  0.00     0.312 C 
ATOM      4  O   UNL A   1      31.904  20.550  25.456  1.00  0.00    -0.252 OA
BRANCH   3   5
ATOM      5  C   UNL A   1      32.190  21.040  23.136  1.00  0.00     0.179 C 
BRANCH   5   6
ATOM      6  C   UNL A   1      32.384  22.484  22.809  1.00  0.00     0.065 A 
ATOM      7  C   UNL A   1      31.759  24.595  22.985  1.00  0.00     0.189 A 
ATOM      8  N   UNL A   1      31.428  23.369  23.286  1.00  0.00    -0.224 NA
ATOM      9  S   UNL A   1      33.194  24.793  22.089  1.00  0.00    -0.105 S 
ATOM     10  C   UNL A   1      33.447  23.095  22.167  1.00  0.00     0.093 A 
BRANCH   7  11
ATOM     11  N   UNL A   1      31.106  25.754  23.282  1.00  0.00    -0.302 N 
ATOM     12  O   UNL A   1      32.465  26.424  25.050  1.00  0.00    -0.274 OA
ATOM     13  C   UNL A   1      31.491  26.578  24.315  1.00  0.00     0.232 C 
ATOM     14  H   UNL A   1      30.330  26.012  22.736  1.00  0.00     0.172 HD
BRANCH  13  15
ATOM     15  C   UNL A   1      30.530  27.721  24.587  1.00  0.00     0.158 C 
BRANCH  15  16
ATOM     16  C   UNL A   1      30.384  28.686  23.458  1.00  0.00     0.071 A 
ATOM     17  C   UNL A   1      29.230  29.407  23.074  1.00  0.00     0.045 A 
ATOM     18  N   UNL A   1      31.419  28.941  22.639  1.00  0.00    -0.180 NA
ATOM     19  C   UNL A   1      29.606  30.109  21.956  1.00  0.00     0.105 A 
ATOM     20  N   UNL A   1      30.915  29.803  21.737  1.00  0.00    -0.285 N 
ATOM     21  H   UNL A   1      31.441  30.176  20.993  1.00  0.00     0.189 HD
ENDBRANCH  15  16
ENDBRANCH  13  15
ENDBRANCH   7  11
ENDBRANCH   5   6
ENDBRANCH   3   5
ENDBRANCH   2   3
ENDBRANCH   1   2
BRANCH   1  22
ATOM     22  C   UNL A   1      36.319  20.537  25.008  1.00  0.00     0.275 C 
BRANCH  22  23
ATOM     23  O   UNL A   1      37.249  21.610  25.238  1.00  0.00    -0.458 OA
BRANCH  23  24
ATOM     24  C   UNL A   1      38.446  21.249  25.751  1.00  0.00     0.338 C 
ATOM     25  O   UNL A   1      38.962  20.145  25.736  1.00  0.00    -0.246 OA
BRANCH  24  26
ATOM     26  C   UNL A   1      39.106  22.427  26.329  1.00  0.00     0.060 A 
ATOM     27  C   UNL A   1      38.591  23.701  26.081  1.00  0.00     0.016 A 
ATOM     28  C   UNL A   1      40.306  22.264  27.021  1.00  0.00     0.016 A 
ATOM     29  C   UNL A   1      39.295  24.828  26.503  1.00  0.00     0.010 A 
ATOM     30  C   UNL A   1      40.988  23.392  27.478  1.00  0.00     0.010 A 
ATOM     31  C   UNL A   1      40.502  24.683  27.202  1.00  0.00    -0.014 A 
BRANCH  31  32
ATOM     32  C   UNL A   1      41.279  25.872  27.630  1.00  0.00     0.031 A 
ATOM     33  C   UNL A   1      40.620  26.949  28.448  1.00  0.00     0.074 A 
ATOM     34  C   UNL A   1      42.557  26.011  27.235  1.00  0.00     0.049 A 
ATOM     35  N   UNL A   1      41.097  28.106  28.825  1.00  0.00    -0.248 NA
ATOM     36  C   UNL A   1      39.239  26.695  28.888  1.00  0.00     0.031 C 
ATOM     37  C   UNL A   1      43.297  25.047  26.420  1.00  0.00     0.029 A 
ATOM     38  N   UNL A   1      43.448  27.036  27.435  1.00  0.00    -0.354 N 
ATOM     39  C   UNL A   1      40.064  28.740  29.502  1.00  0.00     0.074 A 
ATOM     40  C   UNL A   1      38.932  27.838  29.486  1.00  0.00     0.031 C 
ATOM     41  C   UNL A   1      44.523  25.535  26.170  1.00  0.00     0.029 A 
ATOM     42  C   UNL A   1      44.642  26.858  26.776  1.00  0.00     0.049 A 
ATOM     43  H   UNL A   1      43.253  27.820  27.997  1.00  0.00     0.167 HD
ATOM     44  C   UNL A   1      40.063  29.956  30.099  1.00  0.00     0.034 A 
ATOM     45  C   UNL A   1      45.703  27.679  26.652  1.00  0.00     0.034 A 
ATOM     46  C   UNL A   1      41.204  30.830  30.159  1.00  0.00     0.049 A 
ATOM     47  C   UNL A   1      45.686  29.014  27.344  1.00  0.00     0.074 A 
ATOM     48  C   UNL A   1      41.324  32.046  30.808  1.00  0.00     0.029 A 
ATOM     49  N   UNL A   1      42.423  30.582  29.547  1.00  0.00    -0.354 N 
ATOM     50  N   UNL A   1      44.747  29.543  28.090  1.00  0.00    -0.248 NA
ATOM     51  C   UNL A   1      46.884  29.853  27.202  1.00  0.00     0.031 C 
ATOM     52  C   UNL A   1      42.614  32.538  30.580  1.00  0.00     0.029 A 
ATOM     53  C   UNL A   1      43.299  31.626  29.794  1.00  0.00     0.049 A 
ATOM     54  H   UNL A   1      42.635  29.782  29.014  1.00  0.00     0.167 HD
ATOM     55  C   UNL A   1      45.245  30.766  28.523  1.00  0.00     0.074 A 
ATOM     56  C   UNL A   1      46.582  30.887  27.976  1.00  0.00     0.031 C 
ATOM     57  C   UNL A   1      44.645  31.712  29.286  1.00  0.00     0.034 A 
BRANCH  44  58
ATOM     58  C   UNL A   1      38.793  30.398  30.775  1.00  0.00     0.023 A 
ATOM     59  C   UNL A   1      38.610  30.126  32.145  1.00  0.00     0.012 A 
ATOM     60  C   UNL A   1      37.810  31.121  30.075  1.00  0.00     0.148 A 
ATOM     61  C   UNL A   1      37.452  30.544  32.803  1.00  0.00     0.002 A 
ATOM     62  C   UNL A   1      36.675  31.564  30.746  1.00  0.00     0.091 A 
ATOM     63  F   UNL A   1      37.987  31.345  28.765  1.00  0.00    -0.205 F 
ATOM     64  C   UNL A   1      36.491  31.271  32.106  1.00  0.00     0.022 A 
BRANCH  62  65
ATOM     65  S   UNL A   1      35.417  32.563  29.938  1.00  0.00     0.127 S 
ATOM     66  O   UNL A   1      36.195  33.720  29.499  1.00  0.00    -0.237 OA
ATOM     67  O   UNL A   1      34.966  31.688  28.855  1.00  0.00    -0.237 OA
ATOM     68  O   UNL A   1      34.411  32.825  30.957  1.00  0.00    -0.744 OA
ENDBRANCH  62  65
ENDBRANCH  44  58
BRANCH  45  69
ATOM     69  C   UNL A   1      46.887  27.228  25.871  1.00  0.00     0.023 A 
ATOM     70  C   UNL A   1      47.753  26.266  26.424  1.00  0.00     0.012 A 
ATOM     71  C   UNL A   1      47.123  27.695  24.562  1.00  0.00     0.148 A 
ATOM     72  C   UNL A   1      48.841  25.787  25.694  1.00  0.00     0.002 A 
ATOM     73  C   UNL A   1      48.177  27.174  23.821  1.00  0.00     0.091 A 
ATOM     74  F   UNL A   1      46.298  28.626  24.061  1.00  0.00    -0.205 F 
ATOM     75  C   UNL A   1      49.045  26.229  24.389  1.00  0.00     0.022 A 
BRANCH  73  76
ATOM     76  S   UNL A   1      48.427  27.589  22.091  1.00  0.00     0.127 S 
ATOM     77  O   UNL A   1      48.644  26.273  21.496  1.00  0.00    -0.237 OA
ATOM     78  O   UNL A   1      47.155  28.222  21.741  1.00  0.00    -0.237 OA
ATOM     79  O   UNL A   1      49.569  28.494  22.068  1.00  0.00    -0.744 OA
ENDBRANCH  73  76
ENDBRANCH  45  69
BRANCH  57  80
ATOM     80  C   UNL A   1      45.425  32.963  29.586  1.00  0.00     0.023 A 
ATOM     81  C   UNL A   1      45.296  34.078  28.735  1.00  0.00     0.012 A 
ATOM     82  C   UNL A   1      46.222  33.064  30.742  1.00  0.00     0.148 A 
ATOM     83  C   UNL A   1      45.967  35.267  29.017  1.00  0.00     0.002 A 
ATOM     84  C   UNL A   1      46.857  34.265  31.039  1.00  0.00     0.091 A 
ATOM     85  F   UNL A   1      46.352  31.985  31.529  1.00  0.00    -0.205 F 
ATOM     86  C   UNL A   1      46.738  35.364  30.174  1.00  0.00     0.022 A 
BRANCH  84  87
ATOM     87  S   UNL A   1      47.796  34.495  32.554  1.00  0.00     0.127 S 
ATOM     88  O   UNL A   1      49.031  33.775  32.253  1.00  0.00    -0.237 OA
ATOM     89  O   UNL A   1      47.940  35.951  32.621  1.00  0.00    -0.237 OA
ATOM     90  O   UNL A   1      46.974  33.927  33.614  1.00  0.00    -0.744 OA
ENDBRANCH  84  87
ENDBRANCH  57  80
ENDBRANCH  31  32
ENDBRANCH  24  26
ENDBRANCH  23  24
ENDBRANCH  22  23
ENDBRANCH   1  22
TORSDOF 18
ENDMDL
