MODEL 1
REMARK VINA RESULT:     -11.9      0.000      0.000
REMARK SMILES Cc1cccc(-n2nc(Br)c(C(=O)OCCOC(=O)c3ccc(-c4c5nc(c(-c6cccc(S(=O)(=O)[O-])c6F)c6ccc([nH]6)c(-c6cccc(S(=O)(=O)[O-])c6F)c6nc(c(-c7cccc(S(=O)(=O)[O-])c7F)c7ccc4[nH]7)C=C6)C=C5)cc3)n2)c1
REMARK SMILES IDX 16 1 15 2 14 3 12 4 13 5 11 6 7 7 8 8 83 9 9 10 10 11 6 12
REMARK SMILES IDX 1 13 2 14 3 15 84 16 4 17 5 18 17 19 18 20 19 21 20 22 21 23
REMARK SMILES IDX 82 24 22 25 81 26 23 27 24 28 25 29 75 30 26 31 80 32 74 33
REMARK SMILES IDX 76 34 27 35 79 36 73 37 72 38 28 40 60 41 40 42 59 43 41 44
REMARK SMILES IDX 44 45 58 46 77 47 42 48 43 49 57 51 78 52 45 53 29 54 30 55
REMARK SMILES IDX 38 56 31 57 33 58 39 59 32 60 34 61 35 62 36 63 37 64 61 65
REMARK SMILES IDX 62 66 70 67 63 68 65 69 71 70 64 71 66 72 67 73 68 74 69 75
REMARK SMILES IDX 46 76 47 77 55 78 48 79 50 80 56 81 49 82 51 83 52 84 53 85
REMARK SMILES IDX 54 86
REMARK H PARENT 76 39 44 50
REMARK Flexibility Score: inf
ROOT
ATOM      1  C   UNL A   1      33.111  31.414  27.270  1.00  0.00     0.275 C 
ENDROOT
BRANCH   1   2
ATOM      2  C   UNL A   1      32.160  30.245  26.919  1.00  0.00     0.275 C 
BRANCH   2   3
ATOM      3  O   UNL A   1      32.724  28.953  26.715  1.00  0.00    -0.457 OA
BRANCH   3   4
ATOM      4  C   UNL A   1      31.917  27.890  26.969  1.00  0.00     0.361 C 
ATOM      5  O   UNL A   1      31.122  27.851  27.900  1.00  0.00    -0.244 OA
BRANCH   4   6
ATOM      6  C   UNL A   1      32.083  26.812  26.012  1.00  0.00     0.205 A 
ATOM      7  N   UNL A   1      32.953  25.197  24.978  1.00  0.00    -0.150 N 
ATOM      8  N   UNL A   1      32.177  25.774  24.023  1.00  0.00    -0.140 NA
ATOM      9  N   UNL A   1      32.839  25.715  26.234  1.00  0.00    -0.140 NA
ATOM     10  C   UNL A   1      31.602  26.763  24.697  1.00  0.00     0.163 A 
ATOM     11  Br  UNL A   1      30.382  27.953  23.910  1.00  0.00    -0.024 Br
BRANCH   7  12
ATOM     12  C   UNL A   1      34.051  24.373  24.622  1.00  0.00     0.086 A 
ATOM     13  C   UNL A   1      37.597  23.552  25.750  1.00  0.00     0.044 C 
ATOM     14  C   UNL A   1      36.335  23.621  24.938  1.00  0.00    -0.049 A 
ATOM     15  C   UNL A   1      36.267  22.955  23.706  1.00  0.00     0.003 A 
ATOM     16  C   UNL A   1      35.231  24.369  25.378  1.00  0.00     0.033 A 
ATOM     17  C   UNL A   1      35.091  22.957  22.958  1.00  0.00     0.003 A 
ATOM     18  C   UNL A   1      33.973  23.635  23.430  1.00  0.00     0.030 A 
ENDBRANCH   7  12
ENDBRANCH   4   6
ENDBRANCH   3   4
ENDBRANCH   2   3
ENDBRANCH   1   2
BRANCH   1  19
ATOM     19  O   UNL A   1      34.502  31.196  27.648  1.00  0.00    -0.458 OA
BRANCH  19  20
ATOM     20  C   UNL A   1      35.159  31.315  28.837  1.00  0.00     0.338 C 
ATOM     21  O   UNL A   1      34.738  31.975  29.751  1.00  0.00    -0.246 OA
BRANCH  20  22
ATOM     22  C   UNL A   1      36.384  30.520  28.974  1.00  0.00     0.060 A 
ATOM     23  C   UNL A   1      36.634  29.805  30.158  1.00  0.00     0.016 A 
ATOM     24  C   UNL A   1      37.219  30.427  27.873  1.00  0.00     0.016 A 
ATOM     25  C   UNL A   1      37.714  28.926  30.211  1.00  0.00     0.010 A 
ATOM     26  C   UNL A   1      38.175  29.448  27.866  1.00  0.00     0.010 A 
ATOM     27  C   UNL A   1      38.478  28.763  29.058  1.00  0.00    -0.014 A 
BRANCH  27  28
ATOM     28  C   UNL A   1      39.842  28.256  29.064  1.00  0.00     0.031 A 
ATOM     29  C   UNL A   1      40.212  26.878  28.734  1.00  0.00     0.074 A 
ATOM     30  C   UNL A   1      40.736  29.261  29.195  1.00  0.00     0.049 A 
ATOM     31  N   UNL A   1      41.360  26.380  29.030  1.00  0.00    -0.248 NA
ATOM     32  C   UNL A   1      39.323  25.937  28.064  1.00  0.00     0.031 C 
ATOM     33  C   UNL A   1      42.122  29.360  28.797  1.00  0.00     0.029 A 
ATOM     34  N   UNL A   1      40.477  30.483  29.836  1.00  0.00    -0.354 N 
ATOM     35  C   UNL A   1      41.479  25.185  28.354  1.00  0.00     0.074 A 
ATOM     36  C   UNL A   1      40.151  24.904  27.856  1.00  0.00     0.031 C 
ATOM     37  C   UNL A   1      42.655  30.448  29.389  1.00  0.00     0.029 A 
ATOM     38  C   UNL A   1      41.678  30.952  30.350  1.00  0.00     0.049 A 
ATOM     39  H   UNL A   1      39.601  30.927  29.908  1.00  0.00     0.167 HD
ATOM     40  C   UNL A   1      42.730  24.681  28.140  1.00  0.00     0.034 A 
ATOM     41  C   UNL A   1      41.848  31.119  31.697  1.00  0.00     0.034 A 
ATOM     42  C   UNL A   1      43.741  25.567  28.746  1.00  0.00     0.049 A 
ATOM     43  C   UNL A   1      42.920  30.174  32.210  1.00  0.00     0.074 A 
ATOM     44  C   UNL A   1      44.470  26.621  28.216  1.00  0.00     0.029 A 
ATOM     45  N   UNL A   1      43.846  25.675  30.127  1.00  0.00    -0.354 N 
ATOM     46  N   UNL A   1      43.427  29.200  31.507  1.00  0.00    -0.248 NA
ATOM     47  C   UNL A   1      43.456  30.216  33.567  1.00  0.00     0.031 C 
ATOM     48  C   UNL A   1      44.920  27.429  29.294  1.00  0.00     0.029 A 
ATOM     49  C   UNL A   1      44.501  26.851  30.479  1.00  0.00     0.049 A 
ATOM     50  H   UNL A   1      43.505  25.011  30.769  1.00  0.00     0.167 HD
ATOM     51  C   UNL A   1      44.207  28.415  32.303  1.00  0.00     0.074 A 
ATOM     52  C   UNL A   1      44.258  29.137  33.564  1.00  0.00     0.031 C 
ATOM     53  C   UNL A   1      44.682  27.203  31.886  1.00  0.00     0.034 A 
BRANCH  40  54
ATOM     54  C   UNL A   1      43.077  23.642  27.081  1.00  0.00     0.023 A 
ATOM     55  C   UNL A   1      43.723  24.111  25.912  1.00  0.00     0.012 A 
ATOM     56  C   UNL A   1      42.774  22.260  27.107  1.00  0.00     0.148 A 
ATOM     57  C   UNL A   1      43.954  23.302  24.795  1.00  0.00     0.002 A 
ATOM     58  C   UNL A   1      42.960  21.458  25.970  1.00  0.00     0.091 A 
ATOM     59  F   UNL A   1      42.367  21.696  28.249  1.00  0.00    -0.205 F 
ATOM     60  C   UNL A   1      43.541  21.981  24.810  1.00  0.00     0.022 A 
BRANCH  58  61
ATOM     61  S   UNL A   1      42.405  19.745  25.875  1.00  0.00     0.127 S 
ATOM     62  O   UNL A   1      43.223  19.216  24.779  1.00  0.00    -0.237 OA
ATOM     63  O   UNL A   1      42.754  19.227  27.195  1.00  0.00    -0.237 OA
ATOM     64  O   UNL A   1      40.978  19.799  25.578  1.00  0.00    -0.744 OA
ENDBRANCH  58  61
ENDBRANCH  40  54
BRANCH  41  65
ATOM     65  C   UNL A   1      40.570  31.425  32.443  1.00  0.00     0.023 A 
ATOM     66  C   UNL A   1      39.782  30.334  32.898  1.00  0.00     0.012 A 
ATOM     67  C   UNL A   1      40.358  32.682  33.036  1.00  0.00     0.148 A 
ATOM     68  C   UNL A   1      38.927  30.466  34.001  1.00  0.00     0.002 A 
ATOM     69  C   UNL A   1      39.522  32.799  34.147  1.00  0.00     0.091 A 
ATOM     70  F   UNL A   1      41.026  33.744  32.569  1.00  0.00    -0.205 F 
ATOM     71  C   UNL A   1      38.823  31.693  34.647  1.00  0.00     0.022 A 
BRANCH  69  72
ATOM     72  S   UNL A   1      39.511  34.337  35.078  1.00  0.00     0.127 S 
ATOM     73  O   UNL A   1      38.773  33.983  36.290  1.00  0.00    -0.237 OA
ATOM     74  O   UNL A   1      40.925  34.603  35.309  1.00  0.00    -0.237 OA
ATOM     75  O   UNL A   1      38.809  35.236  34.167  1.00  0.00    -0.744 OA
ENDBRANCH  69  72
ENDBRANCH  41  65
BRANCH  53  76
ATOM     76  C   UNL A   1      45.372  26.222  32.795  1.00  0.00     0.023 A 
ATOM     77  C   UNL A   1      46.773  26.125  32.863  1.00  0.00     0.012 A 
ATOM     78  C   UNL A   1      44.621  25.474  33.732  1.00  0.00     0.148 A 
ATOM     79  C   UNL A   1      47.402  25.264  33.765  1.00  0.00     0.002 A 
ATOM     80  C   UNL A   1      45.255  24.715  34.707  1.00  0.00     0.091 A 
ATOM     81  F   UNL A   1      43.279  25.484  33.673  1.00  0.00    -0.205 F 
ATOM     82  C   UNL A   1      46.644  24.576  34.704  1.00  0.00     0.022 A 
BRANCH  80  83
ATOM     83  S   UNL A   1      44.317  24.045  36.084  1.00  0.00     0.127 S 
ATOM     84  O   UNL A   1      43.403  23.123  35.413  1.00  0.00    -0.237 OA
ATOM     85  O   UNL A   1      45.353  23.396  36.890  1.00  0.00    -0.237 OA
ATOM     86  O   UNL A   1      43.709  25.206  36.721  1.00  0.00    -0.744 OA
ENDBRANCH  80  83
ENDBRANCH  53  76
ENDBRANCH  27  28
ENDBRANCH  20  22
ENDBRANCH  19  20
ENDBRANCH   1  19
TORSDOF 15
ENDMDL
MODEL 2
REMARK VINA RESULT:     -11.7      4.079      9.632
REMARK SMILES Cc1cccc(-n2nc(Br)c(C(=O)OCCOC(=O)c3ccc(-c4c5nc(c(-c6cccc(S(=O)(=O)[O-])c6F)c6ccc([nH]6)c(-c6cccc(S(=O)(=O)[O-])c6F)c6nc(c(-c7cccc(S(=O)(=O)[O-])c7F)c7ccc4[nH]7)C=C6)C=C5)cc3)n2)c1
REMARK SMILES IDX 16 1 15 2 14 3 12 4 13 5 11 6 7 7 8 8 83 9 9 10 10 11 6 12
REMARK SMILES IDX 1 13 2 14 3 15 84 16 4 17 5 18 17 19 18 20 19 21 20 22 21 23
REMARK SMILES IDX 82 24 22 25 81 26 23 27 24 28 25 29 75 30 26 31 80 32 74 33
REMARK SMILES IDX 76 34 27 35 79 36 73 37 72 38 28 40 60 41 40 42 59 43 41 44
REMARK SMILES IDX 44 45 58 46 77 47 42 48 43 49 57 51 78 52 45 53 29 54 30 55
REMARK SMILES IDX 38 56 31 57 33 58 39 59 32 60 34 61 35 62 36 63 37 64 61 65
REMARK SMILES IDX 62 66 70 67 63 68 65 69 71 70 64 71 66 72 67 73 68 74 69 75
REMARK SMILES IDX 46 76 47 77 55 78 48 79 50 80 56 81 49 82 51 83 52 84 53 85
REMARK SMILES IDX 54 86
REMARK H PARENT 76 39 44 50
REMARK Flexibility Score: inf
ROOT
ATOM      1  C   UNL A   1      38.112  22.436  25.595  1.00  0.00     0.275 C 
ENDROOT
BRANCH   1   2
ATOM      2  C   UNL A   1      36.907  21.470  25.690  1.00  0.00     0.275 C 
BRANCH   2   3
ATOM      3  O   UNL A   1      35.972  21.447  24.615  1.00  0.00    -0.457 OA
BRANCH   3   4
ATOM      4  C   UNL A   1      34.703  21.832  24.904  1.00  0.00     0.361 C 
ATOM      5  O   UNL A   1      33.978  21.237  25.695  1.00  0.00    -0.244 OA
BRANCH   4   6
ATOM      6  C   UNL A   1      34.297  23.031  24.193  1.00  0.00     0.205 A 
ATOM      7  N   UNL A   1      33.950  25.066  23.779  1.00  0.00    -0.150 N 
ATOM      8  N   UNL A   1      32.969  24.449  23.068  1.00  0.00    -0.140 NA
ATOM      9  N   UNL A   1      34.857  24.245  24.382  1.00  0.00    -0.140 NA
ATOM     10  C   UNL A   1      33.224  23.167  23.303  1.00  0.00     0.163 A 
ATOM     11  Br  UNL A   1      32.194  21.777  22.577  1.00  0.00    -0.024 Br
BRANCH   7  12
ATOM     12  C   UNL A   1      33.825  26.426  24.159  1.00  0.00     0.086 A 
ATOM     13  C   UNL A   1      33.706  28.606  27.282  1.00  0.00     0.044 C 
ATOM     14  C   UNL A   1      33.628  28.150  25.853  1.00  0.00    -0.049 A 
ATOM     15  C   UNL A   1      33.287  29.071  24.851  1.00  0.00     0.003 A 
ATOM     16  C   UNL A   1      33.858  26.809  25.506  1.00  0.00     0.033 A 
ATOM     17  C   UNL A   1      33.259  28.688  23.511  1.00  0.00     0.003 A 
ATOM     18  C   UNL A   1      33.562  27.377  23.160  1.00  0.00     0.030 A 
ENDBRANCH   7  12
ENDBRANCH   4   6
ENDBRANCH   3   4
ENDBRANCH   2   3
ENDBRANCH   1   2
BRANCH   1  19
ATOM     19  O   UNL A   1      39.125  22.516  26.641  1.00  0.00    -0.458 OA
BRANCH  19  20
ATOM     20  C   UNL A   1      40.292  23.215  26.734  1.00  0.00     0.338 C 
ATOM     21  O   UNL A   1      41.349  22.773  26.366  1.00  0.00    -0.246 OA
BRANCH  20  22
ATOM     22  C   UNL A   1      40.177  24.588  27.240  1.00  0.00     0.060 A 
ATOM     23  C   UNL A   1      40.664  25.665  26.480  1.00  0.00     0.016 A 
ATOM     24  C   UNL A   1      39.495  24.782  28.430  1.00  0.00     0.016 A 
ATOM     25  C   UNL A   1      40.401  26.969  26.893  1.00  0.00     0.010 A 
ATOM     26  C   UNL A   1      39.095  26.051  28.748  1.00  0.00     0.010 A 
ATOM     27  C   UNL A   1      39.619  27.145  28.033  1.00  0.00    -0.014 A 
BRANCH  27  28
ATOM     28  C   UNL A   1      39.620  28.365  28.826  1.00  0.00     0.031 A 
ATOM     29  C   UNL A   1      38.749  29.514  28.574  1.00  0.00     0.074 A 
ATOM     30  C   UNL A   1      40.361  28.217  29.947  1.00  0.00     0.049 A 
ATOM     31  N   UNL A   1      38.968  30.674  29.086  1.00  0.00    -0.248 NA
ATOM     32  C   UNL A   1      37.573  29.469  27.714  1.00  0.00     0.031 C 
ATOM     33  C   UNL A   1      40.302  28.894  31.223  1.00  0.00     0.029 A 
ATOM     34  N   UNL A   1      41.447  27.337  30.078  1.00  0.00    -0.354 N 
ATOM     35  C   UNL A   1      37.841  31.438  28.876  1.00  0.00     0.074 A 
ATOM     36  C   UNL A   1      37.049  30.684  27.930  1.00  0.00     0.031 C 
ATOM     37  C   UNL A   1      41.418  28.589  31.916  1.00  0.00     0.029 A 
ATOM     38  C   UNL A   1      42.319  27.879  31.012  1.00  0.00     0.049 A 
ATOM     39  H   UNL A   1      41.567  26.487  29.595  1.00  0.00     0.167 HD
ATOM     40  C   UNL A   1      37.633  32.525  29.676  1.00  0.00     0.034 A 
ATOM     41  C   UNL A   1      43.592  28.234  30.660  1.00  0.00     0.034 A 
ATOM     42  C   UNL A   1      38.749  32.669  30.630  1.00  0.00     0.049 A 
ATOM     43  C   UNL A   1      43.775  29.734  30.804  1.00  0.00     0.074 A 
ATOM     44  C   UNL A   1      38.913  32.201  31.925  1.00  0.00     0.029 A 
ATOM     45  N   UNL A   1      40.013  33.036  30.185  1.00  0.00    -0.354 N 
ATOM     46  N   UNL A   1      42.795  30.570  31.010  1.00  0.00    -0.248 NA
ATOM     47  C   UNL A   1      45.061  30.411  30.667  1.00  0.00     0.031 C 
ATOM     48  C   UNL A   1      40.303  32.184  32.213  1.00  0.00     0.029 A 
ATOM     49  C   UNL A   1      40.984  32.676  31.114  1.00  0.00     0.049 A 
ATOM     50  H   UNL A   1      40.197  33.490  29.330  1.00  0.00     0.167 HD
ATOM     51  C   UNL A   1      43.248  31.850  30.890  1.00  0.00     0.074 A 
ATOM     52  C   UNL A   1      44.688  31.700  30.754  1.00  0.00     0.031 C 
ATOM     53  C   UNL A   1      42.399  32.920  30.836  1.00  0.00     0.034 A 
BRANCH  40  54
ATOM     54  C   UNL A   1      36.288  33.210  29.877  1.00  0.00     0.023 A 
ATOM     55  C   UNL A   1      35.712  33.835  28.744  1.00  0.00     0.012 A 
ATOM     56  C   UNL A   1      35.569  33.346  31.088  1.00  0.00     0.148 A 
ATOM     57  C   UNL A   1      34.568  34.634  28.816  1.00  0.00     0.002 A 
ATOM     58  C   UNL A   1      34.449  34.187  31.173  1.00  0.00     0.091 A 
ATOM     59  F   UNL A   1      35.921  32.612  32.149  1.00  0.00    -0.205 F 
ATOM     60  C   UNL A   1      33.953  34.839  30.039  1.00  0.00     0.022 A 
BRANCH  58  61
ATOM     61  S   UNL A   1      33.616  34.560  32.728  1.00  0.00     0.127 S 
ATOM     62  O   UNL A   1      33.301  33.223  33.240  1.00  0.00    -0.237 OA
ATOM     63  O   UNL A   1      34.651  35.267  33.479  1.00  0.00    -0.237 OA
ATOM     64  O   UNL A   1      32.442  35.352  32.378  1.00  0.00    -0.744 OA
ENDBRANCH  58  61
ENDBRANCH  40  54
BRANCH  41  65
ATOM     65  C   UNL A   1      44.162  27.423  29.519  1.00  0.00     0.023 A 
ATOM     66  C   UNL A   1      44.306  26.021  29.700  1.00  0.00     0.012 A 
ATOM     67  C   UNL A   1      44.162  27.920  28.204  1.00  0.00     0.148 A 
ATOM     68  C   UNL A   1      44.301  25.144  28.607  1.00  0.00     0.002 A 
ATOM     69  C   UNL A   1      44.135  27.038  27.123  1.00  0.00     0.091 A 
ATOM     70  F   UNL A   1      44.111  29.243  28.007  1.00  0.00    -0.205 F 
ATOM     71  C   UNL A   1      44.181  25.652  27.319  1.00  0.00     0.022 A 
BRANCH  69  72
ATOM     72  S   UNL A   1      43.818  27.681  25.474  1.00  0.00     0.127 S 
ATOM     73  O   UNL A   1      43.270  26.523  24.769  1.00  0.00    -0.237 OA
ATOM     74  O   UNL A   1      42.845  28.741  25.706  1.00  0.00    -0.237 OA
ATOM     75  O   UNL A   1      45.152  28.090  25.048  1.00  0.00    -0.744 OA
ENDBRANCH  69  72
ENDBRANCH  41  65
BRANCH  53  76
ATOM     76  C   UNL A   1      42.841  34.319  30.504  1.00  0.00     0.023 A 
ATOM     77  C   UNL A   1      43.242  35.230  31.497  1.00  0.00     0.012 A 
ATOM     78  C   UNL A   1      43.020  34.705  29.154  1.00  0.00     0.148 A 
ATOM     79  C   UNL A   1      43.722  36.500  31.170  1.00  0.00     0.002 A 
ATOM     80  C   UNL A   1      43.612  35.919  28.836  1.00  0.00     0.091 A 
ATOM     81  F   UNL A   1      42.599  33.896  28.168  1.00  0.00    -0.205 F 
ATOM     82  C   UNL A   1      43.931  36.837  29.839  1.00  0.00     0.022 A 
BRANCH  80  83
ATOM     83  S   UNL A   1      44.137  36.255  27.152  1.00  0.00     0.127 S 
ATOM     84  O   UNL A   1      42.860  36.368  26.449  1.00  0.00    -0.237 OA
ATOM     85  O   UNL A   1      44.868  37.517  27.291  1.00  0.00    -0.237 OA
ATOM     86  O   UNL A   1      44.975  35.120  26.789  1.00  0.00    -0.744 OA
ENDBRANCH  80  83
ENDBRANCH  53  76
ENDBRANCH  27  28
ENDBRANCH  20  22
ENDBRANCH  19  20
ENDBRANCH   1  19
TORSDOF 15
ENDMDL
MODEL 3
REMARK VINA RESULT:     -11.7      2.320      3.639
REMARK SMILES Cc1cccc(-n2nc(Br)c(C(=O)OCCOC(=O)c3ccc(-c4c5nc(c(-c6cccc(S(=O)(=O)[O-])c6F)c6ccc([nH]6)c(-c6cccc(S(=O)(=O)[O-])c6F)c6nc(c(-c7cccc(S(=O)(=O)[O-])c7F)c7ccc4[nH]7)C=C6)C=C5)cc3)n2)c1
REMARK SMILES IDX 16 1 15 2 14 3 12 4 13 5 11 6 7 7 8 8 83 9 9 10 10 11 6 12
REMARK SMILES IDX 1 13 2 14 3 15 84 16 4 17 5 18 17 19 18 20 19 21 20 22 21 23
REMARK SMILES IDX 82 24 22 25 81 26 23 27 24 28 25 29 75 30 26 31 80 32 74 33
REMARK SMILES IDX 76 34 27 35 79 36 73 37 72 38 28 40 60 41 40 42 59 43 41 44
REMARK SMILES IDX 44 45 58 46 77 47 42 48 43 49 57 51 78 52 45 53 29 54 30 55
REMARK SMILES IDX 38 56 31 57 33 58 39 59 32 60 34 61 35 62 36 63 37 64 61 65
REMARK SMILES IDX 62 66 70 67 63 68 65 69 71 70 64 71 66 72 67 73 68 74 69 75
REMARK SMILES IDX 46 76 47 77 55 78 48 79 50 80 56 81 49 82 51 83 52 84 53 85
REMARK SMILES IDX 54 86
REMARK H PARENT 76 39 44 50
REMARK Flexibility Score: inf
ROOT
ATOM      1  C   UNL A   1      33.709  30.171  27.344  1.00  0.00     0.275 C 
ENDROOT
BRANCH   1   2
ATOM      2  C   UNL A   1      33.673  28.624  27.348  1.00  0.00     0.275 C 
BRANCH   2   3
ATOM      3  O   UNL A   1      34.219  27.932  26.229  1.00  0.00    -0.457 OA
BRANCH   3   4
ATOM      4  C   UNL A   1      33.466  26.931  25.705  1.00  0.00     0.361 C 
ATOM      5  O   UNL A   1      33.419  25.800  26.176  1.00  0.00    -0.244 OA
BRANCH   4   6
ATOM      6  C   UNL A   1      32.706  27.344  24.539  1.00  0.00     0.205 A 
ATOM      7  N   UNL A   1      31.192  28.226  23.371  1.00  0.00    -0.150 N 
ATOM      8  N   UNL A   1      31.573  27.167  22.609  1.00  0.00    -0.140 NA
ATOM      9  N   UNL A   1      31.931  28.449  24.496  1.00  0.00    -0.140 NA
ATOM     10  C   UNL A   1      32.554  26.645  23.335  1.00  0.00     0.163 A 
ATOM     11  Br  UNL A   1      33.514  25.123  22.800  1.00  0.00    -0.024 Br
BRANCH   7  12
ATOM     12  C   UNL A   1      29.916  28.821  23.203  1.00  0.00     0.086 A 
ATOM     13  C   UNL A   1      28.258  32.251  23.142  1.00  0.00     0.044 C 
ATOM     14  C   UNL A   1      28.465  30.764  23.166  1.00  0.00    -0.049 A 
ATOM     15  C   UNL A   1      27.352  29.910  23.156  1.00  0.00     0.003 A 
ATOM     16  C   UNL A   1      29.755  30.213  23.231  1.00  0.00     0.033 A 
ATOM     17  C   UNL A   1      27.515  28.526  23.123  1.00  0.00     0.003 A 
ATOM     18  C   UNL A   1      28.794  27.981  23.111  1.00  0.00     0.030 A 
ENDBRANCH   7  12
ENDBRANCH   4   6
ENDBRANCH   3   4
ENDBRANCH   2   3
ENDBRANCH   1   2
BRANCH   1  19
ATOM     19  O   UNL A   1      34.961  30.918  27.344  1.00  0.00    -0.458 OA
BRANCH  19  20
ATOM     20  C   UNL A   1      35.858  31.202  28.331  1.00  0.00     0.338 C 
ATOM     21  O   UNL A   1      35.715  32.116  29.100  1.00  0.00    -0.246 OA
BRANCH  20  22
ATOM     22  C   UNL A   1      36.985  30.270  28.458  1.00  0.00     0.060 A 
ATOM     23  C   UNL A   1      37.123  29.481  29.613  1.00  0.00     0.016 A 
ATOM     24  C   UNL A   1      37.834  30.134  27.373  1.00  0.00     0.016 A 
ATOM     25  C   UNL A   1      38.098  28.487  29.650  1.00  0.00     0.010 A 
ATOM     26  C   UNL A   1      38.677  29.056  27.341  1.00  0.00     0.010 A 
ATOM     27  C   UNL A   1      38.871  28.290  28.507  1.00  0.00    -0.014 A 
BRANCH  27  28
ATOM     28  C   UNL A   1      40.170  27.635  28.520  1.00  0.00     0.031 A 
ATOM     29  C   UNL A   1      40.365  26.187  28.448  1.00  0.00     0.074 A 
ATOM     30  C   UNL A   1      41.171  28.535  28.384  1.00  0.00     0.049 A 
ATOM     31  N   UNL A   1      41.478  25.621  28.758  1.00  0.00    -0.248 NA
ATOM     32  C   UNL A   1      39.327  25.247  28.044  1.00  0.00     0.031 C 
ATOM     33  C   UNL A   1      42.517  28.390  27.879  1.00  0.00     0.029 A 
ATOM     34  N   UNL A   1      41.098  29.878  28.784  1.00  0.00    -0.354 N 
ATOM     35  C   UNL A   1      41.412  24.314  28.328  1.00  0.00     0.074 A 
ATOM     36  C   UNL A   1      40.021  24.102  27.990  1.00  0.00     0.031 C 
ATOM     37  C   UNL A   1      43.211  29.500  28.202  1.00  0.00     0.029 A 
ATOM     38  C   UNL A   1      42.383  30.291  29.108  1.00  0.00     0.049 A 
ATOM     39  H   UNL A   1      40.283  30.428  28.826  1.00  0.00     0.167 HD
ATOM     40  C   UNL A   1      42.579  23.633  28.133  1.00  0.00     0.034 A 
ATOM     41  C   UNL A   1      42.692  30.692  30.379  1.00  0.00     0.034 A 
ATOM     42  C   UNL A   1      43.727  24.493  28.477  1.00  0.00     0.049 A 
ATOM     43  C   UNL A   1      43.704  29.742  30.995  1.00  0.00     0.074 A 
ATOM     44  C   UNL A   1      44.509  25.331  27.697  1.00  0.00     0.029 A 
ATOM     45  N   UNL A   1      43.969  24.850  29.798  1.00  0.00    -0.354 N 
ATOM     46  N   UNL A   1      44.042  28.598  30.469  1.00  0.00    -0.248 NA
ATOM     47  C   UNL A   1      44.363  29.979  32.275  1.00  0.00     0.031 C 
ATOM     48  C   UNL A   1      45.136  26.272  28.557  1.00  0.00     0.029 A 
ATOM     49  C   UNL A   1      44.770  25.985  29.860  1.00  0.00     0.049 A 
ATOM     50  H   UNL A   1      43.621  24.366  30.582  1.00  0.00     0.167 HD
ATOM     51  C   UNL A   1      44.806  27.893  31.349  1.00  0.00     0.074 A 
ATOM     52  C   UNL A   1      45.046  28.832  32.433  1.00  0.00     0.031 C 
ATOM     53  C   UNL A   1      45.115  26.576  31.152  1.00  0.00     0.034 A 
BRANCH  40  54
ATOM     54  C   UNL A   1      42.720  22.377  27.282  1.00  0.00     0.023 A 
ATOM     55  C   UNL A   1      41.894  21.278  27.623  1.00  0.00     0.012 A 
ATOM     56  C   UNL A   1      43.628  22.160  26.220  1.00  0.00     0.148 A 
ATOM     57  C   UNL A   1      42.029  20.016  27.037  1.00  0.00     0.002 A 
ATOM     58  C   UNL A   1      43.799  20.883  25.665  1.00  0.00     0.091 A 
ATOM     59  F   UNL A   1      44.286  23.198  25.692  1.00  0.00    -0.205 F 
ATOM     60  C   UNL A   1      43.006  19.807  26.080  1.00  0.00     0.022 A 
BRANCH  58  61
ATOM     61  S   UNL A   1      45.080  20.500  24.455  1.00  0.00     0.127 S 
ATOM     62  O   UNL A   1      44.676  21.317  23.307  1.00  0.00    -0.237 OA
ATOM     63  O   UNL A   1      46.294  20.959  25.125  1.00  0.00    -0.237 OA
ATOM     64  O   UNL A   1      44.997  19.063  24.219  1.00  0.00    -0.744 OA
ENDBRANCH  58  61
ENDBRANCH  40  54
BRANCH  41  65
ATOM     65  C   UNL A   1      41.525  31.284  31.136  1.00  0.00     0.023 A 
ATOM     66  C   UNL A   1      40.877  32.422  30.584  1.00  0.00     0.012 A 
ATOM     67  C   UNL A   1      40.832  30.536  32.103  1.00  0.00     0.148 A 
ATOM     68  C   UNL A   1      39.537  32.708  30.879  1.00  0.00     0.002 A 
ATOM     69  C   UNL A   1      39.491  30.815  32.373  1.00  0.00     0.091 A 
ATOM     70  F   UNL A   1      41.449  29.510  32.700  1.00  0.00    -0.205 F 
ATOM     71  C   UNL A   1      38.834  31.883  31.749  1.00  0.00     0.022 A 
BRANCH  69  72
ATOM     72  S   UNL A   1      38.539  29.660  33.369  1.00  0.00     0.127 S 
ATOM     73  O   UNL A   1      38.940  28.358  32.835  1.00  0.00    -0.237 OA
ATOM     74  O   UNL A   1      39.013  29.910  34.723  1.00  0.00    -0.237 OA
ATOM     75  O   UNL A   1      37.168  30.057  33.063  1.00  0.00    -0.744 OA
ENDBRANCH  69  72
ENDBRANCH  41  65
BRANCH  53  76
ATOM     76  C   UNL A   1      45.781  25.712  32.189  1.00  0.00     0.023 A 
ATOM     77  C   UNL A   1      47.178  25.678  32.346  1.00  0.00     0.012 A 
ATOM     78  C   UNL A   1      44.999  25.026  33.148  1.00  0.00     0.148 A 
ATOM     79  C   UNL A   1      47.779  24.931  33.362  1.00  0.00     0.002 A 
ATOM     80  C   UNL A   1      45.598  24.388  34.226  1.00  0.00     0.091 A 
ATOM     81  F   UNL A   1      43.664  24.978  33.011  1.00  0.00    -0.205 F 
ATOM     82  C   UNL A   1      46.989  24.304  34.317  1.00  0.00     0.022 A 
BRANCH  80  83
ATOM     83  S   UNL A   1      44.600  23.813  35.605  1.00  0.00     0.127 S 
ATOM     84  O   UNL A   1      43.892  25.028  35.999  1.00  0.00    -0.237 OA
ATOM     85  O   UNL A   1      43.755  22.790  34.983  1.00  0.00    -0.237 OA
ATOM     86  O   UNL A   1      45.561  23.285  36.565  1.00  0.00    -0.744 OA
ENDBRANCH  80  83
ENDBRANCH  53  76
ENDBRANCH  27  28
ENDBRANCH  20  22
ENDBRANCH  19  20
ENDBRANCH   1  19
TORSDOF 15
ENDMDL
