MODEL 1
REMARK VINA RESULT:      -8.2      0.000      0.000
REMARK SMILES CC/C=C/C/C=C/C/C=C/C/C=C/CCSCCCC(=O)OCCOC(=O)c1ccc(-c2c3nc(c(-c4cccc(S(=O)(=O)[O-])c4F)c4ccc([nH]4)c(-c4cccc(S(=O)(=O)[O-])c4F)c4nc(c(-c5cccc(S(=O)(=O)[O-])c5F)c5ccc2[nH]5)C=C4)C=C3)cc1
REMARK SMILES IDX 17 1 16 2 15 3 14 4 13 5 12 6 11 7 10 8 9 9 8 10 7 11 6 12
REMARK SMILES IDX 5 13 4 14 3 15 2 16 1 17 18 18 19 19 20 20 21 21 22 22 23 23
REMARK SMILES IDX 24 24 25 25 26 26 27 27 28 28 29 29 90 30 30 31 89 32 31 33
REMARK SMILES IDX 32 34 33 35 83 36 34 37 88 38 82 39 84 40 35 41 87 42 81 43
REMARK SMILES IDX 80 44 36 46 68 47 48 48 67 49 49 50 52 51 66 52 85 53 50 54
REMARK SMILES IDX 51 55 65 57 86 58 53 59 37 60 38 61 46 62 39 63 41 64 47 65
REMARK SMILES IDX 40 66 42 67 43 68 44 69 45 70 69 71 70 72 78 73 71 74 73 75
REMARK SMILES IDX 79 76 72 77 74 78 75 79 76 80 77 81 54 82 55 83 63 84 56 85
REMARK SMILES IDX 58 86 64 87 57 88 59 89 60 90 61 91 62 92
REMARK H PARENT 84 45 52 56
REMARK Flexibility Score: inf
ROOT
ATOM      1  C   UNL A   1      36.833  29.821  46.287  1.00  0.00     0.070 C 
ENDROOT
BRANCH   1   2
ATOM      2  S   UNL A   1      36.114  31.425  46.797  1.00  0.00    -0.162 SA
BRANCH   2   3
ATOM      3  C   UNL A   1      34.340  31.387  46.325  1.00  0.00     0.073 C 
BRANCH   3   4
ATOM      4  C   UNL A   1      33.987  31.136  44.847  1.00  0.00     0.038 C 
BRANCH   4   5
ATOM      5  C   UNL A   1      34.689  32.013  43.838  1.00  0.00    -0.030 C 
ATOM      6  C   UNL A   1      34.833  31.710  42.530  1.00  0.00    -0.027 C 
BRANCH   6   7
ATOM      7  C   UNL A   1      35.535  32.545  41.473  1.00  0.00     0.054 C 
BRANCH   7   8
ATOM      8  C   UNL A   1      34.568  33.300  40.597  1.00  0.00    -0.027 C 
ATOM      9  C   UNL A   1      33.413  33.850  41.016  1.00  0.00    -0.027 C 
BRANCH   9  10
ATOM     10  C   UNL A   1      32.510  34.652  40.116  1.00  0.00     0.054 C 
BRANCH  10  11
ATOM     11  C   UNL A   1      31.505  35.452  40.877  1.00  0.00    -0.027 C 
ATOM     12  C   UNL A   1      31.205  35.261  42.172  1.00  0.00    -0.027 C 
BRANCH  12  13
ATOM     13  C   UNL A   1      30.120  36.022  42.886  1.00  0.00     0.054 C 
BRANCH  13  14
ATOM     14  C   UNL A   1      28.982  35.077  43.148  1.00  0.00    -0.027 C 
ATOM     15  C   UNL A   1      27.956  35.334  43.972  1.00  0.00    -0.031 C 
BRANCH  15  16
ATOM     16  C   UNL A   1      26.883  34.337  44.284  1.00  0.00     0.023 C 
ATOM     17  C   UNL A   1      25.547  34.797  43.720  1.00  0.00     0.008 C 
ENDBRANCH  15  16
ENDBRANCH  13  14
ENDBRANCH  12  13
ENDBRANCH  10  11
ENDBRANCH   9  10
ENDBRANCH   7   8
ENDBRANCH   6   7
ENDBRANCH   4   5
ENDBRANCH   3   4
ENDBRANCH   2   3
ENDBRANCH   1   2
BRANCH   1  18
ATOM     18  C   UNL A   1      37.525  29.649  44.929  1.00  0.00     0.023 C 
BRANCH  18  19
ATOM     19  C   UNL A   1      38.147  30.874  44.288  1.00  0.00     0.123 C 
BRANCH  19  20
ATOM     20  C   UNL A   1      38.531  30.710  42.841  1.00  0.00     0.305 C 
ATOM     21  O   UNL A   1      38.644  29.606  42.332  1.00  0.00    -0.252 OA
BRANCH  20  22
ATOM     22  O   UNL A   1      38.789  31.889  42.219  1.00  0.00    -0.462 OA
BRANCH  22  23
ATOM     23  C   UNL A   1      40.068  32.026  41.581  1.00  0.00     0.274 C 
BRANCH  23  24
ATOM     24  C   UNL A   1      40.102  33.074  40.475  1.00  0.00     0.275 C 
BRANCH  24  25
ATOM     25  O   UNL A   1      38.806  33.326  39.924  1.00  0.00    -0.458 OA
BRANCH  25  26
ATOM     26  C   UNL A   1      38.793  34.238  38.922  1.00  0.00     0.338 C 
ATOM     27  O   UNL A   1      38.880  35.448  39.013  1.00  0.00    -0.246 OA
BRANCH  26  28
ATOM     28  C   UNL A   1      38.770  33.529  37.642  1.00  0.00     0.060 A 
ATOM     29  C   UNL A   1      38.228  32.240  37.587  1.00  0.00     0.016 A 
ATOM     30  C   UNL A   1      39.352  34.114  36.522  1.00  0.00     0.016 A 
ATOM     31  C   UNL A   1      38.291  31.506  36.415  1.00  0.00     0.010 A 
ATOM     32  C   UNL A   1      39.403  33.384  35.339  1.00  0.00     0.010 A 
ATOM     33  C   UNL A   1      38.906  32.066  35.295  1.00  0.00    -0.014 A 
BRANCH  33  34
ATOM     34  C   UNL A   1      39.218  31.208  34.139  1.00  0.00     0.031 A 
ATOM     35  C   UNL A   1      40.525  30.473  34.160  1.00  0.00     0.074 A 
ATOM     36  C   UNL A   1      38.363  31.088  33.110  1.00  0.00     0.049 A 
ATOM     37  N   UNL A   1      41.100  29.782  33.217  1.00  0.00    -0.248 NA
ATOM     38  C   UNL A   1      41.300  30.549  35.414  1.00  0.00     0.031 C 
ATOM     39  C   UNL A   1      37.046  31.718  33.019  1.00  0.00     0.029 A 
ATOM     40  N   UNL A   1      38.492  30.408  31.928  1.00  0.00    -0.354 N 
ATOM     41  C   UNL A   1      42.332  29.404  33.736  1.00  0.00     0.074 A 
ATOM     42  C   UNL A   1      42.428  29.950  35.068  1.00  0.00     0.031 C 
ATOM     43  C   UNL A   1      36.499  31.419  31.828  1.00  0.00     0.029 A 
ATOM     44  C   UNL A   1      37.443  30.611  31.064  1.00  0.00     0.049 A 
ATOM     45  H   UNL A   1      39.261  29.831  31.718  1.00  0.00     0.167 HD
ATOM     46  C   UNL A   1      43.290  28.652  33.153  1.00  0.00     0.034 A 
ATOM     47  C   UNL A   1      37.287  30.208  29.788  1.00  0.00     0.034 A 
ATOM     48  C   UNL A   1      43.153  28.072  31.847  1.00  0.00     0.049 A 
ATOM     49  C   UNL A   1      38.380  29.383  29.157  1.00  0.00     0.074 A 
ATOM     50  C   UNL A   1      44.036  27.252  31.174  1.00  0.00     0.029 A 
ATOM     51  N   UNL A   1      42.057  28.256  31.019  1.00  0.00    -0.354 N 
ATOM     52  N   UNL A   1      39.507  28.964  29.680  1.00  0.00    -0.248 NA
ATOM     53  C   UNL A   1      38.165  28.952  27.770  1.00  0.00     0.031 C 
ATOM     54  C   UNL A   1      43.487  26.966  29.920  1.00  0.00     0.029 A 
ATOM     55  C   UNL A   1      42.244  27.573  29.833  1.00  0.00     0.049 A 
ATOM     56  H   UNL A   1      41.263  28.794  31.242  1.00  0.00     0.167 HD
ATOM     57  C   UNL A   1      40.114  28.182  28.705  1.00  0.00     0.074 A 
ATOM     58  C   UNL A   1      39.220  28.175  27.564  1.00  0.00     0.031 C 
ATOM     59  C   UNL A   1      41.306  27.535  28.740  1.00  0.00     0.034 A 
BRANCH  46  60
ATOM     60  C   UNL A   1      44.559  28.427  33.927  1.00  0.00     0.023 A 
ATOM     61  C   UNL A   1      45.737  29.118  33.575  1.00  0.00     0.012 A 
ATOM     62  C   UNL A   1      44.581  27.527  35.009  1.00  0.00     0.148 A 
ATOM     63  C   UNL A   1      46.927  28.882  34.261  1.00  0.00     0.002 A 
ATOM     64  C   UNL A   1      45.757  27.338  35.721  1.00  0.00     0.091 A 
ATOM     65  F   UNL A   1      43.458  26.859  35.307  1.00  0.00    -0.205 F 
ATOM     66  C   UNL A   1      46.935  28.001  35.338  1.00  0.00     0.022 A 
BRANCH  64  67
ATOM     67  S   UNL A   1      45.851  26.286  37.172  1.00  0.00     0.127 S 
ATOM     68  O   UNL A   1      44.935  25.204  36.813  1.00  0.00    -0.237 OA
ATOM     69  O   UNL A   1      47.265  25.911  37.184  1.00  0.00    -0.237 OA
ATOM     70  O   UNL A   1      45.429  27.109  38.296  1.00  0.00    -0.744 OA
ENDBRANCH  64  67
ENDBRANCH  46  60
BRANCH  47  71
ATOM     71  C   UNL A   1      36.050  30.549  29.032  1.00  0.00     0.023 A 
ATOM     72  C   UNL A   1      35.349  29.528  28.360  1.00  0.00     0.012 A 
ATOM     73  C   UNL A   1      35.569  31.871  28.963  1.00  0.00     0.148 A 
ATOM     74  C   UNL A   1      34.219  29.824  27.596  1.00  0.00     0.002 A 
ATOM     75  C   UNL A   1      34.414  32.150  28.243  1.00  0.00     0.091 A 
ATOM     76  F   UNL A   1      36.252  32.829  29.605  1.00  0.00    -0.205 F 
ATOM     77  C   UNL A   1      33.749  31.133  27.542  1.00  0.00     0.022 A 
BRANCH  75  78
ATOM     78  S   UNL A   1      33.672  33.785  28.203  1.00  0.00     0.127 S 
ATOM     79  O   UNL A   1      34.635  34.530  27.395  1.00  0.00    -0.237 OA
ATOM     80  O   UNL A   1      32.393  33.517  27.545  1.00  0.00    -0.237 OA
ATOM     81  O   UNL A   1      33.561  34.200  29.594  1.00  0.00    -0.744 OA
ENDBRANCH  75  78
ENDBRANCH  47  71
BRANCH  59  82
ATOM     82  C   UNL A   1      41.690  26.712  27.540  1.00  0.00     0.023 A 
ATOM     83  C   UNL A   1      42.278  27.327  26.418  1.00  0.00     0.012 A 
ATOM     84  C   UNL A   1      41.553  25.310  27.571  1.00  0.00     0.148 A 
ATOM     85  C   UNL A   1      42.697  26.561  25.332  1.00  0.00     0.002 A 
ATOM     86  C   UNL A   1      42.025  24.549  26.511  1.00  0.00     0.091 A 
ATOM     87  F   UNL A   1      40.975  24.747  28.642  1.00  0.00    -0.205 F 
ATOM     88  C   UNL A   1      42.584  25.173  25.384  1.00  0.00     0.022 A 
BRANCH  86  89
ATOM     89  S   UNL A   1      42.024  22.754  26.540  1.00  0.00     0.127 S 
ATOM     90  O   UNL A   1      43.208  22.442  25.739  1.00  0.00    -0.237 OA
ATOM     91  O   UNL A   1      42.160  22.468  27.968  1.00  0.00    -0.237 OA
ATOM     92  O   UNL A   1      40.752  22.341  25.958  1.00  0.00    -0.744 OA
ENDBRANCH  86  89
ENDBRANCH  59  82
ENDBRANCH  33  34
ENDBRANCH  26  28
ENDBRANCH  25  26
ENDBRANCH  24  25
ENDBRANCH  23  24
ENDBRANCH  22  23
ENDBRANCH  20  22
ENDBRANCH  19  20
ENDBRANCH  18  19
ENDBRANCH   1  18
TORSDOF 27
ENDMDL
MODEL 2
REMARK VINA RESULT:      -7.9      6.363     13.488
REMARK SMILES CC/C=C/C/C=C/C/C=C/C/C=C/CCSCCCC(=O)OCCOC(=O)c1ccc(-c2c3nc(c(-c4cccc(S(=O)(=O)[O-])c4F)c4ccc([nH]4)c(-c4cccc(S(=O)(=O)[O-])c4F)c4nc(c(-c5cccc(S(=O)(=O)[O-])c5F)c5ccc2[nH]5)C=C4)C=C3)cc1
REMARK SMILES IDX 17 1 16 2 15 3 14 4 13 5 12 6 11 7 10 8 9 9 8 10 7 11 6 12
REMARK SMILES IDX 5 13 4 14 3 15 2 16 1 17 18 18 19 19 20 20 21 21 22 22 23 23
REMARK SMILES IDX 24 24 25 25 26 26 27 27 28 28 29 29 90 30 30 31 89 32 31 33
REMARK SMILES IDX 32 34 33 35 83 36 34 37 88 38 82 39 84 40 35 41 87 42 81 43
REMARK SMILES IDX 80 44 36 46 68 47 48 48 67 49 49 50 52 51 66 52 85 53 50 54
REMARK SMILES IDX 51 55 65 57 86 58 53 59 37 60 38 61 46 62 39 63 41 64 47 65
REMARK SMILES IDX 40 66 42 67 43 68 44 69 45 70 69 71 70 72 78 73 71 74 73 75
REMARK SMILES IDX 79 76 72 77 74 78 75 79 76 80 77 81 54 82 55 83 63 84 56 85
REMARK SMILES IDX 58 86 64 87 57 88 59 89 60 90 61 91 62 92
REMARK H PARENT 84 45 52 56
REMARK Flexibility Score: inf
ROOT
ATOM      1  C   UNL A   1      45.439  33.446  26.187  1.00  0.00     0.070 C 
ENDROOT
BRANCH   1   2
ATOM      2  S   UNL A   1      44.700  35.060  26.633  1.00  0.00    -0.162 SA
BRANCH   2   3
ATOM      3  C   UNL A   1      44.004  34.879  28.322  1.00  0.00     0.073 C 
BRANCH   3   4
ATOM      4  C   UNL A   1      42.659  35.563  28.630  1.00  0.00     0.038 C 
BRANCH   4   5
ATOM      5  C   UNL A   1      41.688  34.773  29.475  1.00  0.00    -0.030 C 
ATOM      6  C   UNL A   1      40.345  34.846  29.368  1.00  0.00    -0.027 C 
BRANCH   6   7
ATOM      7  C   UNL A   1      39.321  34.086  30.193  1.00  0.00     0.054 C 
BRANCH   7   8
ATOM      8  C   UNL A   1      38.095  33.717  29.397  1.00  0.00    -0.027 C 
ATOM      9  C   UNL A   1      36.991  33.138  29.905  1.00  0.00    -0.027 C 
BRANCH   9  10
ATOM     10  C   UNL A   1      35.763  32.847  29.082  1.00  0.00     0.054 C 
BRANCH  10  11
ATOM     11  C   UNL A   1      35.733  31.444  28.572  1.00  0.00    -0.027 C 
ATOM     12  C   UNL A   1      34.841  30.978  27.683  1.00  0.00    -0.027 C 
BRANCH  12  13
ATOM     13  C   UNL A   1      34.778  29.534  27.260  1.00  0.00     0.054 C 
BRANCH  13  14
ATOM     14  C   UNL A   1      33.385  29.251  26.774  1.00  0.00    -0.027 C 
ATOM     15  C   UNL A   1      32.892  29.667  25.598  1.00  0.00    -0.031 C 
BRANCH  15  16
ATOM     16  C   UNL A   1      31.471  29.446  25.179  1.00  0.00     0.023 C 
ATOM     17  C   UNL A   1      31.251  27.994  24.785  1.00  0.00     0.008 C 
ENDBRANCH  15  16
ENDBRANCH  13  14
ENDBRANCH  12  13
ENDBRANCH  10  11
ENDBRANCH   9  10
ENDBRANCH   7   8
ENDBRANCH   6   7
ENDBRANCH   4   5
ENDBRANCH   3   4
ENDBRANCH   2   3
ENDBRANCH   1   2
BRANCH   1  18
ATOM     18  C   UNL A   1      46.466  32.758  27.093  1.00  0.00     0.023 C 
BRANCH  18  19
ATOM     19  C   UNL A   1      47.722  32.203  26.450  1.00  0.00     0.123 C 
BRANCH  19  20
ATOM     20  C   UNL A   1      48.804  31.794  27.414  1.00  0.00     0.305 C 
ATOM     21  O   UNL A   1      48.542  31.240  28.471  1.00  0.00    -0.252 OA
BRANCH  20  22
ATOM     22  O   UNL A   1      50.047  32.160  27.009  1.00  0.00    -0.462 OA
BRANCH  22  23
ATOM     23  C   UNL A   1      50.148  33.340  26.196  1.00  0.00     0.274 C 
BRANCH  23  24
ATOM     24  C   UNL A   1      51.260  34.294  26.620  1.00  0.00     0.275 C 
BRANCH  24  25
ATOM     25  O   UNL A   1      51.653  34.101  27.981  1.00  0.00    -0.458 OA
BRANCH  25  26
ATOM     26  C   UNL A   1      51.256  35.086  28.822  1.00  0.00     0.338 C 
ATOM     27  O   UNL A   1      51.811  36.146  29.044  1.00  0.00    -0.246 OA
BRANCH  26  28
ATOM     28  C   UNL A   1      49.948  34.733  29.374  1.00  0.00     0.060 A 
ATOM     29  C   UNL A   1      48.800  35.329  28.840  1.00  0.00     0.016 A 
ATOM     30  C   UNL A   1      49.871  33.874  30.465  1.00  0.00     0.016 A 
ATOM     31  C   UNL A   1      47.562  35.097  29.413  1.00  0.00     0.010 A 
ATOM     32  C   UNL A   1      48.626  33.628  31.034  1.00  0.00     0.010 A 
ATOM     33  C   UNL A   1      47.476  34.268  30.532  1.00  0.00    -0.014 A 
BRANCH  33  34
ATOM     34  C   UNL A   1      46.223  34.229  31.306  1.00  0.00     0.031 A 
ATOM     35  C   UNL A   1      45.316  33.055  31.090  1.00  0.00     0.074 A 
ATOM     36  C   UNL A   1      45.910  35.207  32.173  1.00  0.00     0.049 A 
ATOM     37  N   UNL A   1      44.104  32.855  31.526  1.00  0.00    -0.248 NA
ATOM     38  C   UNL A   1      45.843  31.966  30.245  1.00  0.00     0.031 C 
ATOM     39  C   UNL A   1      46.749  36.361  32.494  1.00  0.00     0.029 A 
ATOM     40  N   UNL A   1      44.782  35.392  32.927  1.00  0.00    -0.354 N 
ATOM     41  C   UNL A   1      43.698  31.658  30.951  1.00  0.00     0.074 A 
ATOM     42  C   UNL A   1      44.784  31.182  30.127  1.00  0.00     0.031 C 
ATOM     43  C   UNL A   1      46.092  37.153  33.358  1.00  0.00     0.029 A 
ATOM     44  C   UNL A   1      44.776  36.579  33.618  1.00  0.00     0.049 A 
ATOM     45  H   UNL A   1      44.046  34.739  32.968  1.00  0.00     0.167 HD
ATOM     46  C   UNL A   1      42.526  31.007  31.112  1.00  0.00     0.034 A 
ATOM     47  C   UNL A   1      43.799  37.144  34.353  1.00  0.00     0.034 A 
ATOM     48  C   UNL A   1      41.480  31.469  31.979  1.00  0.00     0.049 A 
ATOM     49  C   UNL A   1      42.495  36.402  34.504  1.00  0.00     0.074 A 
ATOM     50  C   UNL A   1      40.269  30.869  32.260  1.00  0.00     0.029 A 
ATOM     51  N   UNL A   1      41.526  32.651  32.703  1.00  0.00    -0.354 N 
ATOM     52  N   UNL A   1      42.146  35.234  34.021  1.00  0.00    -0.248 NA
ATOM     53  C   UNL A   1      41.460  37.044  35.325  1.00  0.00     0.031 C 
ATOM     54  C   UNL A   1      39.566  31.706  33.133  1.00  0.00     0.029 A 
ATOM     55  C   UNL A   1      40.359  32.805  33.426  1.00  0.00     0.049 A 
ATOM     56  H   UNL A   1      42.279  33.285  32.703  1.00  0.00     0.167 HD
ATOM     57  C   UNL A   1      40.873  34.979  34.515  1.00  0.00     0.074 A 
ATOM     58  C   UNL A   1      40.519  36.111  35.348  1.00  0.00     0.031 C 
ATOM     59  C   UNL A   1      40.062  33.913  34.297  1.00  0.00     0.034 A 
BRANCH  46  60
ATOM     60  C   UNL A   1      42.326  29.738  30.331  1.00  0.00     0.023 A 
ATOM     61  C   UNL A   1      42.497  28.486  30.955  1.00  0.00     0.012 A 
ATOM     62  C   UNL A   1      41.965  29.792  28.971  1.00  0.00     0.148 A 
ATOM     63  C   UNL A   1      42.356  27.307  30.226  1.00  0.00     0.002 A 
ATOM     64  C   UNL A   1      41.773  28.612  28.266  1.00  0.00     0.091 A 
ATOM     65  F   UNL A   1      41.836  30.993  28.391  1.00  0.00    -0.205 F 
ATOM     66  C   UNL A   1      41.985  27.369  28.886  1.00  0.00     0.022 A 
BRANCH  64  67
ATOM     67  S   UNL A   1      41.218  28.585  26.559  1.00  0.00     0.127 S 
ATOM     68  O   UNL A   1      42.266  29.360  25.895  1.00  0.00    -0.237 OA
ATOM     69  O   UNL A   1      41.233  27.154  26.258  1.00  0.00    -0.237 OA
ATOM     70  O   UNL A   1      39.897  29.196  26.554  1.00  0.00    -0.744 OA
ENDBRANCH  64  67
ENDBRANCH  46  60
BRANCH  47  71
ATOM     71  C   UNL A   1      44.016  38.456  35.023  1.00  0.00     0.023 A 
ATOM     72  C   UNL A   1      44.606  38.489  36.302  1.00  0.00     0.012 A 
ATOM     73  C   UNL A   1      43.636  39.666  34.411  1.00  0.00     0.148 A 
ATOM     74  C   UNL A   1      44.770  39.698  36.980  1.00  0.00     0.002 A 
ATOM     75  C   UNL A   1      43.850  40.871  35.070  1.00  0.00     0.091 A 
ATOM     76  F   UNL A   1      43.072  39.614  33.196  1.00  0.00    -0.205 F 
ATOM     77  C   UNL A   1      44.397  40.889  36.362  1.00  0.00     0.022 A 
BRANCH  75  78
ATOM     78  S   UNL A   1      43.502  42.462  34.312  1.00  0.00     0.127 S 
ATOM     79  O   UNL A   1      42.057  42.387  34.112  1.00  0.00    -0.237 OA
ATOM     80  O   UNL A   1      43.932  43.392  35.357  1.00  0.00    -0.237 OA
ATOM     81  O   UNL A   1      44.306  42.503  33.099  1.00  0.00    -0.744 OA
ENDBRANCH  75  78
ENDBRANCH  47  71
BRANCH  59  82
ATOM     82  C   UNL A   1      38.740  33.883  35.013  1.00  0.00     0.023 A 
ATOM     83  C   UNL A   1      37.554  34.207  34.326  1.00  0.00     0.012 A 
ATOM     84  C   UNL A   1      38.669  33.437  36.348  1.00  0.00     0.148 A 
ATOM     85  C   UNL A   1      36.319  34.115  34.966  1.00  0.00     0.002 A 
ATOM     86  C   UNL A   1      37.432  33.292  36.961  1.00  0.00     0.091 A 
ATOM     87  F   UNL A   1      39.812  33.150  36.988  1.00  0.00    -0.205 F 
ATOM     88  C   UNL A   1      36.257  33.645  36.277  1.00  0.00     0.022 A 
BRANCH  86  89
ATOM     89  S   UNL A   1      37.248  32.589  38.603  1.00  0.00     0.127 S 
ATOM     90  O   UNL A   1      37.837  31.262  38.427  1.00  0.00    -0.237 OA
ATOM     91  O   UNL A   1      38.041  33.506  39.422  1.00  0.00    -0.237 OA
ATOM     92  O   UNL A   1      35.819  32.603  38.889  1.00  0.00    -0.744 OA
ENDBRANCH  86  89
ENDBRANCH  59  82
ENDBRANCH  33  34
ENDBRANCH  26  28
ENDBRANCH  25  26
ENDBRANCH  24  25
ENDBRANCH  23  24
ENDBRANCH  22  23
ENDBRANCH  20  22
ENDBRANCH  19  20
ENDBRANCH  18  19
ENDBRANCH   1  18
TORSDOF 27
ENDMDL
MODEL 3
REMARK VINA RESULT:      -7.9      6.895     15.621
REMARK SMILES CC/C=C/C/C=C/C/C=C/C/C=C/CCSCCCC(=O)OCCOC(=O)c1ccc(-c2c3nc(c(-c4cccc(S(=O)(=O)[O-])c4F)c4ccc([nH]4)c(-c4cccc(S(=O)(=O)[O-])c4F)c4nc(c(-c5cccc(S(=O)(=O)[O-])c5F)c5ccc2[nH]5)C=C4)C=C3)cc1
REMARK SMILES IDX 17 1 16 2 15 3 14 4 13 5 12 6 11 7 10 8 9 9 8 10 7 11 6 12
REMARK SMILES IDX 5 13 4 14 3 15 2 16 1 17 18 18 19 19 20 20 21 21 22 22 23 23
REMARK SMILES IDX 24 24 25 25 26 26 27 27 28 28 29 29 90 30 30 31 89 32 31 33
REMARK SMILES IDX 32 34 33 35 83 36 34 37 88 38 82 39 84 40 35 41 87 42 81 43
REMARK SMILES IDX 80 44 36 46 68 47 48 48 67 49 49 50 52 51 66 52 85 53 50 54
REMARK SMILES IDX 51 55 65 57 86 58 53 59 37 60 38 61 46 62 39 63 41 64 47 65
REMARK SMILES IDX 40 66 42 67 43 68 44 69 45 70 69 71 70 72 78 73 71 74 73 75
REMARK SMILES IDX 79 76 72 77 74 78 75 79 76 80 77 81 54 82 55 83 63 84 56 85
REMARK SMILES IDX 58 86 64 87 57 88 59 89 60 90 61 91 62 92
REMARK H PARENT 84 45 52 56
REMARK Flexibility Score: inf
ROOT
ATOM      1  C   UNL A   1      43.794  20.933  25.383  1.00  0.00     0.070 C 
ENDROOT
BRANCH   1   2
ATOM      2  S   UNL A   1      42.295  20.475  26.329  1.00  0.00    -0.162 SA
BRANCH   2   3
ATOM      3  C   UNL A   1      41.119  21.877  26.174  1.00  0.00     0.073 C 
BRANCH   3   4
ATOM      4  C   UNL A   1      40.843  22.734  27.424  1.00  0.00     0.038 C 
BRANCH   4   5
ATOM      5  C   UNL A   1      40.084  24.019  27.196  1.00  0.00    -0.030 C 
ATOM      6  C   UNL A   1      40.034  25.044  28.072  1.00  0.00    -0.027 C 
BRANCH   6   7
ATOM      7  C   UNL A   1      39.282  26.353  27.902  1.00  0.00     0.054 C 
BRANCH   7   8
ATOM      8  C   UNL A   1      39.791  27.435  28.819  1.00  0.00    -0.027 C 
ATOM      9  C   UNL A   1      40.681  28.384  28.475  1.00  0.00    -0.027 C 
BRANCH   9  10
ATOM     10  C   UNL A   1      41.110  29.486  29.408  1.00  0.00     0.054 C 
BRANCH  10  11
ATOM     11  C   UNL A   1      42.571  29.784  29.310  1.00  0.00    -0.027 C 
ATOM     12  C   UNL A   1      43.091  30.822  28.634  1.00  0.00    -0.027 C 
BRANCH  12  13
ATOM     13  C   UNL A   1      44.571  31.041  28.476  1.00  0.00     0.054 C 
BRANCH  13  14
ATOM     14  C   UNL A   1      45.217  30.858  29.819  1.00  0.00    -0.027 C 
ATOM     15  C   UNL A   1      46.459  31.261  30.126  1.00  0.00    -0.031 C 
BRANCH  15  16
ATOM     16  C   UNL A   1      47.110  30.985  31.447  1.00  0.00     0.023 C 
ATOM     17  C   UNL A   1      48.120  32.072  31.780  1.00  0.00     0.008 C 
ENDBRANCH  15  16
ENDBRANCH  13  14
ENDBRANCH  12  13
ENDBRANCH  10  11
ENDBRANCH   9  10
ENDBRANCH   7   8
ENDBRANCH   6   7
ENDBRANCH   4   5
ENDBRANCH   3   4
ENDBRANCH   2   3
ENDBRANCH   1   2
BRANCH   1  18
ATOM     18  C   UNL A   1      43.939  22.313  24.731  1.00  0.00     0.023 C 
BRANCH  18  19
ATOM     19  C   UNL A   1      45.216  22.609  23.969  1.00  0.00     0.123 C 
BRANCH  19  20
ATOM     20  C   UNL A   1      46.277  23.327  24.760  1.00  0.00     0.305 C 
ATOM     21  O   UNL A   1      46.543  23.009  25.908  1.00  0.00    -0.252 OA
BRANCH  20  22
ATOM     22  O   UNL A   1      46.831  24.369  24.087  1.00  0.00    -0.462 OA
BRANCH  22  23
ATOM     23  C   UNL A   1      46.952  25.613  24.793  1.00  0.00     0.274 C 
BRANCH  23  24
ATOM     24  C   UNL A   1      45.623  26.188  25.270  1.00  0.00     0.275 C 
BRANCH  24  25
ATOM     25  O   UNL A   1      45.581  26.356  26.690  1.00  0.00    -0.458 OA
BRANCH  25  26
ATOM     26  C   UNL A   1      44.425  25.947  27.266  1.00  0.00     0.338 C 
ATOM     27  O   UNL A   1      43.561  25.239  26.783  1.00  0.00    -0.246 OA
BRANCH  26  28
ATOM     28  C   UNL A   1      44.402  26.408  28.654  1.00  0.00     0.060 A 
ATOM     29  C   UNL A   1      45.506  27.104  29.159  1.00  0.00     0.016 A 
ATOM     30  C   UNL A   1      43.323  26.081  29.469  1.00  0.00     0.016 A 
ATOM     31  C   UNL A   1      45.557  27.455  30.497  1.00  0.00     0.010 A 
ATOM     32  C   UNL A   1      43.365  26.445  30.811  1.00  0.00     0.010 A 
ATOM     33  C   UNL A   1      44.498  27.100  31.334  1.00  0.00    -0.014 A 
BRANCH  33  34
ATOM     34  C   UNL A   1      44.659  27.225  32.793  1.00  0.00     0.031 A 
ATOM     35  C   UNL A   1      44.208  28.506  33.428  1.00  0.00     0.074 A 
ATOM     36  C   UNL A   1      45.187  26.227  33.522  1.00  0.00     0.049 A 
ATOM     37  N   UNL A   1      44.372  28.925  34.651  1.00  0.00    -0.248 NA
ATOM     38  C   UNL A   1      43.492  29.455  32.554  1.00  0.00     0.031 C 
ATOM     39  C   UNL A   1      45.605  24.924  33.007  1.00  0.00     0.029 A 
ATOM     40  N   UNL A   1      45.481  26.171  34.859  1.00  0.00    -0.354 N 
ATOM     41  C   UNL A   1      43.847  30.210  34.674  1.00  0.00     0.074 A 
ATOM     42  C   UNL A   1      43.371  30.509  33.344  1.00  0.00     0.031 C 
ATOM     43  C   UNL A   1      46.133  24.205  34.013  1.00  0.00     0.029 A 
ATOM     44  C   UNL A   1      46.121  25.012  35.228  1.00  0.00     0.049 A 
ATOM     45  H   UNL A   1      45.257  26.890  35.493  1.00  0.00     0.167 HD
ATOM     46  C   UNL A   1      43.758  31.059  35.721  1.00  0.00     0.034 A 
ATOM     47  C   UNL A   1      46.661  24.665  36.412  1.00  0.00     0.034 A 
ATOM     48  C   UNL A   1      44.188  30.723  37.048  1.00  0.00     0.049 A 
ATOM     49  C   UNL A   1      46.560  25.638  37.559  1.00  0.00     0.074 A 
ATOM     50  C   UNL A   1      44.102  31.483  38.198  1.00  0.00     0.029 A 
ATOM     51  N   UNL A   1      44.786  29.523  37.398  1.00  0.00    -0.354 N 
ATOM     52  N   UNL A   1      45.994  26.821  37.594  1.00  0.00    -0.248 NA
ATOM     53  C   UNL A   1      47.148  25.217  38.837  1.00  0.00     0.031 C 
ATOM     54  C   UNL A   1      44.680  30.753  39.240  1.00  0.00     0.029 A 
ATOM     55  C   UNL A   1      45.086  29.522  38.747  1.00  0.00     0.049 A 
ATOM     56  H   UNL A   1      44.970  28.780  36.778  1.00  0.00     0.167 HD
ATOM     57  C   UNL A   1      46.114  27.265  38.906  1.00  0.00     0.074 A 
ATOM     58  C   UNL A   1      46.796  26.216  39.636  1.00  0.00     0.031 C 
ATOM     59  C   UNL A   1      45.709  28.436  39.458  1.00  0.00     0.034 A 
BRANCH  46  60
ATOM     60  C   UNL A   1      43.179  32.422  35.459  1.00  0.00     0.023 A 
ATOM     61  C   UNL A   1      44.021  33.492  35.092  1.00  0.00     0.012 A 
ATOM     62  C   UNL A   1      41.794  32.639  35.576  1.00  0.00     0.148 A 
ATOM     63  C   UNL A   1      43.498  34.767  34.890  1.00  0.00     0.002 A 
ATOM     64  C   UNL A   1      41.273  33.900  35.320  1.00  0.00     0.091 A 
ATOM     65  F   UNL A   1      41.016  31.615  35.954  1.00  0.00    -0.205 F 
ATOM     66  C   UNL A   1      42.125  34.969  34.994  1.00  0.00     0.022 A 
BRANCH  64  67
ATOM     67  S   UNL A   1      39.512  34.244  35.350  1.00  0.00     0.127 S 
ATOM     68  O   UNL A   1      39.145  33.794  36.692  1.00  0.00    -0.237 OA
ATOM     69  O   UNL A   1      39.482  35.694  35.163  1.00  0.00    -0.237 OA
ATOM     70  O   UNL A   1      38.932  33.476  34.257  1.00  0.00    -0.744 OA
ENDBRANCH  64  67
ENDBRANCH  46  60
BRANCH  47  71
ATOM     71  C   UNL A   1      47.316  23.339  36.587  1.00  0.00     0.023 A 
ATOM     72  C   UNL A   1      48.617  23.140  36.083  1.00  0.00     0.012 A 
ATOM     73  C   UNL A   1      46.661  22.275  37.236  1.00  0.00     0.148 A 
ATOM     74  C   UNL A   1      49.234  21.892  36.180  1.00  0.00     0.002 A 
ATOM     75  C   UNL A   1      47.302  21.050  37.374  1.00  0.00     0.091 A 
ATOM     76  F   UNL A   1      45.422  22.482  37.704  1.00  0.00    -0.205 F 
ATOM     77  C   UNL A   1      48.580  20.850  36.830  1.00  0.00     0.022 A 
BRANCH  75  78
ATOM     78  S   UNL A   1      46.585  19.681  38.290  1.00  0.00     0.127 S 
ATOM     79  O   UNL A   1      45.610  19.162  37.333  1.00  0.00    -0.237 OA
ATOM     80  O   UNL A   1      47.750  18.824  38.508  1.00  0.00    -0.237 OA
ATOM     81  O   UNL A   1      46.029  20.267  39.501  1.00  0.00    -0.744 OA
ENDBRANCH  75  78
ENDBRANCH  47  71
BRANCH  59  82
ATOM     82  C   UNL A   1      45.932  28.625  40.934  1.00  0.00     0.023 A 
ATOM     83  C   UNL A   1      44.991  28.135  41.861  1.00  0.00     0.012 A 
ATOM     84  C   UNL A   1      47.127  29.208  41.400  1.00  0.00     0.148 A 
ATOM     85  C   UNL A   1      45.225  28.248  43.230  1.00  0.00     0.002 A 
ATOM     86  C   UNL A   1      47.379  29.265  42.764  1.00  0.00     0.091 A 
ATOM     87  F   UNL A   1      48.000  29.683  40.500  1.00  0.00    -0.205 F 
ATOM     88  C   UNL A   1      46.423  28.799  43.681  1.00  0.00     0.022 A 
BRANCH  86  89
ATOM     89  S   UNL A   1      48.939  29.853  43.430  1.00  0.00     0.127 S 
ATOM     90  O   UNL A   1      49.049  31.173  42.810  1.00  0.00    -0.237 OA
ATOM     91  O   UNL A   1      48.671  29.875  44.868  1.00  0.00    -0.237 OA
ATOM     92  O   UNL A   1      49.945  28.884  43.016  1.00  0.00    -0.744 OA
ENDBRANCH  86  89
ENDBRANCH  59  82
ENDBRANCH  33  34
ENDBRANCH  26  28
ENDBRANCH  25  26
ENDBRANCH  24  25
ENDBRANCH  23  24
ENDBRANCH  22  23
ENDBRANCH  20  22
ENDBRANCH  19  20
ENDBRANCH  18  19
ENDBRANCH   1  18
TORSDOF 27
ENDMDL
