MODEL 1
REMARK VINA RESULT:     -11.8      0.000      0.000
REMARK SMILES C[C@H]1CC[C@@](Nc2ccc(C(N)=O)nn2)(C(=O)OCCOC(=O)c2ccc(-c3c4nc(c(-c5cccc(S(=O)(=O)[O-])c5F)c5ccc([nH]5)c(-c5cccc(S(=O)(=O)[O-])c5F)c5nc(c(-c6cccc(S(=O)(=O)[O-])c6F)c6ccc3[nH]6)C=C5)C=C4)cc2)CC1
REMARK SMILES IDX 19 1 18 2 16 3 17 4 5 5 1 6 2 7 88 8 3 9 87 10 4 11 6 12
REMARK SMILES IDX 7 14 8 15 15 16 9 17 14 18 10 19 11 20 12 21 13 22 20 25
REMARK SMILES IDX 21 26 22 27 23 28 24 29 25 30 86 31 26 32 85 33 27 34 28 35
REMARK SMILES IDX 29 36 79 37 30 38 84 39 78 40 80 41 31 42 83 43 77 44 76 45
REMARK SMILES IDX 32 47 64 48 44 49 63 50 45 51 48 52 62 53 81 54 46 55 47 56
REMARK SMILES IDX 61 58 82 59 49 60 33 61 34 62 42 63 35 64 37 65 43 66 36 67
REMARK SMILES IDX 38 68 39 69 40 70 41 71 65 72 66 73 74 74 67 75 69 76 75 77
REMARK SMILES IDX 68 78 70 79 71 80 72 81 73 82 50 83 51 84 59 85 52 86 54 87
REMARK SMILES IDX 60 88 53 89 55 90 56 91 57 92 58 93
REMARK H PARENT 6 13 12 23 12 24 80 46 48 57
REMARK Flexibility Score: inf
ROOT
ATOM      1  C   UNL A   1      31.408  27.862  26.268  1.00  0.00     0.274 C 
ENDROOT
BRANCH   1   2
ATOM      2  O   UNL A   1      32.359  26.852  25.869  1.00  0.00    -0.460 OA
BRANCH   2   3
ATOM      3  C   UNL A   1      31.874  25.577  25.871  1.00  0.00     0.331 C 
ATOM      4  O   UNL A   1      31.343  25.068  26.853  1.00  0.00    -0.249 OA
BRANCH   3   5
ATOM      5  C   UNL A   1      32.194  24.779  24.567  1.00  0.00     0.137 C 
ATOM      6  C   UNL A   1      36.056  23.150  25.970  1.00  0.00     0.007 C 
ATOM      7  C   UNL A   1      34.868  23.422  25.042  1.00  0.00    -0.014 C 
ATOM      8  C   UNL A   1      34.750  24.920  24.766  1.00  0.00     0.006 C 
ATOM      9  C   UNL A   1      33.575  22.891  25.665  1.00  0.00     0.006 C 
ATOM     10  C   UNL A   1      33.514  25.300  23.951  1.00  0.00     0.041 C 
ATOM     11  C   UNL A   1      32.348  23.258  24.829  1.00  0.00     0.041 C 
BRANCH   5  12
ATOM     12  N   UNL A   1      31.113  24.944  23.536  1.00  0.00    -0.353 N 
ATOM     13  H   UNL A   1      30.903  24.192  22.936  1.00  0.00     0.163 HD
BRANCH  12  14
ATOM     14  C   UNL A   1      30.406  26.128  23.410  1.00  0.00     0.149 A 
ATOM     15  C   UNL A   1      29.122  26.307  23.909  1.00  0.00     0.051 A 
ATOM     16  N   UNL A   1      30.996  27.112  22.700  1.00  0.00    -0.132 NA
ATOM     17  C   UNL A   1      28.396  27.444  23.562  1.00  0.00     0.040 A 
ATOM     18  N   UNL A   1      30.303  28.249  22.364  1.00  0.00    -0.143 NA
ATOM     19  C   UNL A   1      29.018  28.384  22.768  1.00  0.00     0.150 A 
BRANCH  19  20
ATOM     20  C   UNL A   1      28.289  29.589  22.275  1.00  0.00     0.269 C 
ATOM     21  N   UNL A   1      27.551  30.263  23.218  1.00  0.00    -0.364 N 
ATOM     22  O   UNL A   1      28.344  29.972  21.121  1.00  0.00    -0.268 OA
ATOM     23  H   UNL A   1      27.521  29.935  24.146  1.00  0.00     0.160 HD
ATOM     24  H   UNL A   1      27.051  31.073  22.966  1.00  0.00     0.160 HD
ENDBRANCH  19  20
ENDBRANCH  12  14
ENDBRANCH   5  12
ENDBRANCH   3   5
ENDBRANCH   2   3
ENDBRANCH   1   2
BRANCH   1  25
ATOM     25  C   UNL A   1      31.896  29.281  25.966  1.00  0.00     0.275 C 
BRANCH  25  26
ATOM     26  O   UNL A   1      31.979  30.058  27.172  1.00  0.00    -0.458 OA
BRANCH  26  27
ATOM     27  C   UNL A   1      32.742  31.176  27.117  1.00  0.00     0.338 C 
ATOM     28  O   UNL A   1      32.351  32.298  26.835  1.00  0.00    -0.246 OA
BRANCH  27  29
ATOM     29  C   UNL A   1      34.143  30.897  27.521  1.00  0.00     0.060 A 
ATOM     30  C   UNL A   1      34.542  29.615  27.879  1.00  0.00     0.016 A 
ATOM     31  C   UNL A   1      35.030  31.956  27.719  1.00  0.00     0.016 A 
ATOM     32  C   UNL A   1      35.716  29.418  28.602  1.00  0.00     0.010 A 
ATOM     33  C   UNL A   1      36.289  31.724  28.294  1.00  0.00     0.010 A 
ATOM     34  C   UNL A   1      36.631  30.458  28.802  1.00  0.00    -0.014 A 
BRANCH  34  35
ATOM     35  C   UNL A   1      37.908  30.218  29.548  1.00  0.00     0.031 A 
ATOM     36  C   UNL A   1      39.031  29.413  28.930  1.00  0.00     0.074 A 
ATOM     37  C   UNL A   1      38.086  30.725  30.788  1.00  0.00     0.049 A 
ATOM     38  N   UNL A   1      40.101  28.919  29.501  1.00  0.00    -0.248 NA
ATOM     39  C   UNL A   1      38.928  29.100  27.495  1.00  0.00     0.031 C 
ATOM     40  C   UNL A   1      37.108  31.530  31.525  1.00  0.00     0.029 A 
ATOM     41  N   UNL A   1      39.153  30.645  31.653  1.00  0.00    -0.354 N 
ATOM     42  C   UNL A   1      40.734  28.149  28.531  1.00  0.00     0.074 A 
ATOM     43  C   UNL A   1      39.945  28.267  27.324  1.00  0.00     0.031 C 
ATOM     44  C   UNL A   1      37.640  31.927  32.687  1.00  0.00     0.029 A 
ATOM     45  C   UNL A   1      38.943  31.298  32.847  1.00  0.00     0.049 A 
ATOM     46  H   UNL A   1      39.986  30.168  31.438  1.00  0.00     0.167 HD
ATOM     47  C   UNL A   1      41.867  27.411  28.637  1.00  0.00     0.034 A 
ATOM     48  C   UNL A   1      39.676  31.345  33.977  1.00  0.00     0.034 A 
ATOM     49  C   UNL A   1      42.713  27.388  29.802  1.00  0.00     0.049 A 
ATOM     50  C   UNL A   1      40.955  30.567  34.050  1.00  0.00     0.074 A 
ATOM     51  C   UNL A   1      43.906  26.705  29.986  1.00  0.00     0.029 A 
ATOM     52  N   UNL A   1      42.478  28.096  30.970  1.00  0.00    -0.354 N 
ATOM     53  N   UNL A   1      41.527  29.837  33.124  1.00  0.00    -0.248 NA
ATOM     54  C   UNL A   1      41.685  30.613  35.323  1.00  0.00     0.031 C 
ATOM     55  C   UNL A   1      44.390  27.002  31.265  1.00  0.00     0.029 A 
ATOM     56  C   UNL A   1      43.504  27.877  31.874  1.00  0.00     0.049 A 
ATOM     57  H   UNL A   1      41.697  28.672  31.132  1.00  0.00     0.167 HD
ATOM     58  C   UNL A   1      42.682  29.329  33.704  1.00  0.00     0.074 A 
ATOM     59  C   UNL A   1      42.753  29.878  35.044  1.00  0.00     0.031 C 
ATOM     60  C   UNL A   1      43.582  28.456  33.189  1.00  0.00     0.034 A 
BRANCH  47  61
ATOM     61  C   UNL A   1      42.282  26.575  27.453  1.00  0.00     0.023 A 
ATOM     62  C   UNL A   1      43.101  27.129  26.449  1.00  0.00     0.012 A 
ATOM     63  C   UNL A   1      41.924  25.213  27.378  1.00  0.00     0.148 A 
ATOM     64  C   UNL A   1      43.536  26.348  25.377  1.00  0.00     0.002 A 
ATOM     65  C   UNL A   1      42.396  24.431  26.328  1.00  0.00     0.091 A 
ATOM     66  F   UNL A   1      41.125  24.709  28.328  1.00  0.00    -0.205 F 
ATOM     67  C   UNL A   1      43.195  24.998  25.324  1.00  0.00     0.022 A 
BRANCH  65  68
ATOM     68  S   UNL A   1      42.075  22.665  26.223  1.00  0.00     0.127 S 
ATOM     69  O   UNL A   1      42.737  22.320  24.967  1.00  0.00    -0.237 OA
ATOM     70  O   UNL A   1      42.741  22.155  27.422  1.00  0.00    -0.237 OA
ATOM     71  O   UNL A   1      40.626  22.523  26.231  1.00  0.00    -0.744 OA
ENDBRANCH  65  68
ENDBRANCH  47  61
BRANCH  48  72
ATOM     72  C   UNL A   1      39.193  32.156  35.133  1.00  0.00     0.023 A 
ATOM     73  C   UNL A   1      38.356  31.561  36.095  1.00  0.00     0.012 A 
ATOM     74  C   UNL A   1      39.624  33.484  35.326  1.00  0.00     0.148 A 
ATOM     75  C   UNL A   1      37.957  32.275  37.227  1.00  0.00     0.002 A 
ATOM     76  C   UNL A   1      39.288  34.160  36.492  1.00  0.00     0.091 A 
ATOM     77  F   UNL A   1      40.389  34.050  34.381  1.00  0.00    -0.205 F 
ATOM     78  C   UNL A   1      38.441  33.564  37.437  1.00  0.00     0.022 A 
BRANCH  76  79
ATOM     79  S   UNL A   1      40.039  35.737  36.910  1.00  0.00     0.127 S 
ATOM     80  O   UNL A   1      41.455  35.393  36.966  1.00  0.00    -0.237 OA
ATOM     81  O   UNL A   1      39.651  36.577  35.774  1.00  0.00    -0.237 OA
ATOM     82  O   UNL A   1      39.420  36.129  38.170  1.00  0.00    -0.744 OA
ENDBRANCH  76  79
ENDBRANCH  48  72
BRANCH  60  83
ATOM     83  C   UNL A   1      44.720  28.046  34.084  1.00  0.00     0.023 A 
ATOM     84  C   UNL A   1      45.906  28.807  34.084  1.00  0.00     0.012 A 
ATOM     85  C   UNL A   1      44.613  26.928  34.932  1.00  0.00     0.148 A 
ATOM     86  C   UNL A   1      46.984  28.439  34.887  1.00  0.00     0.002 A 
ATOM     87  C   UNL A   1      45.677  26.591  35.760  1.00  0.00     0.091 A 
ATOM     88  F   UNL A   1      43.487  26.201  34.900  1.00  0.00    -0.205 F 
ATOM     89  C   UNL A   1      46.867  27.337  35.732  1.00  0.00     0.022 A 
BRANCH  87  90
ATOM     90  S   UNL A   1      45.573  25.231  36.929  1.00  0.00     0.127 S 
ATOM     91  O   UNL A   1      45.359  24.090  36.042  1.00  0.00    -0.237 OA
ATOM     92  O   UNL A   1      46.887  25.263  37.574  1.00  0.00    -0.237 OA
ATOM     93  O   UNL A   1      44.464  25.563  37.815  1.00  0.00    -0.744 OA
ENDBRANCH  87  90
ENDBRANCH  60  83
ENDBRANCH  34  35
ENDBRANCH  27  29
ENDBRANCH  26  27
ENDBRANCH  25  26
ENDBRANCH   1  25
TORSDOF 17
ENDMDL
MODEL 2
REMARK VINA RESULT:     -11.8      5.439     10.213
REMARK SMILES C[C@H]1CC[C@@](Nc2ccc(C(N)=O)nn2)(C(=O)OCCOC(=O)c2ccc(-c3c4nc(c(-c5cccc(S(=O)(=O)[O-])c5F)c5ccc([nH]5)c(-c5cccc(S(=O)(=O)[O-])c5F)c5nc(c(-c6cccc(S(=O)(=O)[O-])c6F)c6ccc3[nH]6)C=C5)C=C4)cc2)CC1
REMARK SMILES IDX 19 1 18 2 16 3 17 4 5 5 1 6 2 7 88 8 3 9 87 10 4 11 6 12
REMARK SMILES IDX 7 14 8 15 15 16 9 17 14 18 10 19 11 20 12 21 13 22 20 25
REMARK SMILES IDX 21 26 22 27 23 28 24 29 25 30 86 31 26 32 85 33 27 34 28 35
REMARK SMILES IDX 29 36 79 37 30 38 84 39 78 40 80 41 31 42 83 43 77 44 76 45
REMARK SMILES IDX 32 47 64 48 44 49 63 50 45 51 48 52 62 53 81 54 46 55 47 56
REMARK SMILES IDX 61 58 82 59 49 60 33 61 34 62 42 63 35 64 37 65 43 66 36 67
REMARK SMILES IDX 38 68 39 69 40 70 41 71 65 72 66 73 74 74 67 75 69 76 75 77
REMARK SMILES IDX 68 78 70 79 71 80 72 81 73 82 50 83 51 84 59 85 52 86 54 87
REMARK SMILES IDX 60 88 53 89 55 90 56 91 57 92 58 93
REMARK H PARENT 6 13 12 23 12 24 80 46 48 57
REMARK Flexibility Score: inf
ROOT
ATOM      1  C   UNL A   1      35.860  21.097  24.661  1.00  0.00     0.274 C 
ENDROOT
BRANCH   1   2
ATOM      2  O   UNL A   1      35.046  22.264  24.417  1.00  0.00    -0.460 OA
BRANCH   2   3
ATOM      3  C   UNL A   1      34.183  22.579  25.424  1.00  0.00     0.331 C 
ATOM      4  O   UNL A   1      34.459  22.431  26.610  1.00  0.00    -0.249 OA
BRANCH   3   5
ATOM      5  C   UNL A   1      32.761  22.996  24.928  1.00  0.00     0.137 C 
ATOM      6  C   UNL A   1      33.730  27.264  24.314  1.00  0.00     0.007 C 
ATOM      7  C   UNL A   1      32.907  25.973  24.351  1.00  0.00    -0.014 C 
ATOM      8  C   UNL A   1      32.863  25.419  25.773  1.00  0.00     0.006 C 
ATOM      9  C   UNL A   1      33.502  24.937  23.393  1.00  0.00     0.006 C 
ATOM     10  C   UNL A   1      32.170  24.060  25.883  1.00  0.00     0.041 C 
ATOM     11  C   UNL A   1      32.787  23.589  23.496  1.00  0.00     0.041 C 
BRANCH   5  12
ATOM     12  N   UNL A   1      31.817  21.827  24.907  1.00  0.00    -0.353 N 
ATOM     13  H   UNL A   1      30.852  21.989  25.021  1.00  0.00     0.163 HD
BRANCH  12  14
ATOM     14  C   UNL A   1      32.270  20.530  24.733  1.00  0.00     0.149 A 
ATOM     15  C   UNL A   1      32.518  19.971  23.485  1.00  0.00     0.051 A 
ATOM     16  N   UNL A   1      32.399  19.779  25.846  1.00  0.00    -0.132 NA
ATOM     17  C   UNL A   1      32.766  18.604  23.376  1.00  0.00     0.040 A 
ATOM     18  N   UNL A   1      32.662  18.435  25.760  1.00  0.00    -0.143 NA
ATOM     19  C   UNL A   1      32.809  17.866  24.540  1.00  0.00     0.150 A 
BRANCH  19  20
ATOM     20  C   UNL A   1      32.982  16.384  24.513  1.00  0.00     0.269 C 
ATOM     21  N   UNL A   1      32.147  15.675  25.342  1.00  0.00    -0.364 N 
ATOM     22  O   UNL A   1      33.793  15.823  23.801  1.00  0.00    -0.268 OA
ATOM     23  H   UNL A   1      31.497  16.149  25.910  1.00  0.00     0.160 HD
ATOM     24  H   UNL A   1      32.198  14.692  25.369  1.00  0.00     0.160 HD
ENDBRANCH  19  20
ENDBRANCH  12  14
ENDBRANCH   5  12
ENDBRANCH   3   5
ENDBRANCH   2   3
ENDBRANCH   1   2
BRANCH   1  25
ATOM     25  C   UNL A   1      37.357  21.414  24.664  1.00  0.00     0.275 C 
BRANCH  25  26
ATOM     26  O   UNL A   1      37.855  21.502  26.010  1.00  0.00    -0.458 OA
BRANCH  26  27
ATOM     27  C   UNL A   1      39.201  21.565  26.151  1.00  0.00     0.338 C 
ATOM     28  O   UNL A   1      40.007  20.758  25.713  1.00  0.00    -0.246 OA
BRANCH  27  29
ATOM     29  C   UNL A   1      39.615  22.802  26.860  1.00  0.00     0.060 A 
ATOM     30  C   UNL A   1      39.050  24.031  26.541  1.00  0.00     0.016 A 
ATOM     31  C   UNL A   1      40.706  22.769  27.729  1.00  0.00     0.016 A 
ATOM     32  C   UNL A   1      39.680  25.215  26.918  1.00  0.00     0.010 A 
ATOM     33  C   UNL A   1      41.233  23.964  28.246  1.00  0.00     0.010 A 
ATOM     34  C   UNL A   1      40.767  25.213  27.801  1.00  0.00    -0.014 A 
BRANCH  34  35
ATOM     35  C   UNL A   1      41.406  26.500  28.226  1.00  0.00     0.031 A 
ATOM     36  C   UNL A   1      40.625  27.538  29.001  1.00  0.00     0.074 A 
ATOM     37  C   UNL A   1      42.700  26.753  27.932  1.00  0.00     0.049 A 
ATOM     38  N   UNL A   1      40.938  28.785  29.254  1.00  0.00    -0.248 NA
ATOM     39  C   UNL A   1      39.314  27.137  29.537  1.00  0.00     0.031 C 
ATOM     40  C   UNL A   1      43.597  25.856  27.200  1.00  0.00     0.029 A 
ATOM     41  N   UNL A   1      43.495  27.841  28.216  1.00  0.00    -0.354 N 
ATOM     42  C   UNL A   1      39.825  29.343  29.875  1.00  0.00     0.074 A 
ATOM     43  C   UNL A   1      38.839  28.290  29.990  1.00  0.00     0.031 C 
ATOM     44  C   UNL A   1      44.824  26.389  27.155  1.00  0.00     0.029 A 
ATOM     45  C   UNL A   1      44.778  27.724  27.731  1.00  0.00     0.049 A 
ATOM     46  H   UNL A   1      43.177  28.626  28.717  1.00  0.00     0.167 HD
ATOM     47  C   UNL A   1      39.642  30.614  30.307  1.00  0.00     0.034 A 
ATOM     48  C   UNL A   1      45.799  28.605  27.691  1.00  0.00     0.034 A 
ATOM     49  C   UNL A   1      40.663  31.629  30.299  1.00  0.00     0.049 A 
ATOM     50  C   UNL A   1      45.590  29.988  28.228  1.00  0.00     0.074 A 
ATOM     51  C   UNL A   1      40.584  32.934  30.759  1.00  0.00     0.029 A 
ATOM     52  N   UNL A   1      41.958  31.451  29.835  1.00  0.00    -0.354 N 
ATOM     53  N   UNL A   1      44.525  30.496  28.800  1.00  0.00    -0.248 NA
ATOM     54  C   UNL A   1      46.718  30.921  28.111  1.00  0.00     0.031 C 
ATOM     55  C   UNL A   1      41.831  33.543  30.572  1.00  0.00     0.029 A 
ATOM     56  C   UNL A   1      42.689  32.615  30.005  1.00  0.00     0.049 A 
ATOM     57  H   UNL A   1      42.306  30.618  29.443  1.00  0.00     0.167 HD
ATOM     58  C   UNL A   1      44.851  31.812  29.103  1.00  0.00     0.074 A 
ATOM     59  C   UNL A   1      46.229  32.004  28.700  1.00  0.00     0.031 C 
ATOM     60  C   UNL A   1      44.068  32.783  29.632  1.00  0.00     0.034 A 
BRANCH  47  61
ATOM     61  C   UNL A   1      38.287  30.989  30.853  1.00  0.00     0.023 A 
ATOM     62  C   UNL A   1      37.991  30.783  32.215  1.00  0.00     0.012 A 
ATOM     63  C   UNL A   1      37.334  31.622  30.028  1.00  0.00     0.148 A 
ATOM     64  C   UNL A   1      36.761  31.177  32.742  1.00  0.00     0.002 A 
ATOM     65  C   UNL A   1      36.126  32.049  30.570  1.00  0.00     0.091 A 
ATOM     66  F   UNL A   1      37.621  31.789  28.730  1.00  0.00    -0.205 F 
ATOM     67  C   UNL A   1      35.834  31.821  31.924  1.00  0.00     0.022 A 
BRANCH  65  68
ATOM     68  S   UNL A   1      34.908  32.960  29.611  1.00  0.00     0.127 S 
ATOM     69  O   UNL A   1      34.350  31.907  28.766  1.00  0.00    -0.237 OA
ATOM     70  O   UNL A   1      34.000  33.453  30.648  1.00  0.00    -0.237 OA
ATOM     71  O   UNL A   1      35.649  34.002  28.914  1.00  0.00    -0.744 OA
ENDBRANCH  65  68
ENDBRANCH  47  61
BRANCH  48  72
ATOM     72  C   UNL A   1      47.104  28.190  27.099  1.00  0.00     0.023 A 
ATOM     73  C   UNL A   1      48.169  27.837  27.948  1.00  0.00     0.012 A 
ATOM     74  C   UNL A   1      47.269  28.066  25.705  1.00  0.00     0.148 A 
ATOM     75  C   UNL A   1      49.373  27.369  27.419  1.00  0.00     0.002 A 
ATOM     76  C   UNL A   1      48.440  27.526  25.190  1.00  0.00     0.091 A 
ATOM     77  F   UNL A   1      46.260  28.444  24.907  1.00  0.00    -0.205 F 
ATOM     78  C   UNL A   1      49.501  27.192  26.043  1.00  0.00     0.022 A 
BRANCH  76  79
ATOM     79  S   UNL A   1      48.587  27.089  23.453  1.00  0.00     0.127 S 
ATOM     80  O   UNL A   1      47.946  28.226  22.801  1.00  0.00    -0.237 OA
ATOM     81  O   UNL A   1      50.039  27.012  23.275  1.00  0.00    -0.237 OA
ATOM     82  O   UNL A   1      47.908  25.806  23.327  1.00  0.00    -0.744 OA
ENDBRANCH  76  79
ENDBRANCH  48  72
BRANCH  60  83
ATOM     83  C   UNL A   1      44.693  34.142  29.803  1.00  0.00     0.023 A 
ATOM     84  C   UNL A   1      45.413  34.426  30.980  1.00  0.00     0.012 A 
ATOM     85  C   UNL A   1      44.585  35.124  28.801  1.00  0.00     0.148 A 
ATOM     86  C   UNL A   1      45.986  35.682  31.174  1.00  0.00     0.002 A 
ATOM     87  C   UNL A   1      45.193  36.360  28.985  1.00  0.00     0.091 A 
ATOM     88  F   UNL A   1      43.873  34.844  27.700  1.00  0.00    -0.205 F 
ATOM     89  C   UNL A   1      45.884  36.646  30.173  1.00  0.00     0.022 A 
BRANCH  87  90
ATOM     90  S   UNL A   1      45.167  37.626  27.709  1.00  0.00     0.127 S 
ATOM     91  O   UNL A   1      43.735  37.865  27.554  1.00  0.00    -0.237 OA
ATOM     92  O   UNL A   1      45.905  38.724  28.336  1.00  0.00    -0.237 OA
ATOM     93  O   UNL A   1      45.840  37.034  26.560  1.00  0.00    -0.744 OA
ENDBRANCH  87  90
ENDBRANCH  60  83
ENDBRANCH  34  35
ENDBRANCH  27  29
ENDBRANCH  26  27
ENDBRANCH  25  26
ENDBRANCH   1  25
TORSDOF 17
ENDMDL
MODEL 3
REMARK VINA RESULT:     -11.8      5.051     10.109
REMARK SMILES C[C@H]1CC[C@@](Nc2ccc(C(N)=O)nn2)(C(=O)OCCOC(=O)c2ccc(-c3c4nc(c(-c5cccc(S(=O)(=O)[O-])c5F)c5ccc([nH]5)c(-c5cccc(S(=O)(=O)[O-])c5F)c5nc(c(-c6cccc(S(=O)(=O)[O-])c6F)c6ccc3[nH]6)C=C5)C=C4)cc2)CC1
REMARK SMILES IDX 19 1 18 2 16 3 17 4 5 5 1 6 2 7 88 8 3 9 87 10 4 11 6 12
REMARK SMILES IDX 7 14 8 15 15 16 9 17 14 18 10 19 11 20 12 21 13 22 20 25
REMARK SMILES IDX 21 26 22 27 23 28 24 29 25 30 86 31 26 32 85 33 27 34 28 35
REMARK SMILES IDX 29 36 79 37 30 38 84 39 78 40 80 41 31 42 83 43 77 44 76 45
REMARK SMILES IDX 32 47 64 48 44 49 63 50 45 51 48 52 62 53 81 54 46 55 47 56
REMARK SMILES IDX 61 58 82 59 49 60 33 61 34 62 42 63 35 64 37 65 43 66 36 67
REMARK SMILES IDX 38 68 39 69 40 70 41 71 65 72 66 73 74 74 67 75 69 76 75 77
REMARK SMILES IDX 68 78 70 79 71 80 72 81 73 82 50 83 51 84 59 85 52 86 54 87
REMARK SMILES IDX 60 88 53 89 55 90 56 91 57 92 58 93
REMARK H PARENT 6 13 12 23 12 24 80 46 48 57
REMARK Flexibility Score: inf
ROOT
ATOM      1  C   UNL A   1      36.253  22.775  23.910  1.00  0.00     0.274 C 
ENDROOT
BRANCH   1   2
ATOM      2  O   UNL A   1      34.863  22.926  24.267  1.00  0.00    -0.460 OA
BRANCH   2   3
ATOM      3  C   UNL A   1      34.052  23.330  23.248  1.00  0.00     0.331 C 
ATOM      4  O   UNL A   1      34.434  23.415  22.085  1.00  0.00    -0.249 OA
BRANCH   3   5
ATOM      5  C   UNL A   1      32.645  23.821  23.718  1.00  0.00     0.137 C 
ATOM      6  C   UNL A   1      33.786  28.063  24.205  1.00  0.00     0.007 C 
ATOM      7  C   UNL A   1      32.912  26.805  24.209  1.00  0.00    -0.014 C 
ATOM      8  C   UNL A   1      33.491  25.766  25.166  1.00  0.00     0.006 C 
ATOM      9  C   UNL A   1      32.808  26.228  22.794  1.00  0.00     0.006 C 
ATOM     10  C   UNL A   1      32.755  24.426  25.138  1.00  0.00     0.041 C 
ATOM     11  C   UNL A   1      32.051  24.899  22.776  1.00  0.00     0.041 C 
BRANCH   5  12
ATOM     12  N   UNL A   1      31.656  22.692  23.780  1.00  0.00    -0.353 N 
ATOM     13  H   UNL A   1      30.694  22.892  23.708  1.00  0.00     0.163 HD
BRANCH  12  14
ATOM     14  C   UNL A   1      32.063  21.377  23.935  1.00  0.00     0.149 A 
ATOM     15  C   UNL A   1      32.208  20.493  22.874  1.00  0.00     0.051 A 
ATOM     16  N   UNL A   1      32.253  20.948  25.201  1.00  0.00    -0.132 NA
ATOM     17  C   UNL A   1      32.415  19.138  23.124  1.00  0.00     0.040 A 
ATOM     18  N   UNL A   1      32.477  19.620  25.466  1.00  0.00    -0.143 NA
ATOM     19  C   UNL A   1      32.523  18.738  24.439  1.00  0.00     0.150 A 
BRANCH  19  20
ATOM     20  C   UNL A   1      32.656  17.298  24.804  1.00  0.00     0.269 C 
ATOM     21  N   UNL A   1      32.900  16.441  23.758  1.00  0.00    -0.364 N 
ATOM     22  O   UNL A   1      32.571  16.893  25.949  1.00  0.00    -0.268 OA
ATOM     23  H   UNL A   1      32.964  16.790  22.840  1.00  0.00     0.160 HD
ATOM     24  H   UNL A   1      33.008  15.477  23.926  1.00  0.00     0.160 HD
ENDBRANCH  19  20
ENDBRANCH  12  14
ENDBRANCH   5  12
ENDBRANCH   3   5
ENDBRANCH   2   3
ENDBRANCH   1   2
BRANCH   1  25
ATOM     25  C   UNL A   1      36.797  21.383  24.243  1.00  0.00     0.275 C 
BRANCH  25  26
ATOM     26  O   UNL A   1      37.203  21.312  25.620  1.00  0.00    -0.458 OA
BRANCH  26  27
ATOM     27  C   UNL A   1      38.532  21.186  25.850  1.00  0.00     0.338 C 
ATOM     28  O   UNL A   1      39.236  20.252  25.499  1.00  0.00    -0.246 OA
BRANCH  27  29
ATOM     29  C   UNL A   1      39.079  22.383  26.537  1.00  0.00     0.060 A 
ATOM     30  C   UNL A   1      38.586  23.652  26.262  1.00  0.00     0.016 A 
ATOM     31  C   UNL A   1      40.218  22.263  27.334  1.00  0.00     0.016 A 
ATOM     32  C   UNL A   1      39.322  24.784  26.604  1.00  0.00     0.010 A 
ATOM     33  C   UNL A   1      40.862  23.411  27.822  1.00  0.00     0.010 A 
ATOM     34  C   UNL A   1      40.460  24.695  27.415  1.00  0.00    -0.014 A 
BRANCH  34  35
ATOM     35  C   UNL A   1      41.217  25.929  27.805  1.00  0.00     0.031 A 
ATOM     36  C   UNL A   1      40.580  26.991  28.673  1.00  0.00     0.074 A 
ATOM     37  C   UNL A   1      42.491  26.111  27.394  1.00  0.00     0.049 A 
ATOM     38  N   UNL A   1      40.993  28.208  28.923  1.00  0.00    -0.248 NA
ATOM     39  C   UNL A   1      39.303  26.655  29.325  1.00  0.00     0.031 C 
ATOM     40  C   UNL A   1      43.256  25.182  26.559  1.00  0.00     0.029 A 
ATOM     41  N   UNL A   1      43.375  27.140  27.623  1.00  0.00    -0.354 N 
ATOM     42  C   UNL A   1      39.982  28.815  29.660  1.00  0.00     0.074 A 
ATOM     43  C   UNL A   1      38.946  27.821  29.846  1.00  0.00     0.031 C 
ATOM     44  C   UNL A   1      44.504  25.640  26.408  1.00  0.00     0.029 A 
ATOM     45  C   UNL A   1      44.598  26.959  27.016  1.00  0.00     0.049 A 
ATOM     46  H   UNL A   1      43.156  27.928  28.170  1.00  0.00     0.167 HD
ATOM     47  C   UNL A   1      39.920  30.083  30.136  1.00  0.00     0.034 A 
ATOM     48  C   UNL A   1      45.663  27.777  26.896  1.00  0.00     0.034 A 
ATOM     49  C   UNL A   1      40.999  31.034  30.052  1.00  0.00     0.049 A 
ATOM     50  C   UNL A   1      45.594  29.155  27.482  1.00  0.00     0.074 A 
ATOM     51  C   UNL A   1      41.046  32.328  30.546  1.00  0.00     0.029 A 
ATOM     52  N   UNL A   1      42.230  30.790  29.462  1.00  0.00    -0.354 N 
ATOM     53  N   UNL A   1      44.622  29.711  28.164  1.00  0.00    -0.248 NA
ATOM     54  C   UNL A   1      46.762  30.020  27.277  1.00  0.00     0.031 C 
ATOM     55  C   UNL A   1      42.305  32.865  30.254  1.00  0.00     0.029 A 
ATOM     56  C   UNL A   1      43.045  31.902  29.587  1.00  0.00     0.049 A 
ATOM     57  H   UNL A   1      42.486  29.949  29.020  1.00  0.00     0.167 HD
ATOM     58  C   UNL A   1      45.057  30.995  28.464  1.00  0.00     0.074 A 
ATOM     59  C   UNL A   1      46.401  31.114  27.934  1.00  0.00     0.031 C 
ATOM     60  C   UNL A   1      44.392  31.997  29.087  1.00  0.00     0.034 A 
BRANCH  47  61
ATOM     61  C   UNL A   1      38.649  30.524  30.817  1.00  0.00     0.023 A 
ATOM     62  C   UNL A   1      38.483  30.324  32.202  1.00  0.00     0.012 A 
ATOM     63  C   UNL A   1      37.652  31.211  30.095  1.00  0.00     0.148 A 
ATOM     64  C   UNL A   1      37.335  30.778  32.852  1.00  0.00     0.002 A 
ATOM     65  C   UNL A   1      36.530  31.697  30.758  1.00  0.00     0.091 A 
ATOM     66  F   UNL A   1      37.815  31.372  28.774  1.00  0.00    -0.205 F 
ATOM     67  C   UNL A   1      36.366  31.475  32.134  1.00  0.00     0.022 A 
BRANCH  65  68
ATOM     68  S   UNL A   1      35.270  32.678  29.930  1.00  0.00     0.127 S 
ATOM     69  O   UNL A   1      36.070  33.751  29.343  1.00  0.00    -0.237 OA
ATOM     70  O   UNL A   1      34.723  31.727  28.961  1.00  0.00    -0.237 OA
ATOM     71  O   UNL A   1      34.335  33.085  30.970  1.00  0.00    -0.744 OA
ENDBRANCH  65  68
ENDBRANCH  47  61
BRANCH  48  72
ATOM     72  C   UNL A   1      46.878  27.301  26.173  1.00  0.00     0.023 A 
ATOM     73  C   UNL A   1      47.080  27.677  24.833  1.00  0.00     0.012 A 
ATOM     74  C   UNL A   1      47.872  26.547  26.831  1.00  0.00     0.148 A 
ATOM     75  C   UNL A   1      48.248  27.311  24.161  1.00  0.00     0.002 A 
ATOM     76  C   UNL A   1      49.064  26.255  26.181  1.00  0.00     0.091 A 
ATOM     77  F   UNL A   1      47.648  26.163  28.096  1.00  0.00    -0.205 F 
ATOM     78  C   UNL A   1      49.249  26.621  24.840  1.00  0.00     0.022 A 
BRANCH  76  79
ATOM     79  S   UNL A   1      50.462  25.548  27.061  1.00  0.00     0.127 S 
ATOM     80  O   UNL A   1      51.448  25.404  25.995  1.00  0.00    -0.237 OA
ATOM     81  O   UNL A   1      50.766  26.587  28.047  1.00  0.00    -0.237 OA
ATOM     82  O   UNL A   1      49.957  24.312  27.644  1.00  0.00    -0.744 OA
ENDBRANCH  76  79
ENDBRANCH  48  72
BRANCH  60  83
ATOM     83  C   UNL A   1      45.114  33.309  29.227  1.00  0.00     0.023 A 
ATOM     84  C   UNL A   1      45.874  33.557  30.386  1.00  0.00     0.012 A 
ATOM     85  C   UNL A   1      45.058  34.283  28.213  1.00  0.00     0.148 A 
ATOM     86  C   UNL A   1      46.538  34.772  30.552  1.00  0.00     0.002 A 
ATOM     87  C   UNL A   1      45.755  35.476  28.367  1.00  0.00     0.091 A 
ATOM     88  F   UNL A   1      44.308  34.040  27.128  1.00  0.00    -0.205 F 
ATOM     89  C   UNL A   1      46.486  35.728  29.539  1.00  0.00     0.022 A 
BRANCH  87  90
ATOM     90  S   UNL A   1      45.796  36.722  27.074  1.00  0.00     0.127 S 
ATOM     91  O   UNL A   1      44.386  37.088  26.965  1.00  0.00    -0.237 OA
ATOM     92  O   UNL A   1      46.651  37.758  27.657  1.00  0.00    -0.237 OA
ATOM     93  O   UNL A   1      46.371  36.058  25.911  1.00  0.00    -0.744 OA
ENDBRANCH  87  90
ENDBRANCH  60  83
ENDBRANCH  34  35
ENDBRANCH  27  29
ENDBRANCH  26  27
ENDBRANCH  25  26
ENDBRANCH   1  25
TORSDOF 17
ENDMDL
