MODEL 1
REMARK VINA RESULT:     -10.7      0.000      0.000
REMARK SMILES CSCC[C@@H](NC(=O)[C@@H]1CC(=O)N(C)C1)C(=O)OCCOC(=O)c1ccc(-c2c3nc(c(-c4cccc(S(=O)(=O)[O-])c4F)c4ccc([nH]4)c(-c4cccc(S(=O)(=O)[O-])c4F)c4nc(c(-c5cccc(S(=O)(=O)[O-])c5F)c5ccc2[nH]5)C=C4)C=C3)cc1
REMARK SMILES IDX 19 1 18 2 16 3 17 4 5 5 4 6 3 7 2 8 1 9 6 10 7 11 8 13 9 14
REMARK SMILES IDX 10 15 15 16 11 17 13 18 12 19 14 20 20 21 21 22 22 23 23 24
REMARK SMILES IDX 24 25 25 26 86 27 26 28 85 29 27 30 28 31 29 32 79 33 30 34
REMARK SMILES IDX 84 35 78 36 80 37 31 38 83 39 77 40 76 41 32 43 64 44 44 45
REMARK SMILES IDX 63 46 45 47 48 48 62 49 81 50 46 51 47 52 61 54 82 55 49 56
REMARK SMILES IDX 33 57 34 58 42 59 35 60 37 61 43 62 36 63 38 64 39 65 40 66
REMARK SMILES IDX 41 67 65 68 66 69 74 70 67 71 69 72 75 73 68 74 70 75 71 76
REMARK SMILES IDX 72 77 73 78 50 79 51 80 59 81 52 82 54 83 60 84 53 85 55 86
REMARK SMILES IDX 56 87 57 88 58 89
REMARK H PARENT 6 12 80 42 48 53
REMARK Flexibility Score: inf
ROOT
ATOM      1  C   UNL A   1      31.508  28.748  26.154  1.00  0.00     0.274 C 
ENDROOT
BRANCH   1   2
ATOM      2  O   UNL A   1      32.407  28.113  25.219  1.00  0.00    -0.461 OA
BRANCH   2   3
ATOM      3  C   UNL A   1      32.119  28.338  23.911  1.00  0.00     0.328 C 
ATOM      4  O   UNL A   1      32.637  29.220  23.233  1.00  0.00    -0.250 OA
BRANCH   3   5
ATOM      5  C   UNL A   1      30.934  27.532  23.380  1.00  0.00     0.193 C 
BRANCH   5   6
ATOM      6  C   UNL A   1      31.070  26.045  23.749  1.00  0.00     0.048 C 
BRANCH   6   7
ATOM      7  C   UNL A   1      30.171  25.583  24.903  1.00  0.00     0.072 C 
BRANCH   7   8
ATOM      8  S   UNL A   1      30.869  24.215  25.890  1.00  0.00    -0.165 SA
ATOM      9  C   UNL A   1      32.592  24.746  26.067  1.00  0.00     0.085 C 
ENDBRANCH   7   8
ENDBRANCH   6   7
ENDBRANCH   5   6
BRANCH   5  10
ATOM     10  N   UNL A   1      29.588  28.036  23.724  1.00  0.00    -0.342 N 
ATOM     11  C   UNL A   1      28.789  28.936  23.078  1.00  0.00     0.226 C 
ATOM     12  H   UNL A   1      29.206  27.665  24.552  1.00  0.00     0.164 HD
ATOM     13  O   UNL A   1      27.575  28.731  23.103  1.00  0.00    -0.275 OA
BRANCH  11  14
ATOM     14  C   UNL A   1      29.381  30.197  22.479  1.00  0.00     0.107 C 
ATOM     15  C   UNL A   1      29.245  31.393  23.428  1.00  0.00     0.115 C 
ATOM     16  C   UNL A   1      28.675  30.601  21.195  1.00  0.00     0.133 C 
ATOM     17  C   UNL A   1      28.617  32.483  22.608  1.00  0.00     0.223 C 
ATOM     18  N   UNL A   1      28.309  31.979  21.367  1.00  0.00    -0.345 N 
ATOM     19  O   UNL A   1      28.448  33.630  22.997  1.00  0.00    -0.275 OA
ATOM     20  C   UNL A   1      27.733  32.738  20.281  1.00  0.00     0.146 C 
ENDBRANCH  11  14
ENDBRANCH   5  10
ENDBRANCH   3   5
ENDBRANCH   2   3
ENDBRANCH   1   2
BRANCH   1  21
ATOM     21  C   UNL A   1      31.712  30.261  26.303  1.00  0.00     0.275 C 
BRANCH  21  22
ATOM     22  O   UNL A   1      33.088  30.654  26.169  1.00  0.00    -0.458 OA
BRANCH  22  23
ATOM     23  C   UNL A   1      33.492  31.583  27.065  1.00  0.00     0.338 C 
ATOM     24  O   UNL A   1      32.812  32.499  27.515  1.00  0.00    -0.246 OA
BRANCH  23  25
ATOM     25  C   UNL A   1      34.819  31.252  27.602  1.00  0.00     0.060 A 
ATOM     26  C   UNL A   1      35.061  29.913  27.925  1.00  0.00     0.016 A 
ATOM     27  C   UNL A   1      35.773  32.231  27.882  1.00  0.00     0.016 A 
ATOM     28  C   UNL A   1      36.239  29.542  28.559  1.00  0.00     0.010 A 
ATOM     29  C   UNL A   1      36.956  31.859  28.532  1.00  0.00     0.010 A 
ATOM     30  C   UNL A   1      37.178  30.519  28.899  1.00  0.00    -0.014 A 
BRANCH  30  31
ATOM     31  C   UNL A   1      38.320  30.139  29.760  1.00  0.00     0.031 A 
ATOM     32  C   UNL A   1      39.351  29.187  29.223  1.00  0.00     0.074 A 
ATOM     33  C   UNL A   1      38.456  30.677  30.985  1.00  0.00     0.049 A 
ATOM     34  N   UNL A   1      40.400  28.683  29.816  1.00  0.00    -0.248 NA
ATOM     35  C   UNL A   1      39.175  28.743  27.829  1.00  0.00     0.031 C 
ATOM     36  C   UNL A   1      37.539  31.643  31.589  1.00  0.00     0.029 A 
ATOM     37  N   UNL A   1      39.415  30.476  31.944  1.00  0.00    -0.354 N 
ATOM     38  C   UNL A   1      40.985  27.830  28.889  1.00  0.00     0.074 A 
ATOM     39  C   UNL A   1      40.175  27.885  27.692  1.00  0.00     0.031 C 
ATOM     40  C   UNL A   1      37.968  31.934  32.828  1.00  0.00     0.029 A 
ATOM     41  C   UNL A   1      39.166  31.149  33.116  1.00  0.00     0.049 A 
ATOM     42  H   UNL A   1      40.205  29.904  31.808  1.00  0.00     0.167 HD
ATOM     43  C   UNL A   1      42.102  27.077  29.021  1.00  0.00     0.034 A 
ATOM     44  C   UNL A   1      39.816  31.111  34.296  1.00  0.00     0.034 A 
ATOM     45  C   UNL A   1      42.920  27.057  30.202  1.00  0.00     0.049 A 
ATOM     46  C   UNL A   1      41.046  30.249  34.422  1.00  0.00     0.074 A 
ATOM     47  C   UNL A   1      44.087  26.349  30.430  1.00  0.00     0.029 A 
ATOM     48  N   UNL A   1      42.656  27.776  31.358  1.00  0.00    -0.354 N 
ATOM     49  N   UNL A   1      41.628  29.503  33.514  1.00  0.00    -0.248 NA
ATOM     50  C   UNL A   1      41.723  30.246  35.726  1.00  0.00     0.031 C 
ATOM     51  C   UNL A   1      44.517  26.627  31.733  1.00  0.00     0.029 A 
ATOM     52  C   UNL A   1      43.634  27.527  32.306  1.00  0.00     0.049 A 
ATOM     53  H   UNL A   1      41.887  28.376  31.486  1.00  0.00     0.167 HD
ATOM     54  C   UNL A   1      42.756  28.967  34.125  1.00  0.00     0.074 A 
ATOM     55  C   UNL A   1      42.786  29.495  35.475  1.00  0.00     0.031 C 
ATOM     56  C   UNL A   1      43.675  28.104  33.626  1.00  0.00     0.034 A 
BRANCH  43  57
ATOM     57  C   UNL A   1      42.508  26.221  27.851  1.00  0.00     0.023 A 
ATOM     58  C   UNL A   1      43.426  26.717  26.903  1.00  0.00     0.012 A 
ATOM     59  C   UNL A   1      42.011  24.910  27.712  1.00  0.00     0.148 A 
ATOM     60  C   UNL A   1      43.817  25.933  25.818  1.00  0.00     0.002 A 
ATOM     61  C   UNL A   1      42.439  24.120  26.651  1.00  0.00     0.091 A 
ATOM     62  F   UNL A   1      41.119  24.466  28.609  1.00  0.00    -0.205 F 
ATOM     63  C   UNL A   1      43.333  24.633  25.698  1.00  0.00     0.022 A 
BRANCH  61  64
ATOM     64  S   UNL A   1      41.928  22.409  26.452  1.00  0.00     0.127 S 
ATOM     65  O   UNL A   1      42.622  22.035  25.221  1.00  0.00    -0.237 OA
ATOM     66  O   UNL A   1      42.459  21.787  27.664  1.00  0.00    -0.237 OA
ATOM     67  O   UNL A   1      40.475  22.432  26.369  1.00  0.00    -0.744 OA
ENDBRANCH  61  64
ENDBRANCH  43  57
BRANCH  44  68
ATOM     68  C   UNL A   1      39.329  31.929  35.442  1.00  0.00     0.023 A 
ATOM     69  C   UNL A   1      38.443  31.361  36.377  1.00  0.00     0.012 A 
ATOM     70  C   UNL A   1      39.758  33.259  35.623  1.00  0.00     0.148 A 
ATOM     71  C   UNL A   1      37.970  32.111  37.455  1.00  0.00     0.002 A 
ATOM     72  C   UNL A   1      39.331  33.980  36.732  1.00  0.00     0.091 A 
ATOM     73  F   UNL A   1      40.586  33.790  34.711  1.00  0.00    -0.205 F 
ATOM     74  C   UNL A   1      38.423  33.415  37.639  1.00  0.00     0.022 A 
BRANCH  72  75
ATOM     75  S   UNL A   1      39.970  35.614  37.117  1.00  0.00     0.127 S 
ATOM     76  O   UNL A   1      39.278  35.919  38.367  1.00  0.00    -0.237 OA
ATOM     77  O   UNL A   1      41.403  35.353  37.254  1.00  0.00    -0.237 OA
ATOM     78  O   UNL A   1      39.620  36.451  35.978  1.00  0.00    -0.744 OA
ENDBRANCH  72  75
ENDBRANCH  44  68
BRANCH  56  79
ATOM     79  C   UNL A   1      44.813  27.702  34.527  1.00  0.00     0.023 A 
ATOM     80  C   UNL A   1      45.986  28.482  34.564  1.00  0.00     0.012 A 
ATOM     81  C   UNL A   1      44.692  26.590  35.384  1.00  0.00     0.148 A 
ATOM     82  C   UNL A   1      47.037  28.140  35.414  1.00  0.00     0.002 A 
ATOM     83  C   UNL A   1      45.724  26.286  36.264  1.00  0.00     0.091 A 
ATOM     84  F   UNL A   1      43.577  25.851  35.320  1.00  0.00    -0.205 F 
ATOM     85  C   UNL A   1      46.902  27.049  36.271  1.00  0.00     0.022 A 
BRANCH  83  86
ATOM     86  S   UNL A   1      45.593  24.959  37.469  1.00  0.00     0.127 S 
ATOM     87  O   UNL A   1      45.496  23.782  36.607  1.00  0.00    -0.237 OA
ATOM     88  O   UNL A   1      46.856  25.076  38.200  1.00  0.00    -0.237 OA
ATOM     89  O   UNL A   1      44.409  25.256  38.262  1.00  0.00    -0.744 OA
ENDBRANCH  83  86
ENDBRANCH  56  79
ENDBRANCH  30  31
ENDBRANCH  23  25
ENDBRANCH  22  23
ENDBRANCH  21  22
ENDBRANCH   1  21
TORSDOF 19
ENDMDL
MODEL 2
REMARK VINA RESULT:     -10.7      5.470     10.664
REMARK SMILES CSCC[C@@H](NC(=O)[C@@H]1CC(=O)N(C)C1)C(=O)OCCOC(=O)c1ccc(-c2c3nc(c(-c4cccc(S(=O)(=O)[O-])c4F)c4ccc([nH]4)c(-c4cccc(S(=O)(=O)[O-])c4F)c4nc(c(-c5cccc(S(=O)(=O)[O-])c5F)c5ccc2[nH]5)C=C4)C=C3)cc1
REMARK SMILES IDX 19 1 18 2 16 3 17 4 5 5 4 6 3 7 2 8 1 9 6 10 7 11 8 13 9 14
REMARK SMILES IDX 10 15 15 16 11 17 13 18 12 19 14 20 20 21 21 22 22 23 23 24
REMARK SMILES IDX 24 25 25 26 86 27 26 28 85 29 27 30 28 31 29 32 79 33 30 34
REMARK SMILES IDX 84 35 78 36 80 37 31 38 83 39 77 40 76 41 32 43 64 44 44 45
REMARK SMILES IDX 63 46 45 47 48 48 62 49 81 50 46 51 47 52 61 54 82 55 49 56
REMARK SMILES IDX 33 57 34 58 42 59 35 60 37 61 43 62 36 63 38 64 39 65 40 66
REMARK SMILES IDX 41 67 65 68 66 69 74 70 67 71 69 72 75 73 68 74 70 75 71 76
REMARK SMILES IDX 72 77 73 78 50 79 51 80 59 81 52 82 54 83 60 84 53 85 55 86
REMARK SMILES IDX 56 87 57 88 58 89
REMARK H PARENT 6 12 80 42 48 53
REMARK Flexibility Score: inf
ROOT
ATOM      1  C   UNL A   1      36.059  22.957  24.045  1.00  0.00     0.274 C 
ENDROOT
BRANCH   1   2
ATOM      2  O   UNL A   1      35.449  22.993  22.736  1.00  0.00    -0.461 OA
BRANCH   2   3
ATOM      3  C   UNL A   1      34.161  23.424  22.721  1.00  0.00     0.328 C 
ATOM      4  O   UNL A   1      33.566  23.785  21.710  1.00  0.00    -0.250 OA
BRANCH   3   5
ATOM      5  C   UNL A   1      33.549  23.624  24.107  1.00  0.00     0.193 C 
BRANCH   5   6
ATOM      6  C   UNL A   1      33.383  25.121  24.424  1.00  0.00     0.048 C 
BRANCH   6   7
ATOM      7  C   UNL A   1      31.932  25.587  24.593  1.00  0.00     0.072 C 
BRANCH   7   8
ATOM      8  S   UNL A   1      31.178  26.244  23.067  1.00  0.00    -0.165 SA
ATOM      9  C   UNL A   1      29.612  26.901  23.698  1.00  0.00     0.085 C 
ENDBRANCH   7   8
ENDBRANCH   6   7
ENDBRANCH   5   6
BRANCH   5  10
ATOM     10  N   UNL A   1      32.299  22.888  24.388  1.00  0.00    -0.342 N 
ATOM     11  C   UNL A   1      32.106  21.630  24.885  1.00  0.00     0.226 C 
ATOM     12  H   UNL A   1      31.472  23.382  24.184  1.00  0.00     0.164 HD
ATOM     13  O   UNL A   1      31.142  21.461  25.632  1.00  0.00    -0.275 OA
BRANCH  11  14
ATOM     14  C   UNL A   1      32.973  20.478  24.415  1.00  0.00     0.107 C 
ATOM     15  C   UNL A   1      32.525  19.954  23.045  1.00  0.00     0.115 C 
ATOM     16  C   UNL A   1      32.900  19.291  25.360  1.00  0.00     0.133 C 
ATOM     17  C   UNL A   1      32.371  18.470  23.218  1.00  0.00     0.223 C 
ATOM     18  N   UNL A   1      32.583  18.156  24.539  1.00  0.00    -0.345 N 
ATOM     19  O   UNL A   1      32.126  17.691  22.308  1.00  0.00    -0.275 OA
ATOM     20  C   UNL A   1      32.566  16.820  25.088  1.00  0.00     0.146 C 
ENDBRANCH  11  14
ENDBRANCH   5  10
ENDBRANCH   3   5
ENDBRANCH   2   3
ENDBRANCH   1   2
BRANCH   1  21
ATOM     21  C   UNL A   1      36.886  21.696  24.325  1.00  0.00     0.275 C 
BRANCH  21  22
ATOM     22  O   UNL A   1      37.246  21.561  25.711  1.00  0.00    -0.458 OA
BRANCH  22  23
ATOM     23  C   UNL A   1      38.562  21.336  25.925  1.00  0.00     0.338 C 
ATOM     24  O   UNL A   1      39.211  20.381  25.510  1.00  0.00    -0.246 OA
BRANCH  23  25
ATOM     25  C   UNL A   1      39.194  22.495  26.569  1.00  0.00     0.060 A 
ATOM     26  C   UNL A   1      38.628  23.750  26.323  1.00  0.00     0.016 A 
ATOM     27  C   UNL A   1      40.370  22.383  27.313  1.00  0.00     0.016 A 
ATOM     28  C   UNL A   1      39.244  24.905  26.786  1.00  0.00     0.010 A 
ATOM     29  C   UNL A   1      40.997  23.548  27.770  1.00  0.00     0.010 A 
ATOM     30  C   UNL A   1      40.452  24.812  27.482  1.00  0.00    -0.014 A 
BRANCH  30  31
ATOM     31  C   UNL A   1      41.199  26.055  27.778  1.00  0.00     0.031 A 
ATOM     32  C   UNL A   1      40.529  27.133  28.582  1.00  0.00     0.074 A 
ATOM     33  C   UNL A   1      42.474  26.193  27.375  1.00  0.00     0.049 A 
ATOM     34  N   UNL A   1      40.976  28.315  28.915  1.00  0.00    -0.248 NA
ATOM     35  C   UNL A   1      39.173  26.839  29.076  1.00  0.00     0.031 C 
ATOM     36  C   UNL A   1      43.236  25.194  26.626  1.00  0.00     0.029 A 
ATOM     37  N   UNL A   1      43.349  27.238  27.529  1.00  0.00    -0.354 N 
ATOM     38  C   UNL A   1      39.943  28.924  29.618  1.00  0.00     0.074 A 
ATOM     39  C   UNL A   1      38.848  27.981  29.664  1.00  0.00     0.031 C 
ATOM     40  C   UNL A   1      44.460  25.684  26.367  1.00  0.00     0.029 A 
ATOM     41  C   UNL A   1      44.554  27.042  26.897  1.00  0.00     0.049 A 
ATOM     42  H   UNL A   1      43.135  28.051  28.042  1.00  0.00     0.167 HD
ATOM     43  C   UNL A   1      39.916  30.154  30.181  1.00  0.00     0.034 A 
ATOM     44  C   UNL A   1      45.600  27.876  26.742  1.00  0.00     0.034 A 
ATOM     45  C   UNL A   1      41.024  31.070  30.160  1.00  0.00     0.049 A 
ATOM     46  C   UNL A   1      45.536  29.248  27.362  1.00  0.00     0.074 A 
ATOM     47  C   UNL A   1      41.110  32.330  30.723  1.00  0.00     0.029 A 
ATOM     48  N   UNL A   1      42.240  30.825  29.540  1.00  0.00    -0.354 N 
ATOM     49  N   UNL A   1      44.582  29.783  28.085  1.00  0.00    -0.248 NA
ATOM     50  C   UNL A   1      46.704  30.118  27.169  1.00  0.00     0.031 C 
ATOM     51  C   UNL A   1      42.373  32.856  30.426  1.00  0.00     0.029 A 
ATOM     52  C   UNL A   1      43.082  31.912  29.700  1.00  0.00     0.049 A 
ATOM     53  H   UNL A   1      42.470  30.000  29.056  1.00  0.00     0.167 HD
ATOM     54  C   UNL A   1      45.045  31.040  28.459  1.00  0.00     0.074 A 
ATOM     55  C   UNL A   1      46.377  31.173  27.902  1.00  0.00     0.031 C 
ATOM     56  C   UNL A   1      44.424  32.004  29.183  1.00  0.00     0.034 A 
BRANCH  43  57
ATOM     57  C   UNL A   1      38.650  30.575  30.878  1.00  0.00     0.023 A 
ATOM     58  C   UNL A   1      38.481  30.306  32.251  1.00  0.00     0.012 A 
ATOM     59  C   UNL A   1      37.642  31.271  30.181  1.00  0.00     0.148 A 
ATOM     60  C   UNL A   1      37.317  30.696  32.912  1.00  0.00     0.002 A 
ATOM     61  C   UNL A   1      36.503  31.693  30.857  1.00  0.00     0.091 A 
ATOM     62  F   UNL A   1      37.809  31.492  28.869  1.00  0.00    -0.205 F 
ATOM     63  C   UNL A   1      36.334  31.397  32.219  1.00  0.00     0.022 A 
BRANCH  61  64
ATOM     64  S   UNL A   1      35.215  32.665  30.067  1.00  0.00     0.127 S 
ATOM     65  O   UNL A   1      35.973  33.815  29.577  1.00  0.00    -0.237 OA
ATOM     66  O   UNL A   1      34.743  31.757  29.021  1.00  0.00    -0.237 OA
ATOM     67  O   UNL A   1      34.238  32.955  31.105  1.00  0.00    -0.744 OA
ENDBRANCH  61  64
ENDBRANCH  43  57
BRANCH  44  68
ATOM     68  C   UNL A   1      46.803  27.430  25.984  1.00  0.00     0.023 A 
ATOM     69  C   UNL A   1      46.891  27.687  24.602  1.00  0.00     0.012 A 
ATOM     70  C   UNL A   1      47.869  26.773  26.629  1.00  0.00     0.148 A 
ATOM     71  C   UNL A   1      48.006  27.273  23.872  1.00  0.00     0.002 A 
ATOM     72  C   UNL A   1      49.003  26.418  25.907  1.00  0.00     0.091 A 
ATOM     73  F   UNL A   1      47.758  26.518  27.940  1.00  0.00    -0.205 F 
ATOM     74  C   UNL A   1      49.065  26.650  24.526  1.00  0.00     0.022 A 
BRANCH  72  75
ATOM     75  S   UNL A   1      50.466  25.736  26.695  1.00  0.00     0.127 S 
ATOM     76  O   UNL A   1      51.357  25.543  25.554  1.00  0.00    -0.237 OA
ATOM     77  O   UNL A   1      50.852  26.817  27.603  1.00  0.00    -0.237 OA
ATOM     78  O   UNL A   1      50.021  24.522  27.366  1.00  0.00    -0.744 OA
ENDBRANCH  72  75
ENDBRANCH  44  68
BRANCH  56  79
ATOM     79  C   UNL A   1      45.187  33.275  29.447  1.00  0.00     0.023 A 
ATOM     80  C   UNL A   1      45.992  33.383  30.599  1.00  0.00     0.012 A 
ATOM     81  C   UNL A   1      45.158  34.336  28.521  1.00  0.00     0.148 A 
ATOM     82  C   UNL A   1      46.726  34.542  30.843  1.00  0.00     0.002 A 
ATOM     83  C   UNL A   1      45.932  35.468  28.746  1.00  0.00     0.091 A 
ATOM     84  F   UNL A   1      44.372  34.222  27.441  1.00  0.00    -0.205 F 
ATOM     85  C   UNL A   1      46.706  35.579  29.912  1.00  0.00     0.022 A 
BRANCH  83  86
ATOM     86  S   UNL A   1      46.040  36.807  27.553  1.00  0.00     0.127 S 
ATOM     87  O   UNL A   1      44.695  37.378  27.624  1.00  0.00    -0.237 OA
ATOM     88  O   UNL A   1      47.091  37.651  28.125  1.00  0.00    -0.237 OA
ATOM     89  O   UNL A   1      46.392  36.184  26.285  1.00  0.00    -0.744 OA
ENDBRANCH  83  86
ENDBRANCH  56  79
ENDBRANCH  30  31
ENDBRANCH  23  25
ENDBRANCH  22  23
ENDBRANCH  21  22
ENDBRANCH   1  21
TORSDOF 19
ENDMDL
MODEL 3
REMARK VINA RESULT:     -10.7      5.428     10.304
REMARK SMILES CSCC[C@@H](NC(=O)[C@@H]1CC(=O)N(C)C1)C(=O)OCCOC(=O)c1ccc(-c2c3nc(c(-c4cccc(S(=O)(=O)[O-])c4F)c4ccc([nH]4)c(-c4cccc(S(=O)(=O)[O-])c4F)c4nc(c(-c5cccc(S(=O)(=O)[O-])c5F)c5ccc2[nH]5)C=C4)C=C3)cc1
REMARK SMILES IDX 19 1 18 2 16 3 17 4 5 5 4 6 3 7 2 8 1 9 6 10 7 11 8 13 9 14
REMARK SMILES IDX 10 15 15 16 11 17 13 18 12 19 14 20 20 21 21 22 22 23 23 24
REMARK SMILES IDX 24 25 25 26 86 27 26 28 85 29 27 30 28 31 29 32 79 33 30 34
REMARK SMILES IDX 84 35 78 36 80 37 31 38 83 39 77 40 76 41 32 43 64 44 44 45
REMARK SMILES IDX 63 46 45 47 48 48 62 49 81 50 46 51 47 52 61 54 82 55 49 56
REMARK SMILES IDX 33 57 34 58 42 59 35 60 37 61 43 62 36 63 38 64 39 65 40 66
REMARK SMILES IDX 41 67 65 68 66 69 74 70 67 71 69 72 75 73 68 74 70 75 71 76
REMARK SMILES IDX 72 77 73 78 50 79 51 80 59 81 52 82 54 83 60 84 53 85 55 86
REMARK SMILES IDX 56 87 57 88 58 89
REMARK H PARENT 6 12 80 42 48 53
REMARK Flexibility Score: inf
ROOT
ATOM      1  C   UNL A   1      36.676  22.570  23.555  1.00  0.00     0.274 C 
ENDROOT
BRANCH   1   2
ATOM      2  O   UNL A   1      35.550  23.239  24.164  1.00  0.00    -0.461 OA
BRANCH   2   3
ATOM      3  C   UNL A   1      34.344  22.936  23.616  1.00  0.00     0.328 C 
ATOM      4  O   UNL A   1      33.949  23.365  22.536  1.00  0.00    -0.250 OA
BRANCH   3   5
ATOM      5  C   UNL A   1      33.407  22.167  24.547  1.00  0.00     0.193 C 
BRANCH   5   6
ATOM      6  C   UNL A   1      33.453  20.658  24.250  1.00  0.00     0.048 C 
BRANCH   6   7
ATOM      7  C   UNL A   1      32.523  19.802  25.119  1.00  0.00     0.072 C 
BRANCH   7   8
ATOM      8  S   UNL A   1      32.833  18.007  25.000  1.00  0.00    -0.165 SA
ATOM      9  C   UNL A   1      32.901  17.777  23.204  1.00  0.00     0.085 C 
ENDBRANCH   7   8
ENDBRANCH   6   7
ENDBRANCH   5   6
BRANCH   5  10
ATOM     10  N   UNL A   1      33.561  22.421  25.995  1.00  0.00    -0.342 N 
ATOM     11  C   UNL A   1      32.705  23.001  26.887  1.00  0.00     0.226 C 
ATOM     12  H   UNL A   1      34.419  22.127  26.377  1.00  0.00     0.164 HD
ATOM     13  O   UNL A   1      32.693  22.548  28.032  1.00  0.00    -0.275 OA
BRANCH  11  14
ATOM     14  C   UNL A   1      31.915  24.236  26.501  1.00  0.00     0.107 C 
ATOM     15  C   UNL A   1      30.849  23.920  25.444  1.00  0.00     0.115 C 
ATOM     16  C   UNL A   1      32.800  25.310  25.891  1.00  0.00     0.133 C 
ATOM     17  C   UNL A   1      31.064  24.924  24.348  1.00  0.00     0.223 C 
ATOM     18  N   UNL A   1      32.178  25.671  24.647  1.00  0.00    -0.345 N 
ATOM     19  O   UNL A   1      30.332  25.053  23.377  1.00  0.00    -0.275 OA
ATOM     20  C   UNL A   1      32.679  26.769  23.854  1.00  0.00     0.146 C 
ENDBRANCH  11  14
ENDBRANCH   5  10
ENDBRANCH   3   5
ENDBRANCH   2   3
ENDBRANCH   1   2
BRANCH   1  21
ATOM     21  C   UNL A   1      37.119  21.291  24.277  1.00  0.00     0.275 C 
BRANCH  21  22
ATOM     22  O   UNL A   1      37.409  21.507  25.669  1.00  0.00    -0.458 OA
BRANCH  22  23
ATOM     23  C   UNL A   1      38.697  21.277  26.011  1.00  0.00     0.338 C 
ATOM     24  O   UNL A   1      39.358  20.286  25.721  1.00  0.00    -0.246 OA
BRANCH  23  25
ATOM     25  C   UNL A   1      39.296  22.469  26.627  1.00  0.00     0.060 A 
ATOM     26  C   UNL A   1      38.758  23.710  26.273  1.00  0.00     0.016 A 
ATOM     27  C   UNL A   1      40.420  22.394  27.451  1.00  0.00     0.016 A 
ATOM     28  C   UNL A   1      39.353  24.887  26.707  1.00  0.00     0.010 A 
ATOM     29  C   UNL A   1      41.027  23.581  27.880  1.00  0.00     0.010 A 
ATOM     30  C   UNL A   1      40.512  24.829  27.484  1.00  0.00    -0.014 A 
BRANCH  30  31
ATOM     31  C   UNL A   1      41.249  26.083  27.756  1.00  0.00     0.031 A 
ATOM     32  C   UNL A   1      40.572  27.171  28.540  1.00  0.00     0.074 A 
ATOM     33  C   UNL A   1      42.523  26.225  27.349  1.00  0.00     0.049 A 
ATOM     34  N   UNL A   1      41.009  28.362  28.850  1.00  0.00    -0.248 NA
ATOM     35  C   UNL A   1      39.218  26.875  29.042  1.00  0.00     0.031 C 
ATOM     36  C   UNL A   1      43.293  25.218  26.618  1.00  0.00     0.029 A 
ATOM     37  N   UNL A   1      43.389  27.279  27.482  1.00  0.00    -0.354 N 
ATOM     38  C   UNL A   1      39.972  28.976  29.543  1.00  0.00     0.074 A 
ATOM     39  C   UNL A   1      38.884  28.025  29.609  1.00  0.00     0.031 C 
ATOM     40  C   UNL A   1      44.512  25.713  26.348  1.00  0.00     0.029 A 
ATOM     41  C   UNL A   1      44.595  27.081  26.853  1.00  0.00     0.049 A 
ATOM     42  H   UNL A   1      43.169  28.100  27.980  1.00  0.00     0.167 HD
ATOM     43  C   UNL A   1      39.936  30.216  30.083  1.00  0.00     0.034 A 
ATOM     44  C   UNL A   1      45.634  27.921  26.680  1.00  0.00     0.034 A 
ATOM     45  C   UNL A   1      41.036  31.140  30.044  1.00  0.00     0.049 A 
ATOM     46  C   UNL A   1      45.559  29.303  27.274  1.00  0.00     0.074 A 
ATOM     47  C   UNL A   1      41.112  32.412  30.583  1.00  0.00     0.029 A 
ATOM     48  N   UNL A   1      42.252  30.894  29.426  1.00  0.00    -0.354 N 
ATOM     49  N   UNL A   1      44.601  29.845  27.989  1.00  0.00    -0.248 NA
ATOM     50  C   UNL A   1      46.720  30.180  27.063  1.00  0.00     0.031 C 
ATOM     51  C   UNL A   1      42.370  32.942  30.274  1.00  0.00     0.029 A 
ATOM     52  C   UNL A   1      43.086  31.991  29.565  1.00  0.00     0.049 A 
ATOM     53  H   UNL A   1      42.489  30.062  28.958  1.00  0.00     0.167 HD
ATOM     54  C   UNL A   1      45.055  31.112  28.338  1.00  0.00     0.074 A 
ATOM     55  C   UNL A   1      46.385  31.246  27.777  1.00  0.00     0.031 C 
ATOM     56  C   UNL A   1      44.426  32.084  29.044  1.00  0.00     0.034 A 
BRANCH  43  57
ATOM     57  C   UNL A   1      38.666  30.639  30.774  1.00  0.00     0.023 A 
ATOM     58  C   UNL A   1      38.522  30.441  32.162  1.00  0.00     0.012 A 
ATOM     59  C   UNL A   1      37.632  31.269  30.054  1.00  0.00     0.148 A 
ATOM     60  C   UNL A   1      37.355  30.834  32.816  1.00  0.00     0.002 A 
ATOM     61  C   UNL A   1      36.489  31.696  30.722  1.00  0.00     0.091 A 
ATOM     62  F   UNL A   1      37.776  31.425  28.730  1.00  0.00    -0.205 F 
ATOM     63  C   UNL A   1      36.345  31.470  32.100  1.00  0.00     0.022 A 
BRANCH  61  64
ATOM     64  S   UNL A   1      35.166  32.590  29.898  1.00  0.00     0.127 S 
ATOM     65  O   UNL A   1      34.190  32.731  30.977  1.00  0.00    -0.237 OA
ATOM     66  O   UNL A   1      35.830  33.835  29.512  1.00  0.00    -0.237 OA
ATOM     67  O   UNL A   1      34.750  31.753  28.783  1.00  0.00    -0.744 OA
ENDBRANCH  61  64
ENDBRANCH  43  57
BRANCH  44  68
ATOM     68  C   UNL A   1      46.839  27.471  25.929  1.00  0.00     0.023 A 
ATOM     69  C   UNL A   1      46.952  27.756  24.554  1.00  0.00     0.012 A 
ATOM     70  C   UNL A   1      47.885  26.781  26.574  1.00  0.00     0.148 A 
ATOM     71  C   UNL A   1      48.070  27.339  23.831  1.00  0.00     0.002 A 
ATOM     72  C   UNL A   1      49.022  26.422  25.861  1.00  0.00     0.091 A 
ATOM     73  F   UNL A   1      47.751  26.500  27.878  1.00  0.00    -0.205 F 
ATOM     74  C   UNL A   1      49.109  26.683  24.485  1.00  0.00     0.022 A 
BRANCH  72  75
ATOM     75  S   UNL A   1      50.463  25.698  26.653  1.00  0.00     0.127 S 
ATOM     76  O   UNL A   1      51.385  25.558  25.529  1.00  0.00    -0.237 OA
ATOM     77  O   UNL A   1      50.825  26.731  27.623  1.00  0.00    -0.237 OA
ATOM     78  O   UNL A   1      49.997  24.454  27.250  1.00  0.00    -0.744 OA
ENDBRANCH  72  75
ENDBRANCH  44  68
BRANCH  56  79
ATOM     79  C   UNL A   1      45.179  33.367  29.284  1.00  0.00     0.023 A 
ATOM     80  C   UNL A   1      45.983  33.503  30.433  1.00  0.00     0.012 A 
ATOM     81  C   UNL A   1      45.141  34.409  28.337  1.00  0.00     0.148 A 
ATOM     82  C   UNL A   1      46.708  34.673  30.654  1.00  0.00     0.002 A 
ATOM     83  C   UNL A   1      45.906  35.551  28.540  1.00  0.00     0.091 A 
ATOM     84  F   UNL A   1      44.356  34.268  27.260  1.00  0.00    -0.205 F 
ATOM     85  C   UNL A   1      46.679  35.691  29.704  1.00  0.00     0.022 A 
BRANCH  83  86
ATOM     86  S   UNL A   1      46.003  36.868  27.322  1.00  0.00     0.127 S 
ATOM     87  O   UNL A   1      46.989  37.763  27.926  1.00  0.00    -0.237 OA
ATOM     88  O   UNL A   1      46.472  36.158  26.131  1.00  0.00    -0.237 OA
ATOM     89  O   UNL A   1      44.654  37.405  27.209  1.00  0.00    -0.744 OA
ENDBRANCH  83  86
ENDBRANCH  56  79
ENDBRANCH  30  31
ENDBRANCH  23  25
ENDBRANCH  22  23
ENDBRANCH  21  22
ENDBRANCH   1  21
TORSDOF 19
ENDMDL
