MODEL 1
REMARK VINA RESULT:     -11.9      0.000      0.000
REMARK SMILES C[C@@H](C(=O)OCCOC(=O)c1ccc(-c2c3nc(c(-c4cccc(S(=O)(=O)[O-])c4F)c4ccc([nH]4)c(-c4cccc(S(=O)(=O)[O-])c4F)c4nc(c(-c5cccc(S(=O)(=O)[O-])c5F)c5ccc2[nH]5)C=C4)C=C3)cc1)c1cc(/C=C/S(C)(=O)=O)cc(C(=O)c2ccccc2)c1
REMARK SMILES IDX 6 1 5 2 3 3 4 4 2 5 1 6 74 7 75 8 93 9 76 10 84 11 83 12
REMARK SMILES IDX 77 13 78 14 79 15 80 16 81 17 82 18 85 19 86 20 87 21 88 22
REMARK SMILES IDX 92 23 89 24 91 25 90 26 7 27 8 28 9 29 10 30 11 31 12 32
REMARK SMILES IDX 73 33 13 34 72 35 14 36 15 37 16 38 66 39 17 40 71 41 65 42
REMARK SMILES IDX 67 43 18 44 70 45 64 46 63 47 19 49 51 50 31 51 50 52 32 53
REMARK SMILES IDX 35 54 49 55 68 56 33 57 34 58 48 60 69 61 36 62 20 63 21 64
REMARK SMILES IDX 29 65 22 66 24 67 30 68 23 69 25 70 26 71 27 72 28 73 52 74
REMARK SMILES IDX 53 75 61 76 54 77 56 78 62 79 55 80 57 81 58 82 59 83 60 84
REMARK SMILES IDX 37 85 38 86 46 87 39 88 41 89 47 90 40 91 42 92 43 93 44 94
REMARK SMILES IDX 45 95
REMARK H PARENT 67 48 35 59
REMARK Flexibility Score: inf
ROOT
ATOM      1  C   UNL A   1      31.393  31.584  26.637  1.00  0.00     0.274 C 
ENDROOT
BRANCH   1   2
ATOM      2  O   UNL A   1      32.508  30.740  26.991  1.00  0.00    -0.462 OA
BRANCH   2   3
ATOM      3  C   UNL A   1      32.240  29.432  27.256  1.00  0.00     0.313 C 
ATOM      4  O   UNL A   1      31.215  29.042  27.803  1.00  0.00    -0.252 OA
BRANCH   3   5
ATOM      5  C   UNL A   1      33.395  28.495  26.857  1.00  0.00     0.126 C 
ATOM      6  C   UNL A   1      34.680  29.259  26.512  1.00  0.00     0.025 C 
BRANCH   5   7
ATOM      7  C   UNL A   1      32.982  27.466  25.796  1.00  0.00    -0.033 A 
ATOM      8  C   UNL A   1      33.344  26.114  25.960  1.00  0.00     0.012 A 
ATOM      9  C   UNL A   1      32.217  27.803  24.670  1.00  0.00     0.016 A 
ATOM     10  C   UNL A   1      32.930  25.117  25.058  1.00  0.00    -0.024 A 
ATOM     11  C   UNL A   1      31.877  26.841  23.704  1.00  0.00     0.023 A 
ATOM     12  C   UNL A   1      32.232  25.502  23.907  1.00  0.00     0.020 A 
BRANCH  10  13
ATOM     13  C   UNL A   1      33.174  23.682  25.291  1.00  0.00     0.020 C 
ATOM     14  C   UNL A   1      34.338  23.184  25.737  1.00  0.00     0.106 C 
BRANCH  14  15
ATOM     15  S   UNL A   1      34.520  21.481  26.034  1.00  0.00     0.168 S 
ATOM     16  C   UNL A   1      33.660  20.789  24.646  1.00  0.00     0.163 C 
ATOM     17  O   UNL A   1      35.914  21.145  25.864  1.00  0.00    -0.225 OA
ATOM     18  O   UNL A   1      33.781  21.086  27.221  1.00  0.00    -0.225 OA
ENDBRANCH  14  15
ENDBRANCH  10  13
BRANCH  11  19
ATOM     19  C   UNL A   1      31.056  27.190  22.508  1.00  0.00     0.193 C 
ATOM     20  O   UNL A   1      31.287  26.652  21.430  1.00  0.00    -0.289 OA
BRANCH  19  21
ATOM     21  C   UNL A   1      29.937  28.158  22.590  1.00  0.00     0.022 A 
ATOM     22  C   UNL A   1      30.123  29.441  22.065  1.00  0.00     0.012 A 
ATOM     23  C   UNL A   1      28.716  27.813  23.182  1.00  0.00     0.012 A 
ATOM     24  C   UNL A   1      29.070  30.355  22.074  1.00  0.00     0.001 A 
ATOM     25  C   UNL A   1      27.664  28.729  23.185  1.00  0.00     0.001 A 
ATOM     26  C   UNL A   1      27.838  29.995  22.623  1.00  0.00     0.000 A 
ENDBRANCH  19  21
ENDBRANCH  11  19
ENDBRANCH   5   7
ENDBRANCH   3   5
ENDBRANCH   2   3
ENDBRANCH   1   2
BRANCH   1  27
ATOM     27  C   UNL A   1      31.789  33.057  26.728  1.00  0.00     0.275 C 
BRANCH  27  28
ATOM     28  O   UNL A   1      32.469  33.304  27.971  1.00  0.00    -0.458 OA
BRANCH  28  29
ATOM     29  C   UNL A   1      33.591  34.053  27.884  1.00  0.00     0.338 C 
ATOM     30  O   UNL A   1      33.674  35.242  27.628  1.00  0.00    -0.246 OA
BRANCH  29  31
ATOM     31  C   UNL A   1      34.749  33.234  28.267  1.00  0.00     0.060 A 
ATOM     32  C   UNL A   1      34.503  31.988  28.830  1.00  0.00     0.016 A 
ATOM     33  C   UNL A   1      36.047  33.737  28.214  1.00  0.00     0.016 A 
ATOM     34  C   UNL A   1      35.538  31.292  29.443  1.00  0.00     0.010 A 
ATOM     35  C   UNL A   1      37.100  32.980  28.749  1.00  0.00     0.010 A 
ATOM     36  C   UNL A   1      36.853  31.769  29.420  1.00  0.00    -0.014 A 
BRANCH  36  37
ATOM     37  C   UNL A   1      37.928  31.021  30.143  1.00  0.00     0.031 A 
ATOM     38  C   UNL A   1      38.176  31.270  31.613  1.00  0.00     0.074 A 
ATOM     39  C   UNL A   1      38.666  30.084  29.509  1.00  0.00     0.049 A 
ATOM     40  N   UNL A   1      39.170  30.873  32.367  1.00  0.00    -0.248 NA
ATOM     41  C   UNL A   1      37.187  32.099  32.323  1.00  0.00     0.031 C 
ATOM     42  C   UNL A   1      38.518  29.683  28.108  1.00  0.00     0.029 A 
ATOM     43  N   UNL A   1      39.695  29.292  29.966  1.00  0.00    -0.354 N 
ATOM     44  C   UNL A   1      38.967  31.460  33.611  1.00  0.00     0.074 A 
ATOM     45  C   UNL A   1      37.753  32.240  33.514  1.00  0.00     0.031 C 
ATOM     46  C   UNL A   1      39.387  28.702  27.831  1.00  0.00     0.029 A 
ATOM     47  C   UNL A   1      40.235  28.480  28.995  1.00  0.00     0.049 A 
ATOM     48  H   UNL A   1      40.014  29.307  30.897  1.00  0.00     0.167 HD
ATOM     49  C   UNL A   1      39.719  31.357  34.734  1.00  0.00     0.034 A 
ATOM     50  C   UNL A   1      41.326  27.687  29.010  1.00  0.00     0.034 A 
ATOM     51  C   UNL A   1      40.874  30.506  34.860  1.00  0.00     0.049 A 
ATOM     52  C   UNL A   1      42.153  27.603  30.261  1.00  0.00     0.074 A 
ATOM     53  C   UNL A   1      41.683  30.315  35.967  1.00  0.00     0.029 A 
ATOM     54  N   UNL A   1      41.371  29.690  33.856  1.00  0.00    -0.354 N 
ATOM     55  N   UNL A   1      41.952  28.168  31.427  1.00  0.00    -0.248 NA
ATOM     56  C   UNL A   1      43.362  26.768  30.202  1.00  0.00     0.031 C 
ATOM     57  C   UNL A   1      42.686  29.401  35.624  1.00  0.00     0.029 A 
ATOM     58  C   UNL A   1      42.483  29.002  34.313  1.00  0.00     0.049 A 
ATOM     59  H   UNL A   1      40.991  29.612  32.952  1.00  0.00     0.167 HD
ATOM     60  C   UNL A   1      42.991  27.739  32.244  1.00  0.00     0.074 A 
ATOM     61  C   UNL A   1      43.807  26.845  31.448  1.00  0.00     0.031 C 
ATOM     62  C   UNL A   1      43.257  28.073  33.531  1.00  0.00     0.034 A 
BRANCH  49  63
ATOM     63  C   UNL A   1      39.321  32.185  35.930  1.00  0.00     0.023 A 
ATOM     64  C   UNL A   1      38.437  31.661  36.893  1.00  0.00     0.012 A 
ATOM     65  C   UNL A   1      39.879  33.465  36.127  1.00  0.00     0.148 A 
ATOM     66  C   UNL A   1      38.089  32.412  38.017  1.00  0.00     0.002 A 
ATOM     67  C   UNL A   1      39.562  34.189  37.270  1.00  0.00     0.091 A 
ATOM     68  F   UNL A   1      40.704  33.954  35.190  1.00  0.00    -0.205 F 
ATOM     69  C   UNL A   1      38.658  33.669  38.211  1.00  0.00     0.022 A 
BRANCH  67  70
ATOM     70  S   UNL A   1      40.305  35.780  37.646  1.00  0.00     0.127 S 
ATOM     71  O   UNL A   1      41.724  35.432  37.727  1.00  0.00    -0.237 OA
ATOM     72  O   UNL A   1      39.942  36.576  36.473  1.00  0.00    -0.237 OA
ATOM     73  O   UNL A   1      39.699  36.225  38.892  1.00  0.00    -0.744 OA
ENDBRANCH  67  70
ENDBRANCH  49  63
BRANCH  50  74
ATOM     74  C   UNL A   1      41.710  26.929  27.784  1.00  0.00     0.023 A 
ATOM     75  C   UNL A   1      42.319  27.606  26.711  1.00  0.00     0.012 A 
ATOM     76  C   UNL A   1      41.495  25.539  27.684  1.00  0.00     0.148 A 
ATOM     77  C   UNL A   1      42.686  26.918  25.553  1.00  0.00     0.002 A 
ATOM     78  C   UNL A   1      41.918  24.850  26.554  1.00  0.00     0.091 A 
ATOM     79  F   UNL A   1      40.887  24.914  28.703  1.00  0.00    -0.205 F 
ATOM     80  C   UNL A   1      42.499  25.539  25.480  1.00  0.00     0.022 A 
BRANCH  78  81
ATOM     81  S   UNL A   1      41.819  23.059  26.435  1.00  0.00     0.127 S 
ATOM     82  O   UNL A   1      42.577  22.639  27.611  1.00  0.00    -0.237 OA
ATOM     83  O   UNL A   1      40.378  22.818  26.520  1.00  0.00    -0.237 OA
ATOM     84  O   UNL A   1      42.408  22.718  25.147  1.00  0.00    -0.744 OA
ENDBRANCH  78  81
ENDBRANCH  50  74
BRANCH  62  85
ATOM     85  C   UNL A   1      44.462  27.443  34.180  1.00  0.00     0.023 A 
ATOM     86  C   UNL A   1      45.715  28.084  34.101  1.00  0.00     0.012 A 
ATOM     87  C   UNL A   1      44.340  26.254  34.928  1.00  0.00     0.148 A 
ATOM     88  C   UNL A   1      46.833  27.535  34.727  1.00  0.00     0.002 A 
ATOM     89  C   UNL A   1      45.449  25.738  35.589  1.00  0.00     0.091 A 
ATOM     90  F   UNL A   1      43.144  25.650  34.978  1.00  0.00    -0.205 F 
ATOM     91  C   UNL A   1      46.698  26.369  35.479  1.00  0.00     0.022 A 
BRANCH  89  92
ATOM     92  S   UNL A   1      45.351  24.297  36.657  1.00  0.00     0.127 S 
ATOM     93  O   UNL A   1      44.438  24.760  37.701  1.00  0.00    -0.237 OA
ATOM     94  O   UNL A   1      44.790  23.284  35.762  1.00  0.00    -0.237 OA
ATOM     95  O   UNL A   1      46.714  24.027  37.094  1.00  0.00    -0.744 OA
ENDBRANCH  89  92
ENDBRANCH  62  85
ENDBRANCH  36  37
ENDBRANCH  29  31
ENDBRANCH  28  29
ENDBRANCH  27  28
ENDBRANCH   1  27
TORSDOF 19
ENDMDL
MODEL 2
REMARK VINA RESULT:     -11.9      2.087      4.039
REMARK SMILES C[C@@H](C(=O)OCCOC(=O)c1ccc(-c2c3nc(c(-c4cccc(S(=O)(=O)[O-])c4F)c4ccc([nH]4)c(-c4cccc(S(=O)(=O)[O-])c4F)c4nc(c(-c5cccc(S(=O)(=O)[O-])c5F)c5ccc2[nH]5)C=C4)C=C3)cc1)c1cc(/C=C/S(C)(=O)=O)cc(C(=O)c2ccccc2)c1
REMARK SMILES IDX 6 1 5 2 3 3 4 4 2 5 1 6 74 7 75 8 93 9 76 10 84 11 83 12
REMARK SMILES IDX 77 13 78 14 79 15 80 16 81 17 82 18 85 19 86 20 87 21 88 22
REMARK SMILES IDX 92 23 89 24 91 25 90 26 7 27 8 28 9 29 10 30 11 31 12 32
REMARK SMILES IDX 73 33 13 34 72 35 14 36 15 37 16 38 66 39 17 40 71 41 65 42
REMARK SMILES IDX 67 43 18 44 70 45 64 46 63 47 19 49 51 50 31 51 50 52 32 53
REMARK SMILES IDX 35 54 49 55 68 56 33 57 34 58 48 60 69 61 36 62 20 63 21 64
REMARK SMILES IDX 29 65 22 66 24 67 30 68 23 69 25 70 26 71 27 72 28 73 52 74
REMARK SMILES IDX 53 75 61 76 54 77 56 78 62 79 55 80 57 81 58 82 59 83 60 84
REMARK SMILES IDX 37 85 38 86 46 87 39 88 41 89 47 90 40 91 42 92 43 93 44 94
REMARK SMILES IDX 45 95
REMARK H PARENT 67 48 35 59
REMARK Flexibility Score: inf
ROOT
ATOM      1  C   UNL A   1      31.917  31.665  27.043  1.00  0.00     0.274 C 
ENDROOT
BRANCH   1   2
ATOM      2  O   UNL A   1      32.896  30.618  27.202  1.00  0.00    -0.462 OA
BRANCH   2   3
ATOM      3  C   UNL A   1      32.436  29.337  27.251  1.00  0.00     0.313 C 
ATOM      4  O   UNL A   1      31.406  29.003  27.825  1.00  0.00    -0.252 OA
BRANCH   3   5
ATOM      5  C   UNL A   1      33.385  28.337  26.566  1.00  0.00     0.126 C 
ATOM      6  C   UNL A   1      34.833  28.845  26.508  1.00  0.00     0.025 C 
BRANCH   5   7
ATOM      7  C   UNL A   1      32.848  27.840  25.218  1.00  0.00    -0.033 A 
ATOM      8  C   UNL A   1      31.773  28.514  24.605  1.00  0.00     0.012 A 
ATOM      9  C   UNL A   1      33.409  26.751  24.533  1.00  0.00     0.016 A 
ATOM     10  C   UNL A   1      31.289  28.147  23.336  1.00  0.00    -0.024 A 
ATOM     11  C   UNL A   1      32.877  26.305  23.311  1.00  0.00     0.023 A 
ATOM     12  C   UNL A   1      31.822  27.010  22.718  1.00  0.00     0.020 A 
BRANCH  10  13
ATOM     13  C   UNL A   1      30.266  28.930  22.618  1.00  0.00     0.020 C 
ATOM     14  C   UNL A   1      29.749  30.081  23.073  1.00  0.00     0.106 C 
BRANCH  14  15
ATOM     15  S   UNL A   1      28.584  30.965  22.134  1.00  0.00     0.168 S 
ATOM     16  C   UNL A   1      27.284  31.197  23.317  1.00  0.00     0.163 C 
ATOM     17  O   UNL A   1      29.131  32.274  21.862  1.00  0.00    -0.225 OA
ATOM     18  O   UNL A   1      28.041  30.131  21.076  1.00  0.00    -0.225 OA
ENDBRANCH  14  15
ENDBRANCH  10  13
BRANCH  11  19
ATOM     19  C   UNL A   1      33.473  25.154  22.574  1.00  0.00     0.193 C 
ATOM     20  O   UNL A   1      33.653  25.230  21.363  1.00  0.00    -0.289 OA
BRANCH  19  21
ATOM     21  C   UNL A   1      33.887  23.914  23.273  1.00  0.00     0.022 A 
ATOM     22  C   UNL A   1      32.905  22.973  23.600  1.00  0.00     0.012 A 
ATOM     23  C   UNL A   1      35.224  23.679  23.612  1.00  0.00     0.012 A 
ATOM     24  C   UNL A   1      33.270  21.770  24.206  1.00  0.00     0.001 A 
ATOM     25  C   UNL A   1      35.586  22.473  24.214  1.00  0.00     0.001 A 
ATOM     26  C   UNL A   1      34.610  21.516  24.501  1.00  0.00     0.000 A 
ENDBRANCH  19  21
ENDBRANCH  11  19
ENDBRANCH   5   7
ENDBRANCH   3   5
ENDBRANCH   2   3
ENDBRANCH   1   2
BRANCH   1  27
ATOM     27  C   UNL A   1      32.607  33.018  26.875  1.00  0.00     0.275 C 
BRANCH  27  28
ATOM     28  O   UNL A   1      32.233  33.894  27.952  1.00  0.00    -0.458 OA
BRANCH  28  29
ATOM     29  C   UNL A   1      33.236  34.627  28.484  1.00  0.00     0.338 C 
ATOM     30  O   UNL A   1      33.230  35.817  28.748  1.00  0.00    -0.246 OA
BRANCH  29  31
ATOM     31  C   UNL A   1      34.354  33.737  28.827  1.00  0.00     0.060 A 
ATOM     32  C   UNL A   1      34.072  32.602  29.576  1.00  0.00     0.016 A 
ATOM     33  C   UNL A   1      35.674  34.085  28.548  1.00  0.00     0.016 A 
ATOM     34  C   UNL A   1      35.111  31.875  30.144  1.00  0.00     0.010 A 
ATOM     35  C   UNL A   1      36.715  33.287  29.046  1.00  0.00     0.010 A 
ATOM     36  C   UNL A   1      36.449  32.198  29.896  1.00  0.00    -0.014 A 
BRANCH  36  37
ATOM     37  C   UNL A   1      37.538  31.428  30.574  1.00  0.00     0.031 A 
ATOM     38  C   UNL A   1      37.858  31.678  32.030  1.00  0.00     0.074 A 
ATOM     39  C   UNL A   1      38.225  30.471  29.913  1.00  0.00     0.049 A 
ATOM     40  N   UNL A   1      38.876  31.261  32.740  1.00  0.00    -0.248 NA
ATOM     41  C   UNL A   1      36.922  32.533  32.779  1.00  0.00     0.031 C 
ATOM     42  C   UNL A   1      38.004  30.068  28.522  1.00  0.00     0.029 A 
ATOM     43  N   UNL A   1      39.254  29.658  30.327  1.00  0.00    -0.354 N 
ATOM     44  C   UNL A   1      38.743  31.859  33.989  1.00  0.00     0.074 A 
ATOM     45  C   UNL A   1      37.544  32.667  33.943  1.00  0.00     0.031 C 
ATOM     46  C   UNL A   1      38.837  29.065  28.211  1.00  0.00     0.029 A 
ATOM     47  C   UNL A   1      39.731  28.829  29.338  1.00  0.00     0.049 A 
ATOM     48  H   UNL A   1      39.615  29.668  31.243  1.00  0.00     0.167 HD
ATOM     49  C   UNL A   1      39.542  31.742  35.078  1.00  0.00     0.034 A 
ATOM     50  C   UNL A   1      40.802  28.010  29.308  1.00  0.00     0.034 A 
ATOM     51  C   UNL A   1      40.681  30.865  35.156  1.00  0.00     0.049 A 
ATOM     52  C   UNL A   1      41.683  27.912  30.521  1.00  0.00     0.074 A 
ATOM     53  C   UNL A   1      41.535  30.660  36.227  1.00  0.00     0.029 A 
ATOM     54  N   UNL A   1      41.113  30.033  34.135  1.00  0.00    -0.354 N 
ATOM     55  N   UNL A   1      41.548  28.487  31.692  1.00  0.00    -0.248 NA
ATOM     56  C   UNL A   1      42.867  27.048  30.412  1.00  0.00     0.031 C 
ATOM     57  C   UNL A   1      42.499  29.721  35.844  1.00  0.00     0.029 A 
ATOM     58  C   UNL A   1      42.228  29.321  34.546  1.00  0.00     0.049 A 
ATOM     59  H   UNL A   1      40.691  29.960  33.250  1.00  0.00     0.167 HD
ATOM     60  C   UNL A   1      42.612  28.037  32.463  1.00  0.00     0.074 A 
ATOM     61  C   UNL A   1      43.371  27.121  31.637  1.00  0.00     0.031 C 
ATOM     62  C   UNL A   1      42.944  28.370  33.735  1.00  0.00     0.034 A 
BRANCH  49  63
ATOM     63  C   UNL A   1      39.218  32.585  36.285  1.00  0.00     0.023 A 
ATOM     64  C   UNL A   1      39.704  33.903  36.384  1.00  0.00     0.012 A 
ATOM     65  C   UNL A   1      38.373  32.083  37.297  1.00  0.00     0.148 A 
ATOM     66  C   UNL A   1      39.381  34.697  37.485  1.00  0.00     0.002 A 
ATOM     67  C   UNL A   1      38.020  32.894  38.369  1.00  0.00     0.091 A 
ATOM     68  F   UNL A   1      37.935  30.819  37.197  1.00  0.00    -0.205 F 
ATOM     69  C   UNL A   1      38.533  34.198  38.471  1.00  0.00     0.022 A 
BRANCH  67  70
ATOM     70  S   UNL A   1      36.871  32.367  39.646  1.00  0.00     0.127 S 
ATOM     71  O   UNL A   1      35.608  32.325  38.908  1.00  0.00    -0.237 OA
ATOM     72  O   UNL A   1      37.401  31.055  40.016  1.00  0.00    -0.237 OA
ATOM     73  O   UNL A   1      36.947  33.371  40.697  1.00  0.00    -0.744 OA
ENDBRANCH  67  70
ENDBRANCH  49  63
BRANCH  50  74
ATOM     74  C   UNL A   1      41.112  27.237  28.070  1.00  0.00     0.023 A 
ATOM     75  C   UNL A   1      41.702  27.892  26.972  1.00  0.00     0.012 A 
ATOM     76  C   UNL A   1      40.846  25.856  27.982  1.00  0.00     0.148 A 
ATOM     77  C   UNL A   1      42.001  27.189  25.804  1.00  0.00     0.002 A 
ATOM     78  C   UNL A   1      41.201  25.150  26.839  1.00  0.00     0.091 A 
ATOM     79  F   UNL A   1      40.256  25.254  29.025  1.00  0.00    -0.205 F 
ATOM     80  C   UNL A   1      41.764  25.818  25.741  1.00  0.00     0.022 A 
BRANCH  78  81
ATOM     81  S   UNL A   1      41.037  23.364  26.728  1.00  0.00     0.127 S 
ATOM     82  O   UNL A   1      41.924  23.051  25.611  1.00  0.00    -0.237 OA
ATOM     83  O   UNL A   1      41.524  22.923  28.036  1.00  0.00    -0.237 OA
ATOM     84  O   UNL A   1      39.620  23.114  26.502  1.00  0.00    -0.744 OA
ENDBRANCH  78  81
ENDBRANCH  50  74
BRANCH  62  85
ATOM     85  C   UNL A   1      44.162  27.715  34.333  1.00  0.00     0.023 A 
ATOM     86  C   UNL A   1      45.412  28.362  34.259  1.00  0.00     0.012 A 
ATOM     87  C   UNL A   1      44.056  26.494  35.029  1.00  0.00     0.148 A 
ATOM     88  C   UNL A   1      46.543  27.788  34.838  1.00  0.00     0.002 A 
ATOM     89  C   UNL A   1      45.178  25.951  35.645  1.00  0.00     0.091 A 
ATOM     90  F   UNL A   1      42.862  25.885  35.074  1.00  0.00    -0.205 F 
ATOM     91  C   UNL A   1      46.424  26.590  35.540  1.00  0.00     0.022 A 
BRANCH  89  92
ATOM     92  S   UNL A   1      45.102  24.464  36.649  1.00  0.00     0.127 S 
ATOM     93  O   UNL A   1      46.507  24.271  37.005  1.00  0.00    -0.237 OA
ATOM     94  O   UNL A   1      44.245  24.881  37.759  1.00  0.00    -0.237 OA
ATOM     95  O   UNL A   1      44.526  23.432  35.798  1.00  0.00    -0.744 OA
ENDBRANCH  89  92
ENDBRANCH  62  85
ENDBRANCH  36  37
ENDBRANCH  29  31
ENDBRANCH  28  29
ENDBRANCH  27  28
ENDBRANCH   1  27
TORSDOF 19
ENDMDL
MODEL 3
REMARK VINA RESULT:     -11.7      4.804      7.844
REMARK SMILES C[C@@H](C(=O)OCCOC(=O)c1ccc(-c2c3nc(c(-c4cccc(S(=O)(=O)[O-])c4F)c4ccc([nH]4)c(-c4cccc(S(=O)(=O)[O-])c4F)c4nc(c(-c5cccc(S(=O)(=O)[O-])c5F)c5ccc2[nH]5)C=C4)C=C3)cc1)c1cc(/C=C/S(C)(=O)=O)cc(C(=O)c2ccccc2)c1
REMARK SMILES IDX 6 1 5 2 3 3 4 4 2 5 1 6 74 7 75 8 93 9 76 10 84 11 83 12
REMARK SMILES IDX 77 13 78 14 79 15 80 16 81 17 82 18 85 19 86 20 87 21 88 22
REMARK SMILES IDX 92 23 89 24 91 25 90 26 7 27 8 28 9 29 10 30 11 31 12 32
REMARK SMILES IDX 73 33 13 34 72 35 14 36 15 37 16 38 66 39 17 40 71 41 65 42
REMARK SMILES IDX 67 43 18 44 70 45 64 46 63 47 19 49 51 50 31 51 50 52 32 53
REMARK SMILES IDX 35 54 49 55 68 56 33 57 34 58 48 60 69 61 36 62 20 63 21 64
REMARK SMILES IDX 29 65 22 66 24 67 30 68 23 69 25 70 26 71 27 72 28 73 52 74
REMARK SMILES IDX 53 75 61 76 54 77 56 78 62 79 55 80 57 81 58 82 59 83 60 84
REMARK SMILES IDX 37 85 38 86 46 87 39 88 41 89 47 90 40 91 42 92 43 93 44 94
REMARK SMILES IDX 45 95
REMARK H PARENT 67 48 35 59
REMARK Flexibility Score: inf
ROOT
ATOM      1  C   UNL A   1      35.277  23.024  24.267  1.00  0.00     0.274 C 
ENDROOT
BRANCH   1   2
ATOM      2  O   UNL A   1      33.957  22.780  24.795  1.00  0.00    -0.462 OA
BRANCH   2   3
ATOM      3  C   UNL A   1      33.628  23.403  25.961  1.00  0.00     0.313 C 
ATOM      4  O   UNL A   1      34.358  23.440  26.945  1.00  0.00    -0.252 OA
BRANCH   3   5
ATOM      5  C   UNL A   1      32.209  23.998  25.937  1.00  0.00     0.126 C 
ATOM      6  C   UNL A   1      31.192  23.072  25.256  1.00  0.00     0.025 C 
BRANCH   5   7
ATOM      7  C   UNL A   1      32.181  25.441  25.413  1.00  0.00    -0.033 A 
ATOM      8  C   UNL A   1      32.863  26.452  26.118  1.00  0.00     0.012 A 
ATOM      9  C   UNL A   1      31.529  25.803  24.225  1.00  0.00     0.016 A 
ATOM     10  C   UNL A   1      32.933  27.774  25.645  1.00  0.00    -0.024 A 
ATOM     11  C   UNL A   1      31.501  27.137  23.785  1.00  0.00     0.023 A 
ATOM     12  C   UNL A   1      32.208  28.114  24.497  1.00  0.00     0.020 A 
BRANCH  10  13
ATOM     13  C   UNL A   1      33.762  28.808  26.291  1.00  0.00     0.020 C 
ATOM     14  C   UNL A   1      34.712  28.543  27.202  1.00  0.00     0.106 C 
BRANCH  14  15
ATOM     15  S   UNL A   1      35.679  29.822  27.873  1.00  0.00     0.168 S 
ATOM     16  C   UNL A   1      34.612  31.221  27.654  1.00  0.00     0.163 C 
ATOM     17  O   UNL A   1      35.782  29.602  29.298  1.00  0.00    -0.225 OA
ATOM     18  O   UNL A   1      36.854  30.061  27.053  1.00  0.00    -0.225 OA
ENDBRANCH  14  15
ENDBRANCH  10  13
BRANCH  11  19
ATOM     19  C   UNL A   1      30.817  27.529  22.519  1.00  0.00     0.193 C 
ATOM     20  O   UNL A   1      31.109  26.968  21.468  1.00  0.00    -0.289 OA
BRANCH  19  21
ATOM     21  C   UNL A   1      29.760  28.567  22.496  1.00  0.00     0.022 A 
ATOM     22  C   UNL A   1      28.506  28.255  23.033  1.00  0.00     0.012 A 
ATOM     23  C   UNL A   1      29.992  29.834  21.949  1.00  0.00     0.012 A 
ATOM     24  C   UNL A   1      27.509  29.230  23.080  1.00  0.00     0.001 A 
ATOM     25  C   UNL A   1      28.994  30.807  22.001  1.00  0.00     0.001 A 
ATOM     26  C   UNL A   1      27.757  30.507  22.576  1.00  0.00     0.000 A 
ENDBRANCH  19  21
ENDBRANCH  11  19
ENDBRANCH   5   7
ENDBRANCH   3   5
ENDBRANCH   2   3
ENDBRANCH   1   2
BRANCH   1  27
ATOM     27  C   UNL A   1      36.175  21.809  24.495  1.00  0.00     0.275 C 
BRANCH  27  28
ATOM     28  O   UNL A   1      36.804  21.903  25.784  1.00  0.00    -0.458 OA
BRANCH  28  29
ATOM     29  C   UNL A   1      38.132  21.651  25.805  1.00  0.00     0.338 C 
ATOM     30  O   UNL A   1      38.725  20.733  25.264  1.00  0.00    -0.246 OA
BRANCH  29  31
ATOM     31  C   UNL A   1      38.820  22.746  26.503  1.00  0.00     0.060 A 
ATOM     32  C   UNL A   1      38.327  24.033  26.333  1.00  0.00     0.016 A 
ATOM     33  C   UNL A   1      40.013  22.536  27.191  1.00  0.00     0.016 A 
ATOM     34  C   UNL A   1      39.083  25.121  26.751  1.00  0.00     0.010 A 
ATOM     35  C   UNL A   1      40.720  23.638  27.695  1.00  0.00     0.010 A 
ATOM     36  C   UNL A   1      40.291  24.952  27.437  1.00  0.00    -0.014 A 
BRANCH  36  37
ATOM     37  C   UNL A   1      41.104  26.149  27.817  1.00  0.00     0.031 A 
ATOM     38  C   UNL A   1      40.527  27.206  28.730  1.00  0.00     0.074 A 
ATOM     39  C   UNL A   1      42.377  26.285  27.387  1.00  0.00     0.049 A 
ATOM     40  N   UNL A   1      40.991  28.395  29.021  1.00  0.00    -0.248 NA
ATOM     41  C   UNL A   1      39.244  26.894  29.383  1.00  0.00     0.031 C 
ATOM     42  C   UNL A   1      43.102  25.330  26.547  1.00  0.00     0.029 A 
ATOM     43  N   UNL A   1      43.294  27.289  27.603  1.00  0.00    -0.354 N 
ATOM     44  C   UNL A   1      40.028  28.997  29.824  1.00  0.00     0.074 A 
ATOM     45  C   UNL A   1      38.953  28.042  29.979  1.00  0.00     0.031 C 
ATOM     46  C   UNL A   1      44.354  25.769  26.351  1.00  0.00     0.029 A 
ATOM     47  C   UNL A   1      44.489  27.090  26.951  1.00  0.00     0.049 A 
ATOM     48  H   UNL A   1      43.111  28.075  28.167  1.00  0.00     0.167 HD
ATOM     49  C   UNL A   1      40.039  30.231  30.386  1.00  0.00     0.034 A 
ATOM     50  C   UNL A   1      45.559  27.896  26.796  1.00  0.00     0.034 A 
ATOM     51  C   UNL A   1      41.148  31.145  30.312  1.00  0.00     0.049 A 
ATOM     52  C   UNL A   1      45.539  29.266  27.414  1.00  0.00     0.074 A 
ATOM     53  C   UNL A   1      41.261  32.406  30.873  1.00  0.00     0.029 A 
ATOM     54  N   UNL A   1      42.343  30.892  29.656  1.00  0.00    -0.354 N 
ATOM     55  N   UNL A   1      44.620  29.823  28.165  1.00  0.00    -0.248 NA
ATOM     56  C   UNL A   1      46.708  30.122  27.165  1.00  0.00     0.031 C 
ATOM     57  C   UNL A   1      42.515  32.925  30.535  1.00  0.00     0.029 A 
ATOM     58  C   UNL A   1      43.194  31.976  29.788  1.00  0.00     0.049 A 
ATOM     59  H   UNL A   1      42.554  30.064  29.168  1.00  0.00     0.167 HD
ATOM     60  C   UNL A   1      45.109  31.080  28.498  1.00  0.00     0.074 A 
ATOM     61  C   UNL A   1      46.417  31.195  27.887  1.00  0.00     0.031 C 
ATOM     62  C   UNL A   1      44.517  32.060  29.224  1.00  0.00     0.034 A 
BRANCH  49  63
ATOM     63  C   UNL A   1      38.810  30.674  31.139  1.00  0.00     0.023 A 
ATOM     64  C   UNL A   1      38.560  30.192  32.438  1.00  0.00     0.012 A 
ATOM     65  C   UNL A   1      37.933  31.624  30.574  1.00  0.00     0.148 A 
ATOM     66  C   UNL A   1      37.440  30.623  33.151  1.00  0.00     0.002 A 
ATOM     67  C   UNL A   1      36.844  32.082  31.306  1.00  0.00     0.091 A 
ATOM     68  F   UNL A   1      38.176  32.057  29.328  1.00  0.00    -0.205 F 
ATOM     69  C   UNL A   1      36.589  31.574  32.590  1.00  0.00     0.022 A 
BRANCH  67  70
ATOM     70  S   UNL A   1      35.738  33.361  30.701  1.00  0.00     0.127 S 
ATOM     71  O   UNL A   1      35.854  34.373  31.751  1.00  0.00    -0.237 OA
ATOM     72  O   UNL A   1      36.361  33.733  29.430  1.00  0.00    -0.237 OA
ATOM     73  O   UNL A   1      34.429  32.738  30.575  1.00  0.00    -0.744 OA
ENDBRANCH  67  70
ENDBRANCH  49  63
BRANCH  50  74
ATOM     74  C   UNL A   1      46.730  27.432  25.997  1.00  0.00     0.023 A 
ATOM     75  C   UNL A   1      46.744  27.634  24.604  1.00  0.00     0.012 A 
ATOM     76  C   UNL A   1      47.837  26.811  26.611  1.00  0.00     0.148 A 
ATOM     77  C   UNL A   1      47.828  27.208  23.835  1.00  0.00     0.002 A 
ATOM     78  C   UNL A   1      48.939  26.444  25.848  1.00  0.00     0.091 A 
ATOM     79  F   UNL A   1      47.795  26.599  27.934  1.00  0.00    -0.205 F 
ATOM     80  C   UNL A   1      48.931  26.627  24.458  1.00  0.00     0.022 A 
BRANCH  78  81
ATOM     81  S   UNL A   1      50.442  25.799  26.592  1.00  0.00     0.127 S 
ATOM     82  O   UNL A   1      49.971  24.550  27.184  1.00  0.00    -0.237 OA
ATOM     83  O   UNL A   1      51.319  25.631  25.432  1.00  0.00    -0.237 OA
ATOM     84  O   UNL A   1      50.884  26.819  27.533  1.00  0.00    -0.744 OA
ENDBRANCH  78  81
ENDBRANCH  50  74
BRANCH  62  85
ATOM     85  C   UNL A   1      45.290  33.336  29.436  1.00  0.00     0.023 A 
ATOM     86  C   UNL A   1      46.148  33.458  30.547  1.00  0.00     0.012 A 
ATOM     87  C   UNL A   1      45.220  34.386  28.498  1.00  0.00     0.148 A 
ATOM     88  C   UNL A   1      46.899  34.617  30.739  1.00  0.00     0.002 A 
ATOM     89  C   UNL A   1      46.007  35.518  28.670  1.00  0.00     0.091 A 
ATOM     90  F   UNL A   1      44.385  34.258  27.456  1.00  0.00    -0.205 F 
ATOM     91  C   UNL A   1      46.837  35.641  29.796  1.00  0.00     0.022 A 
BRANCH  89  92
ATOM     92  S   UNL A   1      46.066  36.846  27.462  1.00  0.00     0.127 S 
ATOM     93  O   UNL A   1      47.027  37.763  28.071  1.00  0.00    -0.237 OA
ATOM     94  O   UNL A   1      46.554  36.157  26.266  1.00  0.00    -0.237 OA
ATOM     95  O   UNL A   1      44.704  37.350  27.352  1.00  0.00    -0.744 OA
ENDBRANCH  89  92
ENDBRANCH  62  85
ENDBRANCH  36  37
ENDBRANCH  29  31
ENDBRANCH  28  29
ENDBRANCH  27  28
ENDBRANCH   1  27
TORSDOF 19
ENDMDL
