MODEL 1
REMARK VINA RESULT:     -12.4      0.000      0.000
REMARK SMILES O=C(OCCOC(=O)c1cc(Br)ccc1N1CC2(CCCCC2)C1)c1ccc(-c2c3nc(c(-c4cccc(S(=O)(=O)[O-])c4F)c4ccc([nH]4)c(-c4cccc(S(=O)(=O)[O-])c4F)c4nc(c(-c5cccc(S(=O)(=O)[O-])c5F)c5ccc2[nH]5)C=C4)C=C3)cc1
REMARK SMILES IDX 4 1 3 2 2 3 1 4 25 5 26 6 87 7 27 8 86 9 28 10 29 11 30 12
REMARK SMILES IDX 80 13 31 14 85 15 79 16 81 17 32 18 84 19 78 20 77 21 33 23
REMARK SMILES IDX 65 24 45 25 64 26 46 27 49 28 63 29 82 30 47 31 48 32 62 34
REMARK SMILES IDX 83 35 50 36 34 37 35 38 43 39 36 40 38 41 44 42 37 43 39 44
REMARK SMILES IDX 40 45 41 46 42 47 66 48 67 49 75 50 68 51 70 52 76 53 69 54
REMARK SMILES IDX 71 55 72 56 73 57 74 58 51 59 52 60 60 61 53 62 55 63 61 64
REMARK SMILES IDX 54 65 56 66 57 67 58 68 59 69 5 70 6 71 7 72 8 73 9 74 10 75
REMARK SMILES IDX 15 76 11 77 14 78 12 79 13 80 16 81 17 82 24 83 18 84 19 85
REMARK SMILES IDX 23 86 20 87 22 88 21 89
REMARK H PARENT 81 22 49 33
REMARK Flexibility Score: inf
ROOT
ATOM      1  C   UNL A   1      32.226  29.928  26.142  1.00  0.00     0.275 C 
ENDROOT
BRANCH   1   2
ATOM      2  O   UNL A   1      33.027  30.108  27.302  1.00  0.00    -0.458 OA
BRANCH   2   3
ATOM      3  C   UNL A   1      33.414  31.377  27.561  1.00  0.00     0.338 C 
ATOM      4  O   UNL A   1      32.858  32.393  27.164  1.00  0.00    -0.246 OA
BRANCH   3   5
ATOM      5  C   UNL A   1      34.750  31.291  28.191  1.00  0.00     0.060 A 
ATOM      6  C   UNL A   1      35.137  30.082  28.778  1.00  0.00     0.016 A 
ATOM      7  C   UNL A   1      35.678  32.331  28.049  1.00  0.00     0.016 A 
ATOM      8  C   UNL A   1      36.440  29.901  29.187  1.00  0.00     0.010 A 
ATOM      9  C   UNL A   1      37.004  32.138  28.425  1.00  0.00     0.010 A 
ATOM     10  C   UNL A   1      37.375  30.923  29.004  1.00  0.00    -0.014 A 
BRANCH  10  11
ATOM     11  C   UNL A   1      38.709  30.671  29.555  1.00  0.00     0.031 A 
ATOM     12  C   UNL A   1      39.019  31.241  30.897  1.00  0.00     0.074 A 
ATOM     13  C   UNL A   1      39.488  29.757  28.954  1.00  0.00     0.049 A 
ATOM     14  N   UNL A   1      39.898  30.835  31.767  1.00  0.00    -0.248 NA
ATOM     15  C   UNL A   1      38.195  32.377  31.346  1.00  0.00     0.031 C 
ATOM     16  C   UNL A   1      39.219  29.152  27.647  1.00  0.00     0.029 A 
ATOM     17  N   UNL A   1      40.635  29.148  29.375  1.00  0.00    -0.354 N 
ATOM     18  C   UNL A   1      39.694  31.623  32.888  1.00  0.00     0.074 A 
ATOM     19  C   UNL A   1      38.658  32.578  32.570  1.00  0.00     0.031 C 
ATOM     20  C   UNL A   1      40.189  28.268  27.365  1.00  0.00     0.029 A 
ATOM     21  C   UNL A   1      41.124  28.226  28.481  1.00  0.00     0.049 A 
ATOM     22  H   UNL A   1      41.070  29.351  30.234  1.00  0.00     0.167 HD
ATOM     23  C   UNL A   1      40.291  31.513  34.095  1.00  0.00     0.034 A 
ATOM     24  C   UNL A   1      42.193  27.417  28.581  1.00  0.00     0.034 A 
ATOM     25  C   UNL A   1      41.345  30.576  34.356  1.00  0.00     0.049 A 
ATOM     26  C   UNL A   1      42.892  27.366  29.912  1.00  0.00     0.074 A 
ATOM     27  C   UNL A   1      42.067  30.384  35.516  1.00  0.00     0.029 A 
ATOM     28  N   UNL A   1      41.843  29.681  33.414  1.00  0.00    -0.354 N 
ATOM     29  N   UNL A   1      42.608  28.021  31.015  1.00  0.00    -0.248 NA
ATOM     30  C   UNL A   1      44.005  26.420  30.041  1.00  0.00     0.031 C 
ATOM     31  C   UNL A   1      43.019  29.386  35.269  1.00  0.00     0.029 A 
ATOM     32  C   UNL A   1      42.873  28.941  33.962  1.00  0.00     0.049 A 
ATOM     33  H   UNL A   1      41.510  29.589  32.493  1.00  0.00     0.167 HD
ATOM     34  C   UNL A   1      43.484  27.546  31.980  1.00  0.00     0.074 A 
ATOM     35  C   UNL A   1      44.292  26.529  31.332  1.00  0.00     0.031 C 
ATOM     36  C   UNL A   1      43.625  27.918  33.277  1.00  0.00     0.034 A 
BRANCH  23  37
ATOM     37  C   UNL A   1      39.778  32.404  35.189  1.00  0.00     0.023 A 
ATOM     38  C   UNL A   1      38.761  31.924  36.043  1.00  0.00     0.012 A 
ATOM     39  C   UNL A   1      40.266  33.710  35.359  1.00  0.00     0.148 A 
ATOM     40  C   UNL A   1      38.219  32.743  37.033  1.00  0.00     0.002 A 
ATOM     41  C   UNL A   1      39.742  34.511  36.367  1.00  0.00     0.091 A 
ATOM     42  F   UNL A   1      41.210  34.153  34.517  1.00  0.00    -0.205 F 
ATOM     43  C   UNL A   1      38.713  34.034  37.198  1.00  0.00     0.022 A 
BRANCH  41  44
ATOM     44  S   UNL A   1      40.323  36.181  36.685  1.00  0.00     0.127 S 
ATOM     45  O   UNL A   1      41.754  35.962  36.892  1.00  0.00    -0.237 OA
ATOM     46  O   UNL A   1      39.983  36.862  35.437  1.00  0.00    -0.237 OA
ATOM     47  O   UNL A   1      39.594  36.645  37.857  1.00  0.00    -0.744 OA
ENDBRANCH  41  44
ENDBRANCH  23  37
BRANCH  24  48
ATOM     48  C   UNL A   1      42.596  26.562  27.431  1.00  0.00     0.023 A 
ATOM     49  C   UNL A   1      43.417  27.076  26.410  1.00  0.00     0.012 A 
ATOM     50  C   UNL A   1      42.182  25.215  27.363  1.00  0.00     0.148 A 
ATOM     51  C   UNL A   1      43.791  26.276  25.328  1.00  0.00     0.002 A 
ATOM     52  C   UNL A   1      42.592  24.413  26.304  1.00  0.00     0.091 A 
ATOM     53  F   UNL A   1      41.388  24.745  28.336  1.00  0.00    -0.205 F 
ATOM     54  C   UNL A   1      43.386  24.945  25.279  1.00  0.00     0.022 A 
BRANCH  52  55
ATOM     55  S   UNL A   1      42.193  22.663  26.213  1.00  0.00     0.127 S 
ATOM     56  O   UNL A   1      40.733  22.687  26.258  1.00  0.00    -0.237 OA
ATOM     57  O   UNL A   1      42.763  22.287  24.918  1.00  0.00    -0.237 OA
ATOM     58  O   UNL A   1      42.853  22.049  27.357  1.00  0.00    -0.744 OA
ENDBRANCH  52  55
ENDBRANCH  24  48
BRANCH  36  59
ATOM     59  C   UNL A   1      44.693  27.219  34.066  1.00  0.00     0.023 A 
ATOM     60  C   UNL A   1      45.995  27.756  34.096  1.00  0.00     0.012 A 
ATOM     61  C   UNL A   1      44.390  26.077  34.829  1.00  0.00     0.148 A 
ATOM     62  C   UNL A   1      46.991  27.144  34.852  1.00  0.00     0.002 A 
ATOM     63  C   UNL A   1      45.375  25.503  35.620  1.00  0.00     0.091 A 
ATOM     64  F   UNL A   1      43.149  25.572  34.765  1.00  0.00    -0.205 F 
ATOM     65  C   UNL A   1      46.678  26.027  35.624  1.00  0.00     0.022 A 
BRANCH  63  66
ATOM     66  S   UNL A   1      45.025  24.127  36.719  1.00  0.00     0.127 S 
ATOM     67  O   UNL A   1      46.365  23.758  37.171  1.00  0.00    -0.237 OA
ATOM     68  O   UNL A   1      44.185  24.749  37.744  1.00  0.00    -0.237 OA
ATOM     69  O   UNL A   1      44.337  23.136  35.902  1.00  0.00    -0.744 OA
ENDBRANCH  63  66
ENDBRANCH  36  59
ENDBRANCH  10  11
ENDBRANCH   3   5
ENDBRANCH   2   3
ENDBRANCH   1   2
BRANCH   1  70
ATOM     70  C   UNL A   1      32.629  28.720  25.271  1.00  0.00     0.275 C 
BRANCH  70  71
ATOM     71  O   UNL A   1      32.838  29.017  23.874  1.00  0.00    -0.458 OA
BRANCH  71  72
ATOM     72  C   UNL A   1      32.247  28.175  22.986  1.00  0.00     0.340 C 
ATOM     73  O   UNL A   1      32.817  27.454  22.182  1.00  0.00    -0.246 OA
BRANCH  72  74
ATOM     74  C   UNL A   1      30.775  28.332  23.036  1.00  0.00     0.084 A 
ATOM     75  C   UNL A   1      30.222  29.441  22.383  1.00  0.00     0.033 A 
ATOM     76  C   UNL A   1      29.947  27.320  23.570  1.00  0.00     0.051 A 
ATOM     77  C   UNL A   1      28.837  29.546  22.272  1.00  0.00     0.018 A 
ATOM     78  C   UNL A   1      28.557  27.488  23.503  1.00  0.00     0.028 A 
ATOM     79  Br  UNL A   1      28.078  30.929  21.233  1.00  0.00    -0.051 Br
ATOM     80  C   UNL A   1      28.002  28.596  22.856  1.00  0.00     0.018 A 
BRANCH  76  81
ATOM     81  N   UNL A   1      30.501  26.146  24.092  1.00  0.00    -0.370 N 
ATOM     82  C   UNL A   1      30.427  25.618  25.416  1.00  0.00     0.125 C 
ATOM     83  C   UNL A   1      30.532  24.824  23.524  1.00  0.00     0.125 C 
ATOM     84  C   UNL A   1      31.211  24.404  24.862  1.00  0.00     0.005 C 
ATOM     85  C   UNL A   1      30.836  23.090  25.541  1.00  0.00     0.011 C 
ATOM     86  C   UNL A   1      32.744  24.555  24.753  1.00  0.00     0.011 C 
ATOM     87  C   UNL A   1      31.489  23.032  26.927  1.00  0.00     0.001 C 
ATOM     88  C   UNL A   1      33.417  24.438  26.113  1.00  0.00     0.001 C 
ATOM     89  C   UNL A   1      33.010  23.162  26.838  1.00  0.00     0.000 C 
ENDBRANCH  76  81
ENDBRANCH  72  74
ENDBRANCH  71  72
ENDBRANCH  70  71
ENDBRANCH   1  70
TORSDOF 15
ENDMDL
MODEL 2
REMARK VINA RESULT:     -12.3      1.763      2.341
REMARK SMILES O=C(OCCOC(=O)c1cc(Br)ccc1N1CC2(CCCCC2)C1)c1ccc(-c2c3nc(c(-c4cccc(S(=O)(=O)[O-])c4F)c4ccc([nH]4)c(-c4cccc(S(=O)(=O)[O-])c4F)c4nc(c(-c5cccc(S(=O)(=O)[O-])c5F)c5ccc2[nH]5)C=C4)C=C3)cc1
REMARK SMILES IDX 4 1 3 2 2 3 1 4 25 5 26 6 87 7 27 8 86 9 28 10 29 11 30 12
REMARK SMILES IDX 80 13 31 14 85 15 79 16 81 17 32 18 84 19 78 20 77 21 33 23
REMARK SMILES IDX 65 24 45 25 64 26 46 27 49 28 63 29 82 30 47 31 48 32 62 34
REMARK SMILES IDX 83 35 50 36 34 37 35 38 43 39 36 40 38 41 44 42 37 43 39 44
REMARK SMILES IDX 40 45 41 46 42 47 66 48 67 49 75 50 68 51 70 52 76 53 69 54
REMARK SMILES IDX 71 55 72 56 73 57 74 58 51 59 52 60 60 61 53 62 55 63 61 64
REMARK SMILES IDX 54 65 56 66 57 67 58 68 59 69 5 70 6 71 7 72 8 73 9 74 10 75
REMARK SMILES IDX 15 76 11 77 14 78 12 79 13 80 16 81 17 82 24 83 18 84 19 85
REMARK SMILES IDX 23 86 20 87 22 88 21 89
REMARK H PARENT 81 22 49 33
REMARK Flexibility Score: inf
ROOT
ATOM      1  C   UNL A   1      32.293  29.791  26.912  1.00  0.00     0.275 C 
ENDROOT
BRANCH   1   2
ATOM      2  O   UNL A   1      33.556  30.434  26.815  1.00  0.00    -0.458 OA
BRANCH   2   3
ATOM      3  C   UNL A   1      33.740  31.500  27.625  1.00  0.00     0.338 C 
ATOM      4  O   UNL A   1      33.027  32.495  27.678  1.00  0.00    -0.246 OA
BRANCH   3   5
ATOM      5  C   UNL A   1      35.078  31.342  28.236  1.00  0.00     0.060 A 
ATOM      6  C   UNL A   1      35.446  30.084  28.726  1.00  0.00     0.016 A 
ATOM      7  C   UNL A   1      36.025  32.373  28.168  1.00  0.00     0.016 A 
ATOM      8  C   UNL A   1      36.747  29.848  29.109  1.00  0.00     0.010 A 
ATOM      9  C   UNL A   1      37.350  32.126  28.518  1.00  0.00     0.010 A 
ATOM     10  C   UNL A   1      37.701  30.864  28.999  1.00  0.00    -0.014 A 
BRANCH  10  11
ATOM     11  C   UNL A   1      39.033  30.545  29.519  1.00  0.00     0.031 A 
ATOM     12  C   UNL A   1      39.411  31.118  30.841  1.00  0.00     0.074 A 
ATOM     13  C   UNL A   1      39.743  29.579  28.913  1.00  0.00     0.049 A 
ATOM     14  N   UNL A   1      40.290  30.677  31.695  1.00  0.00    -0.248 NA
ATOM     15  C   UNL A   1      38.665  32.306  31.292  1.00  0.00     0.031 C 
ATOM     16  C   UNL A   1      39.404  28.969  27.625  1.00  0.00     0.029 A 
ATOM     17  N   UNL A   1      40.865  28.913  29.314  1.00  0.00    -0.354 N 
ATOM     18  C   UNL A   1      40.161  31.493  32.807  1.00  0.00     0.074 A 
ATOM     19  C   UNL A   1      39.172  32.500  32.500  1.00  0.00     0.031 C 
ATOM     20  C   UNL A   1      40.315  28.028  27.332  1.00  0.00     0.029 A 
ATOM     21  C   UNL A   1      41.276  27.950  28.424  1.00  0.00     0.049 A 
ATOM     22  H   UNL A   1      41.334  29.105  30.158  1.00  0.00     0.167 HD
ATOM     23  C   UNL A   1      40.784  31.369  33.999  1.00  0.00     0.034 A 
ATOM     24  C   UNL A   1      42.301  27.084  28.510  1.00  0.00     0.034 A 
ATOM     25  C   UNL A   1      41.791  30.378  34.249  1.00  0.00     0.049 A 
ATOM     26  C   UNL A   1      43.032  27.015  29.822  1.00  0.00     0.074 A 
ATOM     27  C   UNL A   1      42.532  30.164  35.392  1.00  0.00     0.029 A 
ATOM     28  N   UNL A   1      42.211  29.441  33.310  1.00  0.00    -0.354 N 
ATOM     29  N   UNL A   1      42.815  27.702  30.921  1.00  0.00    -0.248 NA
ATOM     30  C   UNL A   1      44.093  26.009  29.939  1.00  0.00     0.031 C 
ATOM     31  C   UNL A   1      43.419  29.110  35.138  1.00  0.00     0.029 A 
ATOM     32  C   UNL A   1      43.212  28.653  33.843  1.00  0.00     0.049 A 
ATOM     33  H   UNL A   1      41.849  29.353  32.399  1.00  0.00     0.167 HD
ATOM     34  C   UNL A   1      43.689  27.194  31.870  1.00  0.00     0.074 A 
ATOM     35  C   UNL A   1      44.421  26.122  31.219  1.00  0.00     0.031 C 
ATOM     36  C   UNL A   1      43.887  27.578  33.156  1.00  0.00     0.034 A 
BRANCH  23  37
ATOM     37  C   UNL A   1      40.352  32.304  35.091  1.00  0.00     0.023 A 
ATOM     38  C   UNL A   1      41.089  33.488  35.310  1.00  0.00     0.012 A 
ATOM     39  C   UNL A   1      39.253  32.010  35.915  1.00  0.00     0.148 A 
ATOM     40  C   UNL A   1      40.753  34.352  36.353  1.00  0.00     0.002 A 
ATOM     41  C   UNL A   1      38.906  32.891  36.934  1.00  0.00     0.091 A 
ATOM     42  F   UNL A   1      38.588  30.865  35.707  1.00  0.00    -0.205 F 
ATOM     43  C   UNL A   1      39.660  34.055  37.160  1.00  0.00     0.022 A 
BRANCH  41  44
ATOM     44  S   UNL A   1      37.499  32.620  38.017  1.00  0.00     0.127 S 
ATOM     45  O   UNL A   1      37.483  31.161  38.121  1.00  0.00    -0.237 OA
ATOM     46  O   UNL A   1      37.917  33.313  39.235  1.00  0.00    -0.237 OA
ATOM     47  O   UNL A   1      36.350  33.204  37.341  1.00  0.00    -0.744 OA
ENDBRANCH  41  44
ENDBRANCH  23  37
BRANCH  24  48
ATOM     48  C   UNL A   1      42.623  26.189  27.364  1.00  0.00     0.023 A 
ATOM     49  C   UNL A   1      43.389  26.661  26.282  1.00  0.00     0.012 A 
ATOM     50  C   UNL A   1      42.188  24.847  27.362  1.00  0.00     0.148 A 
ATOM     51  C   UNL A   1      43.687  25.823  25.205  1.00  0.00     0.002 A 
ATOM     52  C   UNL A   1      42.524  24.007  26.306  1.00  0.00     0.091 A 
ATOM     53  F   UNL A   1      41.448  24.418  28.395  1.00  0.00    -0.205 F 
ATOM     54  C   UNL A   1      43.263  24.497  25.220  1.00  0.00     0.022 A 
BRANCH  52  55
ATOM     55  S   UNL A   1      42.098  22.261  26.292  1.00  0.00     0.127 S 
ATOM     56  O   UNL A   1      42.640  21.812  27.572  1.00  0.00    -0.237 OA
ATOM     57  O   UNL A   1      40.637  22.305  26.224  1.00  0.00    -0.237 OA
ATOM     58  O   UNL A   1      42.737  21.710  25.105  1.00  0.00    -0.744 OA
ENDBRANCH  52  55
ENDBRANCH  24  48
BRANCH  36  59
ATOM     59  C   UNL A   1      44.935  26.832  33.929  1.00  0.00     0.023 A 
ATOM     60  C   UNL A   1      46.282  27.234  33.834  1.00  0.00     0.012 A 
ATOM     61  C   UNL A   1      44.577  25.785  34.797  1.00  0.00     0.148 A 
ATOM     62  C   UNL A   1      47.265  26.580  34.571  1.00  0.00     0.002 A 
ATOM     63  C   UNL A   1      45.555  25.172  35.567  1.00  0.00     0.091 A 
ATOM     64  F   UNL A   1      43.292  25.406  34.852  1.00  0.00    -0.205 F 
ATOM     65  C   UNL A   1      46.900  25.559  35.447  1.00  0.00     0.022 A 
BRANCH  63  66
ATOM     66  S   UNL A   1      45.152  23.923  36.792  1.00  0.00     0.127 S 
ATOM     67  O   UNL A   1      44.610  22.852  35.959  1.00  0.00    -0.237 OA
ATOM     68  O   UNL A   1      46.458  23.633  37.387  1.00  0.00    -0.237 OA
ATOM     69  O   UNL A   1      44.207  24.555  37.703  1.00  0.00    -0.744 OA
ENDBRANCH  63  66
ENDBRANCH  36  59
ENDBRANCH  10  11
ENDBRANCH   3   5
ENDBRANCH   2   3
ENDBRANCH   1   2
BRANCH   1  70
ATOM     70  C   UNL A   1      32.344  28.372  27.516  1.00  0.00     0.275 C 
BRANCH  70  71
ATOM     71  O   UNL A   1      32.715  27.328  26.592  1.00  0.00    -0.458 OA
BRANCH  71  72
ATOM     72  C   UNL A   1      31.727  26.468  26.230  1.00  0.00     0.340 C 
ATOM     73  O   UNL A   1      31.195  25.635  26.947  1.00  0.00    -0.246 OA
BRANCH  72  74
ATOM     74  C   UNL A   1      31.447  26.591  24.781  1.00  0.00     0.084 A 
ATOM     75  C   UNL A   1      30.567  27.603  24.376  1.00  0.00     0.033 A 
ATOM     76  C   UNL A   1      32.166  25.835  23.828  1.00  0.00     0.051 A 
ATOM     77  C   UNL A   1      30.395  27.854  23.017  1.00  0.00     0.018 A 
ATOM     78  C   UNL A   1      31.919  26.064  22.468  1.00  0.00     0.028 A 
ATOM     79  Br  UNL A   1      29.364  29.334  22.456  1.00  0.00    -0.051 Br
ATOM     80  C   UNL A   1      31.038  27.070  22.062  1.00  0.00     0.018 A 
BRANCH  76  81
ATOM     81  N   UNL A   1      33.149  24.925  24.234  1.00  0.00    -0.370 N 
ATOM     82  C   UNL A   1      34.439  25.173  24.793  1.00  0.00     0.125 C 
ATOM     83  C   UNL A   1      33.007  23.712  24.996  1.00  0.00     0.125 C 
ATOM     84  C   UNL A   1      34.562  23.634  24.920  1.00  0.00     0.005 C 
ATOM     85  C   UNL A   1      35.375  23.198  26.135  1.00  0.00     0.011 C 
ATOM     86  C   UNL A   1      34.996  22.863  23.654  1.00  0.00     0.011 C 
ATOM     87  C   UNL A   1      36.866  23.414  25.850  1.00  0.00     0.001 C 
ATOM     88  C   UNL A   1      36.487  23.014  23.391  1.00  0.00     0.001 C 
ATOM     89  C   UNL A   1      37.320  22.643  24.610  1.00  0.00     0.000 C 
ENDBRANCH  76  81
ENDBRANCH  72  74
ENDBRANCH  71  72
ENDBRANCH  70  71
ENDBRANCH   1  70
TORSDOF 15
ENDMDL
MODEL 3
REMARK VINA RESULT:     -12.2      1.587      3.075
REMARK SMILES O=C(OCCOC(=O)c1cc(Br)ccc1N1CC2(CCCCC2)C1)c1ccc(-c2c3nc(c(-c4cccc(S(=O)(=O)[O-])c4F)c4ccc([nH]4)c(-c4cccc(S(=O)(=O)[O-])c4F)c4nc(c(-c5cccc(S(=O)(=O)[O-])c5F)c5ccc2[nH]5)C=C4)C=C3)cc1
REMARK SMILES IDX 4 1 3 2 2 3 1 4 25 5 26 6 87 7 27 8 86 9 28 10 29 11 30 12
REMARK SMILES IDX 80 13 31 14 85 15 79 16 81 17 32 18 84 19 78 20 77 21 33 23
REMARK SMILES IDX 65 24 45 25 64 26 46 27 49 28 63 29 82 30 47 31 48 32 62 34
REMARK SMILES IDX 83 35 50 36 34 37 35 38 43 39 36 40 38 41 44 42 37 43 39 44
REMARK SMILES IDX 40 45 41 46 42 47 66 48 67 49 75 50 68 51 70 52 76 53 69 54
REMARK SMILES IDX 71 55 72 56 73 57 74 58 51 59 52 60 60 61 53 62 55 63 61 64
REMARK SMILES IDX 54 65 56 66 57 67 58 68 59 69 5 70 6 71 7 72 8 73 9 74 10 75
REMARK SMILES IDX 15 76 11 77 14 78 12 79 13 80 16 81 17 82 24 83 18 84 19 85
REMARK SMILES IDX 23 86 20 87 22 88 21 89
REMARK H PARENT 81 22 49 33
REMARK Flexibility Score: inf
ROOT
ATOM      1  C   UNL A   1      31.936  29.362  26.926  1.00  0.00     0.275 C 
ENDROOT
BRANCH   1   2
ATOM      2  O   UNL A   1      33.169  30.030  26.698  1.00  0.00    -0.458 OA
BRANCH   2   3
ATOM      3  C   UNL A   1      33.336  31.200  27.354  1.00  0.00     0.338 C 
ATOM      4  O   UNL A   1      32.623  32.190  27.252  1.00  0.00    -0.246 OA
BRANCH   3   5
ATOM      5  C   UNL A   1      34.662  31.132  28.008  1.00  0.00     0.060 A 
ATOM      6  C   UNL A   1      35.084  29.910  28.542  1.00  0.00     0.016 A 
ATOM      7  C   UNL A   1      35.551  32.213  27.940  1.00  0.00     0.016 A 
ATOM      8  C   UNL A   1      36.383  29.757  28.970  1.00  0.00     0.010 A 
ATOM      9  C   UNL A   1      36.876  32.050  28.336  1.00  0.00     0.010 A 
ATOM     10  C   UNL A   1      37.282  30.822  28.860  1.00  0.00    -0.014 A 
BRANCH  10  11
ATOM     11  C   UNL A   1      38.613  30.592  29.427  1.00  0.00     0.031 A 
ATOM     12  C   UNL A   1      38.902  31.179  30.766  1.00  0.00     0.074 A 
ATOM     13  C   UNL A   1      39.409  29.681  28.843  1.00  0.00     0.049 A 
ATOM     14  N   UNL A   1      39.777  30.793  31.649  1.00  0.00    -0.248 NA
ATOM     15  C   UNL A   1      38.060  32.310  31.195  1.00  0.00     0.031 C 
ATOM     16  C   UNL A   1      39.161  29.060  27.541  1.00  0.00     0.029 A 
ATOM     17  N   UNL A   1      40.560  29.092  29.282  1.00  0.00    -0.354 N 
ATOM     18  C   UNL A   1      39.552  31.590  32.760  1.00  0.00     0.074 A 
ATOM     19  C   UNL A   1      38.507  32.528  32.422  1.00  0.00     0.031 C 
ATOM     20  C   UNL A   1      40.145  28.186  27.277  1.00  0.00     0.029 A 
ATOM     21  C   UNL A   1      41.069  28.167  28.403  1.00  0.00     0.049 A 
ATOM     22  H   UNL A   1      40.984  29.309  30.144  1.00  0.00     0.167 HD
ATOM     23  C   UNL A   1      40.138  31.499  33.974  1.00  0.00     0.034 A 
ATOM     24  C   UNL A   1      42.147  27.372  28.523  1.00  0.00     0.034 A 
ATOM     25  C   UNL A   1      41.201  30.578  34.256  1.00  0.00     0.049 A 
ATOM     26  C   UNL A   1      42.833  27.343  29.860  1.00  0.00     0.074 A 
ATOM     27  C   UNL A   1      41.913  30.407  35.425  1.00  0.00     0.029 A 
ATOM     28  N   UNL A   1      41.719  29.680  33.328  1.00  0.00    -0.354 N 
ATOM     29  N   UNL A   1      42.529  28.006  30.954  1.00  0.00    -0.248 NA
ATOM     30  C   UNL A   1      43.956  26.413  30.011  1.00  0.00     0.031 C 
ATOM     31  C   UNL A   1      42.879  29.419  35.198  1.00  0.00     0.029 A 
ATOM     32  C   UNL A   1      42.752  28.959  33.893  1.00  0.00     0.049 A 
ATOM     33  H   UNL A   1      41.397  29.575  32.404  1.00  0.00     0.167 HD
ATOM     34  C   UNL A   1      43.401  27.552  31.932  1.00  0.00     0.074 A 
ATOM     35  C   UNL A   1      44.228  26.538  31.303  1.00  0.00     0.031 C 
ATOM     36  C   UNL A   1      43.524  27.939  33.227  1.00  0.00     0.034 A 
BRANCH  23  37
ATOM     37  C   UNL A   1      39.602  32.395  35.054  1.00  0.00     0.023 A 
ATOM     38  C   UNL A   1      38.519  31.947  35.840  1.00  0.00     0.012 A 
ATOM     39  C   UNL A   1      40.136  33.675  35.275  1.00  0.00     0.148 A 
ATOM     40  C   UNL A   1      37.958  32.774  36.813  1.00  0.00     0.002 A 
ATOM     41  C   UNL A   1      39.591  34.483  36.266  1.00  0.00     0.091 A 
ATOM     42  F   UNL A   1      41.145  34.090  34.495  1.00  0.00    -0.205 F 
ATOM     43  C   UNL A   1      38.497  34.039  37.029  1.00  0.00     0.022 A 
BRANCH  41  44
ATOM     44  S   UNL A   1      40.224  36.120  36.647  1.00  0.00     0.127 S 
ATOM     45  O   UNL A   1      39.388  36.504  37.783  1.00  0.00    -0.237 OA
ATOM     46  O   UNL A   1      41.618  35.835  36.984  1.00  0.00    -0.237 OA
ATOM     47  O   UNL A   1      40.034  36.917  35.442  1.00  0.00    -0.744 OA
ENDBRANCH  41  44
ENDBRANCH  23  37
BRANCH  24  48
ATOM     48  C   UNL A   1      42.572  26.510  27.385  1.00  0.00     0.023 A 
ATOM     49  C   UNL A   1      43.406  27.022  26.373  1.00  0.00     0.012 A 
ATOM     50  C   UNL A   1      42.167  25.161  27.321  1.00  0.00     0.148 A 
ATOM     51  C   UNL A   1      43.801  26.215  25.303  1.00  0.00     0.002 A 
ATOM     52  C   UNL A   1      42.598  24.353  26.275  1.00  0.00     0.091 A 
ATOM     53  F   UNL A   1      41.361  24.693  28.286  1.00  0.00    -0.205 F 
ATOM     54  C   UNL A   1      43.405  24.881  25.258  1.00  0.00     0.022 A 
BRANCH  52  55
ATOM     55  S   UNL A   1      42.210  22.600  26.191  1.00  0.00     0.127 S 
ATOM     56  O   UNL A   1      42.887  22.203  24.959  1.00  0.00    -0.237 OA
ATOM     57  O   UNL A   1      42.823  22.093  27.420  1.00  0.00    -0.237 OA
ATOM     58  O   UNL A   1      40.756  22.519  26.170  1.00  0.00    -0.744 OA
ENDBRANCH  52  55
ENDBRANCH  24  48
BRANCH  36  59
ATOM     59  C   UNL A   1      44.593  27.261  34.034  1.00  0.00     0.023 A 
ATOM     60  C   UNL A   1      45.886  27.816  34.075  1.00  0.00     0.012 A 
ATOM     61  C   UNL A   1      44.296  26.121  34.802  1.00  0.00     0.148 A 
ATOM     62  C   UNL A   1      46.883  27.224  34.847  1.00  0.00     0.002 A 
ATOM     63  C   UNL A   1      45.280  25.567  35.610  1.00  0.00     0.091 A 
ATOM     64  F   UNL A   1      43.064  25.598  34.729  1.00  0.00    -0.205 F 
ATOM     65  C   UNL A   1      46.576  26.109  35.624  1.00  0.00     0.022 A 
BRANCH  63  66
ATOM     66  S   UNL A   1      44.937  24.196  36.716  1.00  0.00     0.127 S 
ATOM     67  O   UNL A   1      46.251  23.950  37.305  1.00  0.00    -0.237 OA
ATOM     68  O   UNL A   1      43.953  24.771  37.635  1.00  0.00    -0.237 OA
ATOM     69  O   UNL A   1      44.414  23.130  35.871  1.00  0.00    -0.744 OA
ENDBRANCH  63  66
ENDBRANCH  36  59
ENDBRANCH  10  11
ENDBRANCH   3   5
ENDBRANCH   2   3
ENDBRANCH   1   2
BRANCH   1  70
ATOM     70  C   UNL A   1      32.077  27.870  27.293  1.00  0.00     0.275 C 
BRANCH  70  71
ATOM     71  O   UNL A   1      30.846  27.116  27.271  1.00  0.00    -0.458 OA
BRANCH  71  72
ATOM     72  C   UNL A   1      30.664  26.295  26.203  1.00  0.00     0.340 C 
ATOM     73  O   UNL A   1      29.618  25.758  25.874  1.00  0.00    -0.246 OA
BRANCH  72  74
ATOM     74  C   UNL A   1      31.959  26.031  25.535  1.00  0.00     0.084 A 
ATOM     75  C   UNL A   1      32.817  25.099  26.135  1.00  0.00     0.033 A 
ATOM     76  C   UNL A   1      32.249  26.563  24.259  1.00  0.00     0.051 A 
ATOM     77  C   UNL A   1      33.972  24.706  25.464  1.00  0.00     0.018 A 
ATOM     78  C   UNL A   1      33.453  26.200  23.640  1.00  0.00     0.028 A 
ATOM     79  Br  UNL A   1      35.040  23.314  26.164  1.00  0.00    -0.051 Br
ATOM     80  C   UNL A   1      34.312  25.275  24.238  1.00  0.00     0.018 A 
BRANCH  76  81
ATOM     81  N   UNL A   1      31.323  27.380  23.600  1.00  0.00    -0.370 N 
ATOM     82  C   UNL A   1      31.037  28.766  23.791  1.00  0.00     0.125 C 
ATOM     83  C   UNL A   1      31.032  27.473  22.193  1.00  0.00     0.125 C 
ATOM     84  C   UNL A   1      30.057  28.618  22.601  1.00  0.00     0.005 C 
ATOM     85  C   UNL A   1      29.952  29.883  21.754  1.00  0.00     0.011 C 
ATOM     86  C   UNL A   1      28.660  28.042  22.917  1.00  0.00     0.011 C 
ATOM     87  C   UNL A   1      29.091  30.916  22.492  1.00  0.00     0.001 C 
ATOM     88  C   UNL A   1      27.769  29.074  23.593  1.00  0.00     0.001 C 
ATOM     89  C   UNL A   1      27.696  30.370  22.798  1.00  0.00     0.000 C 
ENDBRANCH  76  81
ENDBRANCH  72  74
ENDBRANCH  71  72
ENDBRANCH  70  71
ENDBRANCH   1  70
TORSDOF 15
ENDMDL
