MODEL 1
REMARK VINA RESULT:     -11.1      0.000      0.000
REMARK SMILES COc1cc(/C=C2\SC(=S)N([C@H](C)C(=O)Nc3ccc(C(=O)OCCOC(=O)c4ccc(-c5c6nc(c(-c7cccc(S(=O)(=O)[O-])c7F)c7ccc([nH]7)c(-c7cccc(S(=O)(=O)[O-])c7F)c7nc(c(-c8cccc(S(=O)(=O)[O-])c8F)c8ccc5[nH]8)C=C7)C=C6)cc4)cc3)C2=O)ccc1O
REMARK SMILES IDX 24 1 23 2 21 3 22 4 20 5 17 6 18 7 93 8 19 9 92 10 16 11
REMARK SMILES IDX 14 12 15 13 12 15 13 16 11 17 6 18 7 19 8 20 94 21 9 22
REMARK SMILES IDX 95 23 10 24 5 25 3 26 4 27 98 28 97 29 96 30 2 31 1 32 99 33
REMARK SMILES IDX 25 35 26 36 27 37 28 38 29 39 30 40 91 41 31 42 90 43 32 44
REMARK SMILES IDX 33 45 34 46 84 47 35 48 89 49 83 50 85 51 36 52 88 53 82 54
REMARK SMILES IDX 81 55 37 57 69 58 49 59 68 60 50 61 53 62 67 63 86 64 51 65
REMARK SMILES IDX 52 66 66 68 87 69 54 70 38 71 39 72 47 73 40 74 42 75 48 76
REMARK SMILES IDX 41 77 43 78 44 79 45 80 46 81 70 82 71 83 79 84 72 85 74 86
REMARK SMILES IDX 80 87 73 88 75 89 76 90 77 91 78 92 55 93 56 94 64 95 57 96
REMARK SMILES IDX 59 97 65 98 58 99 60 100 61 101 62 102 63 103
REMARK H PARENT 16 14 99 34 85 56 53 67
REMARK Flexibility Score: inf
ROOT
ATOM      1  C   UNL A   1      32.312  28.398  27.175  1.00  0.00     0.275 C 
ENDROOT
BRANCH   1   2
ATOM      2  O   UNL A   1      31.858  27.800  25.945  1.00  0.00    -0.458 OA
BRANCH   2   3
ATOM      3  C   UNL A   1      32.681  26.864  25.414  1.00  0.00     0.338 C 
ATOM      4  O   UNL A   1      33.719  27.061  24.810  1.00  0.00    -0.246 OA
BRANCH   3   5
ATOM      5  C   UNL A   1      32.176  25.502  25.699  1.00  0.00     0.060 A 
ATOM      6  C   UNL A   1      31.543  22.814  25.951  1.00  0.00     0.041 A 
ATOM      7  C   UNL A   1      32.572  23.338  26.718  1.00  0.00     0.027 A 
ATOM      8  C   UNL A   1      30.713  23.656  25.214  1.00  0.00     0.027 A 
ATOM      9  C   UNL A   1      32.936  24.663  26.523  1.00  0.00     0.018 A 
ATOM     10  C   UNL A   1      31.022  25.011  25.091  1.00  0.00     0.018 A 
BRANCH   6  11
ATOM     11  N   UNL A   1      31.433  21.425  25.880  1.00  0.00    -0.324 N 
ATOM     12  C   UNL A   1      32.128  20.586  25.044  1.00  0.00     0.247 C 
ATOM     13  O   UNL A   1      31.919  19.370  25.164  1.00  0.00    -0.272 OA
ATOM     14  H   UNL A   1      30.791  21.003  26.494  1.00  0.00     0.170 HD
BRANCH  12  15
ATOM     15  C   UNL A   1      33.082  21.078  23.912  1.00  0.00     0.178 C 
ATOM     16  C   UNL A   1      32.219  21.747  22.824  1.00  0.00     0.042 C 
BRANCH  15  17
ATOM     17  N   UNL A   1      34.310  21.861  24.246  1.00  0.00    -0.280 N 
ATOM     18  C   UNL A   1      37.523  21.958  25.936  1.00  0.00     0.029 C 
ATOM     19  C   UNL A   1      36.474  22.242  25.147  1.00  0.00     0.081 C 
ATOM     20  S   UNL A   1      36.142  23.699  24.316  1.00  0.00    -0.054 SA
ATOM     21  C   UNL A   1      35.411  21.246  24.822  1.00  0.00     0.266 C 
ATOM     22  C   UNL A   1      34.607  23.101  23.699  1.00  0.00     0.149 C 
ATOM     23  O   UNL A   1      35.578  20.043  24.966  1.00  0.00    -0.268 OA
ATOM     24  S   UNL A   1      33.761  24.002  22.573  1.00  0.00    -0.052 S 
BRANCH  18  25
ATOM     25  C   UNL A   1      38.681  22.833  26.201  1.00  0.00    -0.020 A 
ATOM     26  C   UNL A   1      41.121  23.063  26.269  1.00  0.00     0.161 A 
ATOM     27  C   UNL A   1      39.968  22.272  26.142  1.00  0.00     0.058 A 
ATOM     28  C   UNL A   1      40.969  24.439  26.450  1.00  0.00     0.157 A 
ATOM     29  C   UNL A   1      39.698  24.996  26.592  1.00  0.00     0.051 A 
ATOM     30  C   UNL A   1      38.557  24.197  26.479  1.00  0.00     0.012 A 
BRANCH  26  31
ATOM     31  O   UNL A   1      42.294  22.389  26.069  1.00  0.00    -0.493 OA
ATOM     32  C   UNL A   1      42.260  20.962  26.139  1.00  0.00     0.278 C 
ENDBRANCH  26  31
BRANCH  28  33
ATOM     33  O   UNL A   1      41.999  25.335  26.426  1.00  0.00    -0.504 OA
ATOM     34  H   UNL A   1      41.980  26.087  26.985  1.00  0.00     0.293 HD
ENDBRANCH  28  33
ENDBRANCH  18  25
ENDBRANCH  15  17
ENDBRANCH  12  15
ENDBRANCH   6  11
ENDBRANCH   3   5
ENDBRANCH   2   3
ENDBRANCH   1   2
BRANCH   1  35
ATOM     35  C   UNL A   1      32.609  29.883  26.970  1.00  0.00     0.275 C 
BRANCH  35  36
ATOM     36  O   UNL A   1      34.020  30.098  26.777  1.00  0.00    -0.458 OA
BRANCH  36  37
ATOM     37  C   UNL A   1      34.550  31.111  27.502  1.00  0.00     0.338 C 
ATOM     38  O   UNL A   1      34.030  32.184  27.761  1.00  0.00    -0.246 OA
BRANCH  37  39
ATOM     39  C   UNL A   1      35.847  30.717  28.067  1.00  0.00     0.060 A 
ATOM     40  C   UNL A   1      35.937  29.466  28.662  1.00  0.00     0.016 A 
ATOM     41  C   UNL A   1      36.887  31.629  28.211  1.00  0.00     0.016 A 
ATOM     42  C   UNL A   1      36.970  29.182  29.548  1.00  0.00     0.010 A 
ATOM     43  C   UNL A   1      38.008  31.275  28.975  1.00  0.00     0.010 A 
ATOM     44  C   UNL A   1      38.041  30.070  29.704  1.00  0.00    -0.014 A 
BRANCH  44  45
ATOM     45  C   UNL A   1      39.169  29.738  30.631  1.00  0.00     0.031 A 
ATOM     46  C   UNL A   1      39.239  30.349  32.012  1.00  0.00     0.074 A 
ATOM     47  C   UNL A   1      40.140  28.882  30.240  1.00  0.00     0.049 A 
ATOM     48  N   UNL A   1      40.214  30.313  32.884  1.00  0.00    -0.248 NA
ATOM     49  C   UNL A   1      38.067  31.116  32.467  1.00  0.00     0.031 C 
ATOM     50  C   UNL A   1      40.202  28.198  28.946  1.00  0.00     0.029 A 
ATOM     51  N   UNL A   1      41.270  28.444  30.891  1.00  0.00    -0.354 N 
ATOM     52  C   UNL A   1      39.810  31.113  33.948  1.00  0.00     0.074 A 
ATOM     53  C   UNL A   1      38.497  31.620  33.615  1.00  0.00     0.031 C 
ATOM     54  C   UNL A   1      41.280  27.401  28.912  1.00  0.00     0.029 A 
ATOM     55  C   UNL A   1      42.049  27.601  30.131  1.00  0.00     0.049 A 
ATOM     56  H   UNL A   1      41.499  28.708  31.812  1.00  0.00     0.167 HD
ATOM     57  C   UNL A   1      40.466  31.396  35.101  1.00  0.00     0.034 A 
ATOM     58  C   UNL A   1      43.274  27.084  30.353  1.00  0.00     0.034 A 
ATOM     59  C   UNL A   1      41.743  30.834  35.461  1.00  0.00     0.049 A 
ATOM     60  C   UNL A   1      43.985  27.426  31.632  1.00  0.00     0.074 A 
ATOM     61  C   UNL A   1      42.468  31.025  36.625  1.00  0.00     0.029 A 
ATOM     62  N   UNL A   1      42.480  29.967  34.669  1.00  0.00    -0.354 N 
ATOM     63  N   UNL A   1      43.569  28.155  32.638  1.00  0.00    -0.248 NA
ATOM     64  C   UNL A   1      45.331  26.865  31.810  1.00  0.00     0.031 C 
ATOM     65  C   UNL A   1      43.658  30.296  36.524  1.00  0.00     0.029 A 
ATOM     66  C   UNL A   1      43.656  29.621  35.315  1.00  0.00     0.049 A 
ATOM     67  H   UNL A   1      42.208  29.646  33.781  1.00  0.00     0.167 HD
ATOM     68  C   UNL A   1      44.586  28.114  33.582  1.00  0.00     0.074 A 
ATOM     69  C   UNL A   1      45.628  27.267  33.039  1.00  0.00     0.031 C 
ATOM     70  C   UNL A   1      44.661  28.735  34.785  1.00  0.00     0.034 A 
BRANCH  57  71
ATOM     71  C   UNL A   1      39.816  32.351  36.073  1.00  0.00     0.023 A 
ATOM     72  C   UNL A   1      38.882  31.875  37.015  1.00  0.00     0.012 A 
ATOM     73  C   UNL A   1      40.184  33.712  36.097  1.00  0.00     0.148 A 
ATOM     74  C   UNL A   1      38.297  32.743  37.938  1.00  0.00     0.002 A 
ATOM     75  C   UNL A   1      39.634  34.562  37.051  1.00  0.00     0.091 A 
ATOM     76  F   UNL A   1      41.065  34.152  35.187  1.00  0.00    -0.205 F 
ATOM     77  C   UNL A   1      38.680  34.081  37.963  1.00  0.00     0.022 A 
BRANCH  75  78
ATOM     78  S   UNL A   1      40.124  36.282  37.219  1.00  0.00     0.127 S 
ATOM     79  O   UNL A   1      41.558  36.156  37.477  1.00  0.00    -0.237 OA
ATOM     80  O   UNL A   1      39.789  36.827  35.903  1.00  0.00    -0.237 OA
ATOM     81  O   UNL A   1      39.337  36.820  38.319  1.00  0.00    -0.744 OA
ENDBRANCH  75  78
ENDBRANCH  57  71
BRANCH  58  82
ATOM     82  C   UNL A   1      43.907  26.191  29.339  1.00  0.00     0.023 A 
ATOM     83  C   UNL A   1      43.769  24.795  29.463  1.00  0.00     0.012 A 
ATOM     84  C   UNL A   1      44.622  26.713  28.242  1.00  0.00     0.148 A 
ATOM     85  C   UNL A   1      44.359  23.935  28.536  1.00  0.00     0.002 A 
ATOM     86  C   UNL A   1      45.143  25.854  27.282  1.00  0.00     0.091 A 
ATOM     87  F   UNL A   1      44.761  28.043  28.146  1.00  0.00    -0.205 F 
ATOM     88  C   UNL A   1      45.036  24.464  27.441  1.00  0.00     0.022 A 
BRANCH  86  89
ATOM     89  S   UNL A   1      45.866  26.442  25.749  1.00  0.00     0.127 S 
ATOM     90  O   UNL A   1      45.889  25.226  24.941  1.00  0.00    -0.237 OA
ATOM     91  O   UNL A   1      44.887  27.447  25.327  1.00  0.00    -0.237 OA
ATOM     92  O   UNL A   1      47.167  26.988  26.112  1.00  0.00    -0.744 OA
ENDBRANCH  86  89
ENDBRANCH  58  82
BRANCH  70  93
ATOM     93  C   UNL A   1      45.886  28.483  35.621  1.00  0.00     0.023 A 
ATOM     94  C   UNL A   1      47.016  29.315  35.488  1.00  0.00     0.012 A 
ATOM     95  C   UNL A   1      45.896  27.451  36.582  1.00  0.00     0.148 A 
ATOM     96  C   UNL A   1      48.150  29.100  36.270  1.00  0.00     0.002 A 
ATOM     97  C   UNL A   1      47.009  27.278  37.395  1.00  0.00     0.091 A 
ATOM     98  F   UNL A   1      44.819  26.659  36.679  1.00  0.00    -0.205 F 
ATOM     99  C   UNL A   1      48.143  28.090  37.230  1.00  0.00     0.022 A 
BRANCH  97 100
ATOM    100  S   UNL A   1      47.053  26.068  38.721  1.00  0.00     0.127 S 
ATOM    101  O   UNL A   1      46.505  24.884  38.061  1.00  0.00    -0.237 OA
ATOM    102  O   UNL A   1      48.483  25.993  39.021  1.00  0.00    -0.237 OA
ATOM    103  O   UNL A   1      46.236  26.617  39.794  1.00  0.00    -0.744 OA
ENDBRANCH  97 100
ENDBRANCH  70  93
ENDBRANCH  44  45
ENDBRANCH  37  39
ENDBRANCH  36  37
ENDBRANCH  35  36
ENDBRANCH   1  35
TORSDOF 20
ENDMDL
MODEL 2
REMARK VINA RESULT:     -11.0      4.970      8.913
REMARK SMILES COc1cc(/C=C2\SC(=S)N([C@H](C)C(=O)Nc3ccc(C(=O)OCCOC(=O)c4ccc(-c5c6nc(c(-c7cccc(S(=O)(=O)[O-])c7F)c7ccc([nH]7)c(-c7cccc(S(=O)(=O)[O-])c7F)c7nc(c(-c8cccc(S(=O)(=O)[O-])c8F)c8ccc5[nH]8)C=C7)C=C6)cc4)cc3)C2=O)ccc1O
REMARK SMILES IDX 24 1 23 2 21 3 22 4 20 5 17 6 18 7 93 8 19 9 92 10 16 11
REMARK SMILES IDX 14 12 15 13 12 15 13 16 11 17 6 18 7 19 8 20 94 21 9 22
REMARK SMILES IDX 95 23 10 24 5 25 3 26 4 27 98 28 97 29 96 30 2 31 1 32 99 33
REMARK SMILES IDX 25 35 26 36 27 37 28 38 29 39 30 40 91 41 31 42 90 43 32 44
REMARK SMILES IDX 33 45 34 46 84 47 35 48 89 49 83 50 85 51 36 52 88 53 82 54
REMARK SMILES IDX 81 55 37 57 69 58 49 59 68 60 50 61 53 62 67 63 86 64 51 65
REMARK SMILES IDX 52 66 66 68 87 69 54 70 38 71 39 72 47 73 40 74 42 75 48 76
REMARK SMILES IDX 41 77 43 78 44 79 45 80 46 81 70 82 71 83 79 84 72 85 74 86
REMARK SMILES IDX 80 87 73 88 75 89 76 90 77 91 78 92 55 93 56 94 64 95 57 96
REMARK SMILES IDX 59 97 65 98 58 99 60 100 61 101 62 102 63 103
REMARK H PARENT 16 14 99 34 85 56 53 67
REMARK Flexibility Score: inf
ROOT
ATOM      1  C   UNL A   1      38.319  20.766  25.345  1.00  0.00     0.275 C 
ENDROOT
BRANCH   1   2
ATOM      2  O   UNL A   1      37.219  21.695  25.371  1.00  0.00    -0.458 OA
BRANCH   2   3
ATOM      3  C   UNL A   1      36.011  21.179  25.042  1.00  0.00     0.338 C 
ATOM      4  O   UNL A   1      35.748  20.010  24.831  1.00  0.00    -0.246 OA
BRANCH   3   5
ATOM      5  C   UNL A   1      34.980  22.241  25.007  1.00  0.00     0.060 A 
ATOM      6  C   UNL A   1      32.844  23.993  25.253  1.00  0.00     0.041 A 
ATOM      7  C   UNL A   1      33.906  24.098  26.138  1.00  0.00     0.027 A 
ATOM      8  C   UNL A   1      32.933  23.158  24.140  1.00  0.00     0.027 A 
ATOM      9  C   UNL A   1      34.929  23.163  26.059  1.00  0.00     0.018 A 
ATOM     10  C   UNL A   1      34.010  22.282  24.008  1.00  0.00     0.018 A 
BRANCH   6  11
ATOM     11  N   UNL A   1      31.672  24.679  25.567  1.00  0.00    -0.324 N 
ATOM     12  C   UNL A   1      31.459  26.033  25.472  1.00  0.00     0.247 C 
ATOM     13  O   UNL A   1      30.326  26.447  25.758  1.00  0.00    -0.272 OA
ATOM     14  H   UNL A   1      30.917  24.136  25.890  1.00  0.00     0.170 HD
BRANCH  12  15
ATOM     15  C   UNL A   1      32.571  27.067  25.115  1.00  0.00     0.178 C 
ATOM     16  C   UNL A   1      32.725  27.082  23.582  1.00  0.00     0.042 C 
BRANCH  15  17
ATOM     17  N   UNL A   1      32.548  28.436  25.713  1.00  0.00    -0.280 N 
ATOM     18  C   UNL A   1      34.116  30.837  27.944  1.00  0.00     0.029 C 
ATOM     19  C   UNL A   1      33.346  30.264  27.004  1.00  0.00     0.081 C 
ATOM     20  S   UNL A   1      31.966  30.913  26.230  1.00  0.00    -0.054 SA
ATOM     21  C   UNL A   1      33.634  28.916  26.430  1.00  0.00     0.266 C 
ATOM     22  C   UNL A   1      31.678  29.439  25.313  1.00  0.00     0.149 C 
ATOM     23  O   UNL A   1      34.736  28.392  26.517  1.00  0.00    -0.268 OA
ATOM     24  S   UNL A   1      30.506  29.423  24.121  1.00  0.00    -0.052 S 
BRANCH  18  25
ATOM     25  C   UNL A   1      33.982  32.209  28.467  1.00  0.00    -0.020 A 
ATOM     26  C   UNL A   1      34.735  33.878  30.098  1.00  0.00     0.161 A 
ATOM     27  C   UNL A   1      34.721  32.562  29.610  1.00  0.00     0.058 A 
ATOM     28  C   UNL A   1      33.998  34.849  29.418  1.00  0.00     0.157 A 
ATOM     29  C   UNL A   1      33.197  34.496  28.333  1.00  0.00     0.051 A 
ATOM     30  C   UNL A   1      33.179  33.180  27.863  1.00  0.00     0.012 A 
BRANCH  26  31
ATOM     31  O   UNL A   1      35.594  34.084  31.142  1.00  0.00    -0.493 OA
ATOM     32  C   UNL A   1      36.925  33.579  31.017  1.00  0.00     0.278 C 
ENDBRANCH  26  31
BRANCH  28  33
ATOM     33  O   UNL A   1      34.055  36.187  29.690  1.00  0.00    -0.504 OA
ATOM     34  H   UNL A   1      34.599  36.747  29.174  1.00  0.00     0.293 HD
ENDBRANCH  28  33
ENDBRANCH  18  25
ENDBRANCH  15  17
ENDBRANCH  12  15
ENDBRANCH   6  11
ENDBRANCH   3   5
ENDBRANCH   2   3
ENDBRANCH   1   2
BRANCH   1  35
ATOM     35  C   UNL A   1      39.503  21.315  26.140  1.00  0.00     0.275 C 
BRANCH  35  36
ATOM     36  O   UNL A   1      40.295  20.241  26.682  1.00  0.00    -0.458 OA
BRANCH  36  37
ATOM     37  C   UNL A   1      41.528  20.110  26.142  1.00  0.00     0.338 C 
ATOM     38  O   UNL A   1      41.935  19.196  25.442  1.00  0.00    -0.246 OA
BRANCH  37  39
ATOM     39  C   UNL A   1      42.340  21.304  26.414  1.00  0.00     0.060 A 
ATOM     40  C   UNL A   1      42.633  21.594  27.739  1.00  0.00     0.016 A 
ATOM     41  C   UNL A   1      42.618  22.237  25.422  1.00  0.00     0.016 A 
ATOM     42  C   UNL A   1      43.034  22.874  28.106  1.00  0.00     0.010 A 
ATOM     43  C   UNL A   1      43.179  23.472  25.780  1.00  0.00     0.010 A 
ATOM     44  C   UNL A   1      43.340  23.833  27.132  1.00  0.00    -0.014 A 
BRANCH  44  45
ATOM     45  C   UNL A   1      43.810  25.196  27.535  1.00  0.00     0.031 A 
ATOM     46  C   UNL A   1      42.839  26.212  28.095  1.00  0.00     0.074 A 
ATOM     47  C   UNL A   1      45.112  25.533  27.405  1.00  0.00     0.049 A 
ATOM     48  N   UNL A   1      43.024  27.484  28.340  1.00  0.00    -0.248 NA
ATOM     49  C   UNL A   1      41.477  25.743  28.401  1.00  0.00     0.031 C 
ATOM     50  C   UNL A   1      46.171  24.656  26.900  1.00  0.00     0.029 A 
ATOM     51  N   UNL A   1      45.771  26.709  27.682  1.00  0.00    -0.354 N 
ATOM     52  C   UNL A   1      41.790  27.982  28.749  1.00  0.00     0.074 A 
ATOM     53  C   UNL A   1      40.863  26.872  28.723  1.00  0.00     0.031 C 
ATOM     54  C   UNL A   1      47.345  25.303  26.939  1.00  0.00     0.029 A 
ATOM     55  C   UNL A   1      47.110  26.675  27.362  1.00  0.00     0.049 A 
ATOM     56  H   UNL A   1      45.327  27.497  28.070  1.00  0.00     0.167 HD
ATOM     57  C   UNL A   1      41.459  29.244  29.120  1.00  0.00     0.034 A 
ATOM     58  C   UNL A   1      48.043  27.648  27.352  1.00  0.00     0.034 A 
ATOM     59  C   UNL A   1      42.400  30.330  29.212  1.00  0.00     0.049 A 
ATOM     60  C   UNL A   1      47.646  29.040  27.753  1.00  0.00     0.074 A 
ATOM     61  C   UNL A   1      42.171  31.633  29.620  1.00  0.00     0.029 A 
ATOM     62  N   UNL A   1      43.749  30.241  28.902  1.00  0.00    -0.354 N 
ATOM     63  N   UNL A   1      46.483  29.479  28.170  1.00  0.00    -0.248 NA
ATOM     64  C   UNL A   1      48.692  30.070  27.692  1.00  0.00     0.031 C 
ATOM     65  C   UNL A   1      43.375  32.339  29.528  1.00  0.00     0.029 A 
ATOM     66  C   UNL A   1      44.361  31.467  29.101  1.00  0.00     0.049 A 
ATOM     67  H   UNL A   1      44.203  29.427  28.588  1.00  0.00     0.167 HD
ATOM     68  C   UNL A   1      46.665  30.826  28.452  1.00  0.00     0.074 A 
ATOM     69  C   UNL A   1      48.057  31.125  28.184  1.00  0.00     0.031 C 
ATOM     70  C   UNL A   1      45.759  31.739  28.880  1.00  0.00     0.034 A 
BRANCH  57  71
ATOM     71  C   UNL A   1      40.017  29.527  29.467  1.00  0.00     0.023 A 
ATOM     72  C   UNL A   1      39.057  29.667  28.445  1.00  0.00     0.012 A 
ATOM     73  C   UNL A   1      39.602  29.587  30.813  1.00  0.00     0.148 A 
ATOM     74  C   UNL A   1      37.717  29.899  28.755  1.00  0.00     0.002 A 
ATOM     75  C   UNL A   1      38.257  29.770  31.115  1.00  0.00     0.091 A 
ATOM     76  F   UNL A   1      40.530  29.464  31.774  1.00  0.00    -0.205 F 
ATOM     77  C   UNL A   1      37.316  29.940  30.088  1.00  0.00     0.022 A 
BRANCH  75  78
ATOM     78  S   UNL A   1      37.627  29.754  32.798  1.00  0.00     0.127 S 
ATOM     79  O   UNL A   1      36.408  30.549  32.664  1.00  0.00    -0.237 OA
ATOM     80  O   UNL A   1      37.400  28.326  33.027  1.00  0.00    -0.237 OA
ATOM     81  O   UNL A   1      38.670  30.344  33.625  1.00  0.00    -0.744 OA
ENDBRANCH  75  78
ENDBRANCH  57  71
BRANCH  58  82
ATOM     82  C   UNL A   1      49.445  27.338  26.945  1.00  0.00     0.023 A 
ATOM     83  C   UNL A   1      49.773  27.286  25.576  1.00  0.00     0.012 A 
ATOM     84  C   UNL A   1      50.459  27.120  27.900  1.00  0.00     0.148 A 
ATOM     85  C   UNL A   1      51.072  26.989  25.165  1.00  0.00     0.002 A 
ATOM     86  C   UNL A   1      51.766  26.897  27.484  1.00  0.00     0.091 A 
ATOM     87  F   UNL A   1      50.129  27.154  29.199  1.00  0.00    -0.205 F 
ATOM     88  C   UNL A   1      52.071  26.805  26.118  1.00  0.00     0.022 A 
BRANCH  86  89
ATOM     89  S   UNL A   1      53.146  26.835  28.630  1.00  0.00     0.127 S 
ATOM     90  O   UNL A   1      54.071  25.942  27.937  1.00  0.00    -0.237 OA
ATOM     91  O   UNL A   1      53.558  28.240  28.673  1.00  0.00    -0.237 OA
ATOM     92  O   UNL A   1      52.596  26.332  29.881  1.00  0.00    -0.744 OA
ENDBRANCH  86  89
ENDBRANCH  58  82
BRANCH  70  93
ATOM     93  C   UNL A   1      46.251  33.138  29.134  1.00  0.00     0.023 A 
ATOM     94  C   UNL A   1      46.791  33.479  30.390  1.00  0.00     0.012 A 
ATOM     95  C   UNL A   1      46.227  34.102  28.106  1.00  0.00     0.148 A 
ATOM     96  C   UNL A   1      47.266  34.768  30.631  1.00  0.00     0.002 A 
ATOM     97  C   UNL A   1      46.751  35.369  28.337  1.00  0.00     0.091 A 
ATOM     98  F   UNL A   1      45.692  33.763  26.925  1.00  0.00    -0.205 F 
ATOM     99  C   UNL A   1      47.256  35.708  29.602  1.00  0.00     0.022 A 
BRANCH  97 100
ATOM    100  S   UNL A   1      46.869  36.611  27.046  1.00  0.00     0.127 S 
ATOM    101  O   UNL A   1      47.699  37.629  27.688  1.00  0.00    -0.237 OA
ATOM    102  O   UNL A   1      47.532  35.872  25.970  1.00  0.00    -0.237 OA
ATOM    103  O   UNL A   1      45.502  37.016  26.750  1.00  0.00    -0.744 OA
ENDBRANCH  97 100
ENDBRANCH  70  93
ENDBRANCH  44  45
ENDBRANCH  37  39
ENDBRANCH  36  37
ENDBRANCH  35  36
ENDBRANCH   1  35
TORSDOF 20
ENDMDL
MODEL 3
REMARK VINA RESULT:     -10.9      2.644      8.799
REMARK SMILES COc1cc(/C=C2\SC(=S)N([C@H](C)C(=O)Nc3ccc(C(=O)OCCOC(=O)c4ccc(-c5c6nc(c(-c7cccc(S(=O)(=O)[O-])c7F)c7ccc([nH]7)c(-c7cccc(S(=O)(=O)[O-])c7F)c7nc(c(-c8cccc(S(=O)(=O)[O-])c8F)c8ccc5[nH]8)C=C7)C=C6)cc4)cc3)C2=O)ccc1O
REMARK SMILES IDX 24 1 23 2 21 3 22 4 20 5 17 6 18 7 93 8 19 9 92 10 16 11
REMARK SMILES IDX 14 12 15 13 12 15 13 16 11 17 6 18 7 19 8 20 94 21 9 22
REMARK SMILES IDX 95 23 10 24 5 25 3 26 4 27 98 28 97 29 96 30 2 31 1 32 99 33
REMARK SMILES IDX 25 35 26 36 27 37 28 38 29 39 30 40 91 41 31 42 90 43 32 44
REMARK SMILES IDX 33 45 34 46 84 47 35 48 89 49 83 50 85 51 36 52 88 53 82 54
REMARK SMILES IDX 81 55 37 57 69 58 49 59 68 60 50 61 53 62 67 63 86 64 51 65
REMARK SMILES IDX 52 66 66 68 87 69 54 70 38 71 39 72 47 73 40 74 42 75 48 76
REMARK SMILES IDX 41 77 43 78 44 79 45 80 46 81 70 82 71 83 79 84 72 85 74 86
REMARK SMILES IDX 80 87 73 88 75 89 76 90 77 91 78 92 55 93 56 94 64 95 57 96
REMARK SMILES IDX 59 97 65 98 58 99 60 100 61 101 62 102 63 103
REMARK H PARENT 16 14 99 34 85 56 53 67
REMARK Flexibility Score: inf
ROOT
ATOM      1  C   UNL A   1      32.202  29.774  25.567  1.00  0.00     0.275 C 
ENDROOT
BRANCH   1   2
ATOM      2  O   UNL A   1      33.468  29.111  25.389  1.00  0.00    -0.458 OA
BRANCH   2   3
ATOM      3  C   UNL A   1      33.675  28.566  24.166  1.00  0.00     0.338 C 
ATOM      4  O   UNL A   1      33.720  29.153  23.102  1.00  0.00    -0.246 OA
BRANCH   3   5
ATOM      5  C   UNL A   1      33.895  27.107  24.275  1.00  0.00     0.060 A 
ATOM      6  C   UNL A   1      34.732  24.476  24.549  1.00  0.00     0.041 A 
ATOM      7  C   UNL A   1      34.438  25.211  25.687  1.00  0.00     0.027 A 
ATOM      8  C   UNL A   1      34.427  24.980  23.285  1.00  0.00     0.027 A 
ATOM      9  C   UNL A   1      34.102  26.550  25.543  1.00  0.00     0.018 A 
ATOM     10  C   UNL A   1      33.997  26.299  23.143  1.00  0.00     0.018 A 
BRANCH   6  11
ATOM     11  N   UNL A   1      35.415  23.272  24.716  1.00  0.00    -0.324 N 
ATOM     12  C   UNL A   1      34.864  22.018  24.809  1.00  0.00     0.247 C 
ATOM     13  O   UNL A   1      35.648  21.063  24.912  1.00  0.00    -0.272 OA
ATOM     14  H   UNL A   1      36.396  23.328  24.774  1.00  0.00     0.170 HD
BRANCH  12  15
ATOM     15  C   UNL A   1      33.330  21.743  24.878  1.00  0.00     0.178 C 
ATOM     16  C   UNL A   1      33.090  20.681  25.969  1.00  0.00     0.042 C 
BRANCH  15  17
ATOM     17  N   UNL A   1      32.362  22.879  24.947  1.00  0.00    -0.280 N 
ATOM     18  C   UNL A   1      30.370  25.327  23.149  1.00  0.00     0.029 C 
ATOM     19  C   UNL A   1      30.881  24.535  24.105  1.00  0.00     0.081 C 
ATOM     20  S   UNL A   1      30.658  24.644  25.797  1.00  0.00    -0.054 SA
ATOM     21  C   UNL A   1      31.727  23.342  23.804  1.00  0.00     0.266 C 
ATOM     22  C   UNL A   1      31.743  23.297  26.116  1.00  0.00     0.149 C 
ATOM     23  O   UNL A   1      31.743  22.815  22.701  1.00  0.00    -0.268 OA
ATOM     24  S   UNL A   1      31.868  22.685  27.667  1.00  0.00    -0.052 S 
BRANCH  18  25
ATOM     25  C   UNL A   1      29.422  26.440  23.348  1.00  0.00    -0.020 A 
ATOM     26  C   UNL A   1      28.988  28.843  23.138  1.00  0.00     0.161 A 
ATOM     27  C   UNL A   1      29.862  27.747  23.083  1.00  0.00     0.058 A 
ATOM     28  C   UNL A   1      27.649  28.612  23.459  1.00  0.00     0.157 A 
ATOM     29  C   UNL A   1      27.217  27.332  23.804  1.00  0.00     0.051 A 
ATOM     30  C   UNL A   1      28.100  26.249  23.759  1.00  0.00     0.012 A 
BRANCH  26  31
ATOM     31  O   UNL A   1      29.540  30.029  22.738  1.00  0.00    -0.493 OA
ATOM     32  C   UNL A   1      29.299  30.454  21.395  1.00  0.00     0.278 C 
ENDBRANCH  26  31
BRANCH  28  33
ATOM     33  O   UNL A   1      26.667  29.559  23.389  1.00  0.00    -0.504 OA
ATOM     34  H   UNL A   1      26.863  30.453  23.593  1.00  0.00     0.293 HD
ENDBRANCH  28  33
ENDBRANCH  18  25
ENDBRANCH  15  17
ENDBRANCH  12  15
ENDBRANCH   6  11
ENDBRANCH   3   5
ENDBRANCH   2   3
ENDBRANCH   1   2
BRANCH   1  35
ATOM     35  C   UNL A   1      32.234  30.666  26.808  1.00  0.00     0.275 C 
BRANCH  35  36
ATOM     36  O   UNL A   1      32.632  32.006  26.463  1.00  0.00    -0.458 OA
BRANCH  36  37
ATOM     37  C   UNL A   1      33.158  32.727  27.479  1.00  0.00     0.338 C 
ATOM     38  O   UNL A   1      32.617  33.623  28.108  1.00  0.00    -0.246 OA
BRANCH  37  39
ATOM     39  C   UNL A   1      34.488  32.217  27.838  1.00  0.00     0.060 A 
ATOM     40  C   UNL A   1      34.574  30.909  28.295  1.00  0.00     0.016 A 
ATOM     41  C   UNL A   1      35.589  33.060  27.940  1.00  0.00     0.016 A 
ATOM     42  C   UNL A   1      35.686  30.487  29.015  1.00  0.00     0.010 A 
ATOM     43  C   UNL A   1      36.771  32.577  28.521  1.00  0.00     0.010 A 
ATOM     44  C   UNL A   1      36.819  31.304  29.122  1.00  0.00    -0.014 A 
BRANCH  44  45
ATOM     45  C   UNL A   1      38.028  30.826  29.864  1.00  0.00     0.031 A 
ATOM     46  C   UNL A   1      39.012  29.881  29.210  1.00  0.00     0.074 A 
ATOM     47  C   UNL A   1      38.254  31.237  31.131  1.00  0.00     0.049 A 
ATOM     48  N   UNL A   1      40.016  29.234  29.744  1.00  0.00    -0.248 NA
ATOM     49  C   UNL A   1      38.833  29.615  27.773  1.00  0.00     0.031 C 
ATOM     50  C   UNL A   1      37.407  32.161  31.890  1.00  0.00     0.029 A 
ATOM     51  N   UNL A   1      39.265  30.928  32.013  1.00  0.00    -0.354 N 
ATOM     52  C   UNL A   1      40.535  28.427  28.736  1.00  0.00     0.074 A 
ATOM     53  C   UNL A   1      39.736  28.669  27.555  1.00  0.00     0.031 C 
ATOM     54  C   UNL A   1      37.948  32.375  33.098  1.00  0.00     0.029 A 
ATOM     55  C   UNL A   1      39.116  31.519  33.248  1.00  0.00     0.049 A 
ATOM     56  H   UNL A   1      40.020  30.340  31.782  1.00  0.00     0.167 HD
ATOM     57  C   UNL A   1      41.584  27.569  28.784  1.00  0.00     0.034 A 
ATOM     58  C   UNL A   1      39.801  31.356  34.397  1.00  0.00     0.034 A 
ATOM     59  C   UNL A   1      42.421  27.383  29.941  1.00  0.00     0.049 A 
ATOM     60  C   UNL A   1      40.949  30.387  34.426  1.00  0.00     0.074 A 
ATOM     61  C   UNL A   1      43.534  26.570  30.075  1.00  0.00     0.029 A 
ATOM     62  N   UNL A   1      42.245  28.022  31.159  1.00  0.00    -0.354 N 
ATOM     63  N   UNL A   1      41.444  29.663  33.452  1.00  0.00    -0.248 NA
ATOM     64  C   UNL A   1      41.642  30.221  35.712  1.00  0.00     0.031 C 
ATOM     65  C   UNL A   1      44.013  26.695  31.383  1.00  0.00     0.029 A 
ATOM     66  C   UNL A   1      43.223  27.614  32.052  1.00  0.00     0.049 A 
ATOM     67  H   UNL A   1      41.532  28.668  31.359  1.00  0.00     0.167 HD
ATOM     68  C   UNL A   1      42.524  28.981  33.997  1.00  0.00     0.074 A 
ATOM     69  C   UNL A   1      42.627  29.399  35.380  1.00  0.00     0.031 C 
ATOM     70  C   UNL A   1      43.346  28.078  33.411  1.00  0.00     0.034 A 
BRANCH  57  71
ATOM     71  C   UNL A   1      41.902  26.765  27.546  1.00  0.00     0.023 A 
ATOM     72  C   UNL A   1      42.503  27.388  26.433  1.00  0.00     0.012 A 
ATOM     73  C   UNL A   1      41.668  25.376  27.512  1.00  0.00     0.148 A 
ATOM     74  C   UNL A   1      42.830  26.650  25.295  1.00  0.00     0.002 A 
ATOM     75  C   UNL A   1      42.040  24.637  26.394  1.00  0.00     0.091 A 
ATOM     76  F   UNL A   1      41.084  24.800  28.574  1.00  0.00    -0.205 F 
ATOM     77  C   UNL A   1      42.608  25.275  25.280  1.00  0.00     0.022 A 
BRANCH  75  78
ATOM     78  S   UNL A   1      41.873  22.851  26.309  1.00  0.00     0.127 S 
ATOM     79  O   UNL A   1      42.571  22.431  27.523  1.00  0.00    -0.237 OA
ATOM     80  O   UNL A   1      40.420  22.675  26.351  1.00  0.00    -0.237 OA
ATOM     81  O   UNL A   1      42.498  22.445  25.059  1.00  0.00    -0.744 OA
ENDBRANCH  75  78
ENDBRANCH  57  71
BRANCH  58  82
ATOM     82  C   UNL A   1      39.416  32.126  35.615  1.00  0.00     0.023 A 
ATOM     83  C   UNL A   1      39.824  33.468  35.744  1.00  0.00     0.012 A 
ATOM     84  C   UNL A   1      38.631  31.549  36.634  1.00  0.00     0.148 A 
ATOM     85  C   UNL A   1      39.488  34.210  36.877  1.00  0.00     0.002 A 
ATOM     86  C   UNL A   1      38.237  32.316  37.724  1.00  0.00     0.091 A 
ATOM     87  F   UNL A   1      38.265  30.266  36.507  1.00  0.00    -0.205 F 
ATOM     88  C   UNL A   1      38.686  33.638  37.861  1.00  0.00     0.022 A 
BRANCH  86  89
ATOM     89  S   UNL A   1      37.058  31.728  38.944  1.00  0.00     0.127 S 
ATOM     90  O   UNL A   1      36.825  30.357  38.499  1.00  0.00    -0.237 OA
ATOM     91  O   UNL A   1      37.829  31.854  40.183  1.00  0.00    -0.237 OA
ATOM     92  O   UNL A   1      35.917  32.629  38.852  1.00  0.00    -0.744 OA
ENDBRANCH  86  89
ENDBRANCH  58  82
BRANCH  70  93
ATOM     93  C   UNL A   1      44.465  27.514  34.246  1.00  0.00     0.023 A 
ATOM     94  C   UNL A   1      45.697  28.193  34.325  1.00  0.00     0.012 A 
ATOM     95  C   UNL A   1      44.274  26.336  34.996  1.00  0.00     0.148 A 
ATOM     96  C   UNL A   1      46.735  27.689  35.109  1.00  0.00     0.002 A 
ATOM     97  C   UNL A   1      45.293  25.869  35.816  1.00  0.00     0.091 A 
ATOM     98  F   UNL A   1      43.101  25.696  34.891  1.00  0.00    -0.205 F 
ATOM     99  C   UNL A   1      46.529  26.534  35.862  1.00  0.00     0.022 A 
BRANCH  97 100
ATOM    100  S   UNL A   1      45.085  24.448  36.894  1.00  0.00     0.127 S 
ATOM    101  O   UNL A   1      43.999  24.894  37.766  1.00  0.00    -0.237 OA
ATOM    102  O   UNL A   1      44.715  23.396  35.947  1.00  0.00    -0.237 OA
ATOM    103  O   UNL A   1      46.370  24.248  37.550  1.00  0.00    -0.744 OA
ENDBRANCH  97 100
ENDBRANCH  70  93
ENDBRANCH  44  45
ENDBRANCH  37  39
ENDBRANCH  36  37
ENDBRANCH  35  36
ENDBRANCH   1  35
TORSDOF 20
ENDMDL
