MODEL 1
REMARK VINA RESULT:     -11.4      0.000      0.000
REMARK SMILES C[N@H+]1CCO[C@@H](CNc2cccc(F)c2C(=O)OCCOC(=O)c2ccc(-c3c4nc(c(-c5cccc(S(=O)(=O)[O-])c5F)c5ccc([nH]5)c(-c5cccc(S(=O)(=O)[O-])c5F)c5nc(c(-c6cccc(S(=O)(=O)[O-])c6F)c6ccc3[nH]6)C=C5)C=C4)cc2)C1
REMARK SMILES IDX 19 1 18 2 16 3 17 4 15 5 9 6 10 7 11 8 13 9 12 10 14 11 8 12
REMARK SMILES IDX 7 14 6 15 1 16 2 17 3 18 87 19 4 21 5 22 20 23 21 24 22 25
REMARK SMILES IDX 23 26 24 27 25 28 86 29 26 30 85 31 27 32 28 33 29 34 79 35
REMARK SMILES IDX 30 36 84 37 78 38 80 39 31 40 83 41 77 42 76 43 32 45 64 46
REMARK SMILES IDX 44 47 63 48 45 49 48 50 62 51 81 52 46 53 47 54 61 56 82 57
REMARK SMILES IDX 49 58 33 59 34 60 42 61 35 62 37 63 43 64 36 65 38 66 39 67
REMARK SMILES IDX 40 68 41 69 65 70 66 71 74 72 67 73 69 74 75 75 68 76 70 77
REMARK SMILES IDX 71 78 72 79 73 80 50 81 51 82 59 83 52 84 54 85 60 86 53 87
REMARK SMILES IDX 55 88 56 89 57 90 58 91
REMARK H PARENT 8 13 2 20 80 44 48 55
REMARK Flexibility Score: inf
ROOT
ATOM      1  C   UNL A   1      36.562  22.484  23.688  1.00  0.00     0.275 C 
ENDROOT
BRANCH   1   2
ATOM      2  O   UNL A   1      35.645  23.461  24.220  1.00  0.00    -0.458 OA
BRANCH   2   3
ATOM      3  C   UNL A   1      34.413  23.463  23.651  1.00  0.00     0.343 C 
ATOM      4  O   UNL A   1      34.159  23.637  22.468  1.00  0.00    -0.246 OA
BRANCH   3   5
ATOM      5  C   UNL A   1      33.371  23.290  24.677  1.00  0.00     0.118 A 
ATOM      6  C   UNL A   1      32.504  22.182  24.666  1.00  0.00     0.052 A 
ATOM      7  C   UNL A   1      31.492  22.120  25.637  1.00  0.00     0.027 A 
ATOM      8  C   UNL A   1      31.305  23.154  26.558  1.00  0.00     0.005 A 
ATOM      9  C   UNL A   1      33.171  24.327  25.590  1.00  0.00     0.139 A 
ATOM     10  C   UNL A   1      32.145  24.265  26.530  1.00  0.00     0.040 A 
ATOM     11  F   UNL A   1      33.942  25.425  25.565  1.00  0.00    -0.206 F 
BRANCH   6  12
ATOM     12  N   UNL A   1      32.716  21.084  23.859  1.00  0.00    -0.381 N 
ATOM     13  H   UNL A   1      32.442  21.130  22.914  1.00  0.00     0.160 HD
BRANCH  12  14
ATOM     14  C   UNL A   1      33.335  19.856  24.353  1.00  0.00     0.151 C 
BRANCH  14  15
ATOM     15  C   UNL A   1      32.526  18.606  23.940  1.00  0.00     0.192 C 
ATOM     16  C   UNL A   1      35.392  17.348  24.501  1.00  0.00     0.332 C 
ATOM     17  N   UNL A   1      34.219  16.709  23.922  1.00  0.00    -0.333 N 
ATOM     18  C   UNL A   1      33.401  16.060  24.959  1.00  0.00     0.290 C 
ATOM     19  C   UNL A   1      33.330  17.568  23.132  1.00  0.00     0.296 C 
ATOM     20  H   UNL A   1      34.629  16.036  23.275  1.00  0.00     0.348 HD
ATOM     21  C   UNL A   1      32.631  17.075  25.819  1.00  0.00     0.222 C 
ATOM     22  O   UNL A   1      31.838  17.998  25.056  1.00  0.00    -0.365 OA
ENDBRANCH  14  15
ENDBRANCH  12  14
ENDBRANCH   6  12
ENDBRANCH   3   5
ENDBRANCH   2   3
ENDBRANCH   1   2
BRANCH   1  23
ATOM     23  C   UNL A   1      36.777  21.342  24.682  1.00  0.00     0.275 C 
BRANCH  23  24
ATOM     24  O   UNL A   1      37.342  21.859  25.903  1.00  0.00    -0.458 OA
BRANCH  24  25
ATOM     25  C   UNL A   1      38.642  21.562  26.117  1.00  0.00     0.338 C 
ATOM     26  O   UNL A   1      39.213  20.510  25.859  1.00  0.00    -0.246 OA
BRANCH  25  27
ATOM     27  C   UNL A   1      39.354  22.773  26.558  1.00  0.00     0.060 A 
ATOM     28  C   UNL A   1      38.880  23.989  26.072  1.00  0.00     0.016 A 
ATOM     29  C   UNL A   1      40.481  22.739  27.388  1.00  0.00     0.016 A 
ATOM     30  C   UNL A   1      39.520  25.171  26.435  1.00  0.00     0.010 A 
ATOM     31  C   UNL A   1      41.130  23.939  27.737  1.00  0.00     0.010 A 
ATOM     32  C   UNL A   1      40.648  25.173  27.274  1.00  0.00    -0.014 A 
BRANCH  32  33
ATOM     33  C   UNL A   1      41.309  26.482  27.575  1.00  0.00     0.031 A 
ATOM     34  C   UNL A   1      40.627  27.460  28.495  1.00  0.00     0.074 A 
ATOM     35  C   UNL A   1      42.561  26.767  27.154  1.00  0.00     0.049 A 
ATOM     36  N   UNL A   1      41.084  28.578  28.999  1.00  0.00    -0.248 NA
ATOM     37  C   UNL A   1      39.259  27.124  28.925  1.00  0.00     0.031 C 
ATOM     38  C   UNL A   1      43.391  25.888  26.340  1.00  0.00     0.029 A 
ATOM     39  N   UNL A   1      43.382  27.846  27.415  1.00  0.00    -0.354 N 
ATOM     40  C   UNL A   1      40.047  29.099  29.759  1.00  0.00     0.074 A 
ATOM     41  C   UNL A   1      38.973  28.129  29.737  1.00  0.00     0.031 C 
ATOM     42  C   UNL A   1      44.625  26.412  26.245  1.00  0.00     0.029 A 
ATOM     43  C   UNL A   1      44.671  27.692  26.949  1.00  0.00     0.049 A 
ATOM     44  H   UNL A   1      43.075  28.652  27.891  1.00  0.00     0.167 HD
ATOM     45  C   UNL A   1      39.957  30.304  30.364  1.00  0.00     0.034 A 
ATOM     46  C   UNL A   1      45.765  28.476  27.090  1.00  0.00     0.034 A 
ATOM     47  C   UNL A   1      40.965  31.324  30.332  1.00  0.00     0.049 A 
ATOM     48  C   UNL A   1      45.633  29.818  27.767  1.00  0.00     0.074 A 
ATOM     49  C   UNL A   1      40.876  32.628  30.786  1.00  0.00     0.029 A 
ATOM     50  N   UNL A   1      42.231  31.172  29.796  1.00  0.00    -0.354 N 
ATOM     51  N   UNL A   1      44.638  30.301  28.469  1.00  0.00    -0.248 NA
ATOM     52  C   UNL A   1      46.775  30.743  27.638  1.00  0.00     0.031 C 
ATOM     53  C   UNL A   1      42.083  33.275  30.501  1.00  0.00     0.029 A 
ATOM     54  C   UNL A   1      42.931  32.362  29.899  1.00  0.00     0.049 A 
ATOM     55  H   UNL A   1      42.581  30.341  29.401  1.00  0.00     0.167 HD
ATOM     56  C   UNL A   1      45.013  31.594  28.824  1.00  0.00     0.074 A 
ATOM     57  C   UNL A   1      46.364  31.788  28.344  1.00  0.00     0.031 C 
ATOM     58  C   UNL A   1      44.279  32.556  29.438  1.00  0.00     0.034 A 
BRANCH  45  59
ATOM     59  C   UNL A   1      38.650  30.637  31.017  1.00  0.00     0.023 A 
ATOM     60  C   UNL A   1      38.439  30.344  32.377  1.00  0.00     0.012 A 
ATOM     61  C   UNL A   1      37.646  31.285  30.272  1.00  0.00     0.148 A 
ATOM     62  C   UNL A   1      37.235  30.693  32.987  1.00  0.00     0.002 A 
ATOM     63  C   UNL A   1      36.465  31.657  30.894  1.00  0.00     0.091 A 
ATOM     64  F   UNL A   1      37.871  31.518  28.971  1.00  0.00    -0.205 F 
ATOM     65  C   UNL A   1      36.255  31.357  32.250  1.00  0.00     0.022 A 
BRANCH  63  66
ATOM     66  S   UNL A   1      35.169  32.560  30.043  1.00  0.00     0.127 S 
ATOM     67  O   UNL A   1      34.173  32.715  31.102  1.00  0.00    -0.237 OA
ATOM     68  O   UNL A   1      35.858  33.793  29.665  1.00  0.00    -0.237 OA
ATOM     69  O   UNL A   1      34.755  31.721  28.928  1.00  0.00    -0.744 OA
ENDBRANCH  63  66
ENDBRANCH  45  59
BRANCH  46  70
ATOM     70  C   UNL A   1      47.113  28.019  26.617  1.00  0.00     0.023 A 
ATOM     71  C   UNL A   1      48.072  27.606  27.569  1.00  0.00     0.012 A 
ATOM     72  C   UNL A   1      47.465  27.981  25.257  1.00  0.00     0.148 A 
ATOM     73  C   UNL A   1      49.345  27.185  27.175  1.00  0.00     0.002 A 
ATOM     74  C   UNL A   1      48.697  27.467  24.866  1.00  0.00     0.091 A 
ATOM     75  F   UNL A   1      46.592  28.449  24.351  1.00  0.00    -0.205 F 
ATOM     76  C   UNL A   1      49.650  27.091  25.820  1.00  0.00     0.022 A 
BRANCH  74  77
ATOM     77  S   UNL A   1      49.029  27.119  23.135  1.00  0.00     0.127 S 
ATOM     78  O   UNL A   1      50.463  26.851  23.143  1.00  0.00    -0.237 OA
ATOM     79  O   UNL A   1      48.186  25.951  22.876  1.00  0.00    -0.237 OA
ATOM     80  O   UNL A   1      48.596  28.325  22.439  1.00  0.00    -0.744 OA
ENDBRANCH  74  77
ENDBRANCH  46  70
BRANCH  58  81
ATOM     81  C   UNL A   1      44.876  33.935  29.560  1.00  0.00     0.023 A 
ATOM     82  C   UNL A   1      45.640  34.248  30.704  1.00  0.00     0.012 A 
ATOM     83  C   UNL A   1      44.771  34.883  28.523  1.00  0.00     0.148 A 
ATOM     84  C   UNL A   1      46.266  35.487  30.827  1.00  0.00     0.002 A 
ATOM     85  C   UNL A   1      45.431  36.104  28.637  1.00  0.00     0.091 A 
ATOM     86  F   UNL A   1      44.030  34.579  27.449  1.00  0.00    -0.205 F 
ATOM     87  C   UNL A   1      46.171  36.410  29.790  1.00  0.00     0.022 A 
BRANCH  85  88
ATOM     88  S   UNL A   1      45.435  37.320  27.312  1.00  0.00     0.127 S 
ATOM     89  O   UNL A   1      46.184  38.419  27.918  1.00  0.00    -0.237 OA
ATOM     90  O   UNL A   1      46.143  36.617  26.241  1.00  0.00    -0.237 OA
ATOM     91  O   UNL A   1      44.033  37.596  27.025  1.00  0.00    -0.744 OA
ENDBRANCH  85  88
ENDBRANCH  58  81
ENDBRANCH  32  33
ENDBRANCH  25  27
ENDBRANCH  24  25
ENDBRANCH  23  24
ENDBRANCH   1  23
TORSDOF 17
ENDMDL
MODEL 2
REMARK VINA RESULT:     -11.1      1.603      1.981
REMARK SMILES C[N@H+]1CCO[C@@H](CNc2cccc(F)c2C(=O)OCCOC(=O)c2ccc(-c3c4nc(c(-c5cccc(S(=O)(=O)[O-])c5F)c5ccc([nH]5)c(-c5cccc(S(=O)(=O)[O-])c5F)c5nc(c(-c6cccc(S(=O)(=O)[O-])c6F)c6ccc3[nH]6)C=C5)C=C4)cc2)C1
REMARK SMILES IDX 19 1 18 2 16 3 17 4 15 5 9 6 10 7 11 8 13 9 12 10 14 11 8 12
REMARK SMILES IDX 7 14 6 15 1 16 2 17 3 18 87 19 4 21 5 22 20 23 21 24 22 25
REMARK SMILES IDX 23 26 24 27 25 28 86 29 26 30 85 31 27 32 28 33 29 34 79 35
REMARK SMILES IDX 30 36 84 37 78 38 80 39 31 40 83 41 77 42 76 43 32 45 64 46
REMARK SMILES IDX 44 47 63 48 45 49 48 50 62 51 81 52 46 53 47 54 61 56 82 57
REMARK SMILES IDX 49 58 33 59 34 60 42 61 35 62 37 63 43 64 36 65 38 66 39 67
REMARK SMILES IDX 40 68 41 69 65 70 66 71 74 72 67 73 69 74 75 75 68 76 70 77
REMARK SMILES IDX 71 78 72 79 73 80 50 81 51 82 59 83 52 84 54 85 60 86 53 87
REMARK SMILES IDX 55 88 56 89 57 90 58 91
REMARK H PARENT 8 13 2 20 80 44 48 55
REMARK Flexibility Score: inf
ROOT
ATOM      1  C   UNL A   1      35.070  22.445  27.239  1.00  0.00     0.275 C 
ENDROOT
BRANCH   1   2
ATOM      2  O   UNL A   1      34.113  23.378  26.697  1.00  0.00    -0.458 OA
BRANCH   2   3
ATOM      3  C   UNL A   1      32.812  23.053  26.904  1.00  0.00     0.343 C 
ATOM      4  O   UNL A   1      32.333  22.589  27.929  1.00  0.00    -0.246 OA
BRANCH   3   5
ATOM      5  C   UNL A   1      32.024  23.271  25.679  1.00  0.00     0.118 A 
ATOM      6  C   UNL A   1      31.808  22.238  24.750  1.00  0.00     0.052 A 
ATOM      7  C   UNL A   1      31.104  22.539  23.573  1.00  0.00     0.027 A 
ATOM      8  C   UNL A   1      30.676  23.840  23.296  1.00  0.00     0.005 A 
ATOM      9  C   UNL A   1      31.607  24.572  25.391  1.00  0.00     0.139 A 
ATOM     10  C   UNL A   1      30.935  24.861  24.206  1.00  0.00     0.040 A 
ATOM     11  F   UNL A   1      31.871  25.583  26.233  1.00  0.00    -0.206 F 
BRANCH   6  12
ATOM     12  N   UNL A   1      32.104  20.920  25.027  1.00  0.00    -0.381 N 
ATOM     13  H   UNL A   1      31.721  20.507  25.834  1.00  0.00     0.160 HD
BRANCH  12  14
ATOM     14  C   UNL A   1      32.964  20.113  24.164  1.00  0.00     0.151 C 
BRANCH  14  15
ATOM     15  C   UNL A   1      32.358  18.716  23.904  1.00  0.00     0.192 C 
ATOM     16  C   UNL A   1      35.410  17.994  24.422  1.00  0.00     0.332 C 
ATOM     17  N   UNL A   1      34.339  17.122  23.964  1.00  0.00    -0.333 N 
ATOM     18  C   UNL A   1      33.677  16.451  25.094  1.00  0.00     0.290 C 
ATOM     19  C   UNL A   1      33.292  17.749  23.149  1.00  0.00     0.296 C 
ATOM     20  H   UNL A   1      34.830  16.466  23.357  1.00  0.00     0.348 HD
ATOM     21  C   UNL A   1      32.783  17.406  25.901  1.00  0.00     0.222 C 
ATOM     22  O   UNL A   1      31.821  18.113  25.103  1.00  0.00    -0.365 OA
ENDBRANCH  14  15
ENDBRANCH  12  14
ENDBRANCH   6  12
ENDBRANCH   3   5
ENDBRANCH   2   3
ENDBRANCH   1   2
BRANCH   1  23
ATOM     23  C   UNL A   1      35.437  21.380  26.205  1.00  0.00     0.275 C 
BRANCH  23  24
ATOM     24  O   UNL A   1      36.482  21.877  25.345  1.00  0.00    -0.458 OA
BRANCH  24  25
ATOM     25  C   UNL A   1      37.726  21.428  25.618  1.00  0.00     0.338 C 
ATOM     26  O   UNL A   1      38.171  20.307  25.410  1.00  0.00    -0.246 OA
BRANCH  25  27
ATOM     27  C   UNL A   1      38.567  22.555  26.055  1.00  0.00     0.060 A 
ATOM     28  C   UNL A   1      38.108  23.834  25.746  1.00  0.00     0.016 A 
ATOM     29  C   UNL A   1      39.793  22.388  26.710  1.00  0.00     0.016 A 
ATOM     30  C   UNL A   1      38.865  24.943  26.114  1.00  0.00     0.010 A 
ATOM     31  C   UNL A   1      40.557  23.516  27.065  1.00  0.00     0.010 A 
ATOM     32  C   UNL A   1      40.095  24.811  26.782  1.00  0.00    -0.014 A 
BRANCH  32  33
ATOM     33  C   UNL A   1      40.873  26.051  27.096  1.00  0.00     0.031 A 
ATOM     34  C   UNL A   1      40.329  27.028  28.105  1.00  0.00     0.074 A 
ATOM     35  C   UNL A   1      42.112  26.264  26.603  1.00  0.00     0.049 A 
ATOM     36  N   UNL A   1      40.901  28.082  28.627  1.00  0.00    -0.248 NA
ATOM     37  C   UNL A   1      38.970  26.770  28.612  1.00  0.00     0.031 C 
ATOM     38  C   UNL A   1      42.818  25.370  25.694  1.00  0.00     0.029 A 
ATOM     39  N   UNL A   1      43.028  27.267  26.856  1.00  0.00    -0.354 N 
ATOM     40  C   UNL A   1      39.959  28.637  29.480  1.00  0.00     0.074 A 
ATOM     41  C   UNL A   1      38.815  27.751  29.488  1.00  0.00     0.031 C 
ATOM     42  C   UNL A   1      44.079  25.807  25.537  1.00  0.00     0.029 A 
ATOM     43  C   UNL A   1      44.269  27.042  26.295  1.00  0.00     0.049 A 
ATOM     44  H   UNL A   1      42.815  28.068  27.388  1.00  0.00     0.167 HD
ATOM     45  C   UNL A   1      40.001  29.814  30.145  1.00  0.00     0.034 A 
ATOM     46  C   UNL A   1      45.426  27.736  26.396  1.00  0.00     0.034 A 
ATOM     47  C   UNL A   1      41.079  30.758  30.089  1.00  0.00     0.049 A 
ATOM     48  C   UNL A   1      45.441  29.049  27.141  1.00  0.00     0.074 A 
ATOM     49  C   UNL A   1      41.120  32.041  30.608  1.00  0.00     0.029 A 
ATOM     50  N   UNL A   1      42.292  30.542  29.461  1.00  0.00    -0.354 N 
ATOM     51  N   UNL A   1      44.534  29.566  27.932  1.00  0.00    -0.248 NA
ATOM     52  C   UNL A   1      46.639  29.893  26.976  1.00  0.00     0.031 C 
ATOM     53  C   UNL A   1      42.351  32.611  30.271  1.00  0.00     0.029 A 
ATOM     54  C   UNL A   1      43.087  31.670  29.570  1.00  0.00     0.049 A 
ATOM     55  H   UNL A   1      42.552  29.709  29.005  1.00  0.00     0.167 HD
ATOM     56  C   UNL A   1      45.029  30.809  28.319  1.00  0.00     0.074 A 
ATOM     57  C   UNL A   1      46.356  30.928  27.756  1.00  0.00     0.031 C 
ATOM     58  C   UNL A   1      44.412  31.789  29.026  1.00  0.00     0.034 A 
BRANCH  45  59
ATOM     59  C   UNL A   1      38.768  30.207  30.901  1.00  0.00     0.023 A 
ATOM     60  C   UNL A   1      38.625  29.859  32.256  1.00  0.00     0.012 A 
ATOM     61  C   UNL A   1      37.772  30.967  30.259  1.00  0.00     0.148 A 
ATOM     62  C   UNL A   1      37.493  30.263  32.963  1.00  0.00     0.002 A 
ATOM     63  C   UNL A   1      36.666  31.392  30.977  1.00  0.00     0.091 A 
ATOM     64  F   UNL A   1      37.930  31.252  28.958  1.00  0.00    -0.205 F 
ATOM     65  C   UNL A   1      36.522  31.037  32.328  1.00  0.00     0.022 A 
BRANCH  63  66
ATOM     66  S   UNL A   1      35.392  32.432  30.262  1.00  0.00     0.127 S 
ATOM     67  O   UNL A   1      34.882  31.579  29.190  1.00  0.00    -0.237 OA
ATOM     68  O   UNL A   1      34.479  32.611  31.391  1.00  0.00    -0.237 OA
ATOM     69  O   UNL A   1      36.062  33.646  29.816  1.00  0.00    -0.744 OA
ENDBRANCH  63  66
ENDBRANCH  45  59
BRANCH  46  70
ATOM     70  C   UNL A   1      46.702  27.207  25.810  1.00  0.00     0.023 A 
ATOM     71  C   UNL A   1      46.974  27.433  24.443  1.00  0.00     0.012 A 
ATOM     72  C   UNL A   1      47.645  26.494  26.569  1.00  0.00     0.148 A 
ATOM     73  C   UNL A   1      48.144  26.949  23.851  1.00  0.00     0.002 A 
ATOM     74  C   UNL A   1      48.851  26.101  25.998  1.00  0.00     0.091 A 
ATOM     75  F   UNL A   1      47.357  26.202  27.848  1.00  0.00    -0.205 F 
ATOM     76  C   UNL A   1      49.096  26.303  24.635  1.00  0.00     0.022 A 
BRANCH  74  77
ATOM     77  S   UNL A   1      50.184  25.479  27.029  1.00  0.00     0.127 S 
ATOM     78  O   UNL A   1      51.262  25.295  26.063  1.00  0.00    -0.237 OA
ATOM     79  O   UNL A   1      50.390  26.572  27.981  1.00  0.00    -0.237 OA
ATOM     80  O   UNL A   1      49.635  24.268  27.630  1.00  0.00    -0.744 OA
ENDBRANCH  74  77
ENDBRANCH  46  70
BRANCH  58  81
ATOM     81  C   UNL A   1      45.119  33.113  29.170  1.00  0.00     0.023 A 
ATOM     82  C   UNL A   1      45.926  33.335  30.306  1.00  0.00     0.012 A 
ATOM     83  C   UNL A   1      45.071  34.093  28.159  1.00  0.00     0.148 A 
ATOM     84  C   UNL A   1      46.651  34.517  30.447  1.00  0.00     0.002 A 
ATOM     85  C   UNL A   1      45.829  35.254  28.289  1.00  0.00     0.091 A 
ATOM     86  F   UNL A   1      44.290  33.876  27.092  1.00  0.00    -0.205 F 
ATOM     87  C   UNL A   1      46.611  35.471  29.434  1.00  0.00     0.022 A 
BRANCH  85  88
ATOM     88  S   UNL A   1      45.906  36.499  26.994  1.00  0.00     0.127 S 
ATOM     89  O   UNL A   1      44.544  37.028  27.008  1.00  0.00    -0.237 OA
ATOM     90  O   UNL A   1      46.923  37.421  27.504  1.00  0.00    -0.237 OA
ATOM     91  O   UNL A   1      46.294  35.787  25.783  1.00  0.00    -0.744 OA
ENDBRANCH  85  88
ENDBRANCH  58  81
ENDBRANCH  32  33
ENDBRANCH  25  27
ENDBRANCH  24  25
ENDBRANCH  23  24
ENDBRANCH   1  23
TORSDOF 17
ENDMDL
MODEL 3
REMARK VINA RESULT:     -11.0      1.238      7.673
REMARK SMILES C[N@H+]1CCO[C@@H](CNc2cccc(F)c2C(=O)OCCOC(=O)c2ccc(-c3c4nc(c(-c5cccc(S(=O)(=O)[O-])c5F)c5ccc([nH]5)c(-c5cccc(S(=O)(=O)[O-])c5F)c5nc(c(-c6cccc(S(=O)(=O)[O-])c6F)c6ccc3[nH]6)C=C5)C=C4)cc2)C1
REMARK SMILES IDX 19 1 18 2 16 3 17 4 15 5 9 6 10 7 11 8 13 9 12 10 14 11 8 12
REMARK SMILES IDX 7 14 6 15 1 16 2 17 3 18 87 19 4 21 5 22 20 23 21 24 22 25
REMARK SMILES IDX 23 26 24 27 25 28 86 29 26 30 85 31 27 32 28 33 29 34 79 35
REMARK SMILES IDX 30 36 84 37 78 38 80 39 31 40 83 41 77 42 76 43 32 45 64 46
REMARK SMILES IDX 44 47 63 48 45 49 48 50 62 51 81 52 46 53 47 54 61 56 82 57
REMARK SMILES IDX 49 58 33 59 34 60 42 61 35 62 37 63 43 64 36 65 38 66 39 67
REMARK SMILES IDX 40 68 41 69 65 70 66 71 74 72 67 73 69 74 75 75 68 76 70 77
REMARK SMILES IDX 71 78 72 79 73 80 50 81 51 82 59 83 52 84 54 85 60 86 53 87
REMARK SMILES IDX 55 88 56 89 57 90 58 91
REMARK H PARENT 8 13 2 20 80 44 48 55
REMARK Flexibility Score: inf
ROOT
ATOM      1  C   UNL A   1      36.544  22.204  23.873  1.00  0.00     0.275 C 
ENDROOT
BRANCH   1   2
ATOM      2  O   UNL A   1      35.389  22.483  24.690  1.00  0.00    -0.458 OA
BRANCH   2   3
ATOM      3  C   UNL A   1      34.295  22.914  24.012  1.00  0.00     0.343 C 
ATOM      4  O   UNL A   1      34.250  23.227  22.831  1.00  0.00    -0.246 OA
BRANCH   3   5
ATOM      5  C   UNL A   1      33.139  23.030  24.916  1.00  0.00     0.118 A 
ATOM      6  C   UNL A   1      32.100  22.082  24.908  1.00  0.00     0.052 A 
ATOM      7  C   UNL A   1      30.999  22.296  25.751  1.00  0.00     0.027 A 
ATOM      8  C   UNL A   1      30.900  23.446  26.539  1.00  0.00     0.005 A 
ATOM      9  C   UNL A   1      33.029  24.184  25.695  1.00  0.00     0.139 A 
ATOM     10  C   UNL A   1      31.917  24.396  26.505  1.00  0.00     0.040 A 
ATOM     11  F   UNL A   1      33.976  25.133  25.657  1.00  0.00    -0.206 F 
BRANCH   6  12
ATOM     12  N   UNL A   1      32.202  20.879  24.242  1.00  0.00    -0.381 N 
ATOM     13  H   UNL A   1      31.877  20.822  23.314  1.00  0.00     0.160 HD
BRANCH  12  14
ATOM     14  C   UNL A   1      32.774  19.686  24.862  1.00  0.00     0.151 C 
BRANCH  14  15
ATOM     15  C   UNL A   1      32.169  18.393  24.271  1.00  0.00     0.192 C 
ATOM     16  C   UNL A   1      35.272  17.705  24.251  1.00  0.00     0.332 C 
ATOM     17  N   UNL A   1      34.173  16.949  23.669  1.00  0.00    -0.333 N 
ATOM     18  C   UNL A   1      33.653  15.951  24.618  1.00  0.00     0.290 C 
ATOM     19  C   UNL A   1      33.032  17.729  23.179  1.00  0.00     0.296 C 
ATOM     20  H   UNL A   1      34.607  16.518  22.853  1.00  0.00     0.348 HD
ATOM     21  C   UNL A   1      32.834  16.591  25.751  1.00  0.00     0.222 C 
ATOM     22  O   UNL A   1      31.778  17.447  25.292  1.00  0.00    -0.365 OA
ENDBRANCH  14  15
ENDBRANCH  12  14
ENDBRANCH   6  12
ENDBRANCH   3   5
ENDBRANCH   2   3
ENDBRANCH   1   2
BRANCH   1  23
ATOM     23  C   UNL A   1      37.299  20.982  24.397  1.00  0.00     0.275 C 
BRANCH  23  24
ATOM     24  O   UNL A   1      37.680  21.197  25.770  1.00  0.00    -0.458 OA
BRANCH  24  25
ATOM     25  C   UNL A   1      38.972  20.938  26.066  1.00  0.00     0.338 C 
ATOM     26  O   UNL A   1      39.600  19.918  25.809  1.00  0.00    -0.246 OA
BRANCH  25  27
ATOM     27  C   UNL A   1      39.604  22.154  26.603  1.00  0.00     0.060 A 
ATOM     28  C   UNL A   1      39.139  23.371  26.109  1.00  0.00     0.016 A 
ATOM     29  C   UNL A   1      40.652  22.127  27.531  1.00  0.00     0.016 A 
ATOM     30  C   UNL A   1      39.708  24.559  26.561  1.00  0.00     0.010 A 
ATOM     31  C   UNL A   1      41.230  23.334  27.971  1.00  0.00     0.010 A 
ATOM     32  C   UNL A   1      40.755  24.567  27.500  1.00  0.00    -0.014 A 
BRANCH  32  33
ATOM     33  C   UNL A   1      41.346  25.884  27.896  1.00  0.00     0.031 A 
ATOM     34  C   UNL A   1      42.676  26.298  27.325  1.00  0.00     0.074 A 
ATOM     35  C   UNL A   1      40.668  26.777  28.649  1.00  0.00     0.049 A 
ATOM     36  N   UNL A   1      43.295  27.447  27.420  1.00  0.00    -0.248 NA
ATOM     37  C   UNL A   1      43.393  25.296  26.518  1.00  0.00     0.031 C 
ATOM     38  C   UNL A   1      39.333  26.568  29.197  1.00  0.00     0.029 A 
ATOM     39  N   UNL A   1      40.979  28.070  29.023  1.00  0.00    -0.354 N 
ATOM     40  C   UNL A   1      44.490  27.288  26.732  1.00  0.00     0.074 A 
ATOM     41  C   UNL A   1      44.467  25.970  26.137  1.00  0.00     0.031 C 
ATOM     42  C   UNL A   1      38.902  27.713  29.753  1.00  0.00     0.029 A 
ATOM     43  C   UNL A   1      39.943  28.734  29.648  1.00  0.00     0.049 A 
ATOM     44  H   UNL A   1      41.859  28.480  28.858  1.00  0.00     0.167 HD
ATOM     45  C   UNL A   1      45.547  28.127  26.658  1.00  0.00     0.034 A 
ATOM     46  C   UNL A   1      39.837  30.016  30.068  1.00  0.00     0.034 A 
ATOM     47  C   UNL A   1      45.640  29.402  27.309  1.00  0.00     0.049 A 
ATOM     48  C   UNL A   1      41.036  30.928  29.975  1.00  0.00     0.074 A 
ATOM     49  C   UNL A   1      46.743  30.232  27.409  1.00  0.00     0.029 A 
ATOM     50  N   UNL A   1      44.610  30.021  27.992  1.00  0.00    -0.354 N 
ATOM     51  N   UNL A   1      42.165  30.755  29.333  1.00  0.00    -0.248 NA
ATOM     52  C   UNL A   1      40.955  32.209  30.702  1.00  0.00     0.031 C 
ATOM     53  C   UNL A   1      46.385  31.345  28.176  1.00  0.00     0.029 A 
ATOM     54  C   UNL A   1      45.052  31.220  28.526  1.00  0.00     0.049 A 
ATOM     55  H   UNL A   1      43.697  29.663  28.085  1.00  0.00     0.167 HD
ATOM     56  C   UNL A   1      42.940  31.877  29.615  1.00  0.00     0.074 A 
ATOM     57  C   UNL A   1      42.120  32.769  30.406  1.00  0.00     0.031 C 
ATOM     58  C   UNL A   1      44.237  32.117  29.299  1.00  0.00     0.034 A 
BRANCH  45  59
ATOM     59  C   UNL A   1      46.759  27.624  25.934  1.00  0.00     0.023 A 
ATOM     60  C   UNL A   1      46.929  27.889  24.563  1.00  0.00     0.012 A 
ATOM     61  C   UNL A   1      47.751  26.921  26.644  1.00  0.00     0.148 A 
ATOM     62  C   UNL A   1      48.078  27.452  23.905  1.00  0.00     0.002 A 
ATOM     63  C   UNL A   1      48.905  26.519  25.991  1.00  0.00     0.091 A 
ATOM     64  F   UNL A   1      47.538  26.660  27.942  1.00  0.00    -0.205 F 
ATOM     65  C   UNL A   1      49.068  26.778  24.620  1.00  0.00     0.022 A 
BRANCH  63  66
ATOM     66  S   UNL A   1      50.254  25.694  26.836  1.00  0.00     0.127 S 
ATOM     67  O   UNL A   1      51.222  25.526  25.752  1.00  0.00    -0.237 OA
ATOM     68  O   UNL A   1      50.629  26.683  27.845  1.00  0.00    -0.237 OA
ATOM     69  O   UNL A   1      49.704  24.454  27.365  1.00  0.00    -0.744 OA
ENDBRANCH  63  66
ENDBRANCH  45  59
BRANCH  46  70
ATOM     70  C   UNL A   1      38.539  30.556  30.591  1.00  0.00     0.023 A 
ATOM     71  C   UNL A   1      38.260  30.454  31.972  1.00  0.00     0.012 A 
ATOM     72  C   UNL A   1      37.584  31.166  29.761  1.00  0.00     0.148 A 
ATOM     73  C   UNL A   1      37.059  30.932  32.502  1.00  0.00     0.002 A 
ATOM     74  C   UNL A   1      36.436  31.728  30.310  1.00  0.00     0.091 A 
ATOM     75  F   UNL A   1      37.802  31.194  28.436  1.00  0.00    -0.205 F 
ATOM     76  C   UNL A   1      36.155  31.592  31.675  1.00  0.00     0.022 A 
BRANCH  74  77
ATOM     77  S   UNL A   1      35.374  32.780  29.313  1.00  0.00     0.127 S 
ATOM     78  O   UNL A   1      36.292  33.832  28.887  1.00  0.00    -0.237 OA
ATOM     79  O   UNL A   1      34.936  31.876  28.248  1.00  0.00    -0.237 OA
ATOM     80  O   UNL A   1      34.307  33.178  30.226  1.00  0.00    -0.744 OA
ENDBRANCH  74  77
ENDBRANCH  46  70
BRANCH  58  81
ATOM     81  C   UNL A   1      44.890  33.350  29.869  1.00  0.00     0.023 A 
ATOM     82  C   UNL A   1      45.586  33.249  31.093  1.00  0.00     0.012 A 
ATOM     83  C   UNL A   1      44.907  34.572  29.169  1.00  0.00     0.148 A 
ATOM     84  C   UNL A   1      46.262  34.347  31.623  1.00  0.00     0.002 A 
ATOM     85  C   UNL A   1      45.618  35.653  29.685  1.00  0.00     0.091 A 
ATOM     86  F   UNL A   1      44.230  34.659  28.015  1.00  0.00    -0.205 F 
ATOM     87  C   UNL A   1      46.288  35.544  30.914  1.00  0.00     0.022 A 
BRANCH  85  88
ATOM     88  S   UNL A   1      45.776  37.209  28.799  1.00  0.00     0.127 S 
ATOM     89  O   UNL A   1      44.391  37.677  28.767  1.00  0.00    -0.237 OA
ATOM     90  O   UNL A   1      46.660  37.981  29.673  1.00  0.00    -0.237 OA
ATOM     91  O   UNL A   1      46.356  36.870  27.505  1.00  0.00    -0.744 OA
ENDBRANCH  85  88
ENDBRANCH  58  81
ENDBRANCH  32  33
ENDBRANCH  25  27
ENDBRANCH  24  25
ENDBRANCH  23  24
ENDBRANCH   1  23
TORSDOF 17
ENDMDL
