MODEL 1
REMARK VINA RESULT:     -13.1      0.000      0.000
REMARK SMILES O=C1Nc2c(Cl)cccc2/C1=N/c1ccc(C(=O)OCCOC(=O)c2ccc(-c3c4nc(c(-c5cccc(S(=O)(=O)[O-])c5F)c5ccc([nH]5)c(-c5cccc(S(=O)(=O)[O-])c5F)c5nc(c(-c6cccc(S(=O)(=O)[O-])c6F)c6ccc3[nH]6)C=C5)C=C4)cc2)cc1
REMARK SMILES IDX 21 1 20 2 19 3 17 4 18 5 16 6 13 7 14 8 89 9 15 10 88 11
REMARK SMILES IDX 12 12 1 13 2 14 3 15 11 16 4 17 10 19 5 20 9 21 6 22 7 23
REMARK SMILES IDX 8 24 22 25 23 26 24 27 25 28 26 29 87 30 27 31 86 32 28 33
REMARK SMILES IDX 29 34 30 35 80 36 31 37 85 38 79 39 81 40 32 41 84 42 78 43
REMARK SMILES IDX 77 44 33 46 65 47 45 48 64 49 46 50 49 51 63 52 82 53 47 54
REMARK SMILES IDX 48 55 62 57 83 58 50 59 34 60 35 61 43 62 36 63 38 64 44 65
REMARK SMILES IDX 37 66 39 67 40 68 41 69 42 70 66 71 67 72 75 73 68 74 70 75
REMARK SMILES IDX 76 76 69 77 71 78 72 79 73 80 74 81 51 82 52 83 60 84 53 85
REMARK SMILES IDX 55 86 61 87 54 88 56 89 57 90 58 91 59 92
REMARK H PARENT 3 18 81 45 49 56
REMARK Flexibility Score: inf
ROOT
ATOM      1  C   UNL A   1      37.183  20.191  25.004  1.00  0.00     0.275 C 
ENDROOT
BRANCH   1   2
ATOM      2  C   UNL A   1      35.777  20.789  25.023  1.00  0.00     0.275 C 
BRANCH   2   3
ATOM      3  O   UNL A   1      35.799  22.138  24.518  1.00  0.00    -0.458 OA
BRANCH   3   4
ATOM      4  C   UNL A   1      35.441  23.108  25.395  1.00  0.00     0.338 C 
ATOM      5  O   UNL A   1      35.772  23.183  26.568  1.00  0.00    -0.246 OA
BRANCH   4   6
ATOM      6  C   UNL A   1      34.673  24.171  24.701  1.00  0.00     0.060 A 
ATOM      7  C   UNL A   1      33.250  26.250  23.483  1.00  0.00     0.064 A 
ATOM      8  C   UNL A   1      33.694  26.385  24.799  1.00  0.00     0.029 A 
ATOM      9  C   UNL A   1      33.551  25.091  22.764  1.00  0.00     0.029 A 
ATOM     10  C   UNL A   1      34.357  25.332  25.419  1.00  0.00     0.018 A 
ATOM     11  C   UNL A   1      34.269  24.052  23.367  1.00  0.00     0.018 A 
BRANCH   7  12
ATOM     12  N   UNL A   1      32.482  27.272  22.920  1.00  0.00    -0.243 NA
ATOM     13  O   UNL A   1      30.724  25.195  24.465  1.00  0.00    -0.267 OA
ATOM     14  C   UNL A   1      30.361  26.229  23.952  1.00  0.00     0.275 C 
ATOM     15  N   UNL A   1      29.075  26.719  23.905  1.00  0.00    -0.319 N 
ATOM     16  C   UNL A   1      31.212  27.267  23.182  1.00  0.00     0.138 C 
ATOM     17  C   UNL A   1      29.020  27.930  23.217  1.00  0.00     0.070 A 
ATOM     18  H   UNL A   1      28.295  26.272  24.307  1.00  0.00     0.170 HD
ATOM     19  C   UNL A   1      30.281  28.311  22.768  1.00  0.00     0.031 A 
ATOM     20  C   UNL A   1      27.917  28.724  22.968  1.00  0.00     0.065 A 
ATOM     21  C   UNL A   1      30.507  29.495  22.094  1.00  0.00     0.013 A 
ATOM     22  Cl  UNL A   1      26.344  28.257  23.479  1.00  0.00    -0.082 Cl
ATOM     23  C   UNL A   1      28.111  29.924  22.276  1.00  0.00     0.023 A 
ATOM     24  C   UNL A   1      29.399  30.310  21.850  1.00  0.00     0.002 A 
ENDBRANCH   7  12
ENDBRANCH   4   6
ENDBRANCH   3   4
ENDBRANCH   2   3
ENDBRANCH   1   2
BRANCH   1  25
ATOM     25  O   UNL A   1      38.168  21.231  25.147  1.00  0.00    -0.458 OA
BRANCH  25  26
ATOM     26  C   UNL A   1      39.209  20.940  25.958  1.00  0.00     0.338 C 
ATOM     27  O   UNL A   1      39.737  19.856  26.132  1.00  0.00    -0.246 OA
BRANCH  26  28
ATOM     28  C   UNL A   1      39.694  22.177  26.586  1.00  0.00     0.060 A 
ATOM     29  C   UNL A   1      39.156  23.389  26.159  1.00  0.00     0.016 A 
ATOM     30  C   UNL A   1      40.760  22.157  27.482  1.00  0.00     0.016 A 
ATOM     31  C   UNL A   1      39.740  24.591  26.538  1.00  0.00     0.010 A 
ATOM     32  C   UNL A   1      41.295  23.369  27.932  1.00  0.00     0.010 A 
ATOM     33  C   UNL A   1      40.819  24.596  27.430  1.00  0.00    -0.014 A 
BRANCH  33  34
ATOM     34  C   UNL A   1      41.475  25.877  27.798  1.00  0.00     0.031 A 
ATOM     35  C   UNL A   1      40.716  26.910  28.585  1.00  0.00     0.074 A 
ATOM     36  C   UNL A   1      42.752  26.112  27.438  1.00  0.00     0.049 A 
ATOM     37  N   UNL A   1      41.071  28.126  28.905  1.00  0.00    -0.248 NA
ATOM     38  C   UNL A   1      39.382  26.527  29.083  1.00  0.00     0.031 C 
ATOM     39  C   UNL A   1      43.613  25.176  26.711  1.00  0.00     0.029 A 
ATOM     40  N   UNL A   1      43.547  27.216  27.625  1.00  0.00    -0.354 N 
ATOM     41  C   UNL A   1      39.995  28.669  29.595  1.00  0.00     0.074 A 
ATOM     42  C   UNL A   1      38.971  27.650  29.656  1.00  0.00     0.031 C 
ATOM     43  C   UNL A   1      44.811  25.745  26.513  1.00  0.00     0.029 A 
ATOM     44  C   UNL A   1      44.788  27.103  27.046  1.00  0.00     0.049 A 
ATOM     45  H   UNL A   1      43.254  28.012  28.127  1.00  0.00     0.167 HD
ATOM     46  C   UNL A   1      39.877  29.903  30.140  1.00  0.00     0.034 A 
ATOM     47  C   UNL A   1      45.785  28.001  26.924  1.00  0.00     0.034 A 
ATOM     48  C   UNL A   1      40.913  30.898  30.122  1.00  0.00     0.049 A 
ATOM     49  C   UNL A   1      45.613  29.377  27.500  1.00  0.00     0.074 A 
ATOM     50  C   UNL A   1      40.890  32.166  30.674  1.00  0.00     0.029 A 
ATOM     51  N   UNL A   1      42.153  30.740  29.528  1.00  0.00    -0.354 N 
ATOM     52  N   UNL A   1      44.602  29.861  28.177  1.00  0.00    -0.248 NA
ATOM     53  C   UNL A   1      46.719  30.326  27.307  1.00  0.00     0.031 C 
ATOM     54  C   UNL A   1      42.113  32.783  30.399  1.00  0.00     0.029 A 
ATOM     55  C   UNL A   1      42.903  31.891  29.694  1.00  0.00     0.049 A 
ATOM     56  H   UNL A   1      42.457  29.931  29.057  1.00  0.00     0.167 HD
ATOM     57  C   UNL A   1      44.955  31.163  28.511  1.00  0.00     0.074 A 
ATOM     58  C   UNL A   1      46.280  31.389  27.971  1.00  0.00     0.031 C 
ATOM     59  C   UNL A   1      44.239  32.088  29.193  1.00  0.00     0.034 A 
BRANCH  46  60
ATOM     60  C   UNL A   1      38.591  30.252  30.834  1.00  0.00     0.023 A 
ATOM     61  C   UNL A   1      38.417  29.906  32.188  1.00  0.00     0.012 A 
ATOM     62  C   UNL A   1      37.607  31.019  30.180  1.00  0.00     0.148 A 
ATOM     63  C   UNL A   1      37.278  30.315  32.881  1.00  0.00     0.002 A 
ATOM     64  C   UNL A   1      36.490  31.449  30.885  1.00  0.00     0.091 A 
ATOM     65  F   UNL A   1      37.794  31.326  28.888  1.00  0.00    -0.205 F 
ATOM     66  C   UNL A   1      36.322  31.094  32.235  1.00  0.00     0.022 A 
BRANCH  64  67
ATOM     67  S   UNL A   1      35.226  32.501  30.162  1.00  0.00     0.127 S 
ATOM     68  O   UNL A   1      34.315  32.685  31.291  1.00  0.00    -0.237 OA
ATOM     69  O   UNL A   1      35.992  33.691  29.796  1.00  0.00    -0.237 OA
ATOM     70  O   UNL A   1      34.672  31.756  29.039  1.00  0.00    -0.744 OA
ENDBRANCH  64  67
ENDBRANCH  46  60
BRANCH  47  71
ATOM     71  C   UNL A   1      47.045  27.603  26.238  1.00  0.00     0.023 A 
ATOM     72  C   UNL A   1      48.032  26.908  26.960  1.00  0.00     0.012 A 
ATOM     73  C   UNL A   1      47.235  27.848  24.863  1.00  0.00     0.148 A 
ATOM     74  C   UNL A   1      49.193  26.466  26.324  1.00  0.00     0.002 A 
ATOM     75  C   UNL A   1      48.375  27.372  24.229  1.00  0.00     0.091 A 
ATOM     76  F   UNL A   1      46.279  28.515  24.201  1.00  0.00    -0.205 F 
ATOM     77  C   UNL A   1      49.360  26.688  24.960  1.00  0.00     0.022 A 
BRANCH  75  78
ATOM     78  S   UNL A   1      48.640  27.528  22.459  1.00  0.00     0.127 S 
ATOM     79  O   UNL A   1      49.950  28.174  22.409  1.00  0.00    -0.237 OA
ATOM     80  O   UNL A   1      48.627  26.128  22.032  1.00  0.00    -0.237 OA
ATOM     81  O   UNL A   1      47.531  28.327  21.958  1.00  0.00    -0.744 OA
ENDBRANCH  75  78
ENDBRANCH  47  71
BRANCH  59  82
ATOM     82  C   UNL A   1      44.860  33.435  29.431  1.00  0.00     0.023 A 
ATOM     83  C   UNL A   1      45.611  33.654  30.601  1.00  0.00     0.012 A 
ATOM     84  C   UNL A   1      44.818  34.429  28.433  1.00  0.00     0.148 A 
ATOM     85  C   UNL A   1      46.311  34.847  30.777  1.00  0.00     0.002 A 
ATOM     86  C   UNL A   1      45.545  35.600  28.600  1.00  0.00     0.091 A 
ATOM     87  F   UNL A   1      44.091  34.193  27.331  1.00  0.00    -0.205 F 
ATOM     88  C   UNL A   1      46.288  35.813  29.772  1.00  0.00     0.022 A 
BRANCH  86  89
ATOM     89  S   UNL A   1      45.639  36.870  27.332  1.00  0.00     0.127 S 
ATOM     90  O   UNL A   1      46.721  37.715  27.838  1.00  0.00    -0.237 OA
ATOM     91  O   UNL A   1      45.979  36.092  26.141  1.00  0.00    -0.237 OA
ATOM     92  O   UNL A   1      44.328  37.504  27.293  1.00  0.00    -0.744 OA
ENDBRANCH  86  89
ENDBRANCH  59  82
ENDBRANCH  33  34
ENDBRANCH  26  28
ENDBRANCH  25  26
ENDBRANCH   1  25
TORSDOF 15
ENDMDL
MODEL 2
REMARK VINA RESULT:     -12.8      5.333     10.404
REMARK SMILES O=C1Nc2c(Cl)cccc2/C1=N/c1ccc(C(=O)OCCOC(=O)c2ccc(-c3c4nc(c(-c5cccc(S(=O)(=O)[O-])c5F)c5ccc([nH]5)c(-c5cccc(S(=O)(=O)[O-])c5F)c5nc(c(-c6cccc(S(=O)(=O)[O-])c6F)c6ccc3[nH]6)C=C5)C=C4)cc2)cc1
REMARK SMILES IDX 21 1 20 2 19 3 17 4 18 5 16 6 13 7 14 8 89 9 15 10 88 11
REMARK SMILES IDX 12 12 1 13 2 14 3 15 11 16 4 17 10 19 5 20 9 21 6 22 7 23
REMARK SMILES IDX 8 24 22 25 23 26 24 27 25 28 26 29 87 30 27 31 86 32 28 33
REMARK SMILES IDX 29 34 30 35 80 36 31 37 85 38 79 39 81 40 32 41 84 42 78 43
REMARK SMILES IDX 77 44 33 46 65 47 45 48 64 49 46 50 49 51 63 52 82 53 47 54
REMARK SMILES IDX 48 55 62 57 83 58 50 59 34 60 35 61 43 62 36 63 38 64 44 65
REMARK SMILES IDX 37 66 39 67 40 68 41 69 42 70 66 71 67 72 75 73 68 74 70 75
REMARK SMILES IDX 76 76 69 77 71 78 72 79 73 80 74 81 51 82 52 83 60 84 53 85
REMARK SMILES IDX 55 86 61 87 54 88 56 89 57 90 58 91 59 92
REMARK H PARENT 3 18 81 45 49 56
REMARK Flexibility Score: inf
ROOT
ATOM      1  C   UNL A   1      31.377  30.838  25.728  1.00  0.00     0.275 C 
ENDROOT
BRANCH   1   2
ATOM      2  C   UNL A   1      31.403  29.718  24.688  1.00  0.00     0.275 C 
BRANCH   2   3
ATOM      3  O   UNL A   1      30.138  29.641  24.003  1.00  0.00    -0.458 OA
BRANCH   3   4
ATOM      4  C   UNL A   1      30.149  29.015  22.801  1.00  0.00     0.338 C 
ATOM      5  O   UNL A   1      30.034  29.545  21.707  1.00  0.00    -0.246 OA
BRANCH   4   6
ATOM      6  C   UNL A   1      30.454  27.574  22.974  1.00  0.00     0.060 A 
ATOM      7  C   UNL A   1      31.108  24.863  23.211  1.00  0.00     0.064 A 
ATOM      8  C   UNL A   1      31.590  25.606  22.133  1.00  0.00     0.029 A 
ATOM      9  C   UNL A   1      30.330  25.485  24.191  1.00  0.00     0.029 A 
ATOM     10  C   UNL A   1      31.223  26.939  21.990  1.00  0.00     0.018 A 
ATOM     11  C   UNL A   1      30.007  26.843  24.080  1.00  0.00     0.018 A 
BRANCH   7  12
ATOM     12  N   UNL A   1      31.391  23.496  23.272  1.00  0.00    -0.243 NA
ATOM     13  O   UNL A   1      33.832  25.243  24.157  1.00  0.00    -0.267 OA
ATOM     14  C   UNL A   1      33.740  24.036  24.190  1.00  0.00     0.275 C 
ATOM     15  N   UNL A   1      34.708  23.147  24.598  1.00  0.00    -0.319 N 
ATOM     16  C   UNL A   1      32.545  23.155  23.753  1.00  0.00     0.138 C 
ATOM     17  C   UNL A   1      34.265  21.830  24.483  1.00  0.00     0.070 A 
ATOM     18  H   UNL A   1      35.598  23.407  24.930  1.00  0.00     0.170 HD
ATOM     19  C   UNL A   1      32.965  21.778  23.989  1.00  0.00     0.031 A 
ATOM     20  C   UNL A   1      34.943  20.668  24.798  1.00  0.00     0.065 A 
ATOM     21  C   UNL A   1      32.278  20.592  23.821  1.00  0.00     0.013 A 
ATOM     22  Cl  UNL A   1      36.561  20.704  25.375  1.00  0.00    -0.082 Cl
ATOM     23  C   UNL A   1      34.278  19.450  24.628  1.00  0.00     0.023 A 
ATOM     24  C   UNL A   1      32.952  19.413  24.150  1.00  0.00     0.002 A 
ENDBRANCH   7  12
ENDBRANCH   4   6
ENDBRANCH   3   4
ENDBRANCH   2   3
ENDBRANCH   1   2
BRANCH   1  25
ATOM     25  O   UNL A   1      32.396  30.619  26.720  1.00  0.00    -0.458 OA
BRANCH  25  26
ATOM     26  C   UNL A   1      33.013  31.731  27.178  1.00  0.00     0.338 C 
ATOM     27  O   UNL A   1      32.554  32.857  27.257  1.00  0.00    -0.246 OA
BRANCH  26  28
ATOM     28  C   UNL A   1      34.355  31.377  27.660  1.00  0.00     0.060 A 
ATOM     29  C   UNL A   1      34.631  30.036  27.916  1.00  0.00     0.016 A 
ATOM     30  C   UNL A   1      35.284  32.362  27.985  1.00  0.00     0.016 A 
ATOM     31  C   UNL A   1      35.790  29.674  28.594  1.00  0.00     0.010 A 
ATOM     32  C   UNL A   1      36.489  31.990  28.592  1.00  0.00     0.010 A 
ATOM     33  C   UNL A   1      36.732  30.648  28.941  1.00  0.00    -0.014 A 
BRANCH  33  34
ATOM     34  C   UNL A   1      37.947  30.268  29.708  1.00  0.00     0.031 A 
ATOM     35  C   UNL A   1      38.958  29.334  29.099  1.00  0.00     0.074 A 
ATOM     36  C   UNL A   1      38.151  30.766  30.943  1.00  0.00     0.049 A 
ATOM     37  N   UNL A   1      40.017  28.799  29.646  1.00  0.00    -0.248 NA
ATOM     38  C   UNL A   1      38.754  28.953  27.690  1.00  0.00     0.031 C 
ATOM     39  C   UNL A   1      37.271  31.715  31.630  1.00  0.00     0.029 A 
ATOM     40  N   UNL A   1      39.160  30.537  31.846  1.00  0.00    -0.354 N 
ATOM     41  C   UNL A   1      40.578  27.984  28.671  1.00  0.00     0.074 A 
ATOM     42  C   UNL A   1      39.748  28.097  27.492  1.00  0.00     0.031 C 
ATOM     43  C   UNL A   1      37.777  31.983  32.843  1.00  0.00     0.029 A 
ATOM     44  C   UNL A   1      38.982  31.185  33.044  1.00  0.00     0.049 A 
ATOM     45  H   UNL A   1      39.936  29.962  31.652  1.00  0.00     0.167 HD
ATOM     46  C   UNL A   1      41.694  27.221  28.748  1.00  0.00     0.034 A 
ATOM     47  C   UNL A   1      39.687  31.122  34.191  1.00  0.00     0.034 A 
ATOM     48  C   UNL A   1      42.546  27.147  29.903  1.00  0.00     0.049 A 
ATOM     49  C   UNL A   1      40.896  30.234  34.265  1.00  0.00     0.074 A 
ATOM     50  C   UNL A   1      43.713  26.420  30.059  1.00  0.00     0.029 A 
ATOM     51  N   UNL A   1      42.330  27.823  31.092  1.00  0.00    -0.354 N 
ATOM     52  N   UNL A   1      41.430  29.497  33.323  1.00  0.00    -0.248 NA
ATOM     53  C   UNL A   1      41.606  30.177  35.550  1.00  0.00     0.031 C 
ATOM     54  C   UNL A   1      44.194  26.643  31.352  1.00  0.00     0.029 A 
ATOM     55  C   UNL A   1      43.338  27.524  31.991  1.00  0.00     0.049 A 
ATOM     56  H   UNL A   1      41.572  28.424  31.271  1.00  0.00     0.167 HD
ATOM     57  C   UNL A   1      42.551  28.904  33.893  1.00  0.00     0.074 A 
ATOM     58  C   UNL A   1      42.626  29.377  35.259  1.00  0.00     0.031 C 
ATOM     59  C   UNL A   1      43.428  28.038  33.333  1.00  0.00     0.034 A 
BRANCH  46  60
ATOM     60  C   UNL A   1      42.088  26.416  27.542  1.00  0.00     0.023 A 
ATOM     61  C   UNL A   1      42.891  27.005  26.547  1.00  0.00     0.012 A 
ATOM     62  C   UNL A   1      41.759  25.049  27.453  1.00  0.00     0.148 A 
ATOM     63  C   UNL A   1      43.358  26.245  25.474  1.00  0.00     0.002 A 
ATOM     64  C   UNL A   1      42.252  24.291  26.397  1.00  0.00     0.091 A 
ATOM     65  F   UNL A   1      40.984  24.517  28.408  1.00  0.00    -0.205 F 
ATOM     66  C   UNL A   1      43.049  24.889  25.406  1.00  0.00     0.022 A 
BRANCH  64  67
ATOM     67  S   UNL A   1      41.958  22.526  26.243  1.00  0.00     0.127 S 
ATOM     68  O   UNL A   1      42.680  22.213  25.011  1.00  0.00    -0.237 OA
ATOM     69  O   UNL A   1      42.577  22.006  27.462  1.00  0.00    -0.237 OA
ATOM     70  O   UNL A   1      40.512  22.361  26.169  1.00  0.00    -0.744 OA
ENDBRANCH  64  67
ENDBRANCH  46  60
BRANCH  47  71
ATOM     71  C   UNL A   1      39.263  31.947  35.355  1.00  0.00     0.023 A 
ATOM     72  C   UNL A   1      38.446  31.372  36.346  1.00  0.00     0.012 A 
ATOM     73  C   UNL A   1      39.721  33.270  35.516  1.00  0.00     0.148 A 
ATOM     74  C   UNL A   1      38.088  32.103  37.479  1.00  0.00     0.002 A 
ATOM     75  C   UNL A   1      39.392  33.979  36.664  1.00  0.00     0.091 A 
ATOM     76  F   UNL A   1      40.495  33.793  34.555  1.00  0.00    -0.205 F 
ATOM     77  C   UNL A   1      38.568  33.400  37.643  1.00  0.00     0.022 A 
BRANCH  75  78
ATOM     78  S   UNL A   1      40.035  35.620  37.011  1.00  0.00     0.127 S 
ATOM     79  O   UNL A   1      39.368  35.942  38.271  1.00  0.00    -0.237 OA
ATOM     80  O   UNL A   1      41.470  35.361  37.122  1.00  0.00    -0.237 OA
ATOM     81  O   UNL A   1      39.653  36.447  35.874  1.00  0.00    -0.744 OA
ENDBRANCH  75  78
ENDBRANCH  47  71
BRANCH  59  82
ATOM     82  C   UNL A   1      44.574  27.545  34.171  1.00  0.00     0.023 A 
ATOM     83  C   UNL A   1      45.756  28.307  34.244  1.00  0.00     0.012 A 
ATOM     84  C   UNL A   1      44.424  26.410  34.993  1.00  0.00     0.148 A 
ATOM     85  C   UNL A   1      46.776  27.942  35.122  1.00  0.00     0.002 A 
ATOM     86  C   UNL A   1      45.429  26.074  35.889  1.00  0.00     0.091 A 
ATOM     87  F   UNL A   1      43.288  25.703  34.899  1.00  0.00    -0.205 F 
ATOM     88  C   UNL A   1      46.607  26.836  35.952  1.00  0.00     0.022 A 
BRANCH  86  89
ATOM     89  S   UNL A   1      45.275  24.712  37.052  1.00  0.00     0.127 S 
ATOM     90  O   UNL A   1      46.581  24.734  37.710  1.00  0.00    -0.237 OA
ATOM     91  O   UNL A   1      44.161  25.150  37.892  1.00  0.00    -0.237 OA
ATOM     92  O   UNL A   1      45.006  23.524  36.253  1.00  0.00    -0.744 OA
ENDBRANCH  86  89
ENDBRANCH  59  82
ENDBRANCH  33  34
ENDBRANCH  26  28
ENDBRANCH  25  26
ENDBRANCH   1  25
TORSDOF 15
ENDMDL
MODEL 3
REMARK VINA RESULT:     -12.8      5.525     10.494
REMARK SMILES O=C1Nc2c(Cl)cccc2/C1=N/c1ccc(C(=O)OCCOC(=O)c2ccc(-c3c4nc(c(-c5cccc(S(=O)(=O)[O-])c5F)c5ccc([nH]5)c(-c5cccc(S(=O)(=O)[O-])c5F)c5nc(c(-c6cccc(S(=O)(=O)[O-])c6F)c6ccc3[nH]6)C=C5)C=C4)cc2)cc1
REMARK SMILES IDX 21 1 20 2 19 3 17 4 18 5 16 6 13 7 14 8 89 9 15 10 88 11
REMARK SMILES IDX 12 12 1 13 2 14 3 15 11 16 4 17 10 19 5 20 9 21 6 22 7 23
REMARK SMILES IDX 8 24 22 25 23 26 24 27 25 28 26 29 87 30 27 31 86 32 28 33
REMARK SMILES IDX 29 34 30 35 80 36 31 37 85 38 79 39 81 40 32 41 84 42 78 43
REMARK SMILES IDX 77 44 33 46 65 47 45 48 64 49 46 50 49 51 63 52 82 53 47 54
REMARK SMILES IDX 48 55 62 57 83 58 50 59 34 60 35 61 43 62 36 63 38 64 44 65
REMARK SMILES IDX 37 66 39 67 40 68 41 69 42 70 66 71 67 72 75 73 68 74 70 75
REMARK SMILES IDX 76 76 69 77 71 78 72 79 73 80 74 81 51 82 52 83 60 84 53 85
REMARK SMILES IDX 55 86 61 87 54 88 56 89 57 90 58 91 59 92
REMARK H PARENT 3 18 81 45 49 56
REMARK Flexibility Score: inf
ROOT
ATOM      1  C   UNL A   1      31.737  30.878  26.396  1.00  0.00     0.275 C 
ENDROOT
BRANCH   1   2
ATOM      2  C   UNL A   1      31.839  29.633  25.516  1.00  0.00     0.275 C 
BRANCH   2   3
ATOM      3  O   UNL A   1      32.576  28.598  26.194  1.00  0.00    -0.458 OA
BRANCH   3   4
ATOM      4  C   UNL A   1      31.839  27.587  26.717  1.00  0.00     0.338 C 
ATOM      5  O   UNL A   1      31.065  27.666  27.658  1.00  0.00    -0.246 OA
BRANCH   4   6
ATOM      6  C   UNL A   1      31.998  26.360  25.900  1.00  0.00     0.060 A 
ATOM      7  C   UNL A   1      32.178  24.036  24.350  1.00  0.00     0.064 A 
ATOM      8  C   UNL A   1      30.939  24.461  24.831  1.00  0.00     0.029 A 
ATOM      9  C   UNL A   1      33.322  24.795  24.613  1.00  0.00     0.029 A 
ATOM     10  C   UNL A   1      30.858  25.587  25.642  1.00  0.00     0.018 A 
ATOM     11  C   UNL A   1      33.235  25.962  25.382  1.00  0.00     0.018 A 
BRANCH   7  12
ATOM     12  N   UNL A   1      32.253  22.837  23.638  1.00  0.00    -0.243 NA
ATOM     13  O   UNL A   1      32.779  22.425  26.695  1.00  0.00    -0.267 OA
ATOM     14  C   UNL A   1      32.688  21.570  25.843  1.00  0.00     0.275 C 
ATOM     15  N   UNL A   1      32.825  20.211  26.019  1.00  0.00    -0.319 N 
ATOM     16  C   UNL A   1      32.432  21.753  24.327  1.00  0.00     0.138 C 
ATOM     17  C   UNL A   1      32.677  19.528  24.813  1.00  0.00     0.070 A 
ATOM     18  H   UNL A   1      33.004  19.778  26.884  1.00  0.00     0.170 HD
ATOM     19  C   UNL A   1      32.429  20.408  23.763  1.00  0.00     0.031 A 
ATOM     20  C   UNL A   1      32.741  18.167  24.587  1.00  0.00     0.065 A 
ATOM     21  C   UNL A   1      32.201  19.981  22.470  1.00  0.00     0.013 A 
ATOM     22  Cl  UNL A   1      33.083  17.063  25.859  1.00  0.00    -0.082 Cl
ATOM     23  C   UNL A   1      32.527  17.704  23.285  1.00  0.00     0.023 A 
ATOM     24  C   UNL A   1      32.251  18.605  22.236  1.00  0.00     0.002 A 
ENDBRANCH   7  12
ENDBRANCH   4   6
ENDBRANCH   3   4
ENDBRANCH   2   3
ENDBRANCH   1   2
BRANCH   1  25
ATOM     25  O   UNL A   1      32.752  30.852  27.415  1.00  0.00    -0.458 OA
BRANCH  25  26
ATOM     26  C   UNL A   1      33.575  31.923  27.447  1.00  0.00     0.338 C 
ATOM     27  O   UNL A   1      33.290  33.087  27.224  1.00  0.00    -0.246 OA
BRANCH  26  28
ATOM     28  C   UNL A   1      34.913  31.494  27.875  1.00  0.00     0.060 A 
ATOM     29  C   UNL A   1      35.107  30.149  28.182  1.00  0.00     0.016 A 
ATOM     30  C   UNL A   1      35.926  32.422  28.102  1.00  0.00     0.016 A 
ATOM     31  C   UNL A   1      36.273  29.734  28.816  1.00  0.00     0.010 A 
ATOM     32  C   UNL A   1      37.133  31.990  28.663  1.00  0.00     0.010 A 
ATOM     33  C   UNL A   1      37.300  30.651  29.066  1.00  0.00    -0.014 A 
BRANCH  33  34
ATOM     34  C   UNL A   1      38.525  30.218  29.786  1.00  0.00     0.031 A 
ATOM     35  C   UNL A   1      39.466  29.235  29.144  1.00  0.00     0.074 A 
ATOM     36  C   UNL A   1      38.802  30.712  31.009  1.00  0.00     0.049 A 
ATOM     37  N   UNL A   1      40.520  28.653  29.652  1.00  0.00    -0.248 NA
ATOM     38  C   UNL A   1      39.189  28.857  27.747  1.00  0.00     0.031 C 
ATOM     39  C   UNL A   1      37.994  31.704  31.724  1.00  0.00     0.029 A 
ATOM     40  N   UNL A   1      39.834  30.439  31.873  1.00  0.00    -0.354 N 
ATOM     41  C   UNL A   1      41.003  27.808  28.661  1.00  0.00     0.074 A 
ATOM     42  C   UNL A   1      40.133  27.954  27.515  1.00  0.00     0.031 C 
ATOM     43  C   UNL A   1      38.560  31.953  32.915  1.00  0.00     0.029 A 
ATOM     44  C   UNL A   1      39.734  31.101  33.073  1.00  0.00     0.049 A 
ATOM     45  H   UNL A   1      40.574  29.828  31.652  1.00  0.00     0.167 HD
ATOM     46  C   UNL A   1      42.084  26.994  28.699  1.00  0.00     0.034 A 
ATOM     47  C   UNL A   1      40.480  31.010  34.191  1.00  0.00     0.034 A 
ATOM     48  C   UNL A   1      42.977  26.886  29.819  1.00  0.00     0.049 A 
ATOM     49  C   UNL A   1      41.649  30.067  34.223  1.00  0.00     0.074 A 
ATOM     50  C   UNL A   1      44.114  26.106  29.934  1.00  0.00     0.029 A 
ATOM     51  N   UNL A   1      42.840  27.576  31.011  1.00  0.00    -0.354 N 
ATOM     52  N   UNL A   1      42.109  29.301  33.266  1.00  0.00    -0.248 NA
ATOM     53  C   UNL A   1      42.406  29.982  35.480  1.00  0.00     0.031 C 
ATOM     54  C   UNL A   1      44.657  26.311  31.205  1.00  0.00     0.029 A 
ATOM     55  C   UNL A   1      43.869  27.235  31.872  1.00  0.00     0.049 A 
ATOM     56  H   UNL A   1      42.119  28.213  31.217  1.00  0.00     0.167 HD
ATOM     57  C   UNL A   1      43.223  28.659  33.794  1.00  0.00     0.074 A 
ATOM     58  C   UNL A   1      43.375  29.134  35.154  1.00  0.00     0.031 C 
ATOM     59  C   UNL A   1      44.036  27.750  33.206  1.00  0.00     0.034 A 
BRANCH  46  60
ATOM     60  C   UNL A   1      42.392  26.166  27.483  1.00  0.00     0.023 A 
ATOM     61  C   UNL A   1      43.189  26.709  26.457  1.00  0.00     0.012 A 
ATOM     62  C   UNL A   1      41.988  24.818  27.412  1.00  0.00     0.148 A 
ATOM     63  C   UNL A   1      43.577  25.922  25.373  1.00  0.00     0.002 A 
ATOM     64  C   UNL A   1      42.403  24.032  26.344  1.00  0.00     0.091 A 
ATOM     65  F   UNL A   1      41.222  24.330  28.397  1.00  0.00    -0.205 F 
ATOM     66  C   UNL A   1      43.194  24.584  25.321  1.00  0.00     0.022 A 
BRANCH  64  67
ATOM     67  S   UNL A   1      42.011  22.285  26.209  1.00  0.00     0.127 S 
ATOM     68  O   UNL A   1      42.743  21.911  24.999  1.00  0.00    -0.237 OA
ATOM     69  O   UNL A   1      42.569  21.750  27.450  1.00  0.00    -0.237 OA
ATOM     70  O   UNL A   1      40.561  22.202  26.101  1.00  0.00    -0.744 OA
ENDBRANCH  64  67
ENDBRANCH  46  60
BRANCH  47  71
ATOM     71  C   UNL A   1      40.142  31.860  35.366  1.00  0.00     0.023 A 
ATOM     72  C   UNL A   1      40.772  33.108  35.516  1.00  0.00     0.012 A 
ATOM     73  C   UNL A   1      39.152  31.468  36.289  1.00  0.00     0.148 A 
ATOM     74  C   UNL A   1      40.426  33.953  36.571  1.00  0.00     0.002 A 
ATOM     75  C   UNL A   1      38.786  32.329  37.315  1.00  0.00     0.091 A 
ATOM     76  F   UNL A   1      38.571  30.272  36.123  1.00  0.00    -0.205 F 
ATOM     77  C   UNL A   1      39.428  33.570  37.463  1.00  0.00     0.022 A 
BRANCH  75  78
ATOM     78  S   UNL A   1      37.449  31.966  38.459  1.00  0.00     0.127 S 
ATOM     79  O   UNL A   1      37.136  30.579  38.120  1.00  0.00    -0.237 OA
ATOM     80  O   UNL A   1      38.106  32.152  39.753  1.00  0.00    -0.237 OA
ATOM     81  O   UNL A   1      36.399  32.932  38.165  1.00  0.00    -0.744 OA
ENDBRANCH  75  78
ENDBRANCH  47  71
BRANCH  59  82
ATOM     82  C   UNL A   1      45.190  27.208  34.001  1.00  0.00     0.023 A 
ATOM     83  C   UNL A   1      46.412  27.908  34.014  1.00  0.00     0.012 A 
ATOM     84  C   UNL A   1      45.017  26.091  34.843  1.00  0.00     0.148 A 
ATOM     85  C   UNL A   1      47.448  27.501  34.853  1.00  0.00     0.002 A 
ATOM     86  C   UNL A   1      46.042  25.713  35.701  1.00  0.00     0.091 A 
ATOM     87  F   UNL A   1      43.844  25.442  34.807  1.00  0.00    -0.205 F 
ATOM     88  C   UNL A   1      47.259  26.414  35.704  1.00  0.00     0.022 A 
BRANCH  86  89
ATOM     89  S   UNL A   1      45.869  24.374  36.887  1.00  0.00     0.127 S 
ATOM     90  O   UNL A   1      47.200  24.338  37.491  1.00  0.00    -0.237 OA
ATOM     91  O   UNL A   1      44.813  24.877  37.765  1.00  0.00    -0.237 OA
ATOM     92  O   UNL A   1      45.509  23.192  36.115  1.00  0.00    -0.744 OA
ENDBRANCH  86  89
ENDBRANCH  59  82
ENDBRANCH  33  34
ENDBRANCH  26  28
ENDBRANCH  25  26
ENDBRANCH   1  25
TORSDOF 15
ENDMDL
