MODEL 1
REMARK VINA RESULT:     -10.8      0.000      0.000
REMARK SMILES C[C@H]1CCN(C(=O)NC[C@@H]2CC[C@H](C(=O)OCCOC(=O)c3ccc(-c4c5nc(c(-c6cccc(S(=O)(=O)[O-])c6F)c6ccc([nH]6)c(-c6cccc(S(=O)(=O)[O-])c6F)c6nc(c(-c7cccc(S(=O)(=O)[O-])c7F)c7ccc4[nH]7)C=C6)C=C5)cc3)O2)C1
REMARK SMILES IDX 17 1 16 2 14 3 15 4 13 5 10 6 11 7 85 8 12 9 9 10 8 11 6 12
REMARK SMILES IDX 7 13 5 15 1 16 2 17 3 18 86 19 4 20 18 21 19 22 20 23 21 24
REMARK SMILES IDX 22 25 23 26 84 27 24 28 83 29 25 30 26 31 27 32 77 33 28 34
REMARK SMILES IDX 82 35 76 36 78 37 29 38 81 39 75 40 74 41 30 43 62 44 42 45
REMARK SMILES IDX 61 46 43 47 46 48 60 49 79 50 44 51 45 52 59 54 80 55 47 56
REMARK SMILES IDX 31 57 32 58 40 59 33 60 35 61 41 62 34 63 36 64 37 65 38 66
REMARK SMILES IDX 39 67 63 68 64 69 72 70 65 71 67 72 73 73 66 74 68 75 69 76
REMARK SMILES IDX 70 77 71 78 48 79 49 80 57 81 50 82 52 83 58 84 51 85 53 86
REMARK SMILES IDX 54 87 55 88 56 89
REMARK H PARENT 8 14 78 42 46 53
REMARK Flexibility Score: inf
ROOT
ATOM      1  C   UNL A   1      33.260  28.979  24.659  1.00  0.00     0.274 C 
ENDROOT
BRANCH   1   2
ATOM      2  O   UNL A   1      32.814  27.632  24.405  1.00  0.00    -0.460 OA
BRANCH   2   3
ATOM      3  C   UNL A   1      32.689  26.830  25.499  1.00  0.00     0.335 C 
ATOM      4  O   UNL A   1      33.637  26.349  26.110  1.00  0.00    -0.249 OA
BRANCH   3   5
ATOM      5  C   UNL A   1      31.227  26.547  25.873  1.00  0.00     0.228 C 
ATOM      6  C   UNL A   1      30.654  24.316  25.535  1.00  0.00     0.138 C 
ATOM      7  C   UNL A   1      30.205  25.095  24.299  1.00  0.00     0.037 C 
ATOM      8  O   UNL A   1      31.098  25.275  26.506  1.00  0.00    -0.361 OA
ATOM      9  C   UNL A   1      30.216  26.538  24.747  1.00  0.00     0.047 C 
BRANCH   6  10
ATOM     10  C   UNL A   1      31.761  23.284  25.235  1.00  0.00     0.149 C 
BRANCH  10  11
ATOM     11  N   UNL A   1      32.477  22.792  26.400  1.00  0.00    -0.335 N 
ATOM     12  C   UNL A   1      33.774  22.700  26.746  1.00  0.00     0.317 C 
ATOM     13  O   UNL A   1      34.009  22.540  27.947  1.00  0.00    -0.249 OA
ATOM     14  H   UNL A   1      31.874  22.446  27.097  1.00  0.00     0.165 HD
BRANCH  12  15
ATOM     15  N   UNL A   1      34.771  22.777  25.823  1.00  0.00    -0.325 N 
ATOM     16  C   UNL A   1      36.658  22.953  23.004  1.00  0.00     0.009 C 
ATOM     17  C   UNL A   1      36.444  22.103  24.252  1.00  0.00     0.007 C 
ATOM     18  C   UNL A   1      37.093  22.718  25.492  1.00  0.00     0.027 C 
ATOM     19  C   UNL A   1      34.964  21.972  24.632  1.00  0.00     0.124 C 
ATOM     20  C   UNL A   1      35.975  23.524  26.132  1.00  0.00     0.121 C 
ENDBRANCH  12  15
ENDBRANCH  10  11
ENDBRANCH   6  10
ENDBRANCH   3   5
ENDBRANCH   2   3
ENDBRANCH   1   2
BRANCH   1  21
ATOM     21  C   UNL A   1      32.180  29.805  25.365  1.00  0.00     0.275 C 
BRANCH  21  22
ATOM     22  O   UNL A   1      32.492  30.024  26.752  1.00  0.00    -0.458 OA
BRANCH  22  23
ATOM     23  C   UNL A   1      33.125  31.190  27.020  1.00  0.00     0.338 C 
ATOM     24  O   UNL A   1      32.667  32.316  26.926  1.00  0.00    -0.246 OA
BRANCH  23  25
ATOM     25  C   UNL A   1      34.450  30.919  27.591  1.00  0.00     0.060 A 
ATOM     26  C   UNL A   1      34.736  29.612  27.993  1.00  0.00     0.016 A 
ATOM     27  C   UNL A   1      35.355  31.951  27.834  1.00  0.00     0.016 A 
ATOM     28  C   UNL A   1      35.919  29.328  28.663  1.00  0.00     0.010 A 
ATOM     29  C   UNL A   1      36.555  31.661  28.492  1.00  0.00     0.010 A 
ATOM     30  C   UNL A   1      36.834  30.353  28.927  1.00  0.00    -0.014 A 
BRANCH  30  31
ATOM     31  C   UNL A   1      38.069  30.056  29.689  1.00  0.00     0.031 A 
ATOM     32  C   UNL A   1      39.095  29.123  29.116  1.00  0.00     0.074 A 
ATOM     33  C   UNL A   1      38.255  30.615  30.900  1.00  0.00     0.049 A 
ATOM     34  N   UNL A   1      40.187  28.660  29.666  1.00  0.00    -0.248 NA
ATOM     35  C   UNL A   1      38.862  28.639  27.745  1.00  0.00     0.031 C 
ATOM     36  C   UNL A   1      37.328  31.541  31.551  1.00  0.00     0.029 A 
ATOM     37  N   UNL A   1      39.271  30.462  31.808  1.00  0.00    -0.354 N 
ATOM     38  C   UNL A   1      40.742  27.791  28.736  1.00  0.00     0.074 A 
ATOM     39  C   UNL A   1      39.874  27.798  27.578  1.00  0.00     0.031 C 
ATOM     40  C   UNL A   1      37.806  31.856  32.766  1.00  0.00     0.029 A 
ATOM     41  C   UNL A   1      39.050  31.125  32.992  1.00  0.00     0.049 A 
ATOM     42  H   UNL A   1      40.081  29.931  31.630  1.00  0.00     0.167 HD
ATOM     43  C   UNL A   1      41.876  27.061  28.836  1.00  0.00     0.034 A 
ATOM     44  C   UNL A   1      39.752  31.118  34.142  1.00  0.00     0.034 A 
ATOM     45  C   UNL A   1      42.765  27.102  29.966  1.00  0.00     0.049 A 
ATOM     46  C   UNL A   1      41.019  30.311  34.217  1.00  0.00     0.074 A 
ATOM     47  C   UNL A   1      43.972  26.448  30.135  1.00  0.00     0.029 A 
ATOM     48  N   UNL A   1      42.543  27.840  31.119  1.00  0.00    -0.354 N 
ATOM     49  N   UNL A   1      41.584  29.577  33.289  1.00  0.00    -0.248 NA
ATOM     50  C   UNL A   1      41.758  30.349  35.488  1.00  0.00     0.031 C 
ATOM     51  C   UNL A   1      44.477  26.783  31.396  1.00  0.00     0.029 A 
ATOM     52  C   UNL A   1      43.587  27.653  32.008  1.00  0.00     0.049 A 
ATOM     53  H   UNL A   1      41.759  28.411  31.282  1.00  0.00     0.167 HD
ATOM     54  C   UNL A   1      42.756  29.085  33.854  1.00  0.00     0.074 A 
ATOM     55  C   UNL A   1      42.830  29.624  35.196  1.00  0.00     0.031 C 
ATOM     56  C   UNL A   1      43.674  28.245  33.318  1.00  0.00     0.034 A 
BRANCH  43  57
ATOM     57  C   UNL A   1      42.246  26.175  27.679  1.00  0.00     0.023 A 
ATOM     58  C   UNL A   1      43.050  26.686  26.641  1.00  0.00     0.012 A 
ATOM     59  C   UNL A   1      41.855  24.822  27.651  1.00  0.00     0.148 A 
ATOM     60  C   UNL A   1      43.443  25.868  25.582  1.00  0.00     0.002 A 
ATOM     61  C   UNL A   1      42.279  24.005  26.609  1.00  0.00     0.091 A 
ATOM     62  F   UNL A   1      41.067  24.364  28.634  1.00  0.00    -0.205 F 
ATOM     63  C   UNL A   1      43.067  24.527  25.572  1.00  0.00     0.022 A 
BRANCH  61  64
ATOM     64  S   UNL A   1      41.896  22.250  26.546  1.00  0.00     0.127 S 
ATOM     65  O   UNL A   1      42.626  21.831  25.352  1.00  0.00    -0.237 OA
ATOM     66  O   UNL A   1      42.460  21.763  27.806  1.00  0.00    -0.237 OA
ATOM     67  O   UNL A   1      40.445  22.162  26.462  1.00  0.00    -0.744 OA
ENDBRANCH  61  64
ENDBRANCH  43  57
BRANCH  44  68
ATOM     68  C   UNL A   1      39.279  31.927  35.299  1.00  0.00     0.023 A 
ATOM     69  C   UNL A   1      38.409  31.346  36.242  1.00  0.00     0.012 A 
ATOM     70  C   UNL A   1      39.722  33.250  35.496  1.00  0.00     0.148 A 
ATOM     71  C   UNL A   1      37.976  32.074  37.350  1.00  0.00     0.002 A 
ATOM     72  C   UNL A   1      39.329  33.950  36.631  1.00  0.00     0.091 A 
ATOM     73  F   UNL A   1      40.528  33.797  34.575  1.00  0.00    -0.205 F 
ATOM     74  C   UNL A   1      38.446  33.370  37.553  1.00  0.00     0.022 A 
BRANCH  72  75
ATOM     75  S   UNL A   1      40.002  35.570  37.019  1.00  0.00     0.127 S 
ATOM     76  O   UNL A   1      41.425  35.279  37.163  1.00  0.00    -0.237 OA
ATOM     77  O   UNL A   1      39.650  36.348  35.831  1.00  0.00    -0.237 OA
ATOM     78  O   UNL A   1      39.306  35.990  38.230  1.00  0.00    -0.744 OA
ENDBRANCH  72  75
ENDBRANCH  44  68
BRANCH  56  79
ATOM     79  C   UNL A   1      44.855  27.867  34.170  1.00  0.00     0.023 A 
ATOM     80  C   UNL A   1      46.016  28.662  34.133  1.00  0.00     0.012 A 
ATOM     81  C   UNL A   1      44.782  26.784  35.066  1.00  0.00     0.148 A 
ATOM     82  C   UNL A   1      47.097  28.374  34.965  1.00  0.00     0.002 A 
ATOM     83  C   UNL A   1      45.848  26.526  35.921  1.00  0.00     0.091 A 
ATOM     84  F   UNL A   1      43.676  26.025  35.070  1.00  0.00    -0.205 F 
ATOM     85  C   UNL A   1      47.009  27.315  35.866  1.00  0.00     0.022 A 
BRANCH  83  86
ATOM     86  S   UNL A   1      45.779  25.239  37.172  1.00  0.00     0.127 S 
ATOM     87  O   UNL A   1      47.028  25.460  37.899  1.00  0.00    -0.237 OA
ATOM     88  O   UNL A   1      44.569  25.588  37.918  1.00  0.00    -0.237 OA
ATOM     89  O   UNL A   1      45.690  23.981  36.441  1.00  0.00    -0.744 OA
ENDBRANCH  83  86
ENDBRANCH  56  79
ENDBRANCH  30  31
ENDBRANCH  23  25
ENDBRANCH  22  23
ENDBRANCH  21  22
ENDBRANCH   1  21
TORSDOF 17
ENDMDL
MODEL 2
REMARK VINA RESULT:     -10.8      1.600      2.016
REMARK SMILES C[C@H]1CCN(C(=O)NC[C@@H]2CC[C@H](C(=O)OCCOC(=O)c3ccc(-c4c5nc(c(-c6cccc(S(=O)(=O)[O-])c6F)c6ccc([nH]6)c(-c6cccc(S(=O)(=O)[O-])c6F)c6nc(c(-c7cccc(S(=O)(=O)[O-])c7F)c7ccc4[nH]7)C=C6)C=C5)cc3)O2)C1
REMARK SMILES IDX 17 1 16 2 14 3 15 4 13 5 10 6 11 7 85 8 12 9 9 10 8 11 6 12
REMARK SMILES IDX 7 13 5 15 1 16 2 17 3 18 86 19 4 20 18 21 19 22 20 23 21 24
REMARK SMILES IDX 22 25 23 26 84 27 24 28 83 29 25 30 26 31 27 32 77 33 28 34
REMARK SMILES IDX 82 35 76 36 78 37 29 38 81 39 75 40 74 41 30 43 62 44 42 45
REMARK SMILES IDX 61 46 43 47 46 48 60 49 79 50 44 51 45 52 59 54 80 55 47 56
REMARK SMILES IDX 31 57 32 58 40 59 33 60 35 61 41 62 34 63 36 64 37 65 38 66
REMARK SMILES IDX 39 67 63 68 64 69 72 70 65 71 67 72 73 73 66 74 68 75 69 76
REMARK SMILES IDX 70 77 71 78 48 79 49 80 57 81 50 82 52 83 58 84 51 85 53 86
REMARK SMILES IDX 54 87 55 88 56 89
REMARK H PARENT 8 14 78 42 46 53
REMARK Flexibility Score: inf
ROOT
ATOM      1  C   UNL A   1      31.741  28.598  26.226  1.00  0.00     0.274 C 
ENDROOT
BRANCH   1   2
ATOM      2  O   UNL A   1      31.046  28.699  24.968  1.00  0.00    -0.460 OA
BRANCH   2   3
ATOM      3  C   UNL A   1      31.734  28.271  23.872  1.00  0.00     0.335 C 
ATOM      4  O   UNL A   1      32.935  28.449  23.701  1.00  0.00    -0.249 OA
BRANCH   3   5
ATOM      5  C   UNL A   1      30.840  27.572  22.837  1.00  0.00     0.228 C 
ATOM      6  C   UNL A   1      30.309  25.394  23.469  1.00  0.00     0.138 C 
ATOM      7  C   UNL A   1      31.503  25.315  22.517  1.00  0.00     0.037 C 
ATOM      8  O   UNL A   1      29.859  26.757  23.476  1.00  0.00    -0.361 OA
ATOM      9  C   UNL A   1      31.524  26.664  21.837  1.00  0.00     0.047 C 
BRANCH   6  10
ATOM     10  C   UNL A   1      30.638  24.917  24.899  1.00  0.00     0.149 C 
BRANCH  10  11
ATOM     11  N   UNL A   1      30.732  23.476  25.061  1.00  0.00    -0.335 N 
ATOM     12  C   UNL A   1      31.722  22.619  25.370  1.00  0.00     0.317 C 
ATOM     13  O   UNL A   1      31.377  21.498  25.750  1.00  0.00    -0.249 OA
ATOM     14  H   UNL A   1      29.872  23.021  24.911  1.00  0.00     0.165 HD
BRANCH  12  15
ATOM     15  N   UNL A   1      33.033  22.970  25.266  1.00  0.00    -0.325 N 
ATOM     16  C   UNL A   1      36.324  23.644  25.773  1.00  0.00     0.009 C 
ATOM     17  C   UNL A   1      35.022  24.297  25.321  1.00  0.00     0.007 C 
ATOM     18  C   UNL A   1      34.661  23.936  23.880  1.00  0.00     0.027 C 
ATOM     19  C   UNL A   1      33.811  23.829  26.137  1.00  0.00     0.124 C 
ATOM     20  C   UNL A   1      33.739  22.737  24.020  1.00  0.00     0.121 C 
ENDBRANCH  12  15
ENDBRANCH  10  11
ENDBRANCH   6  10
ENDBRANCH   3   5
ENDBRANCH   2   3
ENDBRANCH   1   2
BRANCH   1  21
ATOM     21  C   UNL A   1      31.928  29.972  26.877  1.00  0.00     0.275 C 
BRANCH  21  22
ATOM     22  O   UNL A   1      33.133  30.619  26.432  1.00  0.00    -0.458 OA
BRANCH  22  23
ATOM     23  C   UNL A   1      33.593  31.597  27.246  1.00  0.00     0.338 C 
ATOM     24  O   UNL A   1      32.995  32.595  27.610  1.00  0.00    -0.246 OA
BRANCH  23  25
ATOM     25  C   UNL A   1      34.914  31.230  27.771  1.00  0.00     0.060 A 
ATOM     26  C   UNL A   1      35.127  29.899  28.138  1.00  0.00     0.016 A 
ATOM     27  C   UNL A   1      35.890  32.196  28.005  1.00  0.00     0.016 A 
ATOM     28  C   UNL A   1      36.308  29.526  28.766  1.00  0.00     0.010 A 
ATOM     29  C   UNL A   1      37.088  31.817  28.621  1.00  0.00     0.010 A 
ATOM     30  C   UNL A   1      37.295  30.485  29.022  1.00  0.00    -0.014 A 
BRANCH  30  31
ATOM     31  C   UNL A   1      38.530  30.093  29.740  1.00  0.00     0.031 A 
ATOM     32  C   UNL A   1      39.466  29.092  29.127  1.00  0.00     0.074 A 
ATOM     33  C   UNL A   1      38.797  30.628  30.946  1.00  0.00     0.049 A 
ATOM     34  N   UNL A   1      40.538  28.547  29.637  1.00  0.00    -0.248 NA
ATOM     35  C   UNL A   1      39.151  28.637  27.762  1.00  0.00     0.031 C 
ATOM     36  C   UNL A   1      37.963  31.614  31.633  1.00  0.00     0.029 A 
ATOM     37  N   UNL A   1      39.830  30.394  31.818  1.00  0.00    -0.354 N 
ATOM     38  C   UNL A   1      40.997  27.647  28.684  1.00  0.00     0.074 A 
ATOM     39  C   UNL A   1      40.093  27.726  27.557  1.00  0.00     0.031 C 
ATOM     40  C   UNL A   1      38.503  31.884  32.833  1.00  0.00     0.029 A 
ATOM     41  C   UNL A   1      39.697  31.064  33.012  1.00  0.00     0.049 A 
ATOM     42  H   UNL A   1      40.592  29.808  31.610  1.00  0.00     0.167 HD
ATOM     43  C   UNL A   1      42.078  26.835  28.742  1.00  0.00     0.034 A 
ATOM     44  C   UNL A   1      40.435  30.997  34.138  1.00  0.00     0.034 A 
ATOM     45  C   UNL A   1      43.005  26.804  29.841  1.00  0.00     0.049 A 
ATOM     46  C   UNL A   1      41.642  30.100  34.165  1.00  0.00     0.074 A 
ATOM     47  C   UNL A   1      44.167  26.063  29.965  1.00  0.00     0.029 A 
ATOM     48  N   UNL A   1      42.876  27.547  31.005  1.00  0.00    -0.354 N 
ATOM     49  N   UNL A   1      42.121  29.334  33.215  1.00  0.00    -0.248 NA
ATOM     50  C   UNL A   1      42.425  30.075  35.410  1.00  0.00     0.031 C 
ATOM     51  C   UNL A   1      44.736  26.351  31.210  1.00  0.00     0.029 A 
ATOM     52  C   UNL A   1      43.934  27.278  31.856  1.00  0.00     0.049 A 
ATOM     53  H   UNL A   1      42.142  28.173  31.197  1.00  0.00     0.167 HD
ATOM     54  C   UNL A   1      43.272  28.754  33.737  1.00  0.00     0.074 A 
ATOM     55  C   UNL A   1      43.431  29.276  35.078  1.00  0.00     0.031 C 
ATOM     56  C   UNL A   1      44.108  27.853  33.165  1.00  0.00     0.034 A 
BRANCH  43  57
ATOM     57  C   UNL A   1      42.343  25.934  27.568  1.00  0.00     0.023 A 
ATOM     58  C   UNL A   1      43.093  26.415  26.477  1.00  0.00     0.012 A 
ATOM     59  C   UNL A   1      41.908  24.594  27.574  1.00  0.00     0.148 A 
ATOM     60  C   UNL A   1      43.390  25.580  25.400  1.00  0.00     0.002 A 
ATOM     61  C   UNL A   1      42.237  23.760  26.512  1.00  0.00     0.091 A 
ATOM     62  F   UNL A   1      41.172  24.165  28.610  1.00  0.00    -0.205 F 
ATOM     63  C   UNL A   1      42.972  24.252  25.422  1.00  0.00     0.022 A 
BRANCH  61  64
ATOM     64  S   UNL A   1      41.796  22.018  26.485  1.00  0.00     0.127 S 
ATOM     65  O   UNL A   1      42.595  21.528  25.364  1.00  0.00    -0.237 OA
ATOM     66  O   UNL A   1      42.248  21.562  27.800  1.00  0.00    -0.237 OA
ATOM     67  O   UNL A   1      40.352  21.976  26.297  1.00  0.00    -0.744 OA
ENDBRANCH  61  64
ENDBRANCH  43  57
BRANCH  44  68
ATOM     68  C   UNL A   1      40.062  31.829  35.314  1.00  0.00     0.023 A 
ATOM     69  C   UNL A   1      40.629  33.109  35.466  1.00  0.00     0.012 A 
ATOM     70  C   UNL A   1      39.116  31.380  36.257  1.00  0.00     0.148 A 
ATOM     71  C   UNL A   1      40.273  33.919  36.545  1.00  0.00     0.002 A 
ATOM     72  C   UNL A   1      38.726  32.214  37.299  1.00  0.00     0.091 A 
ATOM     73  F   UNL A   1      38.607  30.148  36.113  1.00  0.00    -0.205 F 
ATOM     74  C   UNL A   1      39.312  33.478  37.452  1.00  0.00     0.022 A 
BRANCH  72  75
ATOM     75  S   UNL A   1      37.400  31.762  38.423  1.00  0.00     0.127 S 
ATOM     76  O   UNL A   1      38.031  31.948  39.725  1.00  0.00    -0.237 OA
ATOM     77  O   UNL A   1      36.364  32.742  38.095  1.00  0.00    -0.237 OA
ATOM     78  O   UNL A   1      37.052  30.391  38.067  1.00  0.00    -0.744 OA
ENDBRANCH  72  75
ENDBRANCH  44  68
BRANCH  56  79
ATOM     79  C   UNL A   1      45.286  27.384  33.974  1.00  0.00     0.023 A 
ATOM     80  C   UNL A   1      46.485  28.120  33.939  1.00  0.00     0.012 A 
ATOM     81  C   UNL A   1      45.177  26.273  34.832  1.00  0.00     0.148 A 
ATOM     82  C   UNL A   1      47.568  27.746  34.734  1.00  0.00     0.002 A 
ATOM     83  C   UNL A   1      46.248  25.929  35.651  1.00  0.00     0.091 A 
ATOM     84  F   UNL A   1      44.034  25.572  34.834  1.00  0.00    -0.205 F 
ATOM     85  C   UNL A   1      47.446  26.660  35.597  1.00  0.00     0.022 A 
BRANCH  83  86
ATOM     86  S   UNL A   1      46.140  24.601  36.855  1.00  0.00     0.127 S 
ATOM     87  O   UNL A   1      45.909  23.439  35.999  1.00  0.00    -0.237 OA
ATOM     88  O   UNL A   1      47.459  24.640  37.487  1.00  0.00    -0.237 OA
ATOM     89  O   UNL A   1      45.040  24.958  37.742  1.00  0.00    -0.744 OA
ENDBRANCH  83  86
ENDBRANCH  56  79
ENDBRANCH  30  31
ENDBRANCH  23  25
ENDBRANCH  22  23
ENDBRANCH  21  22
ENDBRANCH   1  21
TORSDOF 17
ENDMDL
MODEL 3
REMARK VINA RESULT:     -10.7      4.788      9.923
REMARK SMILES C[C@H]1CCN(C(=O)NC[C@@H]2CC[C@H](C(=O)OCCOC(=O)c3ccc(-c4c5nc(c(-c6cccc(S(=O)(=O)[O-])c6F)c6ccc([nH]6)c(-c6cccc(S(=O)(=O)[O-])c6F)c6nc(c(-c7cccc(S(=O)(=O)[O-])c7F)c7ccc4[nH]7)C=C6)C=C5)cc3)O2)C1
REMARK SMILES IDX 17 1 16 2 14 3 15 4 13 5 10 6 11 7 85 8 12 9 9 10 8 11 6 12
REMARK SMILES IDX 7 13 5 15 1 16 2 17 3 18 86 19 4 20 18 21 19 22 20 23 21 24
REMARK SMILES IDX 22 25 23 26 84 27 24 28 83 29 25 30 26 31 27 32 77 33 28 34
REMARK SMILES IDX 82 35 76 36 78 37 29 38 81 39 75 40 74 41 30 43 62 44 42 45
REMARK SMILES IDX 61 46 43 47 46 48 60 49 79 50 44 51 45 52 59 54 80 55 47 56
REMARK SMILES IDX 31 57 32 58 40 59 33 60 35 61 41 62 34 63 36 64 37 65 38 66
REMARK SMILES IDX 39 67 63 68 64 69 72 70 65 71 67 72 73 73 66 74 68 75 69 76
REMARK SMILES IDX 70 77 71 78 48 79 49 80 57 81 50 82 52 83 58 84 51 85 53 86
REMARK SMILES IDX 54 87 55 88 56 89
REMARK H PARENT 8 14 78 42 46 53
REMARK Flexibility Score: inf
ROOT
ATOM      1  C   UNL A   1      35.500  21.454  26.126  1.00  0.00     0.274 C 
ENDROOT
BRANCH   1   2
ATOM      2  O   UNL A   1      34.849  22.631  25.610  1.00  0.00    -0.460 OA
BRANCH   2   3
ATOM      3  C   UNL A   1      33.644  22.430  25.008  1.00  0.00     0.335 C 
ATOM      4  O   UNL A   1      32.651  21.999  25.585  1.00  0.00    -0.249 OA
BRANCH   3   5
ATOM      5  C   UNL A   1      33.659  22.758  23.508  1.00  0.00     0.228 C 
ATOM      6  C   UNL A   1      33.169  24.997  23.097  1.00  0.00     0.138 C 
ATOM      7  C   UNL A   1      31.871  24.207  22.929  1.00  0.00     0.037 C 
ATOM      8  O   UNL A   1      34.228  24.044  23.272  1.00  0.00    -0.361 OA
ATOM      9  C   UNL A   1      32.325  22.773  22.792  1.00  0.00     0.047 C 
BRANCH   6  10
ATOM     10  C   UNL A   1      33.127  25.994  24.274  1.00  0.00     0.149 C 
BRANCH  10  11
ATOM     11  N   UNL A   1      32.091  25.739  25.261  1.00  0.00    -0.335 N 
ATOM     12  C   UNL A   1      31.292  26.512  26.018  1.00  0.00     0.317 C 
ATOM     13  O   UNL A   1      30.297  25.965  26.500  1.00  0.00    -0.249 OA
ATOM     14  H   UNL A   1      31.939  24.777  25.411  1.00  0.00     0.165 HD
BRANCH  12  15
ATOM     15  N   UNL A   1      31.567  27.826  26.241  1.00  0.00    -0.325 N 
ATOM     16  C   UNL A   1      31.527  31.214  26.499  1.00  0.00     0.009 C 
ATOM     17  C   UNL A   1      32.312  30.068  25.867  1.00  0.00     0.007 C 
ATOM     18  C   UNL A   1      33.223  29.364  26.872  1.00  0.00     0.027 C 
ATOM     19  C   UNL A   1      31.404  28.950  25.339  1.00  0.00     0.124 C 
ATOM     20  C   UNL A   1      32.385  28.203  27.379  1.00  0.00     0.121 C 
ENDBRANCH  12  15
ENDBRANCH  10  11
ENDBRANCH   6  10
ENDBRANCH   3   5
ENDBRANCH   2   3
ENDBRANCH   1   2
BRANCH   1  21
ATOM     21  C   UNL A   1      36.393  20.797  25.068  1.00  0.00     0.275 C 
BRANCH  21  22
ATOM     22  O   UNL A   1      37.640  21.496  24.909  1.00  0.00    -0.458 OA
BRANCH  22  23
ATOM     23  C   UNL A   1      38.626  21.109  25.750  1.00  0.00     0.338 C 
ATOM     24  O   UNL A   1      39.035  19.975  25.935  1.00  0.00    -0.246 OA
BRANCH  23  25
ATOM     25  C   UNL A   1      39.265  22.289  26.347  1.00  0.00     0.060 A 
ATOM     26  C   UNL A   1      38.767  23.547  26.004  1.00  0.00     0.016 A 
ATOM     27  C   UNL A   1      40.405  22.167  27.139  1.00  0.00     0.016 A 
ATOM     28  C   UNL A   1      39.419  24.698  26.429  1.00  0.00     0.010 A 
ATOM     29  C   UNL A   1      41.050  23.326  27.583  1.00  0.00     0.010 A 
ATOM     30  C   UNL A   1      40.572  24.596  27.214  1.00  0.00    -0.014 A 
BRANCH  30  31
ATOM     31  C   UNL A   1      41.294  25.824  27.620  1.00  0.00     0.031 A 
ATOM     32  C   UNL A   1      40.588  26.875  28.428  1.00  0.00     0.074 A 
ATOM     33  C   UNL A   1      42.576  25.997  27.248  1.00  0.00     0.049 A 
ATOM     34  N   UNL A   1      41.011  28.056  28.794  1.00  0.00    -0.248 NA
ATOM     35  C   UNL A   1      39.222  26.559  28.880  1.00  0.00     0.031 C 
ATOM     36  C   UNL A   1      43.363  25.041  26.469  1.00  0.00     0.029 A 
ATOM     37  N   UNL A   1      43.432  27.050  27.451  1.00  0.00    -0.354 N 
ATOM     38  C   UNL A   1      39.951  28.647  29.469  1.00  0.00     0.074 A 
ATOM     39  C   UNL A   1      38.865  27.690  29.475  1.00  0.00     0.031 C 
ATOM     40  C   UNL A   1      44.580  25.560  26.238  1.00  0.00     0.029 A 
ATOM     41  C   UNL A   1      44.644  26.898  26.819  1.00  0.00     0.049 A 
ATOM     42  H   UNL A   1      43.202  27.836  27.997  1.00  0.00     0.167 HD
ATOM     43  C   UNL A   1      39.893  29.872  30.039  1.00  0.00     0.034 A 
ATOM     44  C   UNL A   1      45.676  27.755  26.692  1.00  0.00     0.034 A 
ATOM     45  C   UNL A   1      40.994  30.796  30.081  1.00  0.00     0.049 A 
ATOM     46  C   UNL A   1      45.589  29.103  27.353  1.00  0.00     0.074 A 
ATOM     47  C   UNL A   1      41.054  32.036  30.691  1.00  0.00     0.029 A 
ATOM     48  N   UNL A   1      42.230  30.579  29.489  1.00  0.00    -0.354 N 
ATOM     49  N   UNL A   1      44.618  29.605  28.077  1.00  0.00    -0.248 NA
ATOM     50  C   UNL A   1      46.748  29.995  27.200  1.00  0.00     0.031 C 
ATOM     51  C   UNL A   1      42.324  32.574  30.460  1.00  0.00     0.029 A 
ATOM     52  C   UNL A   1      43.057  31.665  29.714  1.00  0.00     0.049 A 
ATOM     53  H   UNL A   1      42.481  29.773  28.984  1.00  0.00     0.167 HD
ATOM     54  C   UNL A   1      45.056  30.859  28.486  1.00  0.00     0.074 A 
ATOM     55  C   UNL A   1      46.390  31.031  27.948  1.00  0.00     0.031 C 
ATOM     56  C   UNL A   1      44.404  31.794  29.220  1.00  0.00     0.034 A 
BRANCH  43  57
ATOM     57  C   UNL A   1      38.604  30.279  30.698  1.00  0.00     0.023 A 
ATOM     58  C   UNL A   1      38.366  29.923  32.039  1.00  0.00     0.012 A 
ATOM     59  C   UNL A   1      37.660  31.069  30.012  1.00  0.00     0.148 A 
ATOM     60  C   UNL A   1      37.198  30.331  32.684  1.00  0.00     0.002 A 
ATOM     61  C   UNL A   1      36.515  31.500  30.671  1.00  0.00     0.091 A 
ATOM     62  F   UNL A   1      37.894  31.373  28.727  1.00  0.00    -0.205 F 
ATOM     63  C   UNL A   1      36.279  31.128  32.004  1.00  0.00     0.022 A 
BRANCH  61  64
ATOM     64  S   UNL A   1      35.307  32.581  29.895  1.00  0.00     0.127 S 
ATOM     65  O   UNL A   1      34.361  32.799  30.987  1.00  0.00    -0.237 OA
ATOM     66  O   UNL A   1      36.115  33.751  29.547  1.00  0.00    -0.237 OA
ATOM     67  O   UNL A   1      34.791  31.843  28.751  1.00  0.00    -0.744 OA
ENDBRANCH  61  64
ENDBRANCH  43  57
BRANCH  44  68
ATOM     68  C   UNL A   1      46.887  27.342  25.931  1.00  0.00     0.023 A 
ATOM     69  C   UNL A   1      46.987  27.658  24.563  1.00  0.00     0.012 A 
ATOM     70  C   UNL A   1      47.958  26.680  26.564  1.00  0.00     0.148 A 
ATOM     71  C   UNL A   1      48.125  27.308  23.835  1.00  0.00     0.002 A 
ATOM     72  C   UNL A   1      49.110  26.382  25.846  1.00  0.00     0.091 A 
ATOM     73  F   UNL A   1      47.834  26.362  27.861  1.00  0.00    -0.205 F 
ATOM     74  C   UNL A   1      49.191  26.683  24.479  1.00  0.00     0.022 A 
BRANCH  72  75
ATOM     75  S   UNL A   1      50.569  25.701  26.643  1.00  0.00     0.127 S 
ATOM     76  O   UNL A   1      51.494  25.574  25.522  1.00  0.00    -0.237 OA
ATOM     77  O   UNL A   1      50.913  26.744  27.610  1.00  0.00    -0.237 OA
ATOM     78  O   UNL A   1      50.121  24.454  27.251  1.00  0.00    -0.744 OA
ENDBRANCH  72  75
ENDBRANCH  44  68
BRANCH  56  79
ATOM     79  C   UNL A   1      45.126  33.082  29.508  1.00  0.00     0.023 A 
ATOM     80  C   UNL A   1      45.977  33.162  30.627  1.00  0.00     0.012 A 
ATOM     81  C   UNL A   1      45.030  34.176  28.628  1.00  0.00     0.148 A 
ATOM     82  C   UNL A   1      46.710  34.321  30.876  1.00  0.00     0.002 A 
ATOM     83  C   UNL A   1      45.795  35.314  28.860  1.00  0.00     0.091 A 
ATOM     84  F   UNL A   1      44.197  34.088  27.581  1.00  0.00    -0.205 F 
ATOM     85  C   UNL A   1      46.629  35.391  29.987  1.00  0.00     0.022 A 
BRANCH  83  86
ATOM     86  S   UNL A   1      45.816  36.700  27.717  1.00  0.00     0.127 S 
ATOM     87  O   UNL A   1      46.270  36.062  26.482  1.00  0.00    -0.237 OA
ATOM     88  O   UNL A   1      44.415  37.122  27.706  1.00  0.00    -0.237 OA
ATOM     89  O   UNL A   1      46.730  37.676  28.294  1.00  0.00    -0.744 OA
ENDBRANCH  83  86
ENDBRANCH  56  79
ENDBRANCH  30  31
ENDBRANCH  23  25
ENDBRANCH  22  23
ENDBRANCH  21  22
ENDBRANCH   1  21
TORSDOF 17
ENDMDL
