MODEL 1
REMARK VINA RESULT:     -11.5      0.000      0.000
REMARK SMILES CC[C@@](C)(NC(=O)c1cc(C)c(Br)s1)C(=O)OCCOC(=O)c1ccc(-c2c3nc(c(-c4cccc(S(=O)(=O)[O-])c4F)c4ccc([nH]4)c(-c4cccc(S(=O)(=O)[O-])c4F)c4nc(c(-c5cccc(S(=O)(=O)[O-])c5F)c5ccc2[nH]5)C=C4)C=C3)cc1
REMARK SMILES IDX 19 1 18 2 17 3 15 4 16 5 3 6 4 7 2 8 1 9 5 10 6 11 7 13 8 14
REMARK SMILES IDX 9 15 14 16 10 17 12 18 11 19 13 20 20 21 21 22 22 23 23 24
REMARK SMILES IDX 24 25 85 26 25 27 84 28 26 29 27 30 28 31 78 32 29 33 83 34
REMARK SMILES IDX 77 35 79 36 30 37 82 38 76 39 75 40 31 42 63 43 43 44 62 45
REMARK SMILES IDX 44 46 47 47 61 48 80 49 45 50 46 51 60 53 81 54 48 55 32 56
REMARK SMILES IDX 33 57 41 58 34 59 36 60 42 61 35 62 37 63 38 64 39 65 40 66
REMARK SMILES IDX 64 67 65 68 73 69 66 70 68 71 74 72 67 73 69 74 70 75 71 76
REMARK SMILES IDX 72 77 49 78 50 79 58 80 51 81 53 82 59 83 52 84 54 85 55 86
REMARK SMILES IDX 56 87 57 88
REMARK H PARENT 5 12 79 41 47 52
REMARK Flexibility Score: inf
ROOT
ATOM      1  C   UNL A   1      33.547  30.777  26.715  1.00  0.00     0.275 C 
ENDROOT
BRANCH   1   2
ATOM      2  C   UNL A   1      32.076  30.442  26.977  1.00  0.00     0.274 C 
BRANCH   2   3
ATOM      3  O   UNL A   1      31.630  29.312  26.197  1.00  0.00    -0.460 OA
BRANCH   3   4
ATOM      4  C   UNL A   1      31.746  28.089  26.772  1.00  0.00     0.331 C 
ATOM      5  O   UNL A   1      31.336  27.851  27.906  1.00  0.00    -0.249 OA
BRANCH   4   6
ATOM      6  C   UNL A   1      32.476  27.018  25.875  1.00  0.00     0.135 C 
ATOM      7  C   UNL A   1      33.963  27.216  26.272  1.00  0.00     0.047 C 
BRANCH   6   8
ATOM      8  C   UNL A   1      32.087  25.543  26.264  1.00  0.00     0.037 C 
ATOM      9  C   UNL A   1      33.114  24.450  25.965  1.00  0.00     0.007 C 
ENDBRANCH   6   8
BRANCH   6  10
ATOM     10  N   UNL A   1      32.497  27.132  24.363  1.00  0.00    -0.336 N 
ATOM     11  C   UNL A   1      31.537  26.772  23.439  1.00  0.00     0.262 C 
ATOM     12  H   UNL A   1      33.318  27.522  23.984  1.00  0.00     0.165 HD
ATOM     13  O   UNL A   1      31.826  25.809  22.722  1.00  0.00    -0.268 OA
BRANCH  11  14
ATOM     14  C   UNL A   1      30.405  27.644  23.181  1.00  0.00     0.093 A 
ATOM     15  C   UNL A   1      29.089  27.560  23.604  1.00  0.00     0.030 A 
ATOM     16  S   UNL A   1      30.663  29.116  22.333  1.00  0.00    -0.123 S 
ATOM     17  C   UNL A   1      28.243  28.591  23.061  1.00  0.00    -0.025 A 
ATOM     18  C   UNL A   1      29.013  29.499  22.364  1.00  0.00     0.074 A 
ATOM     19  C   UNL A   1      26.755  28.609  23.191  1.00  0.00     0.046 C 
ATOM     20  Br  UNL A   1      28.333  31.005  21.469  1.00  0.00    -0.039 Br
ENDBRANCH  11  14
ENDBRANCH   6  10
ENDBRANCH   4   6
ENDBRANCH   3   4
ENDBRANCH   2   3
ENDBRANCH   1   2
BRANCH   1  21
ATOM     21  O   UNL A   1      34.437  30.540  27.813  1.00  0.00    -0.458 OA
BRANCH  21  22
ATOM     22  C   UNL A   1      35.430  31.433  27.879  1.00  0.00     0.338 C 
ATOM     23  O   UNL A   1      35.366  32.621  27.545  1.00  0.00    -0.246 OA
BRANCH  22  24
ATOM     24  C   UNL A   1      36.715  30.887  28.240  1.00  0.00     0.060 A 
ATOM     25  C   UNL A   1      36.898  29.506  28.077  1.00  0.00     0.016 A 
ATOM     26  C   UNL A   1      37.638  31.692  28.910  1.00  0.00     0.016 A 
ATOM     27  C   UNL A   1      38.041  28.924  28.569  1.00  0.00     0.010 A 
ATOM     28  C   UNL A   1      38.775  31.106  29.416  1.00  0.00     0.010 A 
ATOM     29  C   UNL A   1      38.975  29.734  29.222  1.00  0.00    -0.014 A 
BRANCH  29  30
ATOM     30  C   UNL A   1      40.306  29.185  29.402  1.00  0.00     0.031 A 
ATOM     31  C   UNL A   1      40.625  28.878  30.827  1.00  0.00     0.074 A 
ATOM     32  C   UNL A   1      41.059  28.747  28.382  1.00  0.00     0.049 A 
ATOM     33  N   UNL A   1      41.622  29.292  31.540  1.00  0.00    -0.248 NA
ATOM     34  C   UNL A   1      39.624  28.107  31.590  1.00  0.00     0.031 C 
ATOM     35  C   UNL A   1      40.666  28.638  26.976  1.00  0.00     0.029 A 
ATOM     36  N   UNL A   1      42.263  28.115  28.434  1.00  0.00    -0.354 N 
ATOM     37  C   UNL A   1      41.479  28.657  32.774  1.00  0.00     0.074 A 
ATOM     38  C   UNL A   1      40.152  28.110  32.810  1.00  0.00     0.031 C 
ATOM     39  C   UNL A   1      41.482  27.747  26.372  1.00  0.00     0.029 A 
ATOM     40  C   UNL A   1      42.503  27.326  27.319  1.00  0.00     0.049 A 
ATOM     41  H   UNL A   1      42.895  28.208  29.183  1.00  0.00     0.167 HD
ATOM     42  C   UNL A   1      42.542  28.403  33.582  1.00  0.00     0.034 A 
ATOM     43  C   UNL A   1      43.402  26.318  27.232  1.00  0.00     0.034 A 
ATOM     44  C   UNL A   1      43.679  29.216  33.247  1.00  0.00     0.049 A 
ATOM     45  C   UNL A   1      44.362  26.464  28.353  1.00  0.00     0.074 A 
ATOM     46  C   UNL A   1      43.917  30.571  33.141  1.00  0.00     0.029 A 
ATOM     47  N   UNL A   1      44.730  28.598  32.616  1.00  0.00    -0.354 N 
ATOM     48  N   UNL A   1      45.225  27.435  28.461  1.00  0.00    -0.248 NA
ATOM     49  C   UNL A   1      44.124  25.704  29.571  1.00  0.00     0.031 C 
ATOM     50  C   UNL A   1      44.839  30.700  32.062  1.00  0.00     0.029 A 
ATOM     51  C   UNL A   1      45.123  29.416  31.593  1.00  0.00     0.049 A 
ATOM     52  H   UNL A   1      45.128  27.729  32.856  1.00  0.00     0.167 HD
ATOM     53  C   UNL A   1      45.312  27.681  29.825  1.00  0.00     0.074 A 
ATOM     54  C   UNL A   1      44.726  26.502  30.457  1.00  0.00     0.031 C 
ATOM     55  C   UNL A   1      45.576  28.933  30.304  1.00  0.00     0.034 A 
BRANCH  42  56
ATOM     56  C   UNL A   1      42.678  27.161  34.437  1.00  0.00     0.023 A 
ATOM     57  C   UNL A   1      42.415  27.297  35.819  1.00  0.00     0.012 A 
ATOM     58  C   UNL A   1      43.309  25.963  34.024  1.00  0.00     0.148 A 
ATOM     59  C   UNL A   1      42.817  26.327  36.743  1.00  0.00     0.002 A 
ATOM     60  C   UNL A   1      43.621  24.962  34.936  1.00  0.00     0.091 A 
ATOM     61  F   UNL A   1      43.748  25.825  32.770  1.00  0.00    -0.205 F 
ATOM     62  C   UNL A   1      43.413  25.153  36.301  1.00  0.00     0.022 A 
BRANCH  60  63
ATOM     63  S   UNL A   1      44.323  23.402  34.385  1.00  0.00     0.127 S 
ATOM     64  O   UNL A   1      45.610  23.832  33.849  1.00  0.00    -0.237 OA
ATOM     65  O   UNL A   1      44.394  22.641  35.633  1.00  0.00    -0.237 OA
ATOM     66  O   UNL A   1      43.361  22.874  33.425  1.00  0.00    -0.744 OA
ENDBRANCH  60  63
ENDBRANCH  42  56
BRANCH  43  67
ATOM     67  C   UNL A   1      43.359  25.109  26.382  1.00  0.00     0.023 A 
ATOM     68  C   UNL A   1      44.268  24.985  25.315  1.00  0.00     0.012 A 
ATOM     69  C   UNL A   1      42.584  23.981  26.735  1.00  0.00     0.148 A 
ATOM     70  C   UNL A   1      44.409  23.774  24.629  1.00  0.00     0.002 A 
ATOM     71  C   UNL A   1      42.711  22.786  26.034  1.00  0.00     0.091 A 
ATOM     72  F   UNL A   1      41.791  24.047  27.814  1.00  0.00    -0.205 F 
ATOM     73  C   UNL A   1      43.632  22.675  24.987  1.00  0.00     0.022 A 
BRANCH  71  74
ATOM     74  S   UNL A   1      41.721  21.339  26.435  1.00  0.00     0.127 S 
ATOM     75  O   UNL A   1      42.240  20.341  25.498  1.00  0.00    -0.237 OA
ATOM     76  O   UNL A   1      42.073  21.106  27.833  1.00  0.00    -0.237 OA
ATOM     77  O   UNL A   1      40.338  21.725  26.182  1.00  0.00    -0.744 OA
ENDBRANCH  71  74
ENDBRANCH  43  67
BRANCH  55  78
ATOM     78  C   UNL A   1      46.062  29.987  29.341  1.00  0.00     0.023 A 
ATOM     79  C   UNL A   1      47.434  30.172  29.075  1.00  0.00     0.012 A 
ATOM     80  C   UNL A   1      45.121  30.670  28.549  1.00  0.00     0.148 A 
ATOM     81  C   UNL A   1      47.860  31.038  28.065  1.00  0.00     0.002 A 
ATOM     82  C   UNL A   1      45.548  31.493  27.512  1.00  0.00     0.091 A 
ATOM     83  F   UNL A   1      43.817  30.482  28.803  1.00  0.00    -0.205 F 
ATOM     84  C   UNL A   1      46.917  31.687  27.274  1.00  0.00     0.022 A 
BRANCH  82  85
ATOM     85  S   UNL A   1      44.378  32.239  26.373  1.00  0.00     0.127 S 
ATOM     86  O   UNL A   1      43.820  33.326  27.172  1.00  0.00    -0.237 OA
ATOM     87  O   UNL A   1      45.237  32.672  25.268  1.00  0.00    -0.237 OA
ATOM     88  O   UNL A   1      43.448  31.175  26.013  1.00  0.00    -0.744 OA
ENDBRANCH  82  85
ENDBRANCH  55  78
ENDBRANCH  29  30
ENDBRANCH  22  24
ENDBRANCH  21  22
ENDBRANCH   1  21
TORSDOF 17
ENDMDL
MODEL 2
REMARK VINA RESULT:     -11.2      4.057      5.826
REMARK SMILES CC[C@@](C)(NC(=O)c1cc(C)c(Br)s1)C(=O)OCCOC(=O)c1ccc(-c2c3nc(c(-c4cccc(S(=O)(=O)[O-])c4F)c4ccc([nH]4)c(-c4cccc(S(=O)(=O)[O-])c4F)c4nc(c(-c5cccc(S(=O)(=O)[O-])c5F)c5ccc2[nH]5)C=C4)C=C3)cc1
REMARK SMILES IDX 19 1 18 2 17 3 15 4 16 5 3 6 4 7 2 8 1 9 5 10 6 11 7 13 8 14
REMARK SMILES IDX 9 15 14 16 10 17 12 18 11 19 13 20 20 21 21 22 22 23 23 24
REMARK SMILES IDX 24 25 85 26 25 27 84 28 26 29 27 30 28 31 78 32 29 33 83 34
REMARK SMILES IDX 77 35 79 36 30 37 82 38 76 39 75 40 31 42 63 43 43 44 62 45
REMARK SMILES IDX 44 46 47 47 61 48 80 49 45 50 46 51 60 53 81 54 48 55 32 56
REMARK SMILES IDX 33 57 41 58 34 59 36 60 42 61 35 62 37 63 38 64 39 65 40 66
REMARK SMILES IDX 64 67 65 68 73 69 66 70 68 71 74 72 67 73 69 74 70 75 71 76
REMARK SMILES IDX 72 77 49 78 50 79 58 80 51 81 53 82 59 83 52 84 54 85 55 86
REMARK SMILES IDX 56 87 57 88
REMARK H PARENT 5 12 79 41 47 52
REMARK Flexibility Score: inf
ROOT
ATOM      1  C   UNL A   1      34.073  33.476  28.290  1.00  0.00     0.275 C 
ENDROOT
BRANCH   1   2
ATOM      2  C   UNL A   1      33.890  34.948  28.670  1.00  0.00     0.274 C 
BRANCH   2   3
ATOM      3  O   UNL A   1      34.112  35.176  30.078  1.00  0.00    -0.460 OA
BRANCH   3   4
ATOM      4  C   UNL A   1      33.285  36.058  30.691  1.00  0.00     0.331 C 
ATOM      5  O   UNL A   1      32.933  37.111  30.163  1.00  0.00    -0.249 OA
BRANCH   4   6
ATOM      6  C   UNL A   1      32.845  35.631  32.144  1.00  0.00     0.135 C 
ATOM      7  C   UNL A   1      33.509  36.724  33.023  1.00  0.00     0.047 C 
BRANCH   6   8
ATOM      8  C   UNL A   1      31.290  35.749  32.359  1.00  0.00     0.037 C 
ATOM      9  C   UNL A   1      30.813  36.522  33.589  1.00  0.00     0.007 C 
ENDBRANCH   6   8
BRANCH   6  10
ATOM     10  N   UNL A   1      33.325  34.336  32.768  1.00  0.00    -0.336 N 
ATOM     11  C   UNL A   1      34.375  33.517  32.402  1.00  0.00     0.262 C 
ATOM     12  H   UNL A   1      32.812  34.033  33.553  1.00  0.00     0.165 HD
ATOM     13  O   UNL A   1      34.054  32.419  31.940  1.00  0.00    -0.268 OA
BRANCH  11  14
ATOM     14  C   UNL A   1      35.734  33.850  32.793  1.00  0.00     0.093 A 
ATOM     15  C   UNL A   1      36.848  34.135  32.022  1.00  0.00     0.030 A 
ATOM     16  S   UNL A   1      36.090  34.082  34.458  1.00  0.00    -0.123 S 
ATOM     17  C   UNL A   1      38.046  34.339  32.795  1.00  0.00    -0.025 A 
ATOM     18  C   UNL A   1      37.732  34.343  34.138  1.00  0.00     0.074 A 
ATOM     19  C   UNL A   1      39.414  34.454  32.205  1.00  0.00     0.046 C 
ATOM     20  Br  UNL A   1      38.985  34.559  35.522  1.00  0.00    -0.039 Br
ENDBRANCH  11  14
ENDBRANCH   6  10
ENDBRANCH   4   6
ENDBRANCH   3   4
ENDBRANCH   2   3
ENDBRANCH   1   2
BRANCH   1  21
ATOM     21  O   UNL A   1      35.280  32.864  28.762  1.00  0.00    -0.458 OA
BRANCH  21  22
ATOM     22  C   UNL A   1      35.515  31.675  28.196  1.00  0.00     0.338 C 
ATOM     23  O   UNL A   1      34.704  30.998  27.555  1.00  0.00    -0.246 OA
BRANCH  22  24
ATOM     24  C   UNL A   1      36.799  31.097  28.509  1.00  0.00     0.060 A 
ATOM     25  C   UNL A   1      36.962  29.724  28.275  1.00  0.00     0.016 A 
ATOM     26  C   UNL A   1      37.743  31.857  29.202  1.00  0.00     0.016 A 
ATOM     27  C   UNL A   1      38.106  29.105  28.719  1.00  0.00     0.010 A 
ATOM     28  C   UNL A   1      38.880  31.234  29.660  1.00  0.00     0.010 A 
ATOM     29  C   UNL A   1      39.060  29.870  29.396  1.00  0.00    -0.014 A 
BRANCH  29  30
ATOM     30  C   UNL A   1      40.386  29.298  29.526  1.00  0.00     0.031 A 
ATOM     31  C   UNL A   1      40.749  28.977  30.937  1.00  0.00     0.074 A 
ATOM     32  C   UNL A   1      41.096  28.852  28.478  1.00  0.00     0.049 A 
ATOM     33  N   UNL A   1      41.778  29.369  31.617  1.00  0.00    -0.248 NA
ATOM     34  C   UNL A   1      39.762  28.219  31.730  1.00  0.00     0.031 C 
ATOM     35  C   UNL A   1      40.652  28.758  27.086  1.00  0.00     0.029 A 
ATOM     36  N   UNL A   1      42.289  28.199  28.485  1.00  0.00    -0.354 N 
ATOM     37  C   UNL A   1      41.666  28.730  32.853  1.00  0.00     0.074 A 
ATOM     38  C   UNL A   1      40.332  28.205  32.932  1.00  0.00     0.031 C 
ATOM     39  C   UNL A   1      41.431  27.857  26.450  1.00  0.00     0.029 A 
ATOM     40  C   UNL A   1      42.477  27.413  27.358  1.00  0.00     0.049 A 
ATOM     41  H   UNL A   1      42.949  28.277  29.212  1.00  0.00     0.167 HD
ATOM     42  C   UNL A   1      42.752  28.452  33.621  1.00  0.00     0.034 A 
ATOM     43  C   UNL A   1      43.354  26.390  27.235  1.00  0.00     0.034 A 
ATOM     44  C   UNL A   1      43.891  29.247  33.251  1.00  0.00     0.049 A 
ATOM     45  C   UNL A   1      44.355  26.512  28.322  1.00  0.00     0.074 A 
ATOM     46  C   UNL A   1      44.149  30.598  33.144  1.00  0.00     0.029 A 
ATOM     47  N   UNL A   1      44.909  28.615  32.581  1.00  0.00    -0.354 N 
ATOM     48  N   UNL A   1      45.238  27.467  28.405  1.00  0.00    -0.248 NA
ATOM     49  C   UNL A   1      44.146  25.750  29.544  1.00  0.00     0.031 C 
ATOM     50  C   UNL A   1      45.035  30.718  32.034  1.00  0.00     0.029 A 
ATOM     51  C   UNL A   1      45.280  29.432  31.549  1.00  0.00     0.049 A 
ATOM     52  H   UNL A   1      45.299  27.738  32.803  1.00  0.00     0.167 HD
ATOM     53  C   UNL A   1      45.376  27.704  29.766  1.00  0.00     0.074 A 
ATOM     54  C   UNL A   1      44.792  26.532  30.412  1.00  0.00     0.031 C 
ATOM     55  C   UNL A   1      45.679  28.949  30.243  1.00  0.00     0.034 A 
BRANCH  42  56
ATOM     56  C   UNL A   1      42.896  27.203  34.465  1.00  0.00     0.023 A 
ATOM     57  C   UNL A   1      42.735  27.345  35.862  1.00  0.00     0.012 A 
ATOM     58  C   UNL A   1      43.447  25.982  34.009  1.00  0.00     0.148 A 
ATOM     59  C   UNL A   1      43.160  26.356  36.755  1.00  0.00     0.002 A 
ATOM     60  C   UNL A   1      43.780  24.966  34.897  1.00  0.00     0.091 A 
ATOM     61  F   UNL A   1      43.792  25.830  32.727  1.00  0.00    -0.205 F 
ATOM     62  C   UNL A   1      43.675  25.161  36.273  1.00  0.00     0.022 A 
BRANCH  60  63
ATOM     63  S   UNL A   1      44.378  23.380  34.298  1.00  0.00     0.127 S 
ATOM     64  O   UNL A   1      45.709  23.731  33.813  1.00  0.00    -0.237 OA
ATOM     65  O   UNL A   1      44.356  22.566  35.514  1.00  0.00    -0.237 OA
ATOM     66  O   UNL A   1      43.407  22.966  33.293  1.00  0.00    -0.744 OA
ENDBRANCH  60  63
ENDBRANCH  42  56
BRANCH  43  67
ATOM     67  C   UNL A   1      43.261  25.187  26.380  1.00  0.00     0.023 A 
ATOM     68  C   UNL A   1      44.150  25.038  25.300  1.00  0.00     0.012 A 
ATOM     69  C   UNL A   1      42.455  24.083  26.739  1.00  0.00     0.148 A 
ATOM     70  C   UNL A   1      44.243  23.826  24.607  1.00  0.00     0.002 A 
ATOM     71  C   UNL A   1      42.533  22.888  26.031  1.00  0.00     0.091 A 
ATOM     72  F   UNL A   1      41.679  24.170  27.829  1.00  0.00    -0.205 F 
ATOM     73  C   UNL A   1      43.436  22.752  24.971  1.00  0.00     0.022 A 
BRANCH  71  74
ATOM     74  S   UNL A   1      41.501  21.471  26.440  1.00  0.00     0.127 S 
ATOM     75  O   UNL A   1      41.775  21.294  27.868  1.00  0.00    -0.237 OA
ATOM     76  O   UNL A   1      40.164  21.969  26.131  1.00  0.00    -0.237 OA
ATOM     77  O   UNL A   1      41.985  20.379  25.604  1.00  0.00    -0.744 OA
ENDBRANCH  71  74
ENDBRANCH  43  67
BRANCH  55  78
ATOM     78  C   UNL A   1      46.150  30.000  29.269  1.00  0.00     0.023 A 
ATOM     79  C   UNL A   1      47.515  30.165  28.960  1.00  0.00     0.012 A 
ATOM     80  C   UNL A   1      45.194  30.700  28.509  1.00  0.00     0.148 A 
ATOM     81  C   UNL A   1      47.922  31.030  27.940  1.00  0.00     0.002 A 
ATOM     82  C   UNL A   1      45.600  31.521  27.463  1.00  0.00     0.091 A 
ATOM     83  F   UNL A   1      43.896  30.530  28.804  1.00  0.00    -0.205 F 
ATOM     84  C   UNL A   1      46.964  31.697  27.183  1.00  0.00     0.022 A 
BRANCH  82  85
ATOM     85  S   UNL A   1      44.406  32.289  26.365  1.00  0.00     0.127 S 
ATOM     86  O   UNL A   1      43.895  33.385  27.183  1.00  0.00    -0.237 OA
ATOM     87  O   UNL A   1      45.234  32.709  25.232  1.00  0.00    -0.237 OA
ATOM     88  O   UNL A   1      43.446  31.243  26.036  1.00  0.00    -0.744 OA
ENDBRANCH  82  85
ENDBRANCH  55  78
ENDBRANCH  29  30
ENDBRANCH  22  24
ENDBRANCH  21  22
ENDBRANCH   1  21
TORSDOF 17
ENDMDL
MODEL 3
REMARK VINA RESULT:     -11.2      1.854      2.671
REMARK SMILES CC[C@@](C)(NC(=O)c1cc(C)c(Br)s1)C(=O)OCCOC(=O)c1ccc(-c2c3nc(c(-c4cccc(S(=O)(=O)[O-])c4F)c4ccc([nH]4)c(-c4cccc(S(=O)(=O)[O-])c4F)c4nc(c(-c5cccc(S(=O)(=O)[O-])c5F)c5ccc2[nH]5)C=C4)C=C3)cc1
REMARK SMILES IDX 19 1 18 2 17 3 15 4 16 5 3 6 4 7 2 8 1 9 5 10 6 11 7 13 8 14
REMARK SMILES IDX 9 15 14 16 10 17 12 18 11 19 13 20 20 21 21 22 22 23 23 24
REMARK SMILES IDX 24 25 85 26 25 27 84 28 26 29 27 30 28 31 78 32 29 33 83 34
REMARK SMILES IDX 77 35 79 36 30 37 82 38 76 39 75 40 31 42 63 43 43 44 62 45
REMARK SMILES IDX 44 46 47 47 61 48 80 49 45 50 46 51 60 53 81 54 48 55 32 56
REMARK SMILES IDX 33 57 41 58 34 59 36 60 42 61 35 62 37 63 38 64 39 65 40 66
REMARK SMILES IDX 64 67 65 68 73 69 66 70 68 71 74 72 67 73 69 74 70 75 71 76
REMARK SMILES IDX 72 77 49 78 50 79 58 80 51 81 53 82 59 83 52 84 54 85 55 86
REMARK SMILES IDX 56 87 57 88
REMARK H PARENT 5 12 79 41 47 52
REMARK Flexibility Score: inf
ROOT
ATOM      1  C   UNL A   1      33.235  30.542  27.651  1.00  0.00     0.275 C 
ENDROOT
BRANCH   1   2
ATOM      2  C   UNL A   1      32.065  30.224  26.716  1.00  0.00     0.274 C 
BRANCH   2   3
ATOM      3  O   UNL A   1      32.491  30.079  25.344  1.00  0.00    -0.460 OA
BRANCH   3   4
ATOM      4  C   UNL A   1      31.866  29.127  24.608  1.00  0.00     0.331 C 
ATOM      5  O   UNL A   1      30.767  29.310  24.087  1.00  0.00    -0.249 OA
BRANCH   4   6
ATOM      6  C   UNL A   1      32.655  27.766  24.507  1.00  0.00     0.135 C 
ATOM      7  C   UNL A   1      34.115  28.246  24.298  1.00  0.00     0.047 C 
BRANCH   6   8
ATOM      8  C   UNL A   1      32.625  26.955  25.856  1.00  0.00     0.037 C 
ATOM      9  C   UNL A   1      31.561  25.864  25.991  1.00  0.00     0.007 C 
ENDBRANCH   6   8
BRANCH   6  10
ATOM     10  N   UNL A   1      32.431  26.804  23.357  1.00  0.00    -0.336 N 
ATOM     11  C   UNL A   1      33.314  25.929  22.756  1.00  0.00     0.262 C 
ATOM     12  H   UNL A   1      31.521  26.802  22.983  1.00  0.00     0.165 HD
ATOM     13  O   UNL A   1      33.641  26.216  21.601  1.00  0.00    -0.268 OA
BRANCH  11  14
ATOM     14  C   UNL A   1      33.604  24.644  23.369  1.00  0.00     0.093 A 
ATOM     15  C   UNL A   1      34.631  24.262  24.215  1.00  0.00     0.030 A 
ATOM     16  S   UNL A   1      32.478  23.359  23.184  1.00  0.00    -0.123 S 
ATOM     17  C   UNL A   1      34.613  22.860  24.545  1.00  0.00    -0.025 A 
ATOM     18  C   UNL A   1      33.466  22.283  24.041  1.00  0.00     0.074 A 
ATOM     19  C   UNL A   1      35.716  22.155  25.265  1.00  0.00     0.046 C 
ATOM     20  Br  UNL A   1      33.027  20.465  24.213  1.00  0.00    -0.039 Br
ENDBRANCH  11  14
ENDBRANCH   6  10
ENDBRANCH   4   6
ENDBRANCH   3   4
ENDBRANCH   2   3
ENDBRANCH   1   2
BRANCH   1  21
ATOM     21  O   UNL A   1      34.524  30.597  27.027  1.00  0.00    -0.458 OA
BRANCH  21  22
ATOM     22  C   UNL A   1      35.355  31.454  27.627  1.00  0.00     0.338 C 
ATOM     23  O   UNL A   1      35.186  32.673  27.747  1.00  0.00    -0.246 OA
BRANCH  22  24
ATOM     24  C   UNL A   1      36.622  30.893  28.029  1.00  0.00     0.060 A 
ATOM     25  C   UNL A   1      36.803  29.514  27.844  1.00  0.00     0.016 A 
ATOM     26  C   UNL A   1      37.520  31.678  28.753  1.00  0.00     0.016 A 
ATOM     27  C   UNL A   1      37.922  28.915  28.370  1.00  0.00     0.010 A 
ATOM     28  C   UNL A   1      38.632  31.074  29.293  1.00  0.00     0.010 A 
ATOM     29  C   UNL A   1      38.832  29.704  29.079  1.00  0.00    -0.014 A 
BRANCH  29  30
ATOM     30  C   UNL A   1      40.152  29.144  29.301  1.00  0.00     0.031 A 
ATOM     31  C   UNL A   1      40.422  28.836  30.736  1.00  0.00     0.074 A 
ATOM     32  C   UNL A   1      40.933  28.697  28.306  1.00  0.00     0.049 A 
ATOM     33  N   UNL A   1      41.400  29.241  31.480  1.00  0.00    -0.248 NA
ATOM     34  C   UNL A   1      39.391  28.075  31.467  1.00  0.00     0.031 C 
ATOM     35  C   UNL A   1      40.584  28.589  26.889  1.00  0.00     0.029 A 
ATOM     36  N   UNL A   1      42.128  28.054  28.398  1.00  0.00    -0.354 N 
ATOM     37  C   UNL A   1      41.212  28.609  32.710  1.00  0.00     0.074 A 
ATOM     38  C   UNL A   1      39.880  28.074  32.704  1.00  0.00     0.031 C 
ATOM     39  C   UNL A   1      41.410  27.690  26.312  1.00  0.00     0.029 A 
ATOM     40  C   UNL A   1      42.397  27.261  27.291  1.00  0.00     0.049 A 
ATOM     41  H   UNL A   1      42.737  28.141  29.166  1.00  0.00     0.167 HD
ATOM     42  C   UNL A   1      42.246  28.346  33.551  1.00  0.00     0.034 A 
ATOM     43  C   UNL A   1      43.288  26.244  27.234  1.00  0.00     0.034 A 
ATOM     44  C   UNL A   1      43.402  29.148  33.251  1.00  0.00     0.049 A 
ATOM     45  C   UNL A   1      44.213  26.382  28.385  1.00  0.00     0.074 A 
ATOM     46  C   UNL A   1      43.655  30.500  33.152  1.00  0.00     0.029 A 
ATOM     47  N   UNL A   1      44.466  28.519  32.655  1.00  0.00    -0.354 N 
ATOM     48  N   UNL A   1      45.082  27.345  28.519  1.00  0.00    -0.248 NA
ATOM     49  C   UNL A   1      43.929  25.627  29.596  1.00  0.00     0.031 C 
ATOM     50  C   UNL A   1      44.612  30.619  32.102  1.00  0.00     0.029 A 
ATOM     51  C   UNL A   1      44.899  29.332  31.644  1.00  0.00     0.049 A 
ATOM     52  H   UNL A   1      44.847  27.647  32.909  1.00  0.00     0.167 HD
ATOM     53  C   UNL A   1      45.127  27.592  29.885  1.00  0.00     0.074 A 
ATOM     54  C   UNL A   1      44.510  26.421  30.499  1.00  0.00     0.031 C 
ATOM     55  C   UNL A   1      45.388  28.843  30.371  1.00  0.00     0.034 A 
BRANCH  42  56
ATOM     56  C   UNL A   1      42.343  27.104  34.412  1.00  0.00     0.023 A 
ATOM     57  C   UNL A   1      41.855  27.196  35.735  1.00  0.00     0.012 A 
ATOM     58  C   UNL A   1      43.125  25.966  34.099  1.00  0.00     0.148 A 
ATOM     59  C   UNL A   1      42.181  26.244  36.706  1.00  0.00     0.002 A 
ATOM     60  C   UNL A   1      43.367  24.977  35.045  1.00  0.00     0.091 A 
ATOM     61  F   UNL A   1      43.767  25.884  32.930  1.00  0.00    -0.205 F 
ATOM     62  C   UNL A   1      42.931  25.128  36.360  1.00  0.00     0.022 A 
BRANCH  60  63
ATOM     63  S   UNL A   1      44.269  23.486  34.606  1.00  0.00     0.127 S 
ATOM     64  O   UNL A   1      43.393  22.897  33.598  1.00  0.00    -0.237 OA
ATOM     65  O   UNL A   1      45.527  24.029  34.093  1.00  0.00    -0.237 OA
ATOM     66  O   UNL A   1      44.411  22.749  35.856  1.00  0.00    -0.744 OA
ENDBRANCH  60  63
ENDBRANCH  42  56
BRANCH  43  67
ATOM     67  C   UNL A   1      43.260  25.035  26.384  1.00  0.00     0.023 A 
ATOM     68  C   UNL A   1      44.187  24.911  25.332  1.00  0.00     0.012 A 
ATOM     69  C   UNL A   1      42.482  23.906  26.726  1.00  0.00     0.148 A 
ATOM     70  C   UNL A   1      44.341  23.700  24.649  1.00  0.00     0.002 A 
ATOM     71  C   UNL A   1      42.621  22.711  26.027  1.00  0.00     0.091 A 
ATOM     72  F   UNL A   1      41.671  23.972  27.791  1.00  0.00    -0.205 F 
ATOM     73  C   UNL A   1      43.560  22.600  24.995  1.00  0.00     0.022 A 
BRANCH  71  74
ATOM     74  S   UNL A   1      41.627  21.262  26.414  1.00  0.00     0.127 S 
ATOM     75  O   UNL A   1      42.133  20.277  25.455  1.00  0.00    -0.237 OA
ATOM     76  O   UNL A   1      41.992  21.004  27.804  1.00  0.00    -0.237 OA
ATOM     77  O   UNL A   1      40.244  21.660  26.180  1.00  0.00    -0.744 OA
ENDBRANCH  71  74
ENDBRANCH  43  67
BRANCH  55  78
ATOM     78  C   UNL A   1      45.915  29.891  29.423  1.00  0.00     0.023 A 
ATOM     79  C   UNL A   1      47.295  30.052  29.189  1.00  0.00     0.012 A 
ATOM     80  C   UNL A   1      45.004  30.593  28.611  1.00  0.00     0.148 A 
ATOM     81  C   UNL A   1      47.759  30.914  28.192  1.00  0.00     0.002 A 
ATOM     82  C   UNL A   1      45.469  31.410  27.587  1.00  0.00     0.091 A 
ATOM     83  F   UNL A   1      43.691  30.427  28.834  1.00  0.00    -0.205 F 
ATOM     84  C   UNL A   1      46.846  31.582  27.381  1.00  0.00     0.022 A 
BRANCH  82  85
ATOM     85  S   UNL A   1      44.339  32.180  26.424  1.00  0.00     0.127 S 
ATOM     86  O   UNL A   1      43.411  31.091  26.128  1.00  0.00    -0.237 OA
ATOM     87  O   UNL A   1      43.764  33.275  27.208  1.00  0.00    -0.237 OA
ATOM     88  O   UNL A   1      45.167  32.626  25.309  1.00  0.00    -0.744 OA
ENDBRANCH  82  85
ENDBRANCH  55  78
ENDBRANCH  29  30
ENDBRANCH  22  24
ENDBRANCH  21  22
ENDBRANCH   1  21
TORSDOF 17
ENDMDL
