MODEL 1
REMARK VINA RESULT:     -11.9      0.000      0.000
REMARK SMILES O=C(OCCOC(=O)C1CN(S(=O)(=O)c2ccc(F)cc2)C1)c1ccc(-c2c3nc(c(-c4cccc(S(=O)(=O)[O-])c4F)c4ccc([nH]4)c(-c4cccc(S(=O)(=O)[O-])c4F)c4nc(c(-c5cccc(S(=O)(=O)[O-])c5F)c5ccc2[nH]5)C=C4)C=C3)cc1
REMARK SMILES IDX 4 1 3 2 2 3 1 4 23 5 24 6 85 7 25 8 84 9 26 10 27 11 28 12
REMARK SMILES IDX 78 13 29 14 83 15 77 16 79 17 30 18 82 19 76 20 75 21 31 23
REMARK SMILES IDX 63 24 43 25 62 26 44 27 47 28 61 29 80 30 45 31 46 32 60 34
REMARK SMILES IDX 81 35 48 36 32 37 33 38 41 39 34 40 36 41 42 42 35 43 37 44
REMARK SMILES IDX 38 45 39 46 40 47 64 48 65 49 73 50 66 51 68 52 74 53 67 54
REMARK SMILES IDX 69 55 70 56 71 57 72 58 49 59 50 60 58 61 51 62 53 63 59 64
REMARK SMILES IDX 52 65 54 66 55 67 56 68 57 69 5 70 6 71 7 72 8 73 9 74 10 75
REMARK SMILES IDX 22 76 11 77 12 78 13 79 14 80 15 81 16 82 21 83 17 84 20 85
REMARK SMILES IDX 18 86 19 87
REMARK H PARENT 79 22 47 33
REMARK Flexibility Score: inf
ROOT
ATOM      1  C   UNL A   1      31.542  29.698  25.381  1.00  0.00     0.275 C 
ENDROOT
BRANCH   1   2
ATOM      2  O   UNL A   1      32.824  30.106  25.871  1.00  0.00    -0.458 OA
BRANCH   2   3
ATOM      3  C   UNL A   1      33.110  30.980  26.864  1.00  0.00     0.338 C 
ATOM      4  O   UNL A   1      32.295  31.865  27.118  1.00  0.00    -0.246 OA
BRANCH   3   5
ATOM      5  C   UNL A   1      34.434  31.027  27.560  1.00  0.00     0.060 A 
ATOM      6  C   UNL A   1      35.265  32.145  27.717  1.00  0.00     0.016 A 
ATOM      7  C   UNL A   1      34.881  29.802  28.078  1.00  0.00     0.016 A 
ATOM      8  C   UNL A   1      36.461  32.074  28.455  1.00  0.00     0.010 A 
ATOM      9  C   UNL A   1      36.082  29.721  28.784  1.00  0.00     0.010 A 
ATOM     10  C   UNL A   1      36.870  30.864  29.005  1.00  0.00    -0.014 A 
BRANCH  10  11
ATOM     11  C   UNL A   1      38.160  30.702  29.724  1.00  0.00     0.031 A 
ATOM     12  C   UNL A   1      39.122  29.693  29.169  1.00  0.00     0.074 A 
ATOM     13  C   UNL A   1      38.368  31.264  30.933  1.00  0.00     0.049 A 
ATOM     14  N   UNL A   1      40.140  29.116  29.743  1.00  0.00    -0.248 NA
ATOM     15  C   UNL A   1      38.860  29.237  27.792  1.00  0.00     0.031 C 
ATOM     16  C   UNL A   1      37.486  32.227  31.595  1.00  0.00     0.029 A 
ATOM     17  N   UNL A   1      39.333  31.005  31.880  1.00  0.00    -0.354 N 
ATOM     18  C   UNL A   1      40.623  28.207  28.811  1.00  0.00     0.074 A 
ATOM     19  C   UNL A   1      39.752  28.269  27.659  1.00  0.00     0.031 C 
ATOM     20  C   UNL A   1      37.873  32.378  32.876  1.00  0.00     0.029 A 
ATOM     21  C   UNL A   1      39.047  31.547  33.117  1.00  0.00     0.049 A 
ATOM     22  H   UNL A   1      40.147  30.484  31.692  1.00  0.00     0.167 HD
ATOM     23  C   UNL A   1      41.722  27.422  28.887  1.00  0.00     0.034 A 
ATOM     24  C   UNL A   1      39.657  31.370  34.307  1.00  0.00     0.034 A 
ATOM     25  C   UNL A   1      42.605  27.403  30.015  1.00  0.00     0.049 A 
ATOM     26  C   UNL A   1      40.889  30.499  34.365  1.00  0.00     0.074 A 
ATOM     27  C   UNL A   1      43.799  26.723  30.165  1.00  0.00     0.029 A 
ATOM     28  N   UNL A   1      42.390  28.105  31.191  1.00  0.00    -0.354 N 
ATOM     29  N   UNL A   1      41.439  29.785  33.413  1.00  0.00    -0.248 NA
ATOM     30  C   UNL A   1      41.624  30.467  35.639  1.00  0.00     0.031 C 
ATOM     31  C   UNL A   1      44.310  27.021  31.432  1.00  0.00     0.029 A 
ATOM     32  C   UNL A   1      43.439  27.895  32.064  1.00  0.00     0.049 A 
ATOM     33  H   UNL A   1      41.605  28.670  31.375  1.00  0.00     0.167 HD
ATOM     34  C   UNL A   1      42.619  29.277  33.951  1.00  0.00     0.074 A 
ATOM     35  C   UNL A   1      42.701  29.766  35.312  1.00  0.00     0.031 C 
ATOM     36  C   UNL A   1      43.547  28.475  33.376  1.00  0.00     0.034 A 
BRANCH  23  37
ATOM     37  C   UNL A   1      42.067  26.602  27.675  1.00  0.00     0.023 A 
ATOM     38  C   UNL A   1      42.707  27.231  26.586  1.00  0.00     0.012 A 
ATOM     39  C   UNL A   1      41.789  25.224  27.611  1.00  0.00     0.148 A 
ATOM     40  C   UNL A   1      43.023  26.516  25.434  1.00  0.00     0.002 A 
ATOM     41  C   UNL A   1      42.150  24.506  26.476  1.00  0.00     0.091 A 
ATOM     42  F   UNL A   1      41.174  24.647  28.653  1.00  0.00    -0.205 F 
ATOM     43  C   UNL A   1      42.750  25.153  25.382  1.00  0.00     0.022 A 
BRANCH  41  44
ATOM     44  S   UNL A   1      41.910  22.733  26.322  1.00  0.00     0.127 S 
ATOM     45  O   UNL A   1      42.615  22.235  27.504  1.00  0.00    -0.237 OA
ATOM     46  O   UNL A   1      40.454  22.620  26.388  1.00  0.00    -0.237 OA
ATOM     47  O   UNL A   1      42.504  22.352  25.049  1.00  0.00    -0.744 OA
ENDBRANCH  41  44
ENDBRANCH  23  37
BRANCH  24  48
ATOM     48  C   UNL A   1      39.210  32.104  35.529  1.00  0.00     0.023 A 
ATOM     49  C   UNL A   1      39.680  33.420  35.725  1.00  0.00     0.012 A 
ATOM     50  C   UNL A   1      38.397  31.511  36.515  1.00  0.00     0.148 A 
ATOM     51  C   UNL A   1      39.396  34.114  36.900  1.00  0.00     0.002 A 
ATOM     52  C   UNL A   1      38.091  32.223  37.673  1.00  0.00     0.091 A 
ATOM     53  F   UNL A   1      37.958  30.262  36.309  1.00  0.00    -0.205 F 
ATOM     54  C   UNL A   1      38.603  33.517  37.874  1.00  0.00     0.022 A 
BRANCH  52  55
ATOM     55  S   UNL A   1      37.048  31.577  38.989  1.00  0.00     0.127 S 
ATOM     56  O   UNL A   1      37.918  31.718  40.155  1.00  0.00    -0.237 OA
ATOM     57  O   UNL A   1      35.919  32.508  38.954  1.00  0.00    -0.237 OA
ATOM     58  O   UNL A   1      36.735  30.207  38.613  1.00  0.00    -0.744 OA
ENDBRANCH  52  55
ENDBRANCH  24  48
BRANCH  36  59
ATOM     59  C   UNL A   1      44.783  28.139  34.166  1.00  0.00     0.023 A 
ATOM     60  C   UNL A   1      45.896  29.001  34.137  1.00  0.00     0.012 A 
ATOM     61  C   UNL A   1      44.787  27.029  35.036  1.00  0.00     0.148 A 
ATOM     62  C   UNL A   1      47.002  28.752  34.948  1.00  0.00     0.002 A 
ATOM     63  C   UNL A   1      45.869  26.819  35.880  1.00  0.00     0.091 A 
ATOM     64  F   UNL A   1      43.727  26.206  35.030  1.00  0.00    -0.205 F 
ATOM     65  C   UNL A   1      46.981  27.674  35.831  1.00  0.00     0.022 A 
BRANCH  63  66
ATOM     66  S   UNL A   1      45.867  25.527  37.128  1.00  0.00     0.127 S 
ATOM     67  O   UNL A   1      47.163  25.730  37.772  1.00  0.00    -0.237 OA
ATOM     68  O   UNL A   1      44.713  25.887  37.953  1.00  0.00    -0.237 OA
ATOM     69  O   UNL A   1      45.717  24.273  36.401  1.00  0.00    -0.744 OA
ENDBRANCH  63  66
ENDBRANCH  36  59
ENDBRANCH  10  11
ENDBRANCH   3   5
ENDBRANCH   2   3
ENDBRANCH   1   2
BRANCH   1  70
ATOM     70  C   UNL A   1      31.404  28.197  25.120  1.00  0.00     0.274 C 
BRANCH  70  71
ATOM     71  O   UNL A   1      30.841  27.444  26.210  1.00  0.00    -0.462 OA
BRANCH  71  72
ATOM     72  C   UNL A   1      30.597  26.118  25.947  1.00  0.00     0.311 C 
ATOM     73  O   UNL A   1      29.765  25.464  26.579  1.00  0.00    -0.252 OA
BRANCH  72  74
ATOM     74  C   UNL A   1      31.483  25.516  24.849  1.00  0.00     0.129 C 
ATOM     75  C   UNL A   1      32.570  24.533  25.313  1.00  0.00     0.119 C 
ATOM     76  C   UNL A   1      30.992  24.378  23.955  1.00  0.00     0.119 C 
ATOM     77  N   UNL A   1      32.262  23.596  24.173  1.00  0.00    -0.196 NA
BRANCH  77  78
ATOM     78  S   UNL A   1      33.419  23.366  22.903  1.00  0.00     0.243 S 
ATOM     79  O   UNL A   1      32.798  22.458  21.961  1.00  0.00    -0.207 OA
ATOM     80  O   UNL A   1      33.847  24.694  22.516  1.00  0.00    -0.207 OA
BRANCH  78  81
ATOM     81  C   UNL A   1      34.816  22.562  23.652  1.00  0.00     0.082 A 
ATOM     82  C   UNL A   1      36.123  22.961  23.380  1.00  0.00     0.025 A 
ATOM     83  C   UNL A   1      34.584  21.470  24.498  1.00  0.00     0.025 A 
ATOM     84  C   UNL A   1      37.200  22.282  23.961  1.00  0.00     0.040 A 
ATOM     85  C   UNL A   1      35.661  20.797  25.082  1.00  0.00     0.040 A 
ATOM     86  C   UNL A   1      36.960  21.210  24.810  1.00  0.00     0.123 A 
ATOM     87  F   UNL A   1      37.989  20.564  25.374  1.00  0.00    -0.207 F 
ENDBRANCH  78  81
ENDBRANCH  77  78
ENDBRANCH  72  74
ENDBRANCH  71  72
ENDBRANCH  70  71
ENDBRANCH   1  70
TORSDOF 16
ENDMDL
MODEL 2
REMARK VINA RESULT:     -11.8      1.146      1.712
REMARK SMILES O=C(OCCOC(=O)C1CN(S(=O)(=O)c2ccc(F)cc2)C1)c1ccc(-c2c3nc(c(-c4cccc(S(=O)(=O)[O-])c4F)c4ccc([nH]4)c(-c4cccc(S(=O)(=O)[O-])c4F)c4nc(c(-c5cccc(S(=O)(=O)[O-])c5F)c5ccc2[nH]5)C=C4)C=C3)cc1
REMARK SMILES IDX 4 1 3 2 2 3 1 4 23 5 24 6 85 7 25 8 84 9 26 10 27 11 28 12
REMARK SMILES IDX 78 13 29 14 83 15 77 16 79 17 30 18 82 19 76 20 75 21 31 23
REMARK SMILES IDX 63 24 43 25 62 26 44 27 47 28 61 29 80 30 45 31 46 32 60 34
REMARK SMILES IDX 81 35 48 36 32 37 33 38 41 39 34 40 36 41 42 42 35 43 37 44
REMARK SMILES IDX 38 45 39 46 40 47 64 48 65 49 73 50 66 51 68 52 74 53 67 54
REMARK SMILES IDX 69 55 70 56 71 57 72 58 49 59 50 60 58 61 51 62 53 63 59 64
REMARK SMILES IDX 52 65 54 66 55 67 56 68 57 69 5 70 6 71 7 72 8 73 9 74 10 75
REMARK SMILES IDX 22 76 11 77 12 78 13 79 14 80 15 81 16 82 21 83 17 84 20 85
REMARK SMILES IDX 18 86 19 87
REMARK H PARENT 79 22 47 33
REMARK Flexibility Score: inf
ROOT
ATOM      1  C   UNL A   1      32.709  29.327  24.668  1.00  0.00     0.275 C 
ENDROOT
BRANCH   1   2
ATOM      2  O   UNL A   1      32.471  29.602  26.054  1.00  0.00    -0.458 OA
BRANCH   2   3
ATOM      3  C   UNL A   1      32.843  30.684  26.776  1.00  0.00     0.338 C 
ATOM      4  O   UNL A   1      32.125  31.682  26.747  1.00  0.00    -0.246 OA
BRANCH   3   5
ATOM      5  C   UNL A   1      34.160  30.789  27.478  1.00  0.00     0.060 A 
ATOM      6  C   UNL A   1      34.947  31.941  27.626  1.00  0.00     0.016 A 
ATOM      7  C   UNL A   1      34.652  29.589  28.010  1.00  0.00     0.016 A 
ATOM      8  C   UNL A   1      36.141  31.924  28.370  1.00  0.00     0.010 A 
ATOM      9  C   UNL A   1      35.851  29.561  28.722  1.00  0.00     0.010 A 
ATOM     10  C   UNL A   1      36.594  30.737  28.936  1.00  0.00    -0.014 A 
BRANCH  10  11
ATOM     11  C   UNL A   1      37.885  30.632  29.662  1.00  0.00     0.031 A 
ATOM     12  C   UNL A   1      38.892  29.663  29.115  1.00  0.00     0.074 A 
ATOM     13  C   UNL A   1      38.063  31.207  30.870  1.00  0.00     0.049 A 
ATOM     14  N   UNL A   1      39.931  29.132  29.698  1.00  0.00    -0.248 NA
ATOM     15  C   UNL A   1      38.658  29.192  27.739  1.00  0.00     0.031 C 
ATOM     16  C   UNL A   1      37.137  32.133  31.524  1.00  0.00     0.029 A 
ATOM     17  N   UNL A   1      39.032  30.992  31.823  1.00  0.00    -0.354 N 
ATOM     18  C   UNL A   1      40.458  28.241  28.771  1.00  0.00     0.074 A 
ATOM     19  C   UNL A   1      39.591  28.262  27.614  1.00  0.00     0.031 C 
ATOM     20  C   UNL A   1      37.509  32.305  32.806  1.00  0.00     0.029 A 
ATOM     21  C   UNL A   1      38.717  31.526  33.056  1.00  0.00     0.049 A 
ATOM     22  H   UNL A   1      39.869  30.506  31.641  1.00  0.00     0.167 HD
ATOM     23  C   UNL A   1      41.588  27.504  28.856  1.00  0.00     0.034 A 
ATOM     24  C   UNL A   1      39.327  31.378  34.251  1.00  0.00     0.034 A 
ATOM     25  C   UNL A   1      42.466  27.527  29.989  1.00  0.00     0.049 A 
ATOM     26  C   UNL A   1      40.595  30.561  34.318  1.00  0.00     0.074 A 
ATOM     27  C   UNL A   1      43.687  26.899  30.147  1.00  0.00     0.029 A 
ATOM     28  N   UNL A   1      42.214  28.223  31.161  1.00  0.00    -0.354 N 
ATOM     29  N   UNL A   1      41.180  29.868  33.372  1.00  0.00    -0.248 NA
ATOM     30  C   UNL A   1      41.322  30.565  35.596  1.00  0.00     0.031 C 
ATOM     31  C   UNL A   1      44.177  27.222  31.417  1.00  0.00     0.029 A 
ATOM     32  C   UNL A   1      43.266  28.060  32.040  1.00  0.00     0.049 A 
ATOM     33  H   UNL A   1      41.405  28.754  31.339  1.00  0.00     0.167 HD
ATOM     34  C   UNL A   1      42.377  29.412  33.919  1.00  0.00     0.074 A 
ATOM     35  C   UNL A   1      42.431  29.909  35.278  1.00  0.00     0.031 C 
ATOM     36  C   UNL A   1      43.342  28.649  33.352  1.00  0.00     0.034 A 
BRANCH  23  37
ATOM     37  C   UNL A   1      41.976  26.695  27.648  1.00  0.00     0.023 A 
ATOM     38  C   UNL A   1      42.572  27.352  26.551  1.00  0.00     0.012 A 
ATOM     39  C   UNL A   1      41.779  25.303  27.597  1.00  0.00     0.148 A 
ATOM     40  C   UNL A   1      42.923  26.647  25.403  1.00  0.00     0.002 A 
ATOM     41  C   UNL A   1      42.175  24.598  26.467  1.00  0.00     0.091 A 
ATOM     42  F   UNL A   1      41.204  24.700  28.647  1.00  0.00    -0.205 F 
ATOM     43  C   UNL A   1      42.731  25.270  25.364  1.00  0.00     0.022 A 
BRANCH  41  44
ATOM     44  S   UNL A   1      42.040  22.813  26.328  1.00  0.00     0.127 S 
ATOM     45  O   UNL A   1      42.652  22.570  25.021  1.00  0.00    -0.237 OA
ATOM     46  O   UNL A   1      42.837  22.362  27.468  1.00  0.00    -0.237 OA
ATOM     47  O   UNL A   1      40.619  22.506  26.406  1.00  0.00    -0.744 OA
ENDBRANCH  41  44
ENDBRANCH  23  37
BRANCH  24  48
ATOM     48  C   UNL A   1      38.842  32.097  35.467  1.00  0.00     0.023 A 
ATOM     49  C   UNL A   1      39.157  33.465  35.603  1.00  0.00     0.012 A 
ATOM     50  C   UNL A   1      38.147  31.446  36.505  1.00  0.00     0.148 A 
ATOM     51  C   UNL A   1      38.836  34.162  36.767  1.00  0.00     0.002 A 
ATOM     52  C   UNL A   1      37.802  32.157  37.653  1.00  0.00     0.091 A 
ATOM     53  F   UNL A   1      37.855  30.147  36.357  1.00  0.00    -0.205 F 
ATOM     54  C   UNL A   1      38.160  33.510  37.791  1.00  0.00     0.022 A 
BRANCH  52  55
ATOM     55  S   UNL A   1      36.897  31.438  39.032  1.00  0.00     0.127 S 
ATOM     56  O   UNL A   1      36.658  30.078  38.555  1.00  0.00    -0.237 OA
ATOM     57  O   UNL A   1      37.877  31.544  40.115  1.00  0.00    -0.237 OA
ATOM     58  O   UNL A   1      35.703  32.255  39.194  1.00  0.00    -0.744 OA
ENDBRANCH  52  55
ENDBRANCH  24  48
BRANCH  36  59
ATOM     59  C   UNL A   1      44.587  28.369  34.149  1.00  0.00     0.023 A 
ATOM     60  C   UNL A   1      45.675  29.259  34.095  1.00  0.00     0.012 A 
ATOM     61  C   UNL A   1      44.621  27.283  35.049  1.00  0.00     0.148 A 
ATOM     62  C   UNL A   1      46.788  29.063  34.912  1.00  0.00     0.002 A 
ATOM     63  C   UNL A   1      45.708  27.126  35.898  1.00  0.00     0.091 A 
ATOM     64  F   UNL A   1      43.584  26.432  35.066  1.00  0.00    -0.205 F 
ATOM     65  C   UNL A   1      46.797  28.009  35.825  1.00  0.00     0.022 A 
BRANCH  63  66
ATOM     66  S   UNL A   1      45.742  25.868  37.180  1.00  0.00     0.127 S 
ATOM     67  O   UNL A   1      44.549  26.201  37.957  1.00  0.00    -0.237 OA
ATOM     68  O   UNL A   1      45.641  24.629  36.409  1.00  0.00    -0.237 OA
ATOM     69  O   UNL A   1      47.011  26.042  37.874  1.00  0.00    -0.744 OA
ENDBRANCH  63  66
ENDBRANCH  36  59
ENDBRANCH  10  11
ENDBRANCH   3   5
ENDBRANCH   2   3
ENDBRANCH   1   2
BRANCH   1  70
ATOM     70  C   UNL A   1      31.453  29.314  23.795  1.00  0.00     0.274 C 
BRANCH  70  71
ATOM     71  O   UNL A   1      30.624  28.147  23.946  1.00  0.00    -0.462 OA
BRANCH  71  72
ATOM     72  C   UNL A   1      30.955  27.079  23.149  1.00  0.00     0.311 C 
ATOM     73  O   UNL A   1      30.872  27.124  21.921  1.00  0.00    -0.252 OA
BRANCH  72  74
ATOM     74  C   UNL A   1      31.379  25.822  23.920  1.00  0.00     0.129 C 
ATOM     75  C   UNL A   1      31.217  25.874  25.448  1.00  0.00     0.119 C 
ATOM     76  C   UNL A   1      30.490  24.580  23.980  1.00  0.00     0.119 C 
ATOM     77  N   UNL A   1      30.659  24.475  25.475  1.00  0.00    -0.196 NA
BRANCH  77  78
ATOM     78  S   UNL A   1      31.570  23.190  26.199  1.00  0.00     0.243 S 
ATOM     79  O   UNL A   1      31.679  23.524  27.604  1.00  0.00    -0.207 OA
ATOM     80  O   UNL A   1      30.944  21.964  25.751  1.00  0.00    -0.207 OA
BRANCH  78  81
ATOM     81  C   UNL A   1      33.185  23.256  25.459  1.00  0.00     0.082 A 
ATOM     82  C   UNL A   1      33.476  22.581  24.275  1.00  0.00     0.025 A 
ATOM     83  C   UNL A   1      34.193  23.971  26.118  1.00  0.00     0.025 A 
ATOM     84  C   UNL A   1      34.768  22.627  23.740  1.00  0.00     0.040 A 
ATOM     85  C   UNL A   1      35.481  24.020  25.578  1.00  0.00     0.040 A 
ATOM     86  C   UNL A   1      35.758  23.350  24.393  1.00  0.00     0.123 A 
ATOM     87  F   UNL A   1      36.992  23.402  23.877  1.00  0.00    -0.207 F 
ENDBRANCH  78  81
ENDBRANCH  77  78
ENDBRANCH  72  74
ENDBRANCH  71  72
ENDBRANCH  70  71
ENDBRANCH   1  70
TORSDOF 16
ENDMDL
MODEL 3
REMARK VINA RESULT:     -11.8      5.410     10.262
REMARK SMILES O=C(OCCOC(=O)C1CN(S(=O)(=O)c2ccc(F)cc2)C1)c1ccc(-c2c3nc(c(-c4cccc(S(=O)(=O)[O-])c4F)c4ccc([nH]4)c(-c4cccc(S(=O)(=O)[O-])c4F)c4nc(c(-c5cccc(S(=O)(=O)[O-])c5F)c5ccc2[nH]5)C=C4)C=C3)cc1
REMARK SMILES IDX 4 1 3 2 2 3 1 4 23 5 24 6 85 7 25 8 84 9 26 10 27 11 28 12
REMARK SMILES IDX 78 13 29 14 83 15 77 16 79 17 30 18 82 19 76 20 75 21 31 23
REMARK SMILES IDX 63 24 43 25 62 26 44 27 47 28 61 29 80 30 45 31 46 32 60 34
REMARK SMILES IDX 81 35 48 36 32 37 33 38 41 39 34 40 36 41 42 42 35 43 37 44
REMARK SMILES IDX 38 45 39 46 40 47 64 48 65 49 73 50 66 51 68 52 74 53 67 54
REMARK SMILES IDX 69 55 70 56 71 57 72 58 49 59 50 60 58 61 51 62 53 63 59 64
REMARK SMILES IDX 52 65 54 66 55 67 56 68 57 69 5 70 6 71 7 72 8 73 9 74 10 75
REMARK SMILES IDX 22 76 11 77 12 78 13 79 14 80 15 81 16 82 21 83 17 84 20 85
REMARK SMILES IDX 18 86 19 87
REMARK H PARENT 79 22 47 33
REMARK Flexibility Score: inf
ROOT
ATOM      1  C   UNL A   1      36.073  21.291  24.683  1.00  0.00     0.275 C 
ENDROOT
BRANCH   1   2
ATOM      2  O   UNL A   1      36.945  21.504  25.798  1.00  0.00    -0.458 OA
BRANCH   2   3
ATOM      3  C   UNL A   1      38.289  21.352  25.860  1.00  0.00     0.338 C 
ATOM      4  O   UNL A   1      38.772  20.270  25.532  1.00  0.00    -0.246 OA
BRANCH   3   5
ATOM      5  C   UNL A   1      39.203  22.374  26.459  1.00  0.00     0.060 A 
ATOM      6  C   UNL A   1      40.250  22.142  27.364  1.00  0.00     0.016 A 
ATOM      7  C   UNL A   1      38.948  23.700  26.082  1.00  0.00     0.016 A 
ATOM      8  C   UNL A   1      41.084  23.185  27.804  1.00  0.00     0.010 A 
ATOM      9  C   UNL A   1      39.755  24.742  26.540  1.00  0.00     0.010 A 
ATOM     10  C   UNL A   1      40.852  24.490  27.384  1.00  0.00    -0.014 A 
BRANCH  10  11
ATOM     11  C   UNL A   1      41.643  25.648  27.874  1.00  0.00     0.031 A 
ATOM     12  C   UNL A   1      40.885  26.739  28.572  1.00  0.00     0.074 A 
ATOM     13  C   UNL A   1      42.934  25.820  27.519  1.00  0.00     0.049 A 
ATOM     14  N   UNL A   1      41.236  27.972  28.804  1.00  0.00    -0.248 NA
ATOM     15  C   UNL A   1      39.523  26.398  29.020  1.00  0.00     0.031 C 
ATOM     16  C   UNL A   1      43.764  24.849  26.803  1.00  0.00     0.029 A 
ATOM     17  N   UNL A   1      43.738  26.933  27.603  1.00  0.00    -0.354 N 
ATOM     18  C   UNL A   1      40.129  28.566  29.397  1.00  0.00     0.074 A 
ATOM     19  C   UNL A   1      39.079  27.572  29.435  1.00  0.00     0.031 C 
ATOM     20  C   UNL A   1      44.902  25.445  26.402  1.00  0.00     0.029 A 
ATOM     21  C   UNL A   1      44.896  26.831  26.858  1.00  0.00     0.049 A 
ATOM     22  H   UNL A   1      43.510  27.724  28.143  1.00  0.00     0.167 HD
ATOM     23  C   UNL A   1      40.010  29.812  29.908  1.00  0.00     0.034 A 
ATOM     24  C   UNL A   1      45.828  27.761  26.565  1.00  0.00     0.034 A 
ATOM     25  C   UNL A   1      41.073  30.773  29.908  1.00  0.00     0.049 A 
ATOM     26  C   UNL A   1      45.680  29.143  27.156  1.00  0.00     0.074 A 
ATOM     27  C   UNL A   1      41.100  32.030  30.481  1.00  0.00     0.029 A 
ATOM     28  N   UNL A   1      42.305  30.578  29.304  1.00  0.00    -0.354 N 
ATOM     29  N   UNL A   1      44.699  29.631  27.876  1.00  0.00    -0.248 NA
ATOM     30  C   UNL A   1      46.799  30.077  26.956  1.00  0.00     0.031 C 
ATOM     31  C   UNL A   1      42.355  32.593  30.229  1.00  0.00     0.029 A 
ATOM     32  C   UNL A   1      43.110  31.681  29.509  1.00  0.00     0.049 A 
ATOM     33  H   UNL A   1      42.567  29.772  28.802  1.00  0.00     0.167 HD
ATOM     34  C   UNL A   1      45.112  30.900  28.272  1.00  0.00     0.074 A 
ATOM     35  C   UNL A   1      46.432  31.103  27.711  1.00  0.00     0.031 C 
ATOM     36  C   UNL A   1      44.460  31.817  29.027  1.00  0.00     0.034 A 
BRANCH  23  37
ATOM     37  C   UNL A   1      38.714  30.156  30.590  1.00  0.00     0.023 A 
ATOM     38  C   UNL A   1      38.485  29.678  31.898  1.00  0.00     0.012 A 
ATOM     39  C   UNL A   1      37.741  30.959  29.967  1.00  0.00     0.148 A 
ATOM     40  C   UNL A   1      37.290  29.951  32.557  1.00  0.00     0.002 A 
ATOM     41  C   UNL A   1      36.570  31.267  30.650  1.00  0.00     0.091 A 
ATOM     42  F   UNL A   1      37.976  31.397  28.722  1.00  0.00    -0.205 F 
ATOM     43  C   UNL A   1      36.336  30.750  31.937  1.00  0.00     0.022 A 
BRANCH  41  44
ATOM     44  S   UNL A   1      35.299  32.343  29.978  1.00  0.00     0.127 S 
ATOM     45  O   UNL A   1      34.391  32.476  31.118  1.00  0.00    -0.237 OA
ATOM     46  O   UNL A   1      36.062  33.549  29.663  1.00  0.00    -0.237 OA
ATOM     47  O   UNL A   1      34.741  31.644  28.829  1.00  0.00    -0.744 OA
ENDBRANCH  41  44
ENDBRANCH  23  37
BRANCH  24  48
ATOM     48  C   UNL A   1      47.047  27.420  25.773  1.00  0.00     0.023 A 
ATOM     49  C   UNL A   1      48.174  26.928  26.463  1.00  0.00     0.012 A 
ATOM     50  C   UNL A   1      47.133  27.635  24.383  1.00  0.00     0.148 A 
ATOM     51  C   UNL A   1      49.380  26.703  25.799  1.00  0.00     0.002 A 
ATOM     52  C   UNL A   1      48.333  27.379  23.721  1.00  0.00     0.091 A 
ATOM     53  F   UNL A   1      46.052  28.102  23.744  1.00  0.00    -0.205 F 
ATOM     54  C   UNL A   1      49.459  26.928  24.430  1.00  0.00     0.022 A 
BRANCH  52  55
ATOM     55  S   UNL A   1      48.554  27.596  21.948  1.00  0.00     0.127 S 
ATOM     56  O   UNL A   1      49.686  28.520  21.900  1.00  0.00    -0.237 OA
ATOM     57  O   UNL A   1      48.862  26.230  21.520  1.00  0.00    -0.237 OA
ATOM     58  O   UNL A   1      47.295  28.133  21.453  1.00  0.00    -0.744 OA
ENDBRANCH  52  55
ENDBRANCH  24  48
BRANCH  36  59
ATOM     59  C   UNL A   1      45.179  33.091  29.377  1.00  0.00     0.023 A 
ATOM     60  C   UNL A   1      46.015  33.141  30.509  1.00  0.00     0.012 A 
ATOM     61  C   UNL A   1      45.121  34.199  28.507  1.00  0.00     0.148 A 
ATOM     62  C   UNL A   1      46.767  34.283  30.780  1.00  0.00     0.002 A 
ATOM     63  C   UNL A   1      45.914  35.312  28.754  1.00  0.00     0.091 A 
ATOM     64  F   UNL A   1      44.298  34.141  27.449  1.00  0.00    -0.205 F 
ATOM     65  C   UNL A   1      46.731  35.359  29.894  1.00  0.00     0.022 A 
BRANCH  63  66
ATOM     66  S   UNL A   1      46.015  36.685  27.600  1.00  0.00     0.127 S 
ATOM     67  O   UNL A   1      46.471  36.020  26.382  1.00  0.00    -0.237 OA
ATOM     68  O   UNL A   1      44.631  37.160  27.554  1.00  0.00    -0.237 OA
ATOM     69  O   UNL A   1      46.954  37.631  28.189  1.00  0.00    -0.744 OA
ENDBRANCH  63  66
ENDBRANCH  36  59
ENDBRANCH  10  11
ENDBRANCH   3   5
ENDBRANCH   2   3
ENDBRANCH   1   2
BRANCH   1  70
ATOM     70  C   UNL A   1      34.772  20.560  25.019  1.00  0.00     0.274 C 
BRANCH  70  71
ATOM     71  O   UNL A   1      33.816  21.338  25.762  1.00  0.00    -0.462 OA
BRANCH  71  72
ATOM     72  C   UNL A   1      32.645  21.623  25.103  1.00  0.00     0.311 C 
ATOM     73  O   UNL A   1      31.751  20.787  24.958  1.00  0.00    -0.252 OA
BRANCH  72  74
ATOM     74  C   UNL A   1      32.574  23.041  24.522  1.00  0.00     0.129 C 
ATOM     75  C   UNL A   1      33.467  23.322  23.302  1.00  0.00     0.119 C 
ATOM     76  C   UNL A   1      31.413  23.488  23.635  1.00  0.00     0.119 C 
ATOM     77  N   UNL A   1      32.356  24.073  22.615  1.00  0.00    -0.196 NA
BRANCH  77  78
ATOM     78  S   UNL A   1      32.486  25.785  22.372  1.00  0.00     0.243 S 
ATOM     79  O   UNL A   1      33.774  26.000  21.746  1.00  0.00    -0.207 OA
ATOM     80  O   UNL A   1      31.249  26.186  21.735  1.00  0.00    -0.207 OA
BRANCH  78  81
ATOM     81  C   UNL A   1      32.500  26.511  23.995  1.00  0.00     0.082 A 
ATOM     82  C   UNL A   1      31.332  26.970  24.602  1.00  0.00     0.025 A 
ATOM     83  C   UNL A   1      33.729  26.661  24.648  1.00  0.00     0.025 A 
ATOM     84  C   UNL A   1      31.387  27.567  25.866  1.00  0.00     0.040 A 
ATOM     85  C   UNL A   1      33.780  27.253  25.914  1.00  0.00     0.040 A 
ATOM     86  C   UNL A   1      32.608  27.699  26.513  1.00  0.00     0.123 A 
ATOM     87  F   UNL A   1      32.661  28.263  27.726  1.00  0.00    -0.207 F 
ENDBRANCH  78  81
ENDBRANCH  77  78
ENDBRANCH  72  74
ENDBRANCH  71  72
ENDBRANCH  70  71
ENDBRANCH   1  70
TORSDOF 16
ENDMDL
