MODEL 1
REMARK VINA RESULT:     -12.0      0.000      0.000
REMARK SMILES COc1cccc([C@@H]2CN(C(=O)c3cnn(C)c3)C[C@H]2C(=O)OCCOC(=O)c2ccc(-c3c4nc(c(-c5cccc(S(=O)(=O)[O-])c5F)c5ccc([nH]5)c(-c5cccc(S(=O)(=O)[O-])c5F)c5nc(c(-c6cccc(S(=O)(=O)[O-])c6F)c6ccc3[nH]6)C=C5)C=C4)cc2)c1OC
REMARK SMILES IDX 25 1 24 2 23 3 21 4 22 5 20 6 8 7 9 8 10 9 19 10 7 11 3 12
REMARK SMILES IDX 4 13 92 14 5 15 6 16 2 17 1 18 93 19 94 20 11 21 12 22 13 23
REMARK SMILES IDX 14 24 18 25 15 26 16 27 17 28 26 29 27 30 28 31 29 32 30 33
REMARK SMILES IDX 91 34 31 35 90 36 32 37 33 38 34 39 84 40 35 41 89 42 83 43
REMARK SMILES IDX 85 44 36 45 88 46 82 47 81 48 37 50 69 51 49 52 68 53 50 54
REMARK SMILES IDX 53 55 67 56 86 57 51 58 52 59 66 61 87 62 54 63 38 64 39 65
REMARK SMILES IDX 47 66 40 67 42 68 48 69 41 70 43 71 44 72 45 73 46 74 70 75
REMARK SMILES IDX 71 76 79 77 72 78 74 79 80 80 73 81 75 82 76 83 77 84 78 85
REMARK SMILES IDX 55 86 56 87 64 88 57 89 59 90 65 91 58 92 60 93 61 94 62 95
REMARK SMILES IDX 63 96
REMARK H PARENT 85 49 53 60
REMARK Flexibility Score: inf
ROOT
ATOM      1  C   UNL A   1      31.762  29.953  26.780  1.00  0.00     0.275 C 
ENDROOT
BRANCH   1   2
ATOM      2  C   UNL A   1      31.763  28.571  26.133  1.00  0.00     0.274 C 
BRANCH   2   3
ATOM      3  O   UNL A   1      32.851  27.762  26.622  1.00  0.00    -0.462 OA
BRANCH   3   4
ATOM      4  C   UNL A   1      33.056  26.597  25.956  1.00  0.00     0.311 C 
ATOM      5  O   UNL A   1      34.145  26.220  25.537  1.00  0.00    -0.252 OA
BRANCH   4   6
ATOM      6  C   UNL A   1      31.793  25.820  25.673  1.00  0.00     0.128 C 
ATOM      7  C   UNL A   1      31.373  25.645  24.202  1.00  0.00     0.059 C 
ATOM      8  C   UNL A   1      30.818  24.218  24.142  1.00  0.00     0.129 C 
ATOM      9  N   UNL A   1      31.468  23.498  25.222  1.00  0.00    -0.337 N 
ATOM     10  C   UNL A   1      32.013  24.409  26.207  1.00  0.00     0.135 C 
BRANCH   7  11
ATOM     11  C   UNL A   1      30.379  26.646  23.624  1.00  0.00     0.004 A 
ATOM     12  C   UNL A   1      29.776  28.626  22.329  1.00  0.00     0.161 A 
ATOM     13  C   UNL A   1      28.456  28.525  22.778  1.00  0.00     0.050 A 
ATOM     14  C   UNL A   1      30.748  27.694  22.744  1.00  0.00     0.164 A 
ATOM     15  C   UNL A   1      28.087  27.490  23.629  1.00  0.00     0.004 A 
ATOM     16  C   UNL A   1      29.040  26.564  24.052  1.00  0.00     0.008 A 
BRANCH  12  17
ATOM     17  O   UNL A   1      30.130  29.723  21.585  1.00  0.00    -0.493 OA
ATOM     18  C   UNL A   1      29.105  30.718  21.578  1.00  0.00     0.278 C 
ENDBRANCH  12  17
BRANCH  14  19
ATOM     19  O   UNL A   1      32.079  27.727  22.416  1.00  0.00    -0.493 OA
ATOM     20  C   UNL A   1      32.881  28.779  22.936  1.00  0.00     0.278 C 
ENDBRANCH  14  19
ENDBRANCH   7  11
BRANCH   9  21
ATOM     21  C   UNL A   1      31.356  22.150  25.521  1.00  0.00     0.257 C 
ATOM     22  O   UNL A   1      30.351  21.684  26.052  1.00  0.00    -0.269 OA
BRANCH  21  23
ATOM     23  C   UNL A   1      32.457  21.285  25.146  1.00  0.00     0.077 A 
ATOM     24  C   UNL A   1      33.788  21.671  24.866  1.00  0.00     0.149 A 
ATOM     25  C   UNL A   1      32.454  19.923  24.913  1.00  0.00     0.122 A 
ATOM     26  N   UNL A   1      34.575  20.633  24.565  1.00  0.00    -0.181 NA
ATOM     27  N   UNL A   1      33.743  19.580  24.635  1.00  0.00    -0.275 N 
ATOM     28  C   UNL A   1      34.256  18.248  24.441  1.00  0.00     0.173 C 
ENDBRANCH  21  23
ENDBRANCH   9  21
ENDBRANCH   4   6
ENDBRANCH   3   4
ENDBRANCH   2   3
ENDBRANCH   1   2
BRANCH   1  29
ATOM     29  O   UNL A   1      32.847  30.748  26.272  1.00  0.00    -0.458 OA
BRANCH  29  30
ATOM     30  C   UNL A   1      33.289  31.715  27.106  1.00  0.00     0.338 C 
ATOM     31  O   UNL A   1      32.727  32.765  27.383  1.00  0.00    -0.246 OA
BRANCH  30  32
ATOM     32  C   UNL A   1      34.597  31.336  27.654  1.00  0.00     0.060 A 
ATOM     33  C   UNL A   1      34.855  30.010  28.003  1.00  0.00     0.016 A 
ATOM     34  C   UNL A   1      35.537  32.330  27.918  1.00  0.00     0.016 A 
ATOM     35  C   UNL A   1      36.036  29.681  28.666  1.00  0.00     0.010 A 
ATOM     36  C   UNL A   1      36.743  31.989  28.536  1.00  0.00     0.010 A 
ATOM     37  C   UNL A   1      36.990  30.669  28.949  1.00  0.00    -0.014 A 
BRANCH  37  38
ATOM     38  C   UNL A   1      38.223  30.339  29.712  1.00  0.00     0.031 A 
ATOM     39  C   UNL A   1      39.227  29.369  29.141  1.00  0.00     0.074 A 
ATOM     40  C   UNL A   1      38.439  30.890  30.923  1.00  0.00     0.049 A 
ATOM     41  N   UNL A   1      40.315  28.889  29.686  1.00  0.00    -0.248 NA
ATOM     42  C   UNL A   1      38.983  28.883  27.772  1.00  0.00     0.031 C 
ATOM     43  C   UNL A   1      37.559  31.856  31.583  1.00  0.00     0.029 A 
ATOM     44  N   UNL A   1      39.455  30.696  31.827  1.00  0.00    -0.354 N 
ATOM     45  C   UNL A   1      40.866  28.027  28.746  1.00  0.00     0.074 A 
ATOM     46  C   UNL A   1      39.998  28.050  27.589  1.00  0.00     0.031 C 
ATOM     47  C   UNL A   1      38.062  32.157  32.790  1.00  0.00     0.029 A 
ATOM     48  C   UNL A   1      39.268  31.368  33.014  1.00  0.00     0.049 A 
ATOM     49  H   UNL A   1      40.241  30.132  31.644  1.00  0.00     0.167 HD
ATOM     50  C   UNL A   1      41.998  27.288  28.831  1.00  0.00     0.034 A 
ATOM     51  C   UNL A   1      39.963  31.322  34.168  1.00  0.00     0.034 A 
ATOM     52  C   UNL A   1      42.863  27.258  29.979  1.00  0.00     0.049 A 
ATOM     53  C   UNL A   1      41.177  30.439  34.258  1.00  0.00     0.074 A 
ATOM     54  C   UNL A   1      44.031  26.538  30.157  1.00  0.00     0.029 A 
ATOM     55  N   UNL A   1      42.650  27.970  31.149  1.00  0.00    -0.354 N 
ATOM     56  N   UNL A   1      41.726  29.692  33.330  1.00  0.00    -0.248 NA
ATOM     57  C   UNL A   1      41.879  30.404  35.550  1.00  0.00     0.031 C 
ATOM     58  C   UNL A   1      44.514  26.799  31.443  1.00  0.00     0.029 A 
ATOM     59  C   UNL A   1      43.659  27.701  32.056  1.00  0.00     0.049 A 
ATOM     60  H   UNL A   1      41.891  28.577  31.311  1.00  0.00     0.167 HD
ATOM     61  C   UNL A   1      42.856  29.130  33.914  1.00  0.00     0.074 A 
ATOM     62  C   UNL A   1      42.922  29.635  35.269  1.00  0.00     0.031 C 
ATOM     63  C   UNL A   1      43.748  28.259  33.380  1.00  0.00     0.034 A 
BRANCH  50  64
ATOM     64  C   UNL A   1      42.383  26.458  27.635  1.00  0.00     0.023 A 
ATOM     65  C   UNL A   1      43.190  27.026  26.630  1.00  0.00     0.012 A 
ATOM     66  C   UNL A   1      42.002  25.106  27.536  1.00  0.00     0.148 A 
ATOM     67  C   UNL A   1      43.597  26.266  25.534  1.00  0.00     0.002 A 
ATOM     68  C   UNL A   1      42.442  24.346  26.460  1.00  0.00     0.091 A 
ATOM     69  F   UNL A   1      41.214  24.593  28.492  1.00  0.00    -0.205 F 
ATOM     70  C   UNL A   1      43.232  24.925  25.454  1.00  0.00     0.022 A 
BRANCH  68  71
ATOM     71  S   UNL A   1      42.077  22.594  26.298  1.00  0.00     0.127 S 
ATOM     72  O   UNL A   1      42.712  22.279  25.019  1.00  0.00    -0.237 OA
ATOM     73  O   UNL A   1      42.749  22.029  27.468  1.00  0.00    -0.237 OA
ATOM     74  O   UNL A   1      40.625  22.483  26.320  1.00  0.00    -0.744 OA
ENDBRANCH  68  71
ENDBRANCH  50  64
BRANCH  51  75
ATOM     75  C   UNL A   1      39.536  32.151  35.332  1.00  0.00     0.023 A 
ATOM     76  C   UNL A   1      38.714  31.583  36.323  1.00  0.00     0.012 A 
ATOM     77  C   UNL A   1      39.950  33.490  35.469  1.00  0.00     0.148 A 
ATOM     78  C   UNL A   1      38.291  32.340  37.416  1.00  0.00     0.002 A 
ATOM     79  C   UNL A   1      39.574  34.221  36.590  1.00  0.00     0.091 A 
ATOM     80  F   UNL A   1      40.709  34.026  34.502  1.00  0.00    -0.205 F 
ATOM     81  C   UNL A   1      38.731  33.654  37.556  1.00  0.00     0.022 A 
BRANCH  79  82
ATOM     82  S   UNL A   1      40.209  35.872  36.908  1.00  0.00     0.127 S 
ATOM     83  O   UNL A   1      39.693  36.617  35.762  1.00  0.00    -0.237 OA
ATOM     84  O   UNL A   1      39.583  36.200  38.189  1.00  0.00    -0.237 OA
ATOM     85  O   UNL A   1      41.656  35.723  36.973  1.00  0.00    -0.744 OA
ENDBRANCH  79  82
ENDBRANCH  51  75
BRANCH  63  86
ATOM     86  C   UNL A   1      44.903  27.826  34.243  1.00  0.00     0.023 A 
ATOM     87  C   UNL A   1      46.083  28.595  34.272  1.00  0.00     0.012 A 
ATOM     88  C   UNL A   1      44.788  26.702  35.083  1.00  0.00     0.148 A 
ATOM     89  C   UNL A   1      47.142  28.234  35.104  1.00  0.00     0.002 A 
ATOM     90  C   UNL A   1      45.829  26.375  35.944  1.00  0.00     0.091 A 
ATOM     91  F   UNL A   1      43.664  25.972  35.025  1.00  0.00    -0.205 F 
ATOM     92  C   UNL A   1      47.011  27.133  35.947  1.00  0.00     0.022 A 
BRANCH  90  93
ATOM     93  S   UNL A   1      45.707  25.031  37.130  1.00  0.00     0.127 S 
ATOM     94  O   UNL A   1      44.433  25.323  37.783  1.00  0.00    -0.237 OA
ATOM     95  O   UNL A   1      45.694  23.851  36.264  1.00  0.00    -0.237 OA
ATOM     96  O   UNL A   1      46.886  25.141  37.979  1.00  0.00    -0.744 OA
ENDBRANCH  90  93
ENDBRANCH  63  86
ENDBRANCH  37  38
ENDBRANCH  30  32
ENDBRANCH  29  30
ENDBRANCH   1  29
TORSDOF 19
ENDMDL
MODEL 2
REMARK VINA RESULT:     -11.9      4.733     10.062
REMARK SMILES COc1cccc([C@@H]2CN(C(=O)c3cnn(C)c3)C[C@H]2C(=O)OCCOC(=O)c2ccc(-c3c4nc(c(-c5cccc(S(=O)(=O)[O-])c5F)c5ccc([nH]5)c(-c5cccc(S(=O)(=O)[O-])c5F)c5nc(c(-c6cccc(S(=O)(=O)[O-])c6F)c6ccc3[nH]6)C=C5)C=C4)cc2)c1OC
REMARK SMILES IDX 25 1 24 2 23 3 21 4 22 5 20 6 8 7 9 8 10 9 19 10 7 11 3 12
REMARK SMILES IDX 4 13 92 14 5 15 6 16 2 17 1 18 93 19 94 20 11 21 12 22 13 23
REMARK SMILES IDX 14 24 18 25 15 26 16 27 17 28 26 29 27 30 28 31 29 32 30 33
REMARK SMILES IDX 91 34 31 35 90 36 32 37 33 38 34 39 84 40 35 41 89 42 83 43
REMARK SMILES IDX 85 44 36 45 88 46 82 47 81 48 37 50 69 51 49 52 68 53 50 54
REMARK SMILES IDX 53 55 67 56 86 57 51 58 52 59 66 61 87 62 54 63 38 64 39 65
REMARK SMILES IDX 47 66 40 67 42 68 48 69 41 70 43 71 44 72 45 73 46 74 70 75
REMARK SMILES IDX 71 76 79 77 72 78 74 79 80 80 73 81 75 82 76 83 77 84 78 85
REMARK SMILES IDX 55 86 56 87 64 88 57 89 59 90 65 91 58 92 60 93 61 94 62 95
REMARK SMILES IDX 63 96
REMARK H PARENT 85 49 53 60
REMARK Flexibility Score: inf
ROOT
ATOM      1  C   UNL A   1      37.262  21.086  24.514  1.00  0.00     0.275 C 
ENDROOT
BRANCH   1   2
ATOM      2  C   UNL A   1      36.529  22.310  23.970  1.00  0.00     0.274 C 
BRANCH   2   3
ATOM      3  O   UNL A   1      35.658  22.885  24.963  1.00  0.00    -0.462 OA
BRANCH   3   4
ATOM      4  C   UNL A   1      35.003  24.011  24.581  1.00  0.00     0.311 C 
ATOM      5  O   UNL A   1      35.168  25.114  25.090  1.00  0.00    -0.252 OA
BRANCH   4   6
ATOM      6  C   UNL A   1      33.955  23.783  23.520  1.00  0.00     0.128 C 
ATOM      7  C   UNL A   1      32.602  23.196  23.962  1.00  0.00     0.059 C 
ATOM      8  C   UNL A   1      31.576  23.935  23.097  1.00  0.00     0.129 C 
ATOM      9  N   UNL A   1      32.195  25.200  22.748  1.00  0.00    -0.337 N 
ATOM     10  C   UNL A   1      33.632  25.146  22.917  1.00  0.00     0.135 C 
BRANCH   7  11
ATOM     11  C   UNL A   1      32.418  21.686  23.865  1.00  0.00     0.004 A 
ATOM     12  C   UNL A   1      32.355  19.429  24.795  1.00  0.00     0.161 A 
ATOM     13  C   UNL A   1      32.237  18.896  23.507  1.00  0.00     0.050 A 
ATOM     14  C   UNL A   1      32.447  20.822  24.988  1.00  0.00     0.164 A 
ATOM     15  C   UNL A   1      32.193  19.742  22.405  1.00  0.00     0.004 A 
ATOM     16  C   UNL A   1      32.288  21.121  22.582  1.00  0.00     0.008 A 
BRANCH  12  17
ATOM     17  O   UNL A   1      32.513  18.562  25.847  1.00  0.00    -0.493 OA
ATOM     18  C   UNL A   1      32.614  17.205  25.412  1.00  0.00     0.278 C 
ENDBRANCH  12  17
BRANCH  14  19
ATOM     19  O   UNL A   1      32.623  21.451  26.194  1.00  0.00    -0.493 OA
ATOM     20  C   UNL A   1      33.813  21.193  26.928  1.00  0.00     0.278 C 
ENDBRANCH  14  19
ENDBRANCH   7  11
BRANCH   9  21
ATOM     21  C   UNL A   1      31.626  26.249  22.044  1.00  0.00     0.257 C 
ATOM     22  O   UNL A   1      31.407  26.179  20.837  1.00  0.00    -0.269 OA
BRANCH  21  23
ATOM     23  C   UNL A   1      31.251  27.434  22.791  1.00  0.00     0.077 A 
ATOM     24  C   UNL A   1      30.098  28.230  22.604  1.00  0.00     0.149 A 
ATOM     25  C   UNL A   1      31.944  28.087  23.791  1.00  0.00     0.122 A 
ATOM     26  N   UNL A   1      30.029  29.249  23.467  1.00  0.00    -0.181 NA
ATOM     27  N   UNL A   1      31.149  29.116  24.198  1.00  0.00    -0.275 N 
ATOM     28  C   UNL A   1      31.393  30.008  25.303  1.00  0.00     0.173 C 
ENDBRANCH  21  23
ENDBRANCH   9  21
ENDBRANCH   4   6
ENDBRANCH   3   4
ENDBRANCH   2   3
ENDBRANCH   1   2
BRANCH   1  29
ATOM     29  O   UNL A   1      37.676  21.309  25.872  1.00  0.00    -0.458 OA
BRANCH  29  30
ATOM     30  C   UNL A   1      39.002  21.165  26.099  1.00  0.00     0.338 C 
ATOM     31  O   UNL A   1      39.678  20.166  25.904  1.00  0.00    -0.246 OA
BRANCH  30  32
ATOM     32  C   UNL A   1      39.549  22.413  26.645  1.00  0.00     0.060 A 
ATOM     33  C   UNL A   1      39.094  23.645  26.174  1.00  0.00     0.016 A 
ATOM     34  C   UNL A   1      40.598  22.351  27.559  1.00  0.00     0.016 A 
ATOM     35  C   UNL A   1      39.723  24.821  26.579  1.00  0.00     0.010 A 
ATOM     36  C   UNL A   1      41.194  23.534  28.003  1.00  0.00     0.010 A 
ATOM     37  C   UNL A   1      40.787  24.778  27.491  1.00  0.00    -0.014 A 
BRANCH  37  38
ATOM     38  C   UNL A   1      41.506  26.021  27.878  1.00  0.00     0.031 A 
ATOM     39  C   UNL A   1      40.776  27.118  28.613  1.00  0.00     0.074 A 
ATOM     40  C   UNL A   1      42.807  26.180  27.560  1.00  0.00     0.049 A 
ATOM     41  N   UNL A   1      41.201  28.305  28.961  1.00  0.00    -0.248 NA
ATOM     42  C   UNL A   1      39.388  26.839  29.022  1.00  0.00     0.031 C 
ATOM     43  C   UNL A   1      43.635  25.192  26.868  1.00  0.00     0.029 A 
ATOM     44  N   UNL A   1      43.652  27.245  27.753  1.00  0.00    -0.354 N 
ATOM     45  C   UNL A   1      40.131  28.923  29.598  1.00  0.00     0.074 A 
ATOM     46  C   UNL A   1      39.034  27.980  29.596  1.00  0.00     0.031 C 
ATOM     47  C   UNL A   1      44.863  25.701  26.680  1.00  0.00     0.029 A 
ATOM     48  C   UNL A   1      44.894  27.069  27.187  1.00  0.00     0.049 A 
ATOM     49  H   UNL A   1      43.395  28.056  28.249  1.00  0.00     0.167 HD
ATOM     50  C   UNL A   1      40.068  30.161  30.143  1.00  0.00     0.034 A 
ATOM     51  C   UNL A   1      45.927  27.924  27.051  1.00  0.00     0.034 A 
ATOM     52  C   UNL A   1      41.153  31.103  30.145  1.00  0.00     0.049 A 
ATOM     53  C   UNL A   1      45.803  29.316  27.606  1.00  0.00     0.074 A 
ATOM     54  C   UNL A   1      41.181  32.383  30.673  1.00  0.00     0.029 A 
ATOM     55  N   UNL A   1      42.399  30.877  29.582  1.00  0.00    -0.354 N 
ATOM     56  N   UNL A   1      44.812  29.854  28.274  1.00  0.00    -0.248 NA
ATOM     57  C   UNL A   1      46.949  30.217  27.403  1.00  0.00     0.031 C 
ATOM     58  C   UNL A   1      42.438  32.936  30.412  1.00  0.00     0.029 A 
ATOM     59  C   UNL A   1      43.201  31.993  29.742  1.00  0.00     0.049 A 
ATOM     60  H   UNL A   1      42.673  30.044  29.133  1.00  0.00     0.167 HD
ATOM     61  C   UNL A   1      45.229  31.140  28.603  1.00  0.00     0.074 A 
ATOM     62  C   UNL A   1      46.568  31.294  28.075  1.00  0.00     0.031 C 
ATOM     63  C   UNL A   1      44.554  32.111  29.267  1.00  0.00     0.034 A 
BRANCH  50  64
ATOM     64  C   UNL A   1      38.780  30.567  30.809  1.00  0.00     0.023 A 
ATOM     65  C   UNL A   1      38.624  30.365  32.194  1.00  0.00     0.012 A 
ATOM     66  C   UNL A   1      37.755  31.201  30.081  1.00  0.00     0.148 A 
ATOM     67  C   UNL A   1      37.458  30.771  32.843  1.00  0.00     0.002 A 
ATOM     68  C   UNL A   1      36.612  31.635  30.741  1.00  0.00     0.091 A 
ATOM     69  F   UNL A   1      37.914  31.360  28.759  1.00  0.00    -0.205 F 
ATOM     70  C   UNL A   1      36.457  31.414  32.119  1.00  0.00     0.022 A 
BRANCH  68  71
ATOM     71  S   UNL A   1      35.294  32.530  29.909  1.00  0.00     0.127 S 
ATOM     72  O   UNL A   1      34.917  31.585  28.857  1.00  0.00    -0.237 OA
ATOM     73  O   UNL A   1      34.304  32.683  30.975  1.00  0.00    -0.237 OA
ATOM     74  O   UNL A   1      35.887  33.777  29.446  1.00  0.00    -0.744 OA
ENDBRANCH  68  71
ENDBRANCH  50  64
BRANCH  51  75
ATOM     75  C   UNL A   1      47.179  27.482  26.372  1.00  0.00     0.023 A 
ATOM     76  C   UNL A   1      47.403  27.841  25.029  1.00  0.00     0.012 A 
ATOM     77  C   UNL A   1      48.153  26.724  27.050  1.00  0.00     0.148 A 
ATOM     78  C   UNL A   1      48.560  27.431  24.366  1.00  0.00     0.002 A 
ATOM     79  C   UNL A   1      49.331  26.369  26.402  1.00  0.00     0.091 A 
ATOM     80  F   UNL A   1      47.913  26.366  28.320  1.00  0.00    -0.205 F 
ATOM     81  C   UNL A   1      49.529  26.707  25.056  1.00  0.00     0.022 A 
BRANCH  79  82
ATOM     82  S   UNL A   1      50.682  25.555  27.262  1.00  0.00     0.127 S 
ATOM     83  O   UNL A   1      51.013  26.533  28.294  1.00  0.00    -0.237 OA
ATOM     84  O   UNL A   1      50.042  24.334  27.753  1.00  0.00    -0.237 OA
ATOM     85  O   UNL A   1      51.703  25.325  26.248  1.00  0.00    -0.744 OA
ENDBRANCH  79  82
ENDBRANCH  51  75
BRANCH  63  86
ATOM     86  C   UNL A   1      45.265  33.417  29.505  1.00  0.00     0.023 A 
ATOM     87  C   UNL A   1      46.050  33.587  30.661  1.00  0.00     0.012 A 
ATOM     88  C   UNL A   1      45.217  34.444  28.542  1.00  0.00     0.148 A 
ATOM     89  C   UNL A   1      46.754  34.773  30.870  1.00  0.00     0.002 A 
ATOM     90  C   UNL A   1      45.958  35.604  28.735  1.00  0.00     0.091 A 
ATOM     91  F   UNL A   1      44.447  34.269  27.458  1.00  0.00    -0.205 F 
ATOM     92  C   UNL A   1      46.718  35.774  29.903  1.00  0.00     0.022 A 
BRANCH  90  93
ATOM     93  S   UNL A   1      46.044  36.904  27.498  1.00  0.00     0.127 S 
ATOM     94  O   UNL A   1      44.655  37.356  27.444  1.00  0.00    -0.237 OA
ATOM     95  O   UNL A   1      46.973  37.856  28.110  1.00  0.00    -0.237 OA
ATOM     96  O   UNL A   1      46.544  36.269  26.286  1.00  0.00    -0.744 OA
ENDBRANCH  90  93
ENDBRANCH  63  86
ENDBRANCH  37  38
ENDBRANCH  30  32
ENDBRANCH  29  30
ENDBRANCH   1  29
TORSDOF 19
ENDMDL
MODEL 3
REMARK VINA RESULT:     -11.9      5.085      9.444
REMARK SMILES COc1cccc([C@@H]2CN(C(=O)c3cnn(C)c3)C[C@H]2C(=O)OCCOC(=O)c2ccc(-c3c4nc(c(-c5cccc(S(=O)(=O)[O-])c5F)c5ccc([nH]5)c(-c5cccc(S(=O)(=O)[O-])c5F)c5nc(c(-c6cccc(S(=O)(=O)[O-])c6F)c6ccc3[nH]6)C=C5)C=C4)cc2)c1OC
REMARK SMILES IDX 25 1 24 2 23 3 21 4 22 5 20 6 8 7 9 8 10 9 19 10 7 11 3 12
REMARK SMILES IDX 4 13 92 14 5 15 6 16 2 17 1 18 93 19 94 20 11 21 12 22 13 23
REMARK SMILES IDX 14 24 18 25 15 26 16 27 17 28 26 29 27 30 28 31 29 32 30 33
REMARK SMILES IDX 91 34 31 35 90 36 32 37 33 38 34 39 84 40 35 41 89 42 83 43
REMARK SMILES IDX 85 44 36 45 88 46 82 47 81 48 37 50 69 51 49 52 68 53 50 54
REMARK SMILES IDX 53 55 67 56 86 57 51 58 52 59 66 61 87 62 54 63 38 64 39 65
REMARK SMILES IDX 47 66 40 67 42 68 48 69 41 70 43 71 44 72 45 73 46 74 70 75
REMARK SMILES IDX 71 76 79 77 72 78 74 79 80 80 73 81 75 82 76 83 77 84 78 85
REMARK SMILES IDX 55 86 56 87 64 88 57 89 59 90 65 91 58 92 60 93 61 94 62 95
REMARK SMILES IDX 63 96
REMARK H PARENT 85 49 53 60
REMARK Flexibility Score: inf
ROOT
ATOM      1  C   UNL A   1      36.453  21.133  25.515  1.00  0.00     0.275 C 
ENDROOT
BRANCH   1   2
ATOM      2  C   UNL A   1      35.538  22.135  26.215  1.00  0.00     0.274 C 
BRANCH   2   3
ATOM      3  O   UNL A   1      34.427  21.475  26.853  1.00  0.00    -0.462 OA
BRANCH   3   4
ATOM      4  C   UNL A   1      33.247  22.146  26.807  1.00  0.00     0.311 C 
ATOM      5  O   UNL A   1      32.838  22.888  27.693  1.00  0.00    -0.252 OA
BRANCH   4   6
ATOM      6  C   UNL A   1      32.406  21.829  25.595  1.00  0.00     0.128 C 
ATOM      7  C   UNL A   1      32.769  22.522  24.269  1.00  0.00     0.059 C 
ATOM      8  C   UNL A   1      32.535  21.442  23.208  1.00  0.00     0.129 C 
ATOM      9  N   UNL A   1      32.694  20.174  23.897  1.00  0.00    -0.337 N 
ATOM     10  C   UNL A   1      32.558  20.335  25.330  1.00  0.00     0.135 C 
BRANCH   7  11
ATOM     11  C   UNL A   1      32.030  23.809  23.916  1.00  0.00     0.004 A 
ATOM     12  C   UNL A   1      31.825  26.237  23.760  1.00  0.00     0.161 A 
ATOM     13  C   UNL A   1      30.482  26.105  23.394  1.00  0.00     0.050 A 
ATOM     14  C   UNL A   1      32.610  25.097  24.024  1.00  0.00     0.164 A 
ATOM     15  C   UNL A   1      29.914  24.842  23.272  1.00  0.00     0.004 A 
ATOM     16  C   UNL A   1      30.678  23.707  23.536  1.00  0.00     0.008 A 
BRANCH  12  17
ATOM     17  O   UNL A   1      32.319  27.497  23.983  1.00  0.00    -0.493 OA
ATOM     18  C   UNL A   1      32.603  28.185  22.763  1.00  0.00     0.278 C 
ENDBRANCH  12  17
BRANCH  14  19
ATOM     19  O   UNL A   1      33.916  25.107  24.444  1.00  0.00    -0.493 OA
ATOM     20  C   UNL A   1      34.207  25.599  25.746  1.00  0.00     0.278 C 
ENDBRANCH  14  19
ENDBRANCH   7  11
BRANCH   9  21
ATOM     21  C   UNL A   1      32.660  18.905  23.342  1.00  0.00     0.257 C 
ATOM     22  O   UNL A   1      32.149  18.690  22.245  1.00  0.00    -0.269 OA
BRANCH  21  23
ATOM     23  C   UNL A   1      33.289  17.830  24.084  1.00  0.00     0.077 A 
ATOM     24  C   UNL A   1      32.644  16.813  24.822  1.00  0.00     0.149 A 
ATOM     25  C   UNL A   1      34.632  17.590  24.296  1.00  0.00     0.122 A 
ATOM     26  N   UNL A   1      33.504  15.956  25.381  1.00  0.00    -0.181 NA
ATOM     27  N   UNL A   1      34.705  16.436  25.015  1.00  0.00    -0.275 N 
ATOM     28  C   UNL A   1      35.902  15.720  25.376  1.00  0.00     0.173 C 
ENDBRANCH  21  23
ENDBRANCH   9  21
ENDBRANCH   4   6
ENDBRANCH   3   4
ENDBRANCH   2   3
ENDBRANCH   1   2
BRANCH   1  29
ATOM     29  O   UNL A   1      37.686  21.761  25.128  1.00  0.00    -0.458 OA
BRANCH  29  30
ATOM     30  C   UNL A   1      38.752  21.459  25.903  1.00  0.00     0.338 C 
ATOM     31  O   UNL A   1      39.221  20.350  26.112  1.00  0.00    -0.246 OA
BRANCH  30  32
ATOM     32  C   UNL A   1      39.294  22.686  26.500  1.00  0.00     0.060 A 
ATOM     33  C   UNL A   1      38.790  23.932  26.124  1.00  0.00     0.016 A 
ATOM     34  C   UNL A   1      40.384  22.597  27.363  1.00  0.00     0.016 A 
ATOM     35  C   UNL A   1      39.410  25.098  26.572  1.00  0.00     0.010 A 
ATOM     36  C   UNL A   1      40.970  23.767  27.852  1.00  0.00     0.010 A 
ATOM     37  C   UNL A   1      40.513  25.028  27.434  1.00  0.00    -0.014 A 
BRANCH  37  38
ATOM     38  C   UNL A   1      41.220  26.265  27.865  1.00  0.00     0.031 A 
ATOM     39  C   UNL A   1      40.469  27.345  28.603  1.00  0.00     0.074 A 
ATOM     40  C   UNL A   1      42.527  26.432  27.583  1.00  0.00     0.049 A 
ATOM     41  N   UNL A   1      40.882  28.525  28.986  1.00  0.00    -0.248 NA
ATOM     42  C   UNL A   1      39.071  27.055  28.970  1.00  0.00     0.031 C 
ATOM     43  C   UNL A   1      43.375  25.459  26.892  1.00  0.00     0.029 A 
ATOM     44  N   UNL A   1      43.365  27.494  27.819  1.00  0.00    -0.354 N 
ATOM     45  C   UNL A   1      39.795  29.129  29.607  1.00  0.00     0.074 A 
ATOM     46  C   UNL A   1      38.701  28.184  29.558  1.00  0.00     0.031 C 
ATOM     47  C   UNL A   1      44.606  25.974  26.746  1.00  0.00     0.029 A 
ATOM     48  C   UNL A   1      44.622  27.331  27.281  1.00  0.00     0.049 A 
ATOM     49  H   UNL A   1      43.094  28.294  28.325  1.00  0.00     0.167 HD
ATOM     50  C   UNL A   1      39.716  30.355  30.176  1.00  0.00     0.034 A 
ATOM     51  C   UNL A   1      45.657  28.190  27.190  1.00  0.00     0.034 A 
ATOM     52  C   UNL A   1      40.798  31.298  30.225  1.00  0.00     0.049 A 
ATOM     53  C   UNL A   1      45.516  29.571  27.769  1.00  0.00     0.074 A 
ATOM     54  C   UNL A   1      40.810  32.567  30.779  1.00  0.00     0.029 A 
ATOM     55  N   UNL A   1      42.059  31.085  29.689  1.00  0.00    -0.354 N 
ATOM     56  N   UNL A   1      44.506  30.093  28.423  1.00  0.00    -0.248 NA
ATOM     57  C   UNL A   1      46.664  30.477  27.614  1.00  0.00     0.031 C 
ATOM     58  C   UNL A   1      42.072  33.127  30.562  1.00  0.00     0.029 A 
ATOM     59  C   UNL A   1      42.854  32.199  29.893  1.00  0.00     0.049 A 
ATOM     60  H   UNL A   1      42.346  30.262  29.231  1.00  0.00     0.167 HD
ATOM     61  C   UNL A   1      44.912  31.373  28.788  1.00  0.00     0.074 A 
ATOM     62  C   UNL A   1      46.264  31.539  28.298  1.00  0.00     0.031 C 
ATOM     63  C   UNL A   1      44.219  32.329  29.455  1.00  0.00     0.034 A 
BRANCH  50  64
ATOM     64  C   UNL A   1      38.410  30.745  30.817  1.00  0.00     0.023 A 
ATOM     65  C   UNL A   1      38.206  30.482  32.186  1.00  0.00     0.012 A 
ATOM     66  C   UNL A   1      37.416  31.423  30.085  1.00  0.00     0.148 A 
ATOM     67  C   UNL A   1      37.023  30.873  32.813  1.00  0.00     0.002 A 
ATOM     68  C   UNL A   1      36.256  31.841  30.726  1.00  0.00     0.091 A 
ATOM     69  F   UNL A   1      37.622  31.640  28.778  1.00  0.00    -0.205 F 
ATOM     70  C   UNL A   1      36.054  31.559  32.087  1.00  0.00     0.022 A 
BRANCH  68  71
ATOM     71  S   UNL A   1      34.976  32.787  29.893  1.00  0.00     0.127 S 
ATOM     72  O   UNL A   1      34.029  33.022  30.982  1.00  0.00    -0.237 OA
ATOM     73  O   UNL A   1      35.707  33.975  29.453  1.00  0.00    -0.237 OA
ATOM     74  O   UNL A   1      34.490  31.939  28.813  1.00  0.00    -0.744 OA
ENDBRANCH  68  71
ENDBRANCH  50  64
BRANCH  51  75
ATOM     75  C   UNL A   1      46.926  27.764  26.533  1.00  0.00     0.023 A 
ATOM     76  C   UNL A   1      47.952  27.194  27.311  1.00  0.00     0.012 A 
ATOM     77  C   UNL A   1      47.117  27.906  25.145  1.00  0.00     0.148 A 
ATOM     78  C   UNL A   1      49.154  26.798  26.724  1.00  0.00     0.002 A 
ATOM     79  C   UNL A   1      48.293  27.455  24.557  1.00  0.00     0.091 A 
ATOM     80  F   UNL A   1      46.142  28.477  24.422  1.00  0.00    -0.205 F 
ATOM     81  C   UNL A   1      49.319  26.916  25.347  1.00  0.00     0.022 A 
BRANCH  79  82
ATOM     82  S   UNL A   1      48.525  27.449  22.776  1.00  0.00     0.127 S 
ATOM     83  O   UNL A   1      47.410  28.277  22.326  1.00  0.00    -0.237 OA
ATOM     84  O   UNL A   1      49.845  28.065  22.636  1.00  0.00    -0.237 OA
ATOM     85  O   UNL A   1      48.479  26.047  22.384  1.00  0.00    -0.744 OA
ENDBRANCH  79  82
ENDBRANCH  51  75
BRANCH  63  86
ATOM     86  C   UNL A   1      44.921  33.631  29.737  1.00  0.00     0.023 A 
ATOM     87  C   UNL A   1      45.689  33.773  30.908  1.00  0.00     0.012 A 
ATOM     88  C   UNL A   1      44.881  34.683  28.802  1.00  0.00     0.148 A 
ATOM     89  C   UNL A   1      46.385  34.955  31.158  1.00  0.00     0.002 A 
ATOM     90  C   UNL A   1      45.614  35.840  29.036  1.00  0.00     0.091 A 
ATOM     91  F   UNL A   1      44.126  34.535  27.703  1.00  0.00    -0.205 F 
ATOM     92  C   UNL A   1      46.358  35.982  30.218  1.00  0.00     0.022 A 
BRANCH  90  93
ATOM     93  S   UNL A   1      45.711  37.174  27.835  1.00  0.00     0.127 S 
ATOM     94  O   UNL A   1      44.328  37.646  27.801  1.00  0.00    -0.237 OA
ATOM     95  O   UNL A   1      46.656  38.096  28.468  1.00  0.00    -0.237 OA
ATOM     96  O   UNL A   1      46.197  36.566  26.604  1.00  0.00    -0.744 OA
ENDBRANCH  90  93
ENDBRANCH  63  86
ENDBRANCH  37  38
ENDBRANCH  30  32
ENDBRANCH  29  30
ENDBRANCH   1  29
TORSDOF 19
ENDMDL
