MODEL 1
REMARK VINA RESULT:     -12.0      0.000      0.000
REMARK SMILES O=C(OCCOC(=O)[C@@H]1[C@@H](C(=O)NCCCn2ccnc2)[C@@H]2C=C[C@H]1C2)c1ccc(-c2c3nc(c(-c4cccc(S(=O)(=O)[O-])c4F)c4ccc([nH]4)c(-c4cccc(S(=O)(=O)[O-])c4F)c4nc(c(-c5cccc(S(=O)(=O)[O-])c5F)c5ccc2[nH]5)C=C4)C=C3)cc1
REMARK SMILES IDX 5 1 4 2 3 3 2 4 1 5 27 6 28 7 89 8 29 9 88 10 30 11 31 12
REMARK SMILES IDX 32 13 82 14 33 15 87 16 81 17 83 18 34 19 86 20 80 21 79 22
REMARK SMILES IDX 35 24 67 25 47 26 66 27 48 28 51 29 65 30 84 31 49 32 50 33
REMARK SMILES IDX 64 35 85 36 52 37 36 38 37 39 45 40 38 41 40 42 46 43 39 44
REMARK SMILES IDX 41 45 42 46 43 47 44 48 68 49 69 50 77 51 70 52 72 53 78 54
REMARK SMILES IDX 71 55 73 56 74 57 75 58 76 59 53 60 54 61 62 62 55 63 57 64
REMARK SMILES IDX 63 65 56 66 58 67 59 68 60 69 61 70 6 71 7 72 8 73 9 74
REMARK SMILES IDX 10 75 25 76 22 77 24 78 26 79 23 80 11 81 12 82 13 83 14 85
REMARK SMILES IDX 15 86 16 87 17 88 18 89 21 90 19 91 20 92
REMARK H PARENT 83 23 51 34 13 84
REMARK Flexibility Score: inf
ROOT
ATOM      1  C   UNL A   1      34.307  19.943  25.036  1.00  0.00     0.274 C 
ENDROOT
BRANCH   1   2
ATOM      2  C   UNL A   1      35.782  19.775  24.672  1.00  0.00     0.275 C 
BRANCH   2   3
ATOM      3  O   UNL A   1      36.738  20.653  25.298  1.00  0.00    -0.458 OA
BRANCH   3   4
ATOM      4  C   UNL A   1      38.023  20.259  25.372  1.00  0.00     0.338 C 
ATOM      5  O   UNL A   1      38.455  19.198  24.932  1.00  0.00    -0.246 OA
BRANCH   4   6
ATOM      6  C   UNL A   1      38.861  21.332  25.942  1.00  0.00     0.060 A 
ATOM      7  C   UNL A   1      38.406  22.657  25.992  1.00  0.00     0.016 A 
ATOM      8  C   UNL A   1      40.093  20.994  26.502  1.00  0.00     0.016 A 
ATOM      9  C   UNL A   1      39.171  23.631  26.617  1.00  0.00     0.010 A 
ATOM     10  C   UNL A   1      40.859  21.973  27.130  1.00  0.00     0.010 A 
ATOM     11  C   UNL A   1      40.399  23.292  27.194  1.00  0.00    -0.014 A 
BRANCH  11  12
ATOM     12  C   UNL A   1      41.126  24.336  27.915  1.00  0.00     0.031 A 
ATOM     13  C   UNL A   1      40.418  25.632  28.144  1.00  0.00     0.074 A 
ATOM     14  C   UNL A   1      42.340  24.168  28.474  1.00  0.00     0.049 A 
ATOM     15  N   UNL A   1      40.615  26.763  27.546  1.00  0.00    -0.248 NA
ATOM     16  C   UNL A   1      39.312  25.657  29.106  1.00  0.00     0.031 C 
ATOM     17  C   UNL A   1      43.093  22.928  28.666  1.00  0.00     0.029 A 
ATOM     18  N   UNL A   1      43.109  25.102  29.101  1.00  0.00    -0.354 N 
ATOM     19  C   UNL A   1      39.808  27.698  28.203  1.00  0.00     0.074 A 
ATOM     20  C   UNL A   1      38.917  26.930  29.034  1.00  0.00     0.031 C 
ATOM     21  C   UNL A   1      44.076  23.145  29.569  1.00  0.00     0.029 A 
ATOM     22  C   UNL A   1      44.126  24.564  29.871  1.00  0.00     0.049 A 
ATOM     23  H   UNL A   1      42.954  26.071  29.016  1.00  0.00     0.167 HD
ATOM     24  C   UNL A   1      40.071  29.039  28.164  1.00  0.00     0.034 A 
ATOM     25  C   UNL A   1      44.932  25.236  30.723  1.00  0.00     0.034 A 
ATOM     26  C   UNL A   1      41.087  29.349  27.191  1.00  0.00     0.049 A 
ATOM     27  C   UNL A   1      44.937  26.656  30.309  1.00  0.00     0.074 A 
ATOM     28  C   UNL A   1      41.248  29.191  25.830  1.00  0.00     0.029 A 
ATOM     29  N   UNL A   1      42.334  29.664  27.676  1.00  0.00    -0.354 N 
ATOM     30  N   UNL A   1      45.465  27.079  29.195  1.00  0.00    -0.248 NA
ATOM     31  C   UNL A   1      44.030  27.583  30.963  1.00  0.00     0.031 C 
ATOM     32  C   UNL A   1      42.639  28.922  25.658  1.00  0.00     0.029 A 
ATOM     33  C   UNL A   1      43.239  28.977  26.919  1.00  0.00     0.049 A 
ATOM     34  H   UNL A   1      42.535  30.268  28.426  1.00  0.00     0.167 HD
ATOM     35  C   UNL A   1      44.630  28.109  28.784  1.00  0.00     0.074 A 
ATOM     36  C   UNL A   1      43.859  28.463  29.973  1.00  0.00     0.031 C 
ATOM     37  C   UNL A   1      44.441  28.377  27.457  1.00  0.00     0.034 A 
BRANCH  24  38
ATOM     38  C   UNL A   1      39.696  30.083  29.205  1.00  0.00     0.023 A 
ATOM     39  C   UNL A   1      40.447  30.085  30.410  1.00  0.00     0.012 A 
ATOM     40  C   UNL A   1      38.509  30.845  29.201  1.00  0.00     0.148 A 
ATOM     41  C   UNL A   1      39.998  30.727  31.568  1.00  0.00     0.002 A 
ATOM     42  C   UNL A   1      38.105  31.549  30.335  1.00  0.00     0.091 A 
ATOM     43  F   UNL A   1      37.689  30.798  28.148  1.00  0.00    -0.205 F 
ATOM     44  C   UNL A   1      38.824  31.463  31.530  1.00  0.00     0.022 A 
BRANCH  42  45
ATOM     45  S   UNL A   1      36.627  32.573  30.338  1.00  0.00     0.127 S 
ATOM     46  O   UNL A   1      36.926  33.520  29.268  1.00  0.00    -0.237 OA
ATOM     47  O   UNL A   1      35.583  31.596  30.027  1.00  0.00    -0.237 OA
ATOM     48  O   UNL A   1      36.546  33.127  31.683  1.00  0.00    -0.744 OA
ENDBRANCH  42  45
ENDBRANCH  24  38
BRANCH  25  49
ATOM     49  C   UNL A   1      45.575  24.769  31.966  1.00  0.00     0.023 A 
ATOM     50  C   UNL A   1      46.785  25.350  32.389  1.00  0.00     0.012 A 
ATOM     51  C   UNL A   1      44.870  23.947  32.873  1.00  0.00     0.148 A 
ATOM     52  C   UNL A   1      47.265  25.144  33.686  1.00  0.00     0.002 A 
ATOM     53  C   UNL A   1      45.353  23.741  34.161  1.00  0.00     0.091 A 
ATOM     54  F   UNL A   1      43.684  23.445  32.501  1.00  0.00    -0.205 F 
ATOM     55  C   UNL A   1      46.546  24.347  34.574  1.00  0.00     0.022 A 
BRANCH  53  56
ATOM     56  S   UNL A   1      44.466  22.747  35.367  1.00  0.00     0.127 S 
ATOM     57  O   UNL A   1      45.233  22.993  36.589  1.00  0.00    -0.237 OA
ATOM     58  O   UNL A   1      43.139  23.356  35.344  1.00  0.00    -0.237 OA
ATOM     59  O   UNL A   1      44.542  21.375  34.882  1.00  0.00    -0.744 OA
ENDBRANCH  53  56
ENDBRANCH  25  49
BRANCH  37  60
ATOM     60  C   UNL A   1      45.364  27.739  26.451  1.00  0.00     0.023 A 
ATOM     61  C   UNL A   1      46.559  28.362  26.036  1.00  0.00     0.012 A 
ATOM     62  C   UNL A   1      45.125  26.408  26.068  1.00  0.00     0.148 A 
ATOM     63  C   UNL A   1      47.481  27.684  25.236  1.00  0.00     0.002 A 
ATOM     64  C   UNL A   1      46.069  25.719  25.315  1.00  0.00     0.091 A 
ATOM     65  F   UNL A   1      43.987  25.823  26.472  1.00  0.00    -0.205 F 
ATOM     66  C   UNL A   1      47.243  26.357  24.888  1.00  0.00     0.022 A 
BRANCH  64  67
ATOM     67  S   UNL A   1      45.885  23.968  24.963  1.00  0.00     0.127 S 
ATOM     68  O   UNL A   1      46.831  23.774  23.868  1.00  0.00    -0.237 OA
ATOM     69  O   UNL A   1      46.278  23.346  26.230  1.00  0.00    -0.237 OA
ATOM     70  O   UNL A   1      44.478  23.780  24.626  1.00  0.00    -0.744 OA
ENDBRANCH  64  67
ENDBRANCH  37  60
ENDBRANCH  11  12
ENDBRANCH   4   6
ENDBRANCH   3   4
ENDBRANCH   2   3
ENDBRANCH   1   2
BRANCH   1  71
ATOM     71  O   UNL A   1      34.094  21.049  25.939  1.00  0.00    -0.462 OA
BRANCH  71  72
ATOM     72  C   UNL A   1      33.001  21.807  25.639  1.00  0.00     0.310 C 
ATOM     73  O   UNL A   1      31.973  21.360  25.138  1.00  0.00    -0.252 OA
BRANCH  72  74
ATOM     74  C   UNL A   1      33.211  23.292  25.810  1.00  0.00     0.119 C 
ATOM     75  C   UNL A   1      32.346  24.316  25.015  1.00  0.00     0.100 C 
ATOM     76  C   UNL A   1      34.658  23.688  25.417  1.00  0.00     0.027 C 
ATOM     77  C   UNL A   1      33.433  25.289  24.455  1.00  0.00     0.025 C 
ATOM     78  C   UNL A   1      34.858  23.569  23.922  1.00  0.00    -0.027 C 
ATOM     79  C   UNL A   1      34.554  25.213  25.501  1.00  0.00     0.017 C 
ATOM     80  C   UNL A   1      34.155  24.558  23.351  1.00  0.00    -0.027 C 
BRANCH  75  81
ATOM     81  C   UNL A   1      31.425  25.078  25.955  1.00  0.00     0.224 C 
ATOM     82  O   UNL A   1      31.524  24.994  27.181  1.00  0.00    -0.275 OA
ATOM     83  N   UNL A   1      30.402  25.837  25.488  1.00  0.00    -0.356 N 
ATOM     84  H   UNL A   1      29.840  26.234  26.192  1.00  0.00     0.163 HD
BRANCH  83  85
ATOM     85  C   UNL A   1      29.984  26.168  24.139  1.00  0.00     0.117 C 
BRANCH  85  86
ATOM     86  C   UNL A   1      30.473  27.558  23.727  1.00  0.00     0.043 C 
BRANCH  86  87
ATOM     87  C   UNL A   1      29.668  28.211  22.600  1.00  0.00     0.125 C 
BRANCH  87  88
ATOM     88  N   UNL A   1      28.922  29.381  23.009  1.00  0.00    -0.337 N 
ATOM     89  C   UNL A   1      29.450  30.534  23.518  1.00  0.00     0.107 A 
ATOM     90  C   UNL A   1      27.573  29.556  22.895  1.00  0.00     0.199 A 
ATOM     91  C   UNL A   1      28.368  31.361  23.716  1.00  0.00     0.130 A 
ATOM     92  N   UNL A   1      27.212  30.750  23.308  1.00  0.00    -0.245 NA
ENDBRANCH  87  88
ENDBRANCH  86  87
ENDBRANCH  85  86
ENDBRANCH  83  85
ENDBRANCH  75  81
ENDBRANCH  72  74
ENDBRANCH  71  72
ENDBRANCH   1  71
TORSDOF 19
ENDMDL
MODEL 2
REMARK VINA RESULT:     -11.4      3.436      7.621
REMARK SMILES O=C(OCCOC(=O)[C@@H]1[C@@H](C(=O)NCCCn2ccnc2)[C@@H]2C=C[C@H]1C2)c1ccc(-c2c3nc(c(-c4cccc(S(=O)(=O)[O-])c4F)c4ccc([nH]4)c(-c4cccc(S(=O)(=O)[O-])c4F)c4nc(c(-c5cccc(S(=O)(=O)[O-])c5F)c5ccc2[nH]5)C=C4)C=C3)cc1
REMARK SMILES IDX 5 1 4 2 3 3 2 4 1 5 27 6 28 7 89 8 29 9 88 10 30 11 31 12
REMARK SMILES IDX 32 13 82 14 33 15 87 16 81 17 83 18 34 19 86 20 80 21 79 22
REMARK SMILES IDX 35 24 67 25 47 26 66 27 48 28 51 29 65 30 84 31 49 32 50 33
REMARK SMILES IDX 64 35 85 36 52 37 36 38 37 39 45 40 38 41 40 42 46 43 39 44
REMARK SMILES IDX 41 45 42 46 43 47 44 48 68 49 69 50 77 51 70 52 72 53 78 54
REMARK SMILES IDX 71 55 73 56 74 57 75 58 76 59 53 60 54 61 62 62 55 63 57 64
REMARK SMILES IDX 63 65 56 66 58 67 59 68 60 69 61 70 6 71 7 72 8 73 9 74
REMARK SMILES IDX 10 75 25 76 22 77 24 78 26 79 23 80 11 81 12 82 13 83 14 85
REMARK SMILES IDX 15 86 16 87 17 88 18 89 21 90 19 91 20 92
REMARK H PARENT 83 23 51 34 13 84
REMARK Flexibility Score: inf
ROOT
ATOM      1  C   UNL A   1      36.406  21.406  24.800  1.00  0.00     0.274 C 
ENDROOT
BRANCH   1   2
ATOM      2  C   UNL A   1      37.803  21.064  25.315  1.00  0.00     0.275 C 
BRANCH   2   3
ATOM      3  O   UNL A   1      38.734  22.146  25.515  1.00  0.00    -0.458 OA
BRANCH   3   4
ATOM      4  C   UNL A   1      39.620  22.056  26.526  1.00  0.00     0.338 C 
ATOM      5  O   UNL A   1      40.221  21.033  26.839  1.00  0.00    -0.246 OA
BRANCH   4   6
ATOM      6  C   UNL A   1      39.859  23.384  27.123  1.00  0.00     0.060 A 
ATOM      7  C   UNL A   1      41.020  23.647  27.863  1.00  0.00     0.016 A 
ATOM      8  C   UNL A   1      38.939  24.405  26.877  1.00  0.00     0.016 A 
ATOM      9  C   UNL A   1      41.267  24.928  28.334  1.00  0.00     0.010 A 
ATOM     10  C   UNL A   1      39.191  25.689  27.350  1.00  0.00     0.010 A 
ATOM     11  C   UNL A   1      40.356  25.957  28.075  1.00  0.00    -0.014 A 
BRANCH  11  12
ATOM     12  C   UNL A   1      40.704  27.306  28.520  1.00  0.00     0.031 A 
ATOM     13  C   UNL A   1      41.930  27.927  27.932  1.00  0.00     0.074 A 
ATOM     14  C   UNL A   1      39.939  28.058  29.334  1.00  0.00     0.049 A 
ATOM     15  N   UNL A   1      43.081  28.106  28.499  1.00  0.00    -0.248 NA
ATOM     16  C   UNL A   1      41.893  28.338  26.525  1.00  0.00     0.031 C 
ATOM     17  C   UNL A   1      38.567  27.813  29.781  1.00  0.00     0.029 A 
ATOM     18  N   UNL A   1      40.220  29.290  29.845  1.00  0.00    -0.354 N 
ATOM     19  C   UNL A   1      43.850  28.846  27.594  1.00  0.00     0.074 A 
ATOM     20  C   UNL A   1      43.129  28.812  26.348  1.00  0.00     0.031 C 
ATOM     21  C   UNL A   1      38.055  28.960  30.281  1.00  0.00     0.029 A 
ATOM     22  C   UNL A   1      39.114  29.952  30.350  1.00  0.00     0.049 A 
ATOM     23  H   UNL A   1      41.126  29.674  29.853  1.00  0.00     0.167 HD
ATOM     24  C   UNL A   1      44.920  29.597  27.994  1.00  0.00     0.034 A 
ATOM     25  C   UNL A   1      39.065  31.237  30.765  1.00  0.00     0.034 A 
ATOM     26  C   UNL A   1      45.274  29.321  29.364  1.00  0.00     0.049 A 
ATOM     27  C   UNL A   1      40.443  31.648  31.110  1.00  0.00     0.074 A 
ATOM     28  C   UNL A   1      45.667  28.218  30.091  1.00  0.00     0.029 A 
ATOM     29  N   UNL A   1      44.938  30.277  30.293  1.00  0.00    -0.354 N 
ATOM     30  N   UNL A   1      41.108  31.161  32.121  1.00  0.00    -0.248 NA
ATOM     31  C   UNL A   1      41.239  32.349  30.118  1.00  0.00     0.031 C 
ATOM     32  C   UNL A   1      45.070  28.398  31.375  1.00  0.00     0.029 A 
ATOM     33  C   UNL A   1      44.391  29.619  31.358  1.00  0.00     0.049 A 
ATOM     34  H   UNL A   1      45.068  31.248  30.208  1.00  0.00     0.167 HD
ATOM     35  C   UNL A   1      42.421  31.097  31.674  1.00  0.00     0.074 A 
ATOM     36  C   UNL A   1      42.460  31.967  30.502  1.00  0.00     0.031 C 
ATOM     37  C   UNL A   1      43.272  30.126  32.122  1.00  0.00     0.034 A 
BRANCH  24  38
ATOM     38  C   UNL A   1      45.482  30.837  27.317  1.00  0.00     0.023 A 
ATOM     39  C   UNL A   1      46.887  30.879  27.123  1.00  0.00     0.012 A 
ATOM     40  C   UNL A   1      44.783  32.048  27.130  1.00  0.00     0.148 A 
ATOM     41  C   UNL A   1      47.568  32.071  26.852  1.00  0.00     0.002 A 
ATOM     42  C   UNL A   1      45.456  33.218  26.781  1.00  0.00     0.091 A 
ATOM     43  F   UNL A   1      43.479  32.117  27.409  1.00  0.00    -0.205 F 
ATOM     44  C   UNL A   1      46.850  33.243  26.679  1.00  0.00     0.022 A 
BRANCH  42  45
ATOM     45  S   UNL A   1      44.584  34.761  26.480  1.00  0.00     0.127 S 
ATOM     46  O   UNL A   1      45.682  35.650  26.109  1.00  0.00    -0.237 OA
ATOM     47  O   UNL A   1      43.688  34.392  25.383  1.00  0.00    -0.237 OA
ATOM     48  O   UNL A   1      43.902  35.069  27.731  1.00  0.00    -0.744 OA
ENDBRANCH  42  45
ENDBRANCH  24  38
BRANCH  25  49
ATOM     49  C   UNL A   1      37.937  32.187  30.735  1.00  0.00     0.023 A 
ATOM     50  C   UNL A   1      37.306  32.487  29.514  1.00  0.00     0.012 A 
ATOM     51  C   UNL A   1      37.310  32.593  31.935  1.00  0.00     0.148 A 
ATOM     52  C   UNL A   1      36.072  33.145  29.486  1.00  0.00     0.002 A 
ATOM     53  C   UNL A   1      36.085  33.250  31.903  1.00  0.00     0.091 A 
ATOM     54  F   UNL A   1      37.871  32.252  33.103  1.00  0.00    -0.205 F 
ATOM     55  C   UNL A   1      35.458  33.518  30.680  1.00  0.00     0.022 A 
BRANCH  53  56
ATOM     56  S   UNL A   1      35.222  33.739  33.402  1.00  0.00     0.127 S 
ATOM     57  O   UNL A   1      35.628  35.138  33.545  1.00  0.00    -0.237 OA
ATOM     58  O   UNL A   1      33.825  33.543  33.025  1.00  0.00    -0.237 OA
ATOM     59  O   UNL A   1      35.725  32.862  34.451  1.00  0.00    -0.744 OA
ENDBRANCH  53  56
ENDBRANCH  25  49
BRANCH  37  60
ATOM     60  C   UNL A   1      42.866  29.303  33.318  1.00  0.00     0.023 A 
ATOM     61  C   UNL A   1      41.959  28.230  33.210  1.00  0.00     0.012 A 
ATOM     62  C   UNL A   1      43.558  29.487  34.528  1.00  0.00     0.148 A 
ATOM     63  C   UNL A   1      41.725  27.376  34.290  1.00  0.00     0.002 A 
ATOM     64  C   UNL A   1      43.362  28.605  35.584  1.00  0.00     0.091 A 
ATOM     65  F   UNL A   1      44.423  30.510  34.618  1.00  0.00    -0.205 F 
ATOM     66  C   UNL A   1      42.439  27.555  35.473  1.00  0.00     0.022 A 
BRANCH  64  67
ATOM     67  S   UNL A   1      44.359  28.698  37.074  1.00  0.00     0.127 S 
ATOM     68  O   UNL A   1      43.897  29.947  37.675  1.00  0.00    -0.237 OA
ATOM     69  O   UNL A   1      43.962  27.488  37.798  1.00  0.00    -0.237 OA
ATOM     70  O   UNL A   1      45.745  28.686  36.623  1.00  0.00    -0.744 OA
ENDBRANCH  64  67
ENDBRANCH  37  60
ENDBRANCH  11  12
ENDBRANCH   4   6
ENDBRANCH   3   4
ENDBRANCH   2   3
ENDBRANCH   1   2
BRANCH   1  71
ATOM     71  O   UNL A   1      36.420  22.536  23.902  1.00  0.00    -0.462 OA
BRANCH  71  72
ATOM     72  C   UNL A   1      35.641  23.578  24.311  1.00  0.00     0.310 C 
ATOM     73  O   UNL A   1      35.788  24.167  25.378  1.00  0.00    -0.252 OA
BRANCH  72  74
ATOM     74  C   UNL A   1      34.453  23.851  23.420  1.00  0.00     0.119 C 
ATOM     75  C   UNL A   1      33.386  24.916  23.818  1.00  0.00     0.100 C 
ATOM     76  C   UNL A   1      33.604  22.567  23.234  1.00  0.00     0.027 C 
ATOM     77  C   UNL A   1      32.053  24.135  23.587  1.00  0.00     0.025 C 
ATOM     78  C   UNL A   1      32.887  22.209  24.518  1.00  0.00    -0.027 C 
ATOM     79  C   UNL A   1      32.408  23.142  22.472  1.00  0.00     0.017 C 
ATOM     80  C   UNL A   1      31.930  23.129  24.704  1.00  0.00    -0.027 C 
BRANCH  75  81
ATOM     81  C   UNL A   1      33.444  26.105  22.873  1.00  0.00     0.224 C 
ATOM     82  O   UNL A   1      33.777  25.989  21.692  1.00  0.00    -0.275 OA
ATOM     83  N   UNL A   1      33.195  27.368  23.304  1.00  0.00    -0.356 N 
ATOM     84  H   UNL A   1      33.319  28.061  22.615  1.00  0.00     0.163 HD
BRANCH  83  85
ATOM     85  C   UNL A   1      32.781  27.883  24.595  1.00  0.00     0.117 C 
BRANCH  85  86
ATOM     86  C   UNL A   1      31.261  28.043  24.671  1.00  0.00     0.043 C 
BRANCH  86  87
ATOM     87  C   UNL A   1      30.507  27.608  23.411  1.00  0.00     0.125 C 
BRANCH  87  88
ATOM     88  N   UNL A   1      29.730  28.661  22.795  1.00  0.00    -0.337 N 
ATOM     89  C   UNL A   1      30.227  29.706  22.067  1.00  0.00     0.107 A 
ATOM     90  C   UNL A   1      28.369  28.755  22.781  1.00  0.00     0.199 A 
ATOM     91  C   UNL A   1      29.118  30.412  21.660  1.00  0.00     0.130 A 
ATOM     92  N   UNL A   1      27.971  29.801  22.093  1.00  0.00    -0.245 NA
ENDBRANCH  87  88
ENDBRANCH  86  87
ENDBRANCH  85  86
ENDBRANCH  83  85
ENDBRANCH  75  81
ENDBRANCH  72  74
ENDBRANCH  71  72
ENDBRANCH   1  71
TORSDOF 19
ENDMDL
MODEL 3
REMARK VINA RESULT:     -11.3      4.046      8.493
REMARK SMILES O=C(OCCOC(=O)[C@@H]1[C@@H](C(=O)NCCCn2ccnc2)[C@@H]2C=C[C@H]1C2)c1ccc(-c2c3nc(c(-c4cccc(S(=O)(=O)[O-])c4F)c4ccc([nH]4)c(-c4cccc(S(=O)(=O)[O-])c4F)c4nc(c(-c5cccc(S(=O)(=O)[O-])c5F)c5ccc2[nH]5)C=C4)C=C3)cc1
REMARK SMILES IDX 5 1 4 2 3 3 2 4 1 5 27 6 28 7 89 8 29 9 88 10 30 11 31 12
REMARK SMILES IDX 32 13 82 14 33 15 87 16 81 17 83 18 34 19 86 20 80 21 79 22
REMARK SMILES IDX 35 24 67 25 47 26 66 27 48 28 51 29 65 30 84 31 49 32 50 33
REMARK SMILES IDX 64 35 85 36 52 37 36 38 37 39 45 40 38 41 40 42 46 43 39 44
REMARK SMILES IDX 41 45 42 46 43 47 44 48 68 49 69 50 77 51 70 52 72 53 78 54
REMARK SMILES IDX 71 55 73 56 74 57 75 58 76 59 53 60 54 61 62 62 55 63 57 64
REMARK SMILES IDX 63 65 56 66 58 67 59 68 60 69 61 70 6 71 7 72 8 73 9 74
REMARK SMILES IDX 10 75 25 76 22 77 24 78 26 79 23 80 11 81 12 82 13 83 14 85
REMARK SMILES IDX 15 86 16 87 17 88 18 89 21 90 19 91 20 92
REMARK H PARENT 83 23 51 34 13 84
REMARK Flexibility Score: inf
ROOT
ATOM      1  C   UNL A   1      36.913  20.670  25.003  1.00  0.00     0.274 C 
ENDROOT
BRANCH   1   2
ATOM      2  C   UNL A   1      38.410  20.803  25.281  1.00  0.00     0.275 C 
BRANCH   2   3
ATOM      3  O   UNL A   1      38.816  21.469  26.493  1.00  0.00    -0.458 OA
BRANCH   3   4
ATOM      4  C   UNL A   1      40.126  21.721  26.682  1.00  0.00     0.338 C 
ATOM      5  O   UNL A   1      41.038  20.990  26.312  1.00  0.00    -0.246 OA
BRANCH   4   6
ATOM      6  C   UNL A   1      40.313  23.056  27.283  1.00  0.00     0.060 A 
ATOM      7  C   UNL A   1      41.473  23.368  28.006  1.00  0.00     0.016 A 
ATOM      8  C   UNL A   1      39.344  24.034  27.059  1.00  0.00     0.016 A 
ATOM      9  C   UNL A   1      41.669  24.657  28.481  1.00  0.00     0.010 A 
ATOM     10  C   UNL A   1      39.543  25.326  27.537  1.00  0.00     0.010 A 
ATOM     11  C   UNL A   1      40.707  25.644  28.243  1.00  0.00    -0.014 A 
BRANCH  11  12
ATOM     12  C   UNL A   1      41.000  27.005  28.691  1.00  0.00     0.031 A 
ATOM     13  C   UNL A   1      42.165  27.698  28.062  1.00  0.00     0.074 A 
ATOM     14  C   UNL A   1      40.230  27.705  29.545  1.00  0.00     0.049 A 
ATOM     15  N   UNL A   1      43.327  27.933  28.583  1.00  0.00    -0.248 NA
ATOM     16  C   UNL A   1      42.048  28.121  26.663  1.00  0.00     0.031 C 
ATOM     17  C   UNL A   1      38.892  27.381  30.045  1.00  0.00     0.029 A 
ATOM     18  N   UNL A   1      40.465  28.945  30.060  1.00  0.00    -0.354 N 
ATOM     19  C   UNL A   1      44.017  28.723  27.658  1.00  0.00     0.074 A 
ATOM     20  C   UNL A   1      43.248  28.663  26.442  1.00  0.00     0.031 C 
ATOM     21  C   UNL A   1      38.341  28.494  30.580  1.00  0.00     0.029 A 
ATOM     22  C   UNL A   1      39.346  29.541  30.618  1.00  0.00     0.049 A 
ATOM     23  H   UNL A   1      41.348  29.378  30.036  1.00  0.00     0.167 HD
ATOM     24  C   UNL A   1      45.060  29.527  28.024  1.00  0.00     0.034 A 
ATOM     25  C   UNL A   1      39.245  30.816  31.051  1.00  0.00     0.034 A 
ATOM     26  C   UNL A   1      45.485  29.257  29.374  1.00  0.00     0.049 A 
ATOM     27  C   UNL A   1      40.612  31.299  31.346  1.00  0.00     0.074 A 
ATOM     28  C   UNL A   1      45.967  28.168  30.070  1.00  0.00     0.029 A 
ATOM     29  N   UNL A   1      45.137  30.182  30.329  1.00  0.00    -0.354 N 
ATOM     30  N   UNL A   1      41.344  30.837  32.322  1.00  0.00    -0.248 NA
ATOM     31  C   UNL A   1      41.328  32.052  30.331  1.00  0.00     0.031 C 
ATOM     32  C   UNL A   1      45.415  28.302  31.380  1.00  0.00     0.029 A 
ATOM     33  C   UNL A   1      44.671  29.484  31.406  1.00  0.00     0.049 A 
ATOM     34  H   UNL A   1      45.211  31.161  30.251  1.00  0.00     0.167 HD
ATOM     35  C   UNL A   1      42.638  30.850  31.822  1.00  0.00     0.074 A 
ATOM     36  C   UNL A   1      42.582  31.733  30.660  1.00  0.00     0.031 C 
ATOM     37  C   UNL A   1      43.559  29.922  32.222  1.00  0.00     0.034 A 
BRANCH  24  38
ATOM     38  C   UNL A   1      45.526  30.803  27.341  1.00  0.00     0.023 A 
ATOM     39  C   UNL A   1      46.920  30.931  27.104  1.00  0.00     0.012 A 
ATOM     40  C   UNL A   1      44.751  31.972  27.185  1.00  0.00     0.148 A 
ATOM     41  C   UNL A   1      47.519  32.163  26.822  1.00  0.00     0.002 A 
ATOM     42  C   UNL A   1      45.342  33.182  26.826  1.00  0.00     0.091 A 
ATOM     43  F   UNL A   1      43.454  31.961  27.505  1.00  0.00    -0.205 F 
ATOM     44  C   UNL A   1      46.728  33.291  26.681  1.00  0.00     0.022 A 
BRANCH  42  45
ATOM     45  S   UNL A   1      44.370  34.672  26.565  1.00  0.00     0.127 S 
ATOM     46  O   UNL A   1      43.513  34.270  25.452  1.00  0.00    -0.237 OA
ATOM     47  O   UNL A   1      43.687  34.815  27.851  1.00  0.00    -0.237 OA
ATOM     48  O   UNL A   1      45.341  35.721  26.283  1.00  0.00    -0.744 OA
ENDBRANCH  42  45
ENDBRANCH  24  38
BRANCH  25  49
ATOM     49  C   UNL A   1      38.068  31.704  31.080  1.00  0.00     0.023 A 
ATOM     50  C   UNL A   1      37.176  31.720  29.992  1.00  0.00     0.012 A 
ATOM     51  C   UNL A   1      37.674  32.335  32.282  1.00  0.00     0.148 A 
ATOM     52  C   UNL A   1      35.917  32.319  30.104  1.00  0.00     0.002 A 
ATOM     53  C   UNL A   1      36.423  32.933  32.388  1.00  0.00     0.091 A 
ATOM     54  F   UNL A   1      38.490  32.266  33.343  1.00  0.00    -0.205 F 
ATOM     55  C   UNL A   1      35.538  32.917  31.304  1.00  0.00     0.022 A 
BRANCH  53  56
ATOM     56  S   UNL A   1      35.857  33.701  33.911  1.00  0.00     0.127 S 
ATOM     57  O   UNL A   1      34.403  33.673  33.744  1.00  0.00    -0.237 OA
ATOM     58  O   UNL A   1      36.374  32.784  34.923  1.00  0.00    -0.237 OA
ATOM     59  O   UNL A   1      36.431  35.040  33.916  1.00  0.00    -0.744 OA
ENDBRANCH  53  56
ENDBRANCH  25  49
BRANCH  37  60
ATOM     60  C   UNL A   1      43.248  29.066  33.422  1.00  0.00     0.023 A 
ATOM     61  C   UNL A   1      42.579  27.830  33.303  1.00  0.00     0.012 A 
ATOM     62  C   UNL A   1      43.810  29.415  34.663  1.00  0.00     0.148 A 
ATOM     63  C   UNL A   1      42.450  26.975  34.400  1.00  0.00     0.002 A 
ATOM     64  C   UNL A   1      43.726  28.538  35.738  1.00  0.00     0.091 A 
ATOM     65  F   UNL A   1      44.449  30.591  34.764  1.00  0.00    -0.205 F 
ATOM     66  C   UNL A   1      43.037  27.323  35.614  1.00  0.00     0.022 A 
BRANCH  64  67
ATOM     67  S   UNL A   1      44.587  28.866  37.279  1.00  0.00     0.127 S 
ATOM     68  O   UNL A   1      45.966  29.038  36.829  1.00  0.00    -0.237 OA
ATOM     69  O   UNL A   1      43.940  30.094  37.749  1.00  0.00    -0.237 OA
ATOM     70  O   UNL A   1      44.336  27.706  38.126  1.00  0.00    -0.744 OA
ENDBRANCH  64  67
ENDBRANCH  37  60
ENDBRANCH  11  12
ENDBRANCH   4   6
ENDBRANCH   3   4
ENDBRANCH   2   3
ENDBRANCH   1   2
BRANCH   1  71
ATOM     71  O   UNL A   1      36.445  21.668  24.070  1.00  0.00    -0.462 OA
BRANCH  71  72
ATOM     72  C   UNL A   1      36.354  22.922  24.599  1.00  0.00     0.310 C 
ATOM     73  O   UNL A   1      37.211  23.789  24.457  1.00  0.00    -0.252 OA
BRANCH  72  74
ATOM     74  C   UNL A   1      35.185  23.118  25.533  1.00  0.00     0.119 C 
ATOM     75  C   UNL A   1      33.885  22.272  25.372  1.00  0.00     0.100 C 
ATOM     76  C   UNL A   1      34.659  24.575  25.451  1.00  0.00     0.027 C 
ATOM     77  C   UNL A   1      32.777  23.372  25.442  1.00  0.00     0.025 C 
ATOM     78  C   UNL A   1      33.974  24.822  24.124  1.00  0.00    -0.027 C 
ATOM     79  C   UNL A   1      33.406  24.460  26.323  1.00  0.00     0.017 C 
ATOM     80  C   UNL A   1      32.825  24.132  24.140  1.00  0.00    -0.027 C 
BRANCH  75  81
ATOM     81  C   UNL A   1      33.723  21.318  26.545  1.00  0.00     0.224 C 
ATOM     82  O   UNL A   1      34.249  21.529  27.640  1.00  0.00    -0.275 OA
ATOM     83  N   UNL A   1      33.044  20.150  26.422  1.00  0.00    -0.356 N 
ATOM     84  H   UNL A   1      33.056  19.589  27.232  1.00  0.00     0.163 HD
BRANCH  83  85
ATOM     85  C   UNL A   1      32.305  19.575  25.314  1.00  0.00     0.117 C 
BRANCH  85  86
ATOM     86  C   UNL A   1      33.198  19.386  24.085  1.00  0.00     0.043 C 
BRANCH  86  87
ATOM     87  C   UNL A   1      33.112  17.999  23.440  1.00  0.00     0.125 C 
BRANCH  87  88
ATOM     88  N   UNL A   1      33.771  16.956  24.195  1.00  0.00    -0.337 N 
ATOM     89  C   UNL A   1      35.069  16.970  24.622  1.00  0.00     0.107 A 
ATOM     90  C   UNL A   1      33.191  15.812  24.664  1.00  0.00     0.199 A 
ATOM     91  C   UNL A   1      35.223  15.796  25.323  1.00  0.00     0.130 A 
ATOM     92  N   UNL A   1      34.046  15.096  25.358  1.00  0.00    -0.245 NA
ENDBRANCH  87  88
ENDBRANCH  86  87
ENDBRANCH  85  86
ENDBRANCH  83  85
ENDBRANCH  75  81
ENDBRANCH  72  74
ENDBRANCH  71  72
ENDBRANCH   1  71
TORSDOF 19
ENDMDL
