MODEL 1
REMARK VINA RESULT:     -10.6      0.000      0.000
REMARK SMILES C#CCN(CC(=O)OCCOC(=O)c1ccc(-c2c3nc(c(-c4cccc(S(=O)(=O)[O-])c4F)c4ccc([nH]4)c(-c4cccc(S(=O)(=O)[O-])c4F)c4nc(c(-c5cccc(S(=O)(=O)[O-])c5F)c5ccc2[nH]5)C=C4)C=C3)cc1)C(=O)Cc1csc(-c2ccsc2)n1
REMARK SMILES IDX 9 1 8 2 6 3 7 4 5 5 4 6 3 7 2 8 1 9 77 10 78 11 79 12 80 13
REMARK SMILES IDX 81 14 89 15 82 16 83 17 84 18 85 19 88 20 86 21 87 22 10 23
REMARK SMILES IDX 11 24 12 25 13 26 14 27 15 28 76 29 16 30 75 31 17 32 18 33
REMARK SMILES IDX 19 34 69 35 20 36 74 37 68 38 70 39 21 40 73 41 67 42 66 43
REMARK SMILES IDX 22 45 54 46 34 47 53 48 35 49 38 50 52 51 71 52 36 53 37 54
REMARK SMILES IDX 51 56 72 57 39 58 23 59 24 60 32 61 25 62 27 63 33 64 26 65
REMARK SMILES IDX 28 66 29 67 30 68 31 69 55 70 56 71 64 72 57 73 59 74 65 75
REMARK SMILES IDX 58 76 60 77 61 78 62 79 63 80 40 81 41 82 49 83 42 84 44 85
REMARK SMILES IDX 50 86 43 87 45 88 46 89 47 90 48 91
REMARK H PARENT 70 44 38 55
REMARK Flexibility Score: inf
ROOT
ATOM      1  C   UNL A   1      35.780  20.392  25.286  1.00  0.00     0.274 C 
ENDROOT
BRANCH   1   2
ATOM      2  O   UNL A   1      34.750  19.580  24.688  1.00  0.00    -0.461 OA
BRANCH   2   3
ATOM      3  C   UNL A   1      33.479  19.967  24.973  1.00  0.00     0.325 C 
ATOM      4  O   UNL A   1      32.563  19.204  25.262  1.00  0.00    -0.250 OA
BRANCH   3   5
ATOM      5  C   UNL A   1      33.304  21.479  25.040  1.00  0.00     0.243 C 
BRANCH   5   6
ATOM      6  N   UNL A   1      33.137  22.228  23.794  1.00  0.00    -0.320 N 
BRANCH   6   7
ATOM      7  C   UNL A   1      34.306  22.900  23.231  1.00  0.00     0.210 C 
BRANCH   7   8
ATOM      8  C   UNL A   1      34.877  23.743  24.359  1.00  0.00    -0.085 C 
ATOM      9  C   UNL A   1      35.367  24.466  25.327  1.00  0.00     0.006 C 
ENDBRANCH   7   8
ENDBRANCH   6   7
BRANCH   6  10
ATOM     10  C   UNL A   1      31.967  22.284  23.037  1.00  0.00     0.229 C 
ATOM     11  O   UNL A   1      31.722  21.408  22.201  1.00  0.00    -0.274 OA
BRANCH  10  12
ATOM     12  C   UNL A   1      30.948  23.389  23.299  1.00  0.00     0.157 C 
BRANCH  12  13
ATOM     13  C   UNL A   1      31.452  24.815  23.281  1.00  0.00     0.061 A 
ATOM     14  C   UNL A   1      31.616  25.676  22.213  1.00  0.00     0.091 A 
ATOM     15  N   UNL A   1      31.785  25.406  24.503  1.00  0.00    -0.241 NA
ATOM     16  S   UNL A   1      31.861  27.277  22.738  1.00  0.00    -0.122 S 
ATOM     17  C   UNL A   1      32.011  26.698  24.348  1.00  0.00     0.124 A 
BRANCH  17  18
ATOM     18  C   UNL A   1      32.436  27.608  25.458  1.00  0.00     0.021 A 
ATOM     19  C   UNL A   1      31.544  28.300  26.324  1.00  0.00     0.023 A 
ATOM     20  C   UNL A   1      33.756  27.837  25.790  1.00  0.00     0.076 A 
ATOM     21  C   UNL A   1      32.218  28.967  27.324  1.00  0.00     0.065 A 
ATOM     22  S   UNL A   1      33.914  28.849  27.158  1.00  0.00    -0.152 S 
ENDBRANCH  17  18
ENDBRANCH  12  13
ENDBRANCH  10  12
ENDBRANCH   6  10
ENDBRANCH   5   6
ENDBRANCH   3   5
ENDBRANCH   2   3
ENDBRANCH   1   2
BRANCH   1  23
ATOM     23  C   UNL A   1      37.164  19.832  24.962  1.00  0.00     0.275 C 
BRANCH  23  24
ATOM     24  O   UNL A   1      38.155  20.881  24.980  1.00  0.00    -0.458 OA
BRANCH  24  25
ATOM     25  C   UNL A   1      39.192  20.676  25.817  1.00  0.00     0.338 C 
ATOM     26  O   UNL A   1      39.785  19.615  26.006  1.00  0.00    -0.246 OA
BRANCH  25  27
ATOM     27  C   UNL A   1      39.593  21.915  26.505  1.00  0.00     0.060 A 
ATOM     28  C   UNL A   1      39.016  23.137  26.160  1.00  0.00     0.016 A 
ATOM     29  C   UNL A   1      40.689  21.886  27.373  1.00  0.00     0.016 A 
ATOM     30  C   UNL A   1      39.622  24.325  26.574  1.00  0.00     0.010 A 
ATOM     31  C   UNL A   1      41.215  23.077  27.881  1.00  0.00     0.010 A 
ATOM     32  C   UNL A   1      40.729  24.320  27.445  1.00  0.00    -0.014 A 
BRANCH  32  33
ATOM     33  C   UNL A   1      41.376  25.605  27.859  1.00  0.00     0.031 A 
ATOM     34  C   UNL A   1      42.795  25.939  27.456  1.00  0.00     0.074 A 
ATOM     35  C   UNL A   1      40.670  26.514  28.564  1.00  0.00     0.049 A 
ATOM     36  N   UNL A   1      43.523  26.980  27.785  1.00  0.00    -0.248 NA
ATOM     37  C   UNL A   1      43.498  24.982  26.583  1.00  0.00     0.031 C 
ATOM     38  C   UNL A   1      39.303  26.327  29.053  1.00  0.00     0.029 A 
ATOM     39  N   UNL A   1      40.990  27.788  28.969  1.00  0.00    -0.354 N 
ATOM     40  C   UNL A   1      44.757  26.801  27.170  1.00  0.00     0.074 A 
ATOM     41  C   UNL A   1      44.708  25.520  26.499  1.00  0.00     0.031 C 
ATOM     42  C   UNL A   1      38.873  27.468  29.611  1.00  0.00     0.029 A 
ATOM     43  C   UNL A   1      39.952  28.450  29.584  1.00  0.00     0.049 A 
ATOM     44  H   UNL A   1      41.878  28.191  28.831  1.00  0.00     0.167 HD
ATOM     45  C   UNL A   1      45.807  27.654  27.094  1.00  0.00     0.034 A 
ATOM     46  C   UNL A   1      39.864  29.704  30.071  1.00  0.00     0.034 A 
ATOM     47  C   UNL A   1      45.829  28.988  27.639  1.00  0.00     0.049 A 
ATOM     48  C   UNL A   1      41.060  30.610  30.002  1.00  0.00     0.074 A 
ATOM     49  C   UNL A   1      46.852  29.920  27.581  1.00  0.00     0.029 A 
ATOM     50  N   UNL A   1      44.769  29.603  28.286  1.00  0.00    -0.354 N 
ATOM     51  N   UNL A   1      42.221  30.405  29.431  1.00  0.00    -0.248 NA
ATOM     52  C   UNL A   1      40.932  31.927  30.645  1.00  0.00     0.031 C 
ATOM     53  C   UNL A   1      46.400  31.109  28.166  1.00  0.00     0.029 A 
ATOM     54  C   UNL A   1      45.102  30.910  28.601  1.00  0.00     0.049 A 
ATOM     55  H   UNL A   1      43.907  29.173  28.490  1.00  0.00     0.167 HD
ATOM     56  C   UNL A   1      42.954  31.567  29.630  1.00  0.00     0.074 A 
ATOM     57  C   UNL A   1      42.096  32.488  30.347  1.00  0.00     0.031 C 
ATOM     58  C   UNL A   1      44.234  31.836  29.279  1.00  0.00     0.034 A 
BRANCH  45  59
ATOM     59  C   UNL A   1      46.999  27.234  26.275  1.00  0.00     0.023 A 
ATOM     60  C   UNL A   1      47.913  26.315  26.828  1.00  0.00     0.012 A 
ATOM     61  C   UNL A   1      47.151  27.646  24.939  1.00  0.00     0.148 A 
ATOM     62  C   UNL A   1      48.967  25.817  26.065  1.00  0.00     0.002 A 
ATOM     63  C   UNL A   1      48.188  27.123  24.174  1.00  0.00     0.091 A 
ATOM     64  F   UNL A   1      46.284  28.538  24.440  1.00  0.00    -0.205 F 
ATOM     65  C   UNL A   1      49.097  26.210  24.735  1.00  0.00     0.022 A 
BRANCH  63  66
ATOM     66  S   UNL A   1      48.386  27.522  22.432  1.00  0.00     0.127 S 
ATOM     67  O   UNL A   1      49.550  28.404  22.461  1.00  0.00    -0.237 OA
ATOM     68  O   UNL A   1      48.631  26.210  21.833  1.00  0.00    -0.237 OA
ATOM     69  O   UNL A   1      47.130  28.140  22.029  1.00  0.00    -0.744 OA
ENDBRANCH  63  66
ENDBRANCH  45  59
BRANCH  46  70
ATOM     70  C   UNL A   1      38.565  30.207  30.602  1.00  0.00     0.023 A 
ATOM     71  C   UNL A   1      38.227  29.942  31.943  1.00  0.00     0.012 A 
ATOM     72  C   UNL A   1      37.689  30.980  29.820  1.00  0.00     0.148 A 
ATOM     73  C   UNL A   1      37.036  30.424  32.487  1.00  0.00     0.002 A 
ATOM     74  C   UNL A   1      36.537  31.513  30.388  1.00  0.00     0.091 A 
ATOM     75  F   UNL A   1      38.000  31.206  28.534  1.00  0.00    -0.205 F 
ATOM     76  C   UNL A   1      36.198  31.224  31.716  1.00  0.00     0.022 A 
BRANCH  74  77
ATOM     77  S   UNL A   1      35.543  32.687  29.463  1.00  0.00     0.127 S 
ATOM     78  O   UNL A   1      35.248  31.950  28.240  1.00  0.00    -0.237 OA
ATOM     79  O   UNL A   1      34.392  32.906  30.340  1.00  0.00    -0.237 OA
ATOM     80  O   UNL A   1      36.413  33.851  29.332  1.00  0.00    -0.744 OA
ENDBRANCH  74  77
ENDBRANCH  46  70
BRANCH  58  81
ATOM     81  C   UNL A   1      44.797  33.170  29.688  1.00  0.00     0.023 A 
ATOM     82  C   UNL A   1      45.489  33.265  30.912  1.00  0.00     0.012 A 
ATOM     83  C   UNL A   1      44.688  34.306  28.864  1.00  0.00     0.148 A 
ATOM     84  C   UNL A   1      46.042  34.478  31.323  1.00  0.00     0.002 A 
ATOM     85  C   UNL A   1      45.269  35.506  29.267  1.00  0.00     0.091 A 
ATOM     86  F   UNL A   1      44.005  34.206  27.714  1.00  0.00    -0.205 F 
ATOM     87  C   UNL A   1      45.940  35.594  30.498  1.00  0.00     0.022 A 
BRANCH  85  88
ATOM     88  S   UNL A   1      45.238  36.969  28.224  1.00  0.00     0.127 S 
ATOM     89  O   UNL A   1      43.809  37.124  27.966  1.00  0.00    -0.237 OA
ATOM     90  O   UNL A   1      45.814  37.995  29.093  1.00  0.00    -0.237 OA
ATOM     91  O   UNL A   1      46.062  36.636  27.069  1.00  0.00    -0.744 OA
ENDBRANCH  85  88
ENDBRANCH  58  81
ENDBRANCH  32  33
ENDBRANCH  25  27
ENDBRANCH  24  25
ENDBRANCH  23  24
ENDBRANCH   1  23
TORSDOF 21
ENDMDL
MODEL 2
REMARK VINA RESULT:     -10.5      2.068      3.448
REMARK SMILES C#CCN(CC(=O)OCCOC(=O)c1ccc(-c2c3nc(c(-c4cccc(S(=O)(=O)[O-])c4F)c4ccc([nH]4)c(-c4cccc(S(=O)(=O)[O-])c4F)c4nc(c(-c5cccc(S(=O)(=O)[O-])c5F)c5ccc2[nH]5)C=C4)C=C3)cc1)C(=O)Cc1csc(-c2ccsc2)n1
REMARK SMILES IDX 9 1 8 2 6 3 7 4 5 5 4 6 3 7 2 8 1 9 77 10 78 11 79 12 80 13
REMARK SMILES IDX 81 14 89 15 82 16 83 17 84 18 85 19 88 20 86 21 87 22 10 23
REMARK SMILES IDX 11 24 12 25 13 26 14 27 15 28 76 29 16 30 75 31 17 32 18 33
REMARK SMILES IDX 19 34 69 35 20 36 74 37 68 38 70 39 21 40 73 41 67 42 66 43
REMARK SMILES IDX 22 45 54 46 34 47 53 48 35 49 38 50 52 51 71 52 36 53 37 54
REMARK SMILES IDX 51 56 72 57 39 58 23 59 24 60 32 61 25 62 27 63 33 64 26 65
REMARK SMILES IDX 28 66 29 67 30 68 31 69 55 70 56 71 64 72 57 73 59 74 65 75
REMARK SMILES IDX 58 76 60 77 61 78 62 79 63 80 40 81 41 82 49 83 42 84 44 85
REMARK SMILES IDX 50 86 43 87 45 88 46 89 47 90 48 91
REMARK H PARENT 70 44 38 55
REMARK Flexibility Score: inf
ROOT
ATOM      1  C   UNL A   1      35.713  21.771  24.622  1.00  0.00     0.274 C 
ENDROOT
BRANCH   1   2
ATOM      2  O   UNL A   1      34.807  22.388  25.559  1.00  0.00    -0.461 OA
BRANCH   2   3
ATOM      3  C   UNL A   1      34.837  23.746  25.574  1.00  0.00     0.325 C 
ATOM      4  O   UNL A   1      35.525  24.439  24.831  1.00  0.00    -0.250 OA
BRANCH   3   5
ATOM      5  C   UNL A   1      33.818  24.367  26.520  1.00  0.00     0.243 C 
BRANCH   5   6
ATOM      6  N   UNL A   1      32.665  25.069  25.956  1.00  0.00    -0.320 N 
BRANCH   6   7
ATOM      7  C   UNL A   1      32.908  26.088  24.936  1.00  0.00     0.210 C 
BRANCH   7   8
ATOM      8  C   UNL A   1      33.510  27.272  25.675  1.00  0.00    -0.085 C 
ATOM      9  C   UNL A   1      34.027  28.287  26.308  1.00  0.00     0.006 C 
ENDBRANCH   7   8
ENDBRANCH   6   7
BRANCH   6  10
ATOM     10  C   UNL A   1      31.329  24.788  26.242  1.00  0.00     0.229 C 
ATOM     11  O   UNL A   1      30.543  25.702  26.514  1.00  0.00    -0.274 OA
BRANCH  10  12
ATOM     12  C   UNL A   1      30.818  23.354  26.140  1.00  0.00     0.157 C 
BRANCH  12  13
ATOM     13  C   UNL A   1      31.288  22.535  24.958  1.00  0.00     0.061 A 
ATOM     14  C   UNL A   1      31.402  22.895  23.628  1.00  0.00     0.091 A 
ATOM     15  N   UNL A   1      31.711  21.225  25.197  1.00  0.00    -0.241 NA
ATOM     16  S   UNL A   1      32.314  21.755  22.753  1.00  0.00    -0.122 S 
ATOM     17  C   UNL A   1      32.274  20.713  24.118  1.00  0.00     0.124 A 
BRANCH  17  18
ATOM     18  C   UNL A   1      32.790  19.311  24.032  1.00  0.00     0.021 A 
ATOM     19  C   UNL A   1      32.533  18.418  22.954  1.00  0.00     0.023 A 
ATOM     20  C   UNL A   1      33.620  18.747  24.979  1.00  0.00     0.076 A 
ATOM     21  C   UNL A   1      33.235  17.240  23.089  1.00  0.00     0.065 A 
ATOM     22  S   UNL A   1      34.112  17.167  24.553  1.00  0.00    -0.152 S 
ENDBRANCH  17  18
ENDBRANCH  12  13
ENDBRANCH  10  12
ENDBRANCH   6  10
ENDBRANCH   5   6
ENDBRANCH   3   5
ENDBRANCH   2   3
ENDBRANCH   1   2
BRANCH   1  23
ATOM     23  C   UNL A   1      36.729  20.895  25.351  1.00  0.00     0.275 C 
BRANCH  23  24
ATOM     24  O   UNL A   1      38.070  21.202  24.917  1.00  0.00    -0.458 OA
BRANCH  24  25
ATOM     25  C   UNL A   1      39.033  20.996  25.838  1.00  0.00     0.338 C 
ATOM     26  O   UNL A   1      39.560  19.921  26.123  1.00  0.00    -0.246 OA
BRANCH  25  27
ATOM     27  C   UNL A   1      39.442  22.250  26.493  1.00  0.00     0.060 A 
ATOM     28  C   UNL A   1      38.863  23.465  26.125  1.00  0.00     0.016 A 
ATOM     29  C   UNL A   1      40.546  22.240  27.352  1.00  0.00     0.016 A 
ATOM     30  C   UNL A   1      39.474  24.661  26.505  1.00  0.00     0.010 A 
ATOM     31  C   UNL A   1      41.078  23.442  27.826  1.00  0.00     0.010 A 
ATOM     32  C   UNL A   1      40.589  24.675  27.365  1.00  0.00    -0.014 A 
BRANCH  32  33
ATOM     33  C   UNL A   1      41.241  25.969  27.743  1.00  0.00     0.031 A 
ATOM     34  C   UNL A   1      42.609  26.345  27.217  1.00  0.00     0.074 A 
ATOM     35  C   UNL A   1      40.583  26.848  28.528  1.00  0.00     0.049 A 
ATOM     36  N   UNL A   1      43.339  27.398  27.497  1.00  0.00    -0.248 NA
ATOM     37  C   UNL A   1      43.249  25.422  26.264  1.00  0.00     0.031 C 
ATOM     38  C   UNL A   1      39.273  26.617  29.137  1.00  0.00     0.029 A 
ATOM     39  N   UNL A   1      40.909  28.122  28.926  1.00  0.00    -0.354 N 
ATOM     40  C   UNL A   1      44.515  27.261  26.767  1.00  0.00     0.074 A 
ATOM     41  C   UNL A   1      44.434  25.991  26.078  1.00  0.00     0.031 C 
ATOM     42  C   UNL A   1      38.869  27.737  29.755  1.00  0.00     0.029 A 
ATOM     43  C   UNL A   1      39.917  28.747  29.647  1.00  0.00     0.049 A 
ATOM     44  H   UNL A   1      41.771  28.549  28.714  1.00  0.00     0.167 HD
ATOM     45  C   UNL A   1      45.533  28.142  26.611  1.00  0.00     0.034 A 
ATOM     46  C   UNL A   1      39.846  29.990  30.165  1.00  0.00     0.034 A 
ATOM     47  C   UNL A   1      45.574  29.466  27.178  1.00  0.00     0.049 A 
ATOM     48  C   UNL A   1      41.009  30.927  30.003  1.00  0.00     0.074 A 
ATOM     49  C   UNL A   1      46.565  30.424  27.044  1.00  0.00     0.029 A 
ATOM     50  N   UNL A   1      44.565  30.042  27.932  1.00  0.00    -0.354 N 
ATOM     51  N   UNL A   1      42.116  30.760  29.323  1.00  0.00    -0.248 NA
ATOM     52  C   UNL A   1      40.910  32.229  30.680  1.00  0.00     0.031 C 
ATOM     53  C   UNL A   1      46.141  31.591  27.690  1.00  0.00     0.029 A 
ATOM     54  C   UNL A   1      44.895  31.352  28.240  1.00  0.00     0.049 A 
ATOM     55  H   UNL A   1      43.735  29.588  28.206  1.00  0.00     0.167 HD
ATOM     56  C   UNL A   1      42.836  31.937  29.476  1.00  0.00     0.074 A 
ATOM     57  C   UNL A   1      42.028  32.824  30.287  1.00  0.00     0.031 C 
ATOM     58  C   UNL A   1      44.072  32.244  29.013  1.00  0.00     0.034 A 
BRANCH  45  59
ATOM     59  C   UNL A   1      46.653  27.766  25.678  1.00  0.00     0.023 A 
ATOM     60  C   UNL A   1      46.520  28.057  24.305  1.00  0.00     0.012 A 
ATOM     61  C   UNL A   1      47.866  27.243  26.162  1.00  0.00     0.148 A 
ATOM     62  C   UNL A   1      47.576  27.827  23.426  1.00  0.00     0.002 A 
ATOM     63  C   UNL A   1      48.925  27.043  25.283  1.00  0.00     0.091 A 
ATOM     64  F   UNL A   1      47.964  26.953  27.467  1.00  0.00    -0.205 F 
ATOM     65  C   UNL A   1      48.782  27.332  23.916  1.00  0.00     0.022 A 
BRANCH  63  66
ATOM     66  S   UNL A   1      50.537  26.477  25.844  1.00  0.00     0.127 S 
ATOM     67  O   UNL A   1      51.284  26.421  24.590  1.00  0.00    -0.237 OA
ATOM     68  O   UNL A   1      50.950  27.548  26.752  1.00  0.00    -0.237 OA
ATOM     69  O   UNL A   1      50.296  25.197  26.497  1.00  0.00    -0.744 OA
ENDBRANCH  63  66
ENDBRANCH  45  59
BRANCH  46  70
ATOM     70  C   UNL A   1      38.590  30.451  30.823  1.00  0.00     0.023 A 
ATOM     71  C   UNL A   1      38.435  30.255  32.209  1.00  0.00     0.012 A 
ATOM     72  C   UNL A   1      37.578  31.118  30.112  1.00  0.00     0.148 A 
ATOM     73  C   UNL A   1      37.290  30.703  32.868  1.00  0.00     0.002 A 
ATOM     74  C   UNL A   1      36.470  31.619  30.788  1.00  0.00     0.091 A 
ATOM     75  F   UNL A   1      37.715  31.277  28.787  1.00  0.00    -0.205 F 
ATOM     76  C   UNL A   1      36.313  31.400  32.162  1.00  0.00     0.022 A 
BRANCH  74  77
ATOM     77  S   UNL A   1      35.296  32.671  29.927  1.00  0.00     0.127 S 
ATOM     78  O   UNL A   1      36.144  33.754  29.444  1.00  0.00    -0.237 OA
ATOM     79  O   UNL A   1      34.772  31.789  28.882  1.00  0.00    -0.237 OA
ATOM     80  O   UNL A   1      34.319  33.013  30.954  1.00  0.00    -0.744 OA
ENDBRANCH  74  77
ENDBRANCH  46  70
BRANCH  58  81
ATOM     81  C   UNL A   1      44.639  33.585  29.394  1.00  0.00     0.023 A 
ATOM     82  C   UNL A   1      45.442  33.676  30.548  1.00  0.00     0.012 A 
ATOM     83  C   UNL A   1      44.424  34.732  28.608  1.00  0.00     0.148 A 
ATOM     84  C   UNL A   1      46.002  34.895  30.930  1.00  0.00     0.002 A 
ATOM     85  C   UNL A   1      45.012  35.939  28.979  1.00  0.00     0.091 A 
ATOM     86  F   UNL A   1      43.638  34.635  27.527  1.00  0.00    -0.205 F 
ATOM     87  C   UNL A   1      45.795  36.023  30.142  1.00  0.00     0.022 A 
BRANCH  85  88
ATOM     88  S   UNL A   1      44.846  37.420  27.974  1.00  0.00     0.127 S 
ATOM     89  O   UNL A   1      45.438  36.993  26.708  1.00  0.00    -0.237 OA
ATOM     90  O   UNL A   1      43.396  37.618  27.931  1.00  0.00    -0.237 OA
ATOM     91  O   UNL A   1      45.567  38.460  28.696  1.00  0.00    -0.744 OA
ENDBRANCH  85  88
ENDBRANCH  58  81
ENDBRANCH  32  33
ENDBRANCH  25  27
ENDBRANCH  24  25
ENDBRANCH  23  24
ENDBRANCH   1  23
TORSDOF 21
ENDMDL
MODEL 3
REMARK VINA RESULT:     -10.4      1.615      7.683
REMARK SMILES C#CCN(CC(=O)OCCOC(=O)c1ccc(-c2c3nc(c(-c4cccc(S(=O)(=O)[O-])c4F)c4ccc([nH]4)c(-c4cccc(S(=O)(=O)[O-])c4F)c4nc(c(-c5cccc(S(=O)(=O)[O-])c5F)c5ccc2[nH]5)C=C4)C=C3)cc1)C(=O)Cc1csc(-c2ccsc2)n1
REMARK SMILES IDX 9 1 8 2 6 3 7 4 5 5 4 6 3 7 2 8 1 9 77 10 78 11 79 12 80 13
REMARK SMILES IDX 81 14 89 15 82 16 83 17 84 18 85 19 88 20 86 21 87 22 10 23
REMARK SMILES IDX 11 24 12 25 13 26 14 27 15 28 76 29 16 30 75 31 17 32 18 33
REMARK SMILES IDX 19 34 69 35 20 36 74 37 68 38 70 39 21 40 73 41 67 42 66 43
REMARK SMILES IDX 22 45 54 46 34 47 53 48 35 49 38 50 52 51 71 52 36 53 37 54
REMARK SMILES IDX 51 56 72 57 39 58 23 59 24 60 32 61 25 62 27 63 33 64 26 65
REMARK SMILES IDX 28 66 29 67 30 68 31 69 55 70 56 71 64 72 57 73 59 74 65 75
REMARK SMILES IDX 58 76 60 77 61 78 62 79 63 80 40 81 41 82 49 83 42 84 44 85
REMARK SMILES IDX 50 86 43 87 45 88 46 89 47 90 48 91
REMARK H PARENT 70 44 38 55
REMARK Flexibility Score: inf
ROOT
ATOM      1  C   UNL A   1      34.743  20.519  24.914  1.00  0.00     0.274 C 
ENDROOT
BRANCH   1   2
ATOM      2  O   UNL A   1      34.223  21.546  24.046  1.00  0.00    -0.461 OA
BRANCH   2   3
ATOM      3  C   UNL A   1      32.868  21.632  24.010  1.00  0.00     0.325 C 
ATOM      4  O   UNL A   1      32.196  21.672  22.984  1.00  0.00    -0.250 OA
BRANCH   3   5
ATOM      5  C   UNL A   1      32.215  21.535  25.382  1.00  0.00     0.243 C 
BRANCH   5   6
ATOM      6  N   UNL A   1      32.049  22.754  26.174  1.00  0.00    -0.320 N 
BRANCH   6   7
ATOM      7  C   UNL A   1      33.166  23.192  27.009  1.00  0.00     0.210 C 
BRANCH   7   8
ATOM      8  C   UNL A   1      34.016  24.085  26.121  1.00  0.00    -0.085 C 
ATOM      9  C   UNL A   1      34.746  24.850  25.359  1.00  0.00     0.006 C 
ENDBRANCH   7   8
ENDBRANCH   6   7
BRANCH   6  10
ATOM     10  C   UNL A   1      30.939  23.598  26.135  1.00  0.00     0.229 C 
ATOM     11  O   UNL A   1      30.235  23.750  27.139  1.00  0.00    -0.274 OA
BRANCH  10  12
ATOM     12  C   UNL A   1      30.642  24.400  24.872  1.00  0.00     0.157 C 
BRANCH  12  13
ATOM     13  C   UNL A   1      30.745  25.906  24.967  1.00  0.00     0.061 A 
ATOM     14  C   UNL A   1      31.569  26.682  25.761  1.00  0.00     0.091 A 
ATOM     15  N   UNL A   1      29.932  26.672  24.128  1.00  0.00    -0.241 NA
ATOM     16  S   UNL A   1      31.573  28.306  25.249  1.00  0.00    -0.122 S 
ATOM     17  C   UNL A   1      30.277  27.946  24.182  1.00  0.00     0.124 A 
BRANCH  17  18
ATOM     18  C   UNL A   1      29.570  29.033  23.435  1.00  0.00     0.021 A 
ATOM     19  C   UNL A   1      28.586  28.817  22.430  1.00  0.00     0.023 A 
ATOM     20  C   UNL A   1      29.767  30.377  23.681  1.00  0.00     0.076 A 
ATOM     21  C   UNL A   1      28.022  30.001  22.005  1.00  0.00     0.065 A 
ATOM     22  S   UNL A   1      28.748  31.367  22.732  1.00  0.00    -0.152 S 
ENDBRANCH  17  18
ENDBRANCH  12  13
ENDBRANCH  10  12
ENDBRANCH   6  10
ENDBRANCH   5   6
ENDBRANCH   3   5
ENDBRANCH   2   3
ENDBRANCH   1   2
BRANCH   1  23
ATOM     23  C   UNL A   1      35.919  21.049  25.732  1.00  0.00     0.275 C 
BRANCH  23  24
ATOM     24  O   UNL A   1      37.067  21.273  24.887  1.00  0.00    -0.458 OA
BRANCH  24  25
ATOM     25  C   UNL A   1      38.262  21.047  25.470  1.00  0.00     0.338 C 
ATOM     26  O   UNL A   1      38.885  19.985  25.483  1.00  0.00    -0.246 OA
BRANCH  25  27
ATOM     27  C   UNL A   1      38.799  22.261  26.107  1.00  0.00     0.060 A 
ATOM     28  C   UNL A   1      38.151  23.487  25.957  1.00  0.00     0.016 A 
ATOM     29  C   UNL A   1      40.062  22.213  26.705  1.00  0.00     0.016 A 
ATOM     30  C   UNL A   1      38.827  24.666  26.278  1.00  0.00     0.010 A 
ATOM     31  C   UNL A   1      40.682  23.390  27.135  1.00  0.00     0.010 A 
ATOM     32  C   UNL A   1      40.102  24.641  26.877  1.00  0.00    -0.014 A 
BRANCH  32  33
ATOM     33  C   UNL A   1      40.816  25.919  27.193  1.00  0.00     0.031 A 
ATOM     34  C   UNL A   1      40.185  26.980  28.068  1.00  0.00     0.074 A 
ATOM     35  C   UNL A   1      42.070  26.117  26.734  1.00  0.00     0.049 A 
ATOM     36  N   UNL A   1      40.644  28.167  28.385  1.00  0.00    -0.248 NA
ATOM     37  C   UNL A   1      38.867  26.682  28.655  1.00  0.00     0.031 C 
ATOM     38  C   UNL A   1      42.801  25.203  25.856  1.00  0.00     0.029 A 
ATOM     39  N   UNL A   1      42.965  27.135  26.964  1.00  0.00    -0.354 N 
ATOM     40  C   UNL A   1      39.677  28.753  29.195  1.00  0.00     0.074 A 
ATOM     41  C   UNL A   1      38.574  27.820  29.272  1.00  0.00     0.031 C 
ATOM     42  C   UNL A   1      44.054  25.654  25.692  1.00  0.00     0.029 A 
ATOM     43  C   UNL A   1      44.200  26.924  26.396  1.00  0.00     0.049 A 
ATOM     44  H   UNL A   1      42.743  27.940  27.487  1.00  0.00     0.167 HD
ATOM     45  C   UNL A   1      39.729  29.919  29.884  1.00  0.00     0.034 A 
ATOM     46  C   UNL A   1      45.331  27.658  26.434  1.00  0.00     0.034 A 
ATOM     47  C   UNL A   1      40.869  30.800  29.931  1.00  0.00     0.049 A 
ATOM     48  C   UNL A   1      45.341  28.963  27.177  1.00  0.00     0.074 A 
ATOM     49  C   UNL A   1      41.003  31.989  30.627  1.00  0.00     0.029 A 
ATOM     50  N   UNL A   1      42.085  30.564  29.311  1.00  0.00    -0.354 N 
ATOM     51  N   UNL A   1      44.404  29.500  27.917  1.00  0.00    -0.248 NA
ATOM     52  C   UNL A   1      46.572  29.765  27.091  1.00  0.00     0.031 C 
ATOM     53  C   UNL A   1      42.311  32.458  30.453  1.00  0.00     0.029 A 
ATOM     54  C   UNL A   1      42.984  31.568  29.636  1.00  0.00     0.049 A 
ATOM     55  H   UNL A   1      42.282  29.796  28.727  1.00  0.00     0.167 HD
ATOM     56  C   UNL A   1      44.934  30.690  28.398  1.00  0.00     0.074 A 
ATOM     57  C   UNL A   1      46.288  30.783  27.891  1.00  0.00     0.031 C 
ATOM     58  C   UNL A   1      44.341  31.637  29.163  1.00  0.00     0.034 A 
BRANCH  45  59
ATOM     59  C   UNL A   1      38.562  30.269  30.767  1.00  0.00     0.023 A 
ATOM     60  C   UNL A   1      38.587  29.868  32.117  1.00  0.00     0.012 A 
ATOM     61  C   UNL A   1      37.511  31.083  30.304  1.00  0.00     0.148 A 
ATOM     62  C   UNL A   1      37.580  30.266  32.994  1.00  0.00     0.002 A 
ATOM     63  C   UNL A   1      36.525  31.500  31.192  1.00  0.00     0.091 A 
ATOM     64  F   UNL A   1      37.495  31.435  29.010  1.00  0.00    -0.205 F 
ATOM     65  C   UNL A   1      36.557  31.091  32.535  1.00  0.00     0.022 A 
BRANCH  63  66
ATOM     66  S   UNL A   1      35.211  32.623  30.699  1.00  0.00     0.127 S 
ATOM     67  O   UNL A   1      34.625  31.914  29.564  1.00  0.00    -0.237 OA
ATOM     68  O   UNL A   1      34.366  32.665  31.893  1.00  0.00    -0.237 OA
ATOM     69  O   UNL A   1      35.870  33.884  30.387  1.00  0.00    -0.744 OA
ENDBRANCH  63  66
ENDBRANCH  45  59
BRANCH  46  70
ATOM     70  C   UNL A   1      46.578  27.136  25.806  1.00  0.00     0.023 A 
ATOM     71  C   UNL A   1      47.278  26.093  26.443  1.00  0.00     0.012 A 
ATOM     72  C   UNL A   1      47.051  27.619  24.574  1.00  0.00     0.148 A 
ATOM     73  C   UNL A   1      48.431  25.554  25.871  1.00  0.00     0.002 A 
ATOM     74  C   UNL A   1      48.162  27.032  23.978  1.00  0.00     0.091 A 
ATOM     75  F   UNL A   1      46.399  28.633  23.983  1.00  0.00    -0.205 F 
ATOM     76  C   UNL A   1      48.865  26.011  24.630  1.00  0.00     0.022 A 
BRANCH  74  77
ATOM     77  S   UNL A   1      48.625  27.487  22.303  1.00  0.00     0.127 S 
ATOM     78  O   UNL A   1      48.747  26.189  21.651  1.00  0.00    -0.237 OA
ATOM     79  O   UNL A   1      47.489  28.295  21.857  1.00  0.00    -0.237 OA
ATOM     80  O   UNL A   1      49.857  28.249  22.479  1.00  0.00    -0.744 OA
ENDBRANCH  74  77
ENDBRANCH  46  70
BRANCH  58  81
ATOM     81  C   UNL A   1      45.142  32.871  29.480  1.00  0.00     0.023 A 
ATOM     82  C   UNL A   1      45.989  32.857  30.605  1.00  0.00     0.012 A 
ATOM     83  C   UNL A   1      45.098  34.015  28.661  1.00  0.00     0.148 A 
ATOM     84  C   UNL A   1      46.762  33.972  30.927  1.00  0.00     0.002 A 
ATOM     85  C   UNL A   1      45.896  35.113  28.971  1.00  0.00     0.091 A 
ATOM     86  F   UNL A   1      44.268  34.023  27.608  1.00  0.00    -0.205 F 
ATOM     87  C   UNL A   1      46.723  35.095  30.106  1.00  0.00     0.022 A 
BRANCH  85  88
ATOM     88  S   UNL A   1      45.949  36.570  27.920  1.00  0.00     0.127 S 
ATOM     89  O   UNL A   1      44.575  37.057  28.009  1.00  0.00    -0.237 OA
ATOM     90  O   UNL A   1      46.939  37.414  28.592  1.00  0.00    -0.237 OA
ATOM     91  O   UNL A   1      46.370  36.086  26.611  1.00  0.00    -0.744 OA
ENDBRANCH  85  88
ENDBRANCH  58  81
ENDBRANCH  32  33
ENDBRANCH  25  27
ENDBRANCH  24  25
ENDBRANCH  23  24
ENDBRANCH   1  23
TORSDOF 21
ENDMDL
