MODEL 1
REMARK VINA RESULT:      -9.2      0.000      0.000
REMARK SMILES CC[C@](C)(NS(=O)(=O)c1ccc(C(=O)OC)cc1)C(=O)OCCOC(=O)c1ccc(-c2c3nc(c(-c4cccc(S(=O)(=O)[O-])c4F)c4ccc([nH]4)c(-c4cccc(S(=O)(=O)[O-])c4F)c4nc(c(-c5cccc(S(=O)(=O)[O-])c5F)c5ccc2[nH]5)C=C4)C=C3)cc1
REMARK SMILES IDX 22 1 21 2 19 3 20 4 3 5 4 6 2 7 1 8 5 9 6 11 7 12 8 13 9 14
REMARK SMILES IDX 10 15 18 16 11 17 17 18 12 19 13 20 14 21 15 22 16 23 23 24
REMARK SMILES IDX 24 25 25 26 26 27 27 28 28 29 89 30 29 31 88 32 30 33 31 34
REMARK SMILES IDX 32 35 82 36 33 37 87 38 81 39 83 40 34 41 86 42 80 43 79 44
REMARK SMILES IDX 35 46 67 47 47 48 66 49 48 50 51 51 65 52 84 53 49 54 50 55
REMARK SMILES IDX 64 57 85 58 52 59 36 60 37 61 45 62 38 63 40 64 46 65 39 66
REMARK SMILES IDX 41 67 42 68 43 69 44 70 68 71 69 72 77 73 70 74 72 75 78 76
REMARK SMILES IDX 71 77 73 78 74 79 75 80 76 81 53 82 54 83 62 84 55 85 57 86
REMARK SMILES IDX 63 87 56 88 58 89 59 90 60 91 61 92
REMARK H PARENT 5 10 83 45 51 56
REMARK Flexibility Score: inf
ROOT
ATOM      1  C   UNL A   1      42.068  19.672  26.399  1.00  0.00     0.274 C 
ENDROOT
BRANCH   1   2
ATOM      2  O   UNL A   1      42.932  20.066  25.306  1.00  0.00    -0.461 OA
BRANCH   2   3
ATOM      3  C   UNL A   1      43.921  20.953  25.590  1.00  0.00     0.327 C 
ATOM      4  O   UNL A   1      43.929  21.641  26.604  1.00  0.00    -0.250 OA
BRANCH   3   5
ATOM      5  C   UNL A   1      45.047  20.968  24.535  1.00  0.00     0.127 C 
ATOM      6  C   UNL A   1      44.551  20.201  23.283  1.00  0.00     0.042 C 
BRANCH   5   7
ATOM      7  C   UNL A   1      46.290  20.236  25.099  1.00  0.00     0.032 C 
ATOM      8  C   UNL A   1      46.110  18.759  25.462  1.00  0.00     0.006 C 
ENDBRANCH   5   7
BRANCH   5   9
ATOM      9  N   UNL A   1      45.376  22.325  23.984  1.00  0.00    -0.194 NA
ATOM     10  H   UNL A   1      44.471  22.760  23.805  1.00  0.00     0.142 HD
BRANCH   9  11
ATOM     11  S   UNL A   1      46.291  23.524  24.707  1.00  0.00     0.241 S 
ATOM     12  O   UNL A   1      46.798  23.080  25.987  1.00  0.00    -0.207 OA
ATOM     13  O   UNL A   1      47.195  24.008  23.690  1.00  0.00    -0.207 OA
BRANCH  11  14
ATOM     14  C   UNL A   1      45.136  24.837  25.013  1.00  0.00     0.082 A 
ATOM     15  C   UNL A   1      45.623  26.129  25.255  1.00  0.00     0.022 A 
ATOM     16  C   UNL A   1      43.765  24.570  25.054  1.00  0.00     0.022 A 
ATOM     17  C   UNL A   1      44.725  27.178  25.455  1.00  0.00     0.017 A 
ATOM     18  C   UNL A   1      42.868  25.627  25.228  1.00  0.00     0.017 A 
ATOM     19  C   UNL A   1      43.348  26.934  25.393  1.00  0.00     0.060 A 
BRANCH  19  20
ATOM     20  C   UNL A   1      42.433  28.100  25.417  1.00  0.00     0.337 C 
ATOM     21  O   UNL A   1      41.230  28.033  25.270  1.00  0.00    -0.246 OA
BRANCH  20  22
ATOM     22  O   UNL A   1      43.153  29.197  25.770  1.00  0.00    -0.465 OA
ATOM     23  C   UNL A   1      42.690  29.844  26.957  1.00  0.00     0.282 C 
ENDBRANCH  20  22
ENDBRANCH  19  20
ENDBRANCH  11  14
ENDBRANCH   9  11
ENDBRANCH   5   9
ENDBRANCH   3   5
ENDBRANCH   2   3
ENDBRANCH   1   2
BRANCH   1  24
ATOM     24  C   UNL A   1      40.636  20.139  26.118  1.00  0.00     0.275 C 
BRANCH  24  25
ATOM     25  O   UNL A   1      40.629  21.547  25.830  1.00  0.00    -0.458 OA
BRANCH  25  26
ATOM     26  C   UNL A   1      39.484  22.192  26.148  1.00  0.00     0.338 C 
ATOM     27  O   UNL A   1      38.343  21.758  26.115  1.00  0.00    -0.246 OA
BRANCH  26  28
ATOM     28  C   UNL A   1      39.883  23.393  26.890  1.00  0.00     0.060 A 
ATOM     29  C   UNL A   1      40.930  23.237  27.798  1.00  0.00     0.016 A 
ATOM     30  C   UNL A   1      39.316  24.643  26.667  1.00  0.00     0.016 A 
ATOM     31  C   UNL A   1      41.396  24.309  28.536  1.00  0.00     0.010 A 
ATOM     32  C   UNL A   1      39.821  25.740  27.372  1.00  0.00     0.010 A 
ATOM     33  C   UNL A   1      40.861  25.576  28.308  1.00  0.00    -0.014 A 
BRANCH  33  34
ATOM     34  C   UNL A   1      41.411  26.740  29.033  1.00  0.00     0.031 A 
ATOM     35  C   UNL A   1      40.474  27.772  29.578  1.00  0.00     0.074 A 
ATOM     36  C   UNL A   1      42.745  26.875  29.149  1.00  0.00     0.049 A 
ATOM     37  N   UNL A   1      40.742  28.958  30.047  1.00  0.00    -0.248 NA
ATOM     38  C   UNL A   1      39.040  27.429  29.581  1.00  0.00     0.031 C 
ATOM     39  C   UNL A   1      43.739  25.904  28.680  1.00  0.00     0.029 A 
ATOM     40  N   UNL A   1      43.500  27.898  29.664  1.00  0.00    -0.354 N 
ATOM     41  C   UNL A   1      39.512  29.537  30.327  1.00  0.00     0.074 A 
ATOM     42  C   UNL A   1      38.495  28.559  30.010  1.00  0.00     0.031 C 
ATOM     43  C   UNL A   1      44.969  26.393  28.897  1.00  0.00     0.029 A 
ATOM     44  C   UNL A   1      44.851  27.735  29.452  1.00  0.00     0.049 A 
ATOM     45  H   UNL A   1      43.115  28.672  30.136  1.00  0.00     0.167 HD
ATOM     46  C   UNL A   1      39.266  30.778  30.801  1.00  0.00     0.034 A 
ATOM     47  C   UNL A   1      45.871  28.597  29.626  1.00  0.00     0.034 A 
ATOM     48  C   UNL A   1      40.297  31.710  31.165  1.00  0.00     0.049 A 
ATOM     49  C   UNL A   1      45.562  29.971  30.153  1.00  0.00     0.074 A 
ATOM     50  C   UNL A   1      40.162  32.966  31.725  1.00  0.00     0.029 A 
ATOM     51  N   UNL A   1      41.656  31.487  30.996  1.00  0.00    -0.354 N 
ATOM     52  N   UNL A   1      44.402  30.477  30.502  1.00  0.00    -0.248 NA
ATOM     53  C   UNL A   1      46.694  30.891  30.317  1.00  0.00     0.031 C 
ATOM     54  C   UNL A   1      41.440  33.514  31.872  1.00  0.00     0.029 A 
ATOM     55  C   UNL A   1      42.371  32.591  31.420  1.00  0.00     0.049 A 
ATOM     56  H   UNL A   1      42.051  30.664  30.628  1.00  0.00     0.167 HD
ATOM     57  C   UNL A   1      44.667  31.769  30.938  1.00  0.00     0.074 A 
ATOM     58  C   UNL A   1      46.100  31.955  30.842  1.00  0.00     0.031 C 
ATOM     59  C   UNL A   1      43.803  32.726  31.355  1.00  0.00     0.034 A 
BRANCH  46  60
ATOM     60  C   UNL A   1      37.834  31.207  30.952  1.00  0.00     0.023 A 
ATOM     61  C   UNL A   1      37.151  30.977  32.161  1.00  0.00     0.012 A 
ATOM     62  C   UNL A   1      37.189  31.906  29.912  1.00  0.00     0.148 A 
ATOM     63  C   UNL A   1      35.841  31.424  32.330  1.00  0.00     0.002 A 
ATOM     64  C   UNL A   1      35.898  32.381  30.100  1.00  0.00     0.091 A 
ATOM     65  F   UNL A   1      37.852  32.091  28.761  1.00  0.00    -0.205 F 
ATOM     66  C   UNL A   1      35.220  32.135  31.305  1.00  0.00     0.022 A 
BRANCH  64  67
ATOM     67  S   UNL A   1      35.033  33.360  28.867  1.00  0.00     0.127 S 
ATOM     68  O   UNL A   1      34.925  32.412  27.760  1.00  0.00    -0.237 OA
ATOM     69  O   UNL A   1      33.770  33.656  29.544  1.00  0.00    -0.237 OA
ATOM     70  O   UNL A   1      35.875  34.521  28.609  1.00  0.00    -0.744 OA
ENDBRANCH  64  67
ENDBRANCH  46  60
BRANCH  47  71
ATOM     71  C   UNL A   1      47.262  28.195  29.272  1.00  0.00     0.023 A 
ATOM     72  C   UNL A   1      48.016  27.423  30.176  1.00  0.00     0.012 A 
ATOM     73  C   UNL A   1      47.833  28.546  28.031  1.00  0.00     0.148 A 
ATOM     74  C   UNL A   1      49.320  27.032  29.862  1.00  0.00     0.002 A 
ATOM     75  C   UNL A   1      49.108  28.101  27.700  1.00  0.00     0.091 A 
ATOM     76  F   UNL A   1      47.116  29.305  27.189  1.00  0.00    -0.205 F 
ATOM     77  C   UNL A   1      49.860  27.358  28.621  1.00  0.00     0.022 A 
BRANCH  75  78
ATOM     78  S   UNL A   1      49.799  28.357  26.061  1.00  0.00     0.127 S 
ATOM     79  O   UNL A   1      50.102  29.785  26.081  1.00  0.00    -0.237 OA
ATOM     80  O   UNL A   1      50.971  27.479  26.076  1.00  0.00    -0.237 OA
ATOM     81  O   UNL A   1      48.754  27.932  25.137  1.00  0.00    -0.744 OA
ENDBRANCH  75  78
ENDBRANCH  47  71
BRANCH  59  82
ATOM     82  C   UNL A   1      44.385  34.056  31.746  1.00  0.00     0.023 A 
ATOM     83  C   UNL A   1      44.921  34.223  33.037  1.00  0.00     0.012 A 
ATOM     84  C   UNL A   1      44.481  35.102  30.809  1.00  0.00     0.148 A 
ATOM     85  C   UNL A   1      45.527  35.424  33.399  1.00  0.00     0.002 A 
ATOM     86  C   UNL A   1      45.127  36.280  31.163  1.00  0.00     0.091 A 
ATOM     87  F   UNL A   1      43.945  34.924  29.593  1.00  0.00    -0.205 F 
ATOM     88  C   UNL A   1      45.642  36.446  32.459  1.00  0.00     0.022 A 
BRANCH  86  89
ATOM     89  S   UNL A   1      45.406  37.611  29.991  1.00  0.00     0.127 S 
ATOM     90  O   UNL A   1      44.038  38.015  29.668  1.00  0.00    -0.237 OA
ATOM     91  O   UNL A   1      46.155  38.579  30.792  1.00  0.00    -0.237 OA
ATOM     92  O   UNL A   1      46.159  37.026  28.890  1.00  0.00    -0.744 OA
ENDBRANCH  86  89
ENDBRANCH  59  82
ENDBRANCH  33  34
ENDBRANCH  26  28
ENDBRANCH  25  26
ENDBRANCH  24  25
ENDBRANCH   1  24
TORSDOF 20
ENDMDL
MODEL 2
REMARK VINA RESULT:      -8.2      4.369      7.080
REMARK SMILES CC[C@](C)(NS(=O)(=O)c1ccc(C(=O)OC)cc1)C(=O)OCCOC(=O)c1ccc(-c2c3nc(c(-c4cccc(S(=O)(=O)[O-])c4F)c4ccc([nH]4)c(-c4cccc(S(=O)(=O)[O-])c4F)c4nc(c(-c5cccc(S(=O)(=O)[O-])c5F)c5ccc2[nH]5)C=C4)C=C3)cc1
REMARK SMILES IDX 22 1 21 2 19 3 20 4 3 5 4 6 2 7 1 8 5 9 6 11 7 12 8 13 9 14
REMARK SMILES IDX 10 15 18 16 11 17 17 18 12 19 13 20 14 21 15 22 16 23 23 24
REMARK SMILES IDX 24 25 25 26 26 27 27 28 28 29 89 30 29 31 88 32 30 33 31 34
REMARK SMILES IDX 32 35 82 36 33 37 87 38 81 39 83 40 34 41 86 42 80 43 79 44
REMARK SMILES IDX 35 46 67 47 47 48 66 49 48 50 51 51 65 52 84 53 49 54 50 55
REMARK SMILES IDX 64 57 85 58 52 59 36 60 37 61 45 62 38 63 40 64 46 65 39 66
REMARK SMILES IDX 41 67 42 68 43 69 44 70 68 71 69 72 77 73 70 74 72 75 78 76
REMARK SMILES IDX 71 77 73 78 74 79 75 80 76 81 53 82 54 83 62 84 55 85 57 86
REMARK SMILES IDX 63 87 56 88 58 89 59 90 60 91 61 92
REMARK H PARENT 5 10 83 45 51 56
REMARK Flexibility Score: inf
ROOT
ATOM      1  C   UNL A   1      45.332  22.451  25.432  1.00  0.00     0.274 C 
ENDROOT
BRANCH   1   2
ATOM      2  O   UNL A   1      44.357  22.435  26.502  1.00  0.00    -0.461 OA
BRANCH   2   3
ATOM      3  C   UNL A   1      43.057  22.618  26.155  1.00  0.00     0.327 C 
ATOM      4  O   UNL A   1      42.653  22.516  25.003  1.00  0.00    -0.250 OA
BRANCH   3   5
ATOM      5  C   UNL A   1      42.141  22.919  27.361  1.00  0.00     0.127 C 
ATOM      6  C   UNL A   1      42.923  22.592  28.659  1.00  0.00     0.042 C 
BRANCH   5   7
ATOM      7  C   UNL A   1      40.891  22.007  27.297  1.00  0.00     0.032 C 
ATOM      8  C   UNL A   1      41.132  20.501  27.437  1.00  0.00     0.006 C 
ENDBRANCH   5   7
BRANCH   5   9
ATOM      9  N   UNL A   1      41.791  24.367  27.541  1.00  0.00    -0.194 NA
ATOM     10  H   UNL A   1      42.686  24.856  27.517  1.00  0.00     0.142 HD
BRANCH   9  11
ATOM     11  S   UNL A   1      40.772  25.295  26.594  1.00  0.00     0.241 S 
ATOM     12  O   UNL A   1      41.420  25.664  25.353  1.00  0.00    -0.207 OA
ATOM     13  O   UNL A   1      39.501  24.609  26.579  1.00  0.00    -0.207 OA
BRANCH  11  14
ATOM     14  C   UNL A   1      40.525  26.781  27.533  1.00  0.00     0.082 A 
ATOM     15  C   UNL A   1      40.581  28.019  26.877  1.00  0.00     0.022 A 
ATOM     16  C   UNL A   1      40.321  26.712  28.914  1.00  0.00     0.022 A 
ATOM     17  C   UNL A   1      40.346  29.191  27.596  1.00  0.00     0.017 A 
ATOM     18  C   UNL A   1      40.060  27.886  29.626  1.00  0.00     0.017 A 
ATOM     19  C   UNL A   1      40.039  29.119  28.960  1.00  0.00     0.060 A 
BRANCH  19  20
ATOM     20  C   UNL A   1      39.608  30.363  29.642  1.00  0.00     0.337 C 
ATOM     21  O   UNL A   1      40.217  30.896  30.547  1.00  0.00    -0.246 OA
BRANCH  20  22
ATOM     22  O   UNL A   1      38.524  30.853  28.987  1.00  0.00    -0.465 OA
ATOM     23  C   UNL A   1      37.732  31.756  29.760  1.00  0.00     0.282 C 
ENDBRANCH  20  22
ENDBRANCH  19  20
ENDBRANCH  11  14
ENDBRANCH   9  11
ENDBRANCH   5   9
ENDBRANCH   3   5
ENDBRANCH   2   3
ENDBRANCH   1   2
BRANCH   1  24
ATOM     24  C   UNL A   1      46.297  23.624  25.632  1.00  0.00     0.275 C 
BRANCH  24  25
ATOM     25  O   UNL A   1      45.994  24.671  24.695  1.00  0.00    -0.458 OA
BRANCH  25  26
ATOM     26  C   UNL A   1      46.771  25.773  24.795  1.00  0.00     0.338 C 
ATOM     27  O   UNL A   1      47.624  26.164  24.014  1.00  0.00    -0.246 OA
BRANCH  26  28
ATOM     28  C   UNL A   1      46.157  26.616  25.828  1.00  0.00     0.060 A 
ATOM     29  C   UNL A   1      44.764  26.700  25.805  1.00  0.00     0.016 A 
ATOM     30  C   UNL A   1      46.891  27.244  26.827  1.00  0.00     0.016 A 
ATOM     31  C   UNL A   1      44.084  27.453  26.745  1.00  0.00     0.010 A 
ATOM     32  C   UNL A   1      46.203  27.962  27.809  1.00  0.00     0.010 A 
ATOM     33  C   UNL A   1      44.799  28.069  27.771  1.00  0.00    -0.014 A 
BRANCH  33  34
ATOM     34  C   UNL A   1      44.072  28.806  28.824  1.00  0.00     0.031 A 
ATOM     35  C   UNL A   1      43.786  30.262  28.634  1.00  0.00     0.074 A 
ATOM     36  C   UNL A   1      43.721  28.165  29.956  1.00  0.00     0.049 A 
ATOM     37  N   UNL A   1      43.363  31.136  29.505  1.00  0.00    -0.248 NA
ATOM     38  C   UNL A   1      44.023  30.814  27.289  1.00  0.00     0.031 C 
ATOM     39  C   UNL A   1      43.927  26.737  30.219  1.00  0.00     0.029 A 
ATOM     40  N   UNL A   1      43.151  28.635  31.111  1.00  0.00    -0.354 N 
ATOM     41  C   UNL A   1      43.358  32.354  28.840  1.00  0.00     0.074 A 
ATOM     42  C   UNL A   1      43.786  32.104  27.482  1.00  0.00     0.031 C 
ATOM     43  C   UNL A   1      43.522  26.457  31.467  1.00  0.00     0.029 A 
ATOM     44  C   UNL A   1      43.097  27.692  32.112  1.00  0.00     0.049 A 
ATOM     45  H   UNL A   1      42.816  29.555  31.215  1.00  0.00     0.167 HD
ATOM     46  C   UNL A   1      43.029  33.569  29.333  1.00  0.00     0.034 A 
ATOM     47  C   UNL A   1      42.800  27.823  33.419  1.00  0.00     0.034 A 
ATOM     48  C   UNL A   1      42.550  33.782  30.670  1.00  0.00     0.049 A 
ATOM     49  C   UNL A   1      42.441  29.190  33.935  1.00  0.00     0.074 A 
ATOM     50  C   UNL A   1      42.117  34.959  31.251  1.00  0.00     0.029 A 
ATOM     51  N   UNL A   1      42.448  32.793  31.638  1.00  0.00    -0.354 N 
ATOM     52  N   UNL A   1      42.350  30.320  33.276  1.00  0.00    -0.248 NA
ATOM     53  C   UNL A   1      42.138  29.301  35.368  1.00  0.00     0.031 C 
ATOM     54  C   UNL A   1      41.776  34.686  32.579  1.00  0.00     0.029 A 
ATOM     55  C   UNL A   1      41.981  33.336  32.820  1.00  0.00     0.049 A 
ATOM     56  H   UNL A   1      42.675  31.845  31.501  1.00  0.00     0.167 HD
ATOM     57  C   UNL A   1      41.968  31.275  34.209  1.00  0.00     0.074 A 
ATOM     58  C   UNL A   1      41.811  30.583  35.472  1.00  0.00     0.031 C 
ATOM     59  C   UNL A   1      41.790  32.609  34.047  1.00  0.00     0.034 A 
BRANCH  46  60
ATOM     60  C   UNL A   1      43.177  34.762  28.432  1.00  0.00     0.023 A 
ATOM     61  C   UNL A   1      42.043  35.338  27.830  1.00  0.00     0.012 A 
ATOM     62  C   UNL A   1      44.442  35.355  28.241  1.00  0.00     0.148 A 
ATOM     63  C   UNL A   1      42.165  36.481  27.039  1.00  0.00     0.002 A 
ATOM     64  C   UNL A   1      44.551  36.514  27.483  1.00  0.00     0.091 A 
ATOM     65  F   UNL A   1      45.510  34.773  28.805  1.00  0.00    -0.205 F 
ATOM     66  C   UNL A   1      43.415  37.073  26.876  1.00  0.00     0.022 A 
BRANCH  64  67
ATOM     67  S   UNL A   1      46.104  37.389  27.264  1.00  0.00     0.127 S 
ATOM     68  O   UNL A   1      46.844  36.466  26.404  1.00  0.00    -0.237 OA
ATOM     69  O   UNL A   1      45.669  38.621  26.606  1.00  0.00    -0.237 OA
ATOM     70  O   UNL A   1      46.658  37.571  28.599  1.00  0.00    -0.744 OA
ENDBRANCH  64  67
ENDBRANCH  46  60
BRANCH  47  71
ATOM     71  C   UNL A   1      42.861  26.641  34.325  1.00  0.00     0.023 A 
ATOM     72  C   UNL A   1      41.669  26.015  34.736  1.00  0.00     0.012 A 
ATOM     73  C   UNL A   1      44.095  26.113  34.759  1.00  0.00     0.148 A 
ATOM     74  C   UNL A   1      41.703  24.905  35.582  1.00  0.00     0.002 A 
ATOM     75  C   UNL A   1      44.123  24.969  35.550  1.00  0.00     0.091 A 
ATOM     76  F   UNL A   1      45.223  26.734  34.385  1.00  0.00    -0.205 F 
ATOM     77  C   UNL A   1      42.929  24.374  35.977  1.00  0.00     0.022 A 
BRANCH  75  78
ATOM     78  S   UNL A   1      45.668  24.150  35.965  1.00  0.00     0.127 S 
ATOM     79  O   UNL A   1      46.235  23.890  34.646  1.00  0.00    -0.237 OA
ATOM     80  O   UNL A   1      46.365  25.174  36.745  1.00  0.00    -0.237 OA
ATOM     81  O   UNL A   1      45.280  22.979  36.742  1.00  0.00    -0.744 OA
ENDBRANCH  75  78
ENDBRANCH  47  71
BRANCH  59  82
ATOM     82  C   UNL A   1      41.396  33.403  35.261  1.00  0.00     0.023 A 
ATOM     83  C   UNL A   1      40.034  33.516  35.601  1.00  0.00     0.012 A 
ATOM     84  C   UNL A   1      42.375  33.957  36.107  1.00  0.00     0.148 A 
ATOM     85  C   UNL A   1      39.649  34.190  36.758  1.00  0.00     0.002 A 
ATOM     86  C   UNL A   1      41.986  34.586  37.283  1.00  0.00     0.091 A 
ATOM     87  F   UNL A   1      43.663  33.851  35.751  1.00  0.00    -0.205 F 
ATOM     88  C   UNL A   1      40.625  34.712  37.605  1.00  0.00     0.022 A 
BRANCH  86  89
ATOM     89  S   UNL A   1      43.174  35.204  38.479  1.00  0.00     0.127 S 
ATOM     90  O   UNL A   1      43.882  36.218  37.698  1.00  0.00    -0.237 OA
ATOM     91  O   UNL A   1      42.308  35.737  39.530  1.00  0.00    -0.237 OA
ATOM     92  O   UNL A   1      43.975  34.055  38.880  1.00  0.00    -0.744 OA
ENDBRANCH  86  89
ENDBRANCH  59  82
ENDBRANCH  33  34
ENDBRANCH  26  28
ENDBRANCH  25  26
ENDBRANCH  24  25
ENDBRANCH   1  24
TORSDOF 20
ENDMDL
MODEL 3
REMARK VINA RESULT:      -7.8      3.845      9.713
REMARK SMILES CC[C@](C)(NS(=O)(=O)c1ccc(C(=O)OC)cc1)C(=O)OCCOC(=O)c1ccc(-c2c3nc(c(-c4cccc(S(=O)(=O)[O-])c4F)c4ccc([nH]4)c(-c4cccc(S(=O)(=O)[O-])c4F)c4nc(c(-c5cccc(S(=O)(=O)[O-])c5F)c5ccc2[nH]5)C=C4)C=C3)cc1
REMARK SMILES IDX 22 1 21 2 19 3 20 4 3 5 4 6 2 7 1 8 5 9 6 11 7 12 8 13 9 14
REMARK SMILES IDX 10 15 18 16 11 17 17 18 12 19 13 20 14 21 15 22 16 23 23 24
REMARK SMILES IDX 24 25 25 26 26 27 27 28 28 29 89 30 29 31 88 32 30 33 31 34
REMARK SMILES IDX 32 35 82 36 33 37 87 38 81 39 83 40 34 41 86 42 80 43 79 44
REMARK SMILES IDX 35 46 67 47 47 48 66 49 48 50 51 51 65 52 84 53 49 54 50 55
REMARK SMILES IDX 64 57 85 58 52 59 36 60 37 61 45 62 38 63 40 64 46 65 39 66
REMARK SMILES IDX 41 67 42 68 43 69 44 70 68 71 69 72 77 73 70 74 72 75 78 76
REMARK SMILES IDX 71 77 73 78 74 79 75 80 76 81 53 82 54 83 62 84 55 85 57 86
REMARK SMILES IDX 63 87 56 88 58 89 59 90 60 91 61 92
REMARK H PARENT 5 10 83 45 51 56
REMARK Flexibility Score: inf
ROOT
ATOM      1  C   UNL A   1      36.013  22.767  26.246  1.00  0.00     0.274 C 
ENDROOT
BRANCH   1   2
ATOM      2  O   UNL A   1      35.028  22.870  25.190  1.00  0.00    -0.461 OA
BRANCH   2   3
ATOM      3  C   UNL A   1      33.772  23.239  25.551  1.00  0.00     0.327 C 
ATOM      4  O   UNL A   1      33.538  23.942  26.528  1.00  0.00    -0.250 OA
BRANCH   3   5
ATOM      5  C   UNL A   1      32.684  22.725  24.584  1.00  0.00     0.127 C 
ATOM      6  C   UNL A   1      31.575  22.039  25.422  1.00  0.00     0.042 C 
BRANCH   5   7
ATOM      7  C   UNL A   1      33.300  21.674  23.629  1.00  0.00     0.032 C 
ATOM      8  C   UNL A   1      32.634  20.295  23.603  1.00  0.00     0.006 C 
ENDBRANCH   5   7
BRANCH   5   9
ATOM      9  N   UNL A   1      31.931  23.799  23.854  1.00  0.00    -0.194 NA
ATOM     10  H   UNL A   1      31.289  24.183  24.547  1.00  0.00     0.142 HD
BRANCH   9  11
ATOM     11  S   UNL A   1      32.565  25.135  23.072  1.00  0.00     0.241 S 
ATOM     12  O   UNL A   1      33.890  24.851  22.564  1.00  0.00    -0.207 OA
ATOM     13  O   UNL A   1      31.528  25.612  22.186  1.00  0.00    -0.207 OA
BRANCH  11  14
ATOM     14  C   UNL A   1      32.731  26.358  24.349  1.00  0.00     0.082 A 
ATOM     15  C   UNL A   1      33.849  27.203  24.341  1.00  0.00     0.022 A 
ATOM     16  C   UNL A   1      31.777  26.442  25.367  1.00  0.00     0.022 A 
ATOM     17  C   UNL A   1      33.970  28.196  25.313  1.00  0.00     0.017 A 
ATOM     18  C   UNL A   1      31.887  27.455  26.324  1.00  0.00     0.017 A 
ATOM     19  C   UNL A   1      32.964  28.351  26.275  1.00  0.00     0.060 A 
BRANCH  19  20
ATOM     20  C   UNL A   1      33.032  29.533  27.167  1.00  0.00     0.337 C 
ATOM     21  O   UNL A   1      34.053  29.958  27.668  1.00  0.00    -0.246 OA
BRANCH  20  22
ATOM     22  O   UNL A   1      31.804  30.114  27.196  1.00  0.00    -0.465 OA
ATOM     23  C   UNL A   1      31.556  31.012  26.113  1.00  0.00     0.282 C 
ENDBRANCH  20  22
ENDBRANCH  19  20
ENDBRANCH  11  14
ENDBRANCH   9  11
ENDBRANCH   5   9
ENDBRANCH   3   5
ENDBRANCH   2   3
ENDBRANCH   1   2
BRANCH   1  24
ATOM     24  C   UNL A   1      37.388  22.468  25.641  1.00  0.00     0.275 C 
BRANCH  24  25
ATOM     25  O   UNL A   1      38.313  22.116  26.683  1.00  0.00    -0.458 OA
BRANCH  25  26
ATOM     26  C   UNL A   1      39.618  22.312  26.383  1.00  0.00     0.338 C 
ATOM     27  O   UNL A   1      40.336  21.630  25.669  1.00  0.00    -0.246 OA
BRANCH  26  28
ATOM     28  C   UNL A   1      39.924  23.693  26.775  1.00  0.00     0.060 A 
ATOM     29  C   UNL A   1      40.403  23.873  28.072  1.00  0.00     0.016 A 
ATOM     30  C   UNL A   1      39.822  24.768  25.899  1.00  0.00     0.016 A 
ATOM     31  C   UNL A   1      40.739  25.132  28.536  1.00  0.00     0.010 A 
ATOM     32  C   UNL A   1      40.211  26.033  26.347  1.00  0.00     0.010 A 
ATOM     33  C   UNL A   1      40.670  26.219  27.666  1.00  0.00    -0.014 A 
BRANCH  33  34
ATOM     34  C   UNL A   1      41.106  27.552  28.130  1.00  0.00     0.031 A 
ATOM     35  C   UNL A   1      42.569  27.841  28.254  1.00  0.00     0.074 A 
ATOM     36  C   UNL A   1      40.179  28.465  28.477  1.00  0.00     0.049 A 
ATOM     37  N   UNL A   1      43.160  28.848  28.835  1.00  0.00    -0.248 NA
ATOM     38  C   UNL A   1      43.491  26.858  27.658  1.00  0.00     0.031 C 
ATOM     39  C   UNL A   1      38.729  28.287  28.359  1.00  0.00     0.029 A 
ATOM     40  N   UNL A   1      40.315  29.711  29.034  1.00  0.00    -0.354 N 
ATOM     41  C   UNL A   1      44.520  28.584  28.748  1.00  0.00     0.074 A 
ATOM     42  C   UNL A   1      44.671  27.341  28.026  1.00  0.00     0.031 C 
ATOM     43  C   UNL A   1      38.110  29.368  28.859  1.00  0.00     0.029 A 
ATOM     44  C   UNL A   1      39.114  30.278  29.396  1.00  0.00     0.049 A 
ATOM     45  H   UNL A   1      41.185  30.156  29.163  1.00  0.00     0.167 HD
ATOM     46  C   UNL A   1      45.543  29.319  29.237  1.00  0.00     0.034 A 
ATOM     47  C   UNL A   1      38.854  31.374  30.134  1.00  0.00     0.034 A 
ATOM     48  C   UNL A   1      45.368  30.582  29.900  1.00  0.00     0.049 A 
ATOM     49  C   UNL A   1      40.015  32.168  30.665  1.00  0.00     0.074 A 
ATOM     50  C   UNL A   1      46.338  31.448  30.369  1.00  0.00     0.029 A 
ATOM     51  N   UNL A   1      44.140  31.155  30.194  1.00  0.00    -0.354 N 
ATOM     52  N   UNL A   1      41.300  31.960  30.498  1.00  0.00    -0.248 NA
ATOM     53  C   UNL A   1      39.697  33.349  31.479  1.00  0.00     0.031 C 
ATOM     54  C   UNL A   1      45.695  32.534  30.969  1.00  0.00     0.029 A 
ATOM     55  C   UNL A   1      44.325  32.353  30.858  1.00  0.00     0.049 A 
ATOM     56  H   UNL A   1      43.266  30.766  29.962  1.00  0.00     0.167 HD
ATOM     57  C   UNL A   1      41.943  32.988  31.174  1.00  0.00     0.074 A 
ATOM     58  C   UNL A   1      40.905  33.838  31.724  1.00  0.00     0.031 C 
ATOM     59  C   UNL A   1      43.270  33.199  31.350  1.00  0.00     0.034 A 
BRANCH  46  60
ATOM     60  C   UNL A   1      46.937  28.784  29.081  1.00  0.00     0.023 A 
ATOM     61  C   UNL A   1      47.512  28.001  30.100  1.00  0.00     0.012 A 
ATOM     62  C   UNL A   1      47.652  29.001  27.886  1.00  0.00     0.148 A 
ATOM     63  C   UNL A   1      48.784  27.451  29.938  1.00  0.00     0.002 A 
ATOM     64  C   UNL A   1      48.902  28.420  27.716  1.00  0.00     0.091 A 
ATOM     65  F   UNL A   1      47.093  29.771  26.941  1.00  0.00    -0.205 F 
ATOM     66  C   UNL A   1      49.472  27.652  28.743  1.00  0.00     0.022 A 
BRANCH  64  67
ATOM     67  S   UNL A   1      49.842  28.566  26.193  1.00  0.00     0.127 S 
ATOM     68  O   UNL A   1      50.282  29.959  26.249  1.00  0.00    -0.237 OA
ATOM     69  O   UNL A   1      50.905  27.582  26.396  1.00  0.00    -0.237 OA
ATOM     70  O   UNL A   1      48.916  28.252  25.113  1.00  0.00    -0.744 OA
ENDBRANCH  64  67
ENDBRANCH  46  60
BRANCH  47  71
ATOM     71  C   UNL A   1      37.445  31.759  30.435  1.00  0.00     0.023 A 
ATOM     72  C   UNL A   1      36.872  31.396  31.668  1.00  0.00     0.012 A 
ATOM     73  C   UNL A   1      36.679  32.509  29.519  1.00  0.00     0.148 A 
ATOM     74  C   UNL A   1      35.555  31.749  31.972  1.00  0.00     0.002 A 
ATOM     75  C   UNL A   1      35.390  32.911  29.854  1.00  0.00     0.091 A 
ATOM     76  F   UNL A   1      37.225  32.825  28.336  1.00  0.00    -0.205 F 
ATOM     77  C   UNL A   1      34.820  32.517  31.073  1.00  0.00     0.022 A 
BRANCH  75  78
ATOM     78  S   UNL A   1      34.450  34.027  28.807  1.00  0.00     0.127 S 
ATOM     79  O   UNL A   1      33.279  34.302  29.634  1.00  0.00    -0.237 OA
ATOM     80  O   UNL A   1      35.369  35.155  28.647  1.00  0.00    -0.237 OA
ATOM     81  O   UNL A   1      34.210  33.283  27.577  1.00  0.00    -0.744 OA
ENDBRANCH  75  78
ENDBRANCH  47  71
BRANCH  59  82
ATOM     82  C   UNL A   1      43.674  34.398  32.162  1.00  0.00     0.023 A 
ATOM     83  C   UNL A   1      43.862  35.637  31.519  1.00  0.00     0.012 A 
ATOM     84  C   UNL A   1      43.779  34.316  33.563  1.00  0.00     0.148 A 
ATOM     85  C   UNL A   1      44.170  36.776  32.259  1.00  0.00     0.002 A 
ATOM     86  C   UNL A   1      44.040  35.465  34.298  1.00  0.00     0.091 A 
ATOM     87  F   UNL A   1      43.614  33.121  34.149  1.00  0.00    -0.205 F 
ATOM     88  C   UNL A   1      44.245  36.693  33.648  1.00  0.00     0.022 A 
BRANCH  86  89
ATOM     89  S   UNL A   1      44.062  35.473  36.094  1.00  0.00     0.127 S 
ATOM     90  O   UNL A   1      44.887  36.646  36.376  1.00  0.00    -0.237 OA
ATOM     91  O   UNL A   1      42.645  35.629  36.421  1.00  0.00    -0.237 OA
ATOM     92  O   UNL A   1      44.637  34.195  36.493  1.00  0.00    -0.744 OA
ENDBRANCH  86  89
ENDBRANCH  59  82
ENDBRANCH  33  34
ENDBRANCH  26  28
ENDBRANCH  25  26
ENDBRANCH  24  25
ENDBRANCH   1  24
TORSDOF 20
ENDMDL
