MODEL 1
REMARK VINA RESULT:     -11.6      0.000      0.000
REMARK SMILES [NH3+][C@@H](Cc1cn(-c2nc(Cl)nc(N3CCOCC3)n2)c2ccccc12)C(=O)OCCOC(=O)c1ccc(-c2c3nc(c(-c4cccc(S(=O)(=O)[O-])c4F)c4ccc([nH]4)c(-c4cccc(S(=O)(=O)[O-])c4F)c4nc(c(-c5cccc(S(=O)(=O)[O-])c5F)c5ccc2[nH]5)C=C4)C=C3)cc1
REMARK SMILES IDX 29 1 28 2 26 3 27 4 2 5 1 6 3 10 4 11 5 12 25 13 6 14 20 15
REMARK SMILES IDX 24 16 21 17 23 18 22 19 7 20 8 21 19 22 9 23 12 24 10 25
REMARK SMILES IDX 11 26 13 27 14 28 18 29 15 30 17 31 16 32 30 33 31 34 32 35
REMARK SMILES IDX 33 36 34 37 35 38 96 39 36 40 95 41 37 42 38 43 39 44 89 45
REMARK SMILES IDX 40 46 94 47 88 48 90 49 41 50 93 51 87 52 86 53 42 55 74 56
REMARK SMILES IDX 54 57 73 58 55 59 58 60 72 61 91 62 56 63 57 64 71 66 92 67
REMARK SMILES IDX 59 68 43 69 44 70 52 71 45 72 47 73 53 74 46 75 48 76 49 77
REMARK SMILES IDX 50 78 51 79 75 80 76 81 84 82 77 83 79 84 85 85 78 86 80 87
REMARK SMILES IDX 81 88 82 89 83 90 60 91 61 92 69 93 62 94 64 95 70 96 63 97
REMARK SMILES IDX 65 98 66 99 67 100 68 101
REMARK H PARENT 1 7 1 8 1 9 90 54 58 65
REMARK Flexibility Score: inf
ROOT
ATOM      1  C   UNL A   1      34.118  34.774  29.113  1.00  0.00     0.274 C 
ENDROOT
BRANCH   1   2
ATOM      2  O   UNL A   1      33.155  34.778  30.186  1.00  0.00    -0.458 OA
BRANCH   2   3
ATOM      3  C   UNL A   1      33.038  35.940  30.902  1.00  0.00     0.365 C 
ATOM      4  O   UNL A   1      32.276  36.852  30.604  1.00  0.00    -0.245 OA
BRANCH   3   5
ATOM      5  C   UNL A   1      34.018  35.987  32.098  1.00  0.00     0.296 C 
BRANCH   5   6
ATOM      6  N   UNL A   1      34.228  37.372  32.605  1.00  0.00    -0.346 N 
ATOM      7  H   UNL A   1      33.678  37.511  33.453  1.00  0.00     0.345 HD
ATOM      8  H   UNL A   1      33.933  38.042  31.896  1.00  0.00     0.345 HD
ATOM      9  H   UNL A   1      35.216  37.511  32.815  1.00  0.00     0.345 HD
ENDBRANCH   5   6
BRANCH   5  10
ATOM     10  C   UNL A   1      33.665  34.976  33.189  1.00  0.00     0.115 C 
BRANCH  10  11
ATOM     11  C   UNL A   1      34.809  34.188  33.699  1.00  0.00    -0.015 A 
ATOM     12  C   UNL A   1      35.480  34.411  34.873  1.00  0.00     0.099 A 
ATOM     13  C   UNL A   1      35.406  33.046  33.087  1.00  0.00     0.004 A 
ATOM     14  N   UNL A   1      36.528  33.532  34.953  1.00  0.00    -0.285 N 
ATOM     15  C   UNL A   1      36.531  32.705  33.846  1.00  0.00     0.056 A 
ATOM     16  C   UNL A   1      35.094  32.279  31.947  1.00  0.00     0.010 A 
ATOM     17  C   UNL A   1      37.371  31.641  33.479  1.00  0.00     0.027 A 
ATOM     18  C   UNL A   1      35.911  31.207  31.586  1.00  0.00     0.001 A 
ATOM     19  C   UNL A   1      37.041  30.903  32.337  1.00  0.00     0.002 A 
BRANCH  14  20
ATOM     20  C   UNL A   1      37.424  33.541  36.044  1.00  0.00     0.240 A 
ATOM     21  N   UNL A   1      38.577  34.176  35.906  1.00  0.00    -0.181 NA
ATOM     22  N   UNL A   1      36.932  33.082  37.200  1.00  0.00    -0.176 NA
ATOM     23  C   UNL A   1      39.132  34.441  37.076  1.00  0.00     0.228 A 
ATOM     24  C   UNL A   1      37.635  33.329  38.291  1.00  0.00     0.231 A 
ATOM     25  Cl  UNL A   1      40.519  35.440  37.026  1.00  0.00    -0.041 Cl
ATOM     26  N   UNL A   1      38.727  34.073  38.290  1.00  0.00    -0.182 NA
BRANCH  24  27
ATOM     27  N   UNL A   1      37.138  32.816  39.458  1.00  0.00    -0.336 N 
ATOM     28  C   UNL A   1      35.721  32.451  39.471  1.00  0.00     0.148 C 
ATOM     29  C   UNL A   1      38.000  32.038  40.334  1.00  0.00     0.148 C 
ATOM     30  C   UNL A   1      35.211  32.395  40.919  1.00  0.00     0.181 C 
ATOM     31  C   UNL A   1      37.399  32.073  41.748  1.00  0.00     0.181 C 
ATOM     32  O   UNL A   1      36.049  31.571  41.751  1.00  0.00    -0.378 OA
ENDBRANCH  24  27
ENDBRANCH  14  20
ENDBRANCH  10  11
ENDBRANCH   5  10
ENDBRANCH   3   5
ENDBRANCH   2   3
ENDBRANCH   1   2
BRANCH   1  33
ATOM     33  C   UNL A   1      33.842  33.601  28.168  1.00  0.00     0.275 C 
BRANCH  33  34
ATOM     34  O   UNL A   1      35.035  32.816  28.038  1.00  0.00    -0.458 OA
BRANCH  34  35
ATOM     35  C   UNL A   1      34.872  31.472  28.130  1.00  0.00     0.338 C 
ATOM     36  O   UNL A   1      33.813  30.863  28.069  1.00  0.00    -0.246 OA
BRANCH  35  37
ATOM     37  C   UNL A   1      36.219  30.871  27.995  1.00  0.00     0.060 A 
ATOM     38  C   UNL A   1      36.373  29.515  27.677  1.00  0.00     0.016 A 
ATOM     39  C   UNL A   1      37.301  31.612  28.472  1.00  0.00     0.016 A 
ATOM     40  C   UNL A   1      37.547  28.857  28.026  1.00  0.00     0.010 A 
ATOM     41  C   UNL A   1      38.478  30.950  28.806  1.00  0.00     0.010 A 
ATOM     42  C   UNL A   1      38.564  29.557  28.680  1.00  0.00    -0.014 A 
BRANCH  42  43
ATOM     43  C   UNL A   1      39.803  28.865  29.033  1.00  0.00     0.031 A 
ATOM     44  C   UNL A   1      40.074  28.945  30.477  1.00  0.00     0.074 A 
ATOM     45  C   UNL A   1      40.652  28.169  28.244  1.00  0.00     0.049 A 
ATOM     46  N   UNL A   1      40.941  29.731  31.025  1.00  0.00    -0.248 NA
ATOM     47  C   UNL A   1      39.201  28.232  31.415  1.00  0.00     0.031 C 
ATOM     48  C   UNL A   1      40.548  27.872  26.825  1.00  0.00     0.029 A 
ATOM     49  N   UNL A   1      41.779  27.477  28.595  1.00  0.00    -0.354 N 
ATOM     50  C   UNL A   1      40.881  29.436  32.372  1.00  0.00     0.074 A 
ATOM     51  C   UNL A   1      39.673  28.674  32.581  1.00  0.00     0.031 C 
ATOM     52  C   UNL A   1      41.363  26.838  26.503  1.00  0.00     0.029 A 
ATOM     53  C   UNL A   1      42.205  26.550  27.643  1.00  0.00     0.049 A 
ATOM     54  H   UNL A   1      42.250  27.622  29.447  1.00  0.00     0.167 HD
ATOM     55  C   UNL A   1      41.960  29.595  33.178  1.00  0.00     0.034 A 
ATOM     56  C   UNL A   1      43.211  25.648  27.762  1.00  0.00     0.034 A 
ATOM     57  C   UNL A   1      43.015  30.353  32.567  1.00  0.00     0.049 A 
ATOM     58  C   UNL A   1      44.157  26.230  28.736  1.00  0.00     0.074 A 
ATOM     59  C   UNL A   1      43.130  31.619  32.029  1.00  0.00     0.029 A 
ATOM     60  N   UNL A   1      44.091  29.642  32.092  1.00  0.00    -0.354 N 
ATOM     61  N   UNL A   1      44.858  27.304  28.503  1.00  0.00    -0.248 NA
ATOM     62  C   UNL A   1      44.032  25.842  30.128  1.00  0.00     0.031 C 
ATOM     63  C   UNL A   1      44.008  31.476  30.915  1.00  0.00     0.029 A 
ATOM     64  C   UNL A   1      44.404  30.140  30.855  1.00  0.00     0.049 A 
ATOM     65  H   UNL A   1      44.551  28.907  32.557  1.00  0.00     0.167 HD
ATOM     66  C   UNL A   1      44.853  27.973  29.717  1.00  0.00     0.074 A 
ATOM     67  C   UNL A   1      44.435  26.977  30.700  1.00  0.00     0.031 C 
ATOM     68  C   UNL A   1      44.912  29.334  29.766  1.00  0.00     0.034 A 
BRANCH  55  69
ATOM     69  C   UNL A   1      42.178  28.734  34.377  1.00  0.00     0.023 A 
ATOM     70  C   UNL A   1      42.281  29.347  35.635  1.00  0.00     0.012 A 
ATOM     71  C   UNL A   1      42.499  27.360  34.278  1.00  0.00     0.148 A 
ATOM     72  C   UNL A   1      42.659  28.610  36.761  1.00  0.00     0.002 A 
ATOM     73  C   UNL A   1      42.786  26.615  35.409  1.00  0.00     0.091 A 
ATOM     74  F   UNL A   1      42.645  26.802  33.068  1.00  0.00    -0.205 F 
ATOM     75  C   UNL A   1      42.885  27.240  36.654  1.00  0.00     0.022 A 
BRANCH  73  76
ATOM     76  S   UNL A   1      43.022  24.840  35.320  1.00  0.00     0.127 S 
ATOM     77  O   UNL A   1      43.852  24.597  36.496  1.00  0.00    -0.237 OA
ATOM     78  O   UNL A   1      41.647  24.349  35.415  1.00  0.00    -0.237 OA
ATOM     79  O   UNL A   1      43.650  24.604  34.026  1.00  0.00    -0.744 OA
ENDBRANCH  73  76
ENDBRANCH  55  69
BRANCH  56  80
ATOM     80  C   UNL A   1      43.323  24.229  27.330  1.00  0.00     0.023 A 
ATOM     81  C   UNL A   1      42.233  23.357  27.560  1.00  0.00     0.012 A 
ATOM     82  C   UNL A   1      44.313  23.815  26.412  1.00  0.00     0.148 A 
ATOM     83  C   UNL A   1      42.087  22.164  26.839  1.00  0.00     0.002 A 
ATOM     84  C   UNL A   1      44.163  22.624  25.700  1.00  0.00     0.091 A 
ATOM     85  F   UNL A   1      45.347  24.632  26.167  1.00  0.00    -0.205 F 
ATOM     86  C   UNL A   1      43.041  21.808  25.896  1.00  0.00     0.022 A 
BRANCH  84  87
ATOM     87  S   UNL A   1      45.347  22.097  24.450  1.00  0.00     0.127 S 
ATOM     88  O   UNL A   1      46.449  21.586  25.267  1.00  0.00    -0.237 OA
ATOM     89  O   UNL A   1      44.595  21.071  23.731  1.00  0.00    -0.237 OA
ATOM     90  O   UNL A   1      45.673  23.295  23.688  1.00  0.00    -0.744 OA
ENDBRANCH  84  87
ENDBRANCH  56  80
BRANCH  68  91
ATOM     91  C   UNL A   1      45.288  30.075  28.509  1.00  0.00     0.023 A 
ATOM     92  C   UNL A   1      44.328  30.499  27.565  1.00  0.00     0.012 A 
ATOM     93  C   UNL A   1      46.616  30.516  28.378  1.00  0.00     0.148 A 
ATOM     94  C   UNL A   1      44.689  31.347  26.513  1.00  0.00     0.002 A 
ATOM     95  C   UNL A   1      46.962  31.387  27.354  1.00  0.00     0.091 A 
ATOM     96  F   UNL A   1      47.507  30.105  29.292  1.00  0.00    -0.205 F 
ATOM     97  C   UNL A   1      46.003  31.803  26.416  1.00  0.00     0.022 A 
BRANCH  95  98
ATOM     98  S   UNL A   1      48.607  32.096  27.228  1.00  0.00     0.127 S 
ATOM     99  O   UNL A   1      48.506  32.890  26.005  1.00  0.00    -0.237 OA
ATOM    100  O   UNL A   1      48.700  32.880  28.460  1.00  0.00    -0.237 OA
ATOM    101  O   UNL A   1      49.532  30.972  27.161  1.00  0.00    -0.744 OA
ENDBRANCH  95  98
ENDBRANCH  68  91
ENDBRANCH  42  43
ENDBRANCH  35  37
ENDBRANCH  34  35
ENDBRANCH  33  34
ENDBRANCH   1  33
TORSDOF 19
ENDMDL
MODEL 2
REMARK VINA RESULT:     -11.6      4.757      8.051
REMARK SMILES [NH3+][C@@H](Cc1cn(-c2nc(Cl)nc(N3CCOCC3)n2)c2ccccc12)C(=O)OCCOC(=O)c1ccc(-c2c3nc(c(-c4cccc(S(=O)(=O)[O-])c4F)c4ccc([nH]4)c(-c4cccc(S(=O)(=O)[O-])c4F)c4nc(c(-c5cccc(S(=O)(=O)[O-])c5F)c5ccc2[nH]5)C=C4)C=C3)cc1
REMARK SMILES IDX 29 1 28 2 26 3 27 4 2 5 1 6 3 10 4 11 5 12 25 13 6 14 20 15
REMARK SMILES IDX 24 16 21 17 23 18 22 19 7 20 8 21 19 22 9 23 12 24 10 25
REMARK SMILES IDX 11 26 13 27 14 28 18 29 15 30 17 31 16 32 30 33 31 34 32 35
REMARK SMILES IDX 33 36 34 37 35 38 96 39 36 40 95 41 37 42 38 43 39 44 89 45
REMARK SMILES IDX 40 46 94 47 88 48 90 49 41 50 93 51 87 52 86 53 42 55 74 56
REMARK SMILES IDX 54 57 73 58 55 59 58 60 72 61 91 62 56 63 57 64 71 66 92 67
REMARK SMILES IDX 59 68 43 69 44 70 52 71 45 72 47 73 53 74 46 75 48 76 49 77
REMARK SMILES IDX 50 78 51 79 75 80 76 81 84 82 77 83 79 84 85 85 78 86 80 87
REMARK SMILES IDX 81 88 82 89 83 90 60 91 61 92 69 93 62 94 64 95 70 96 63 97
REMARK SMILES IDX 65 98 66 99 67 100 68 101
REMARK H PARENT 1 7 1 8 1 9 90 54 58 65
REMARK Flexibility Score: inf
ROOT
ATOM      1  C   UNL A   1      33.453  34.264  28.566  1.00  0.00     0.274 C 
ENDROOT
BRANCH   1   2
ATOM      2  O   UNL A   1      33.691  32.955  28.012  1.00  0.00    -0.458 OA
BRANCH   2   3
ATOM      3  C   UNL A   1      32.698  32.429  27.228  1.00  0.00     0.365 C 
ATOM      4  O   UNL A   1      31.607  32.960  27.061  1.00  0.00    -0.245 OA
BRANCH   3   5
ATOM      5  C   UNL A   1      33.097  31.061  26.625  1.00  0.00     0.296 C 
BRANCH   5   6
ATOM      6  N   UNL A   1      34.422  30.589  27.118  1.00  0.00    -0.346 N 
ATOM      7  H   UNL A   1      34.523  29.594  26.921  1.00  0.00     0.345 HD
ATOM      8  H   UNL A   1      34.485  30.744  28.124  1.00  0.00     0.345 HD
ATOM      9  H   UNL A   1      35.164  31.106  26.646  1.00  0.00     0.345 HD
ENDBRANCH   5   6
BRANCH   5  10
ATOM     10  C   UNL A   1      31.986  30.018  26.741  1.00  0.00     0.115 C 
BRANCH  10  11
ATOM     11  C   UNL A   1      31.689  29.285  25.491  1.00  0.00    -0.015 A 
ATOM     12  C   UNL A   1      32.216  28.076  25.123  1.00  0.00     0.099 A 
ATOM     13  C   UNL A   1      30.788  29.680  24.457  1.00  0.00     0.004 A 
ATOM     14  N   UNL A   1      31.769  27.766  23.865  1.00  0.00    -0.285 N 
ATOM     15  C   UNL A   1      30.919  28.758  23.413  1.00  0.00     0.056 A 
ATOM     16  C   UNL A   1      29.880  30.749  24.314  1.00  0.00     0.010 A 
ATOM     17  C   UNL A   1      30.194  28.891  22.218  1.00  0.00     0.027 A 
ATOM     18  C   UNL A   1      29.141  30.878  23.138  1.00  0.00     0.001 A 
ATOM     19  C   UNL A   1      29.307  29.967  22.101  1.00  0.00     0.002 A 
BRANCH  14  20
ATOM     20  C   UNL A   1      32.170  26.586  23.203  1.00  0.00     0.240 A 
ATOM     21  N   UNL A   1      31.932  26.480  21.905  1.00  0.00    -0.181 NA
ATOM     22  N   UNL A   1      32.951  25.763  23.911  1.00  0.00    -0.176 NA
ATOM     23  C   UNL A   1      32.677  25.542  21.346  1.00  0.00     0.228 A 
ATOM     24  C   UNL A   1      33.567  24.801  23.246  1.00  0.00     0.231 A 
ATOM     25  Cl  UNL A   1      32.602  25.459  19.640  1.00  0.00    -0.041 Cl
ATOM     26  N   UNL A   1      33.512  24.686  21.931  1.00  0.00    -0.182 NA
BRANCH  24  27
ATOM     27  N   UNL A   1      34.328  23.943  23.994  1.00  0.00    -0.336 N 
ATOM     28  C   UNL A   1      35.119  24.531  25.076  1.00  0.00     0.148 C 
ATOM     29  C   UNL A   1      33.883  22.575  24.206  1.00  0.00     0.148 C 
ATOM     30  C   UNL A   1      36.264  23.580  25.458  1.00  0.00     0.181 C 
ATOM     31  C   UNL A   1      35.112  21.724  24.562  1.00  0.00     0.181 C 
ATOM     32  O   UNL A   1      35.788  22.247  25.721  1.00  0.00    -0.378 OA
ENDBRANCH  24  27
ENDBRANCH  14  20
ENDBRANCH  10  11
ENDBRANCH   5  10
ENDBRANCH   3   5
ENDBRANCH   2   3
ENDBRANCH   1   2
BRANCH   1  33
ATOM     33  C   UNL A   1      33.994  34.333  29.997  1.00  0.00     0.275 C 
BRANCH  33  34
ATOM     34  O   UNL A   1      35.263  33.668  30.049  1.00  0.00    -0.458 OA
BRANCH  34  35
ATOM     35  C   UNL A   1      35.306  32.531  30.787  1.00  0.00     0.338 C 
ATOM     36  O   UNL A   1      34.483  32.174  31.618  1.00  0.00    -0.246 OA
BRANCH  35  37
ATOM     37  C   UNL A   1      36.342  31.667  30.177  1.00  0.00     0.060 A 
ATOM     38  C   UNL A   1      36.270  30.272  30.284  1.00  0.00     0.016 A 
ATOM     39  C   UNL A   1      37.521  32.283  29.755  1.00  0.00     0.016 A 
ATOM     40  C   UNL A   1      37.429  29.513  30.165  1.00  0.00     0.010 A 
ATOM     41  C   UNL A   1      38.675  31.517  29.625  1.00  0.00     0.010 A 
ATOM     42  C   UNL A   1      38.651  30.149  29.930  1.00  0.00    -0.014 A 
BRANCH  42  43
ATOM     43  C   UNL A   1      39.866  29.347  29.792  1.00  0.00     0.031 A 
ATOM     44  C   UNL A   1      40.483  29.070  31.099  1.00  0.00     0.074 A 
ATOM     45  C   UNL A   1      40.429  28.827  28.678  1.00  0.00     0.049 A 
ATOM     46  N   UNL A   1      41.528  29.670  31.566  1.00  0.00    -0.248 NA
ATOM     47  C   UNL A   1      39.796  28.188  32.047  1.00  0.00     0.031 C 
ATOM     48  C   UNL A   1      39.959  28.881  27.304  1.00  0.00     0.029 A 
ATOM     49  N   UNL A   1      41.535  28.030  28.567  1.00  0.00    -0.354 N 
ATOM     50  C   UNL A   1      41.765  29.065  32.783  1.00  0.00     0.074 A 
ATOM     51  C   UNL A   1      40.576  28.321  33.121  1.00  0.00     0.031 C 
ATOM     52  C   UNL A   1      40.569  27.924  26.563  1.00  0.00     0.029 A 
ATOM     53  C   UNL A   1      41.628  27.341  27.356  1.00  0.00     0.049 A 
ATOM     54  H   UNL A   1      42.209  27.949  29.279  1.00  0.00     0.167 HD
ATOM     55  C   UNL A   1      43.017  28.987  33.300  1.00  0.00     0.034 A 
ATOM     56  C   UNL A   1      42.541  26.399  27.011  1.00  0.00     0.034 A 
ATOM     57  C   UNL A   1      43.962  29.828  32.622  1.00  0.00     0.049 A 
ATOM     58  C   UNL A   1      43.745  26.697  27.813  1.00  0.00     0.074 A 
ATOM     59  C   UNL A   1      44.066  31.181  32.367  1.00  0.00     0.029 A 
ATOM     60  N   UNL A   1      44.818  29.211  31.742  1.00  0.00    -0.354 N 
ATOM     61  N   UNL A   1      44.470  27.767  27.652  1.00  0.00    -0.248 NA
ATOM     62  C   UNL A   1      43.922  25.993  29.069  1.00  0.00     0.031 C 
ATOM     63  C   UNL A   1      44.631  31.274  31.061  1.00  0.00     0.029 A 
ATOM     64  C   UNL A   1      44.871  29.977  30.608  1.00  0.00     0.049 A 
ATOM     65  H   UNL A   1      45.304  28.370  31.899  1.00  0.00     0.167 HD
ATOM     66  C   UNL A   1      44.822  28.128  28.943  1.00  0.00     0.074 A 
ATOM     67  C   UNL A   1      44.558  26.943  29.755  1.00  0.00     0.031 C 
ATOM     68  C   UNL A   1      45.022  29.435  29.275  1.00  0.00     0.034 A 
BRANCH  55  69
ATOM     69  C   UNL A   1      43.433  27.857  34.182  1.00  0.00     0.023 A 
ATOM     70  C   UNL A   1      43.821  28.142  35.500  1.00  0.00     0.012 A 
ATOM     71  C   UNL A   1      43.658  26.551  33.689  1.00  0.00     0.148 A 
ATOM     72  C   UNL A   1      44.385  27.151  36.309  1.00  0.00     0.002 A 
ATOM     73  C   UNL A   1      44.133  25.551  34.521  1.00  0.00     0.091 A 
ATOM     74  F   UNL A   1      43.525  26.308  32.378  1.00  0.00    -0.205 F 
ATOM     75  C   UNL A   1      44.516  25.850  35.830  1.00  0.00     0.022 A 
BRANCH  73  76
ATOM     76  S   UNL A   1      44.258  23.853  33.958  1.00  0.00     0.127 S 
ATOM     77  O   UNL A   1      44.851  24.027  32.636  1.00  0.00    -0.237 OA
ATOM     78  O   UNL A   1      45.142  23.267  34.965  1.00  0.00    -0.237 OA
ATOM     79  O   UNL A   1      42.894  23.340  33.992  1.00  0.00    -0.744 OA
ENDBRANCH  73  76
ENDBRANCH  55  69
BRANCH  56  80
ATOM     80  C   UNL A   1      42.409  25.120  26.262  1.00  0.00     0.023 A 
ATOM     81  C   UNL A   1      43.430  24.753  25.354  1.00  0.00     0.012 A 
ATOM     82  C   UNL A   1      41.499  24.120  26.668  1.00  0.00     0.148 A 
ATOM     83  C   UNL A   1      43.594  23.426  24.936  1.00  0.00     0.002 A 
ATOM     84  C   UNL A   1      41.666  22.799  26.246  1.00  0.00     0.091 A 
ATOM     85  F   UNL A   1      40.534  24.441  27.539  1.00  0.00    -0.205 F 
ATOM     86  C   UNL A   1      42.725  22.446  25.398  1.00  0.00     0.022 A 
BRANCH  84  87
ATOM     87  S   UNL A   1      40.593  21.469  26.809  1.00  0.00     0.127 S 
ATOM     88  O   UNL A   1      40.800  21.499  28.257  1.00  0.00    -0.237 OA
ATOM     89  O   UNL A   1      39.279  21.932  26.370  1.00  0.00    -0.237 OA
ATOM     90  O   UNL A   1      41.089  20.262  26.159  1.00  0.00    -0.744 OA
ENDBRANCH  84  87
ENDBRANCH  56  80
BRANCH  68  91
ATOM     91  C   UNL A   1      45.154  30.440  28.159  1.00  0.00     0.023 A 
ATOM     92  C   UNL A   1      44.035  30.970  27.483  1.00  0.00     0.012 A 
ATOM     93  C   UNL A   1      46.422  30.997  27.924  1.00  0.00     0.148 A 
ATOM     94  C   UNL A   1      44.181  32.037  26.590  1.00  0.00     0.002 A 
ATOM     95  C   UNL A   1      46.558  32.080  27.065  1.00  0.00     0.091 A 
ATOM     96  F   UNL A   1      47.469  30.480  28.584  1.00  0.00    -0.205 F 
ATOM     97  C   UNL A   1      45.441  32.601  26.393  1.00  0.00     0.022 A 
BRANCH  95  98
ATOM     98  S   UNL A   1      48.128  32.922  26.843  1.00  0.00     0.127 S 
ATOM     99  O   UNL A   1      49.006  31.830  26.429  1.00  0.00    -0.237 OA
ATOM    100  O   UNL A   1      47.814  33.887  25.789  1.00  0.00    -0.237 OA
ATOM    101  O   UNL A   1      48.453  33.523  28.129  1.00  0.00    -0.744 OA
ENDBRANCH  95  98
ENDBRANCH  68  91
ENDBRANCH  42  43
ENDBRANCH  35  37
ENDBRANCH  34  35
ENDBRANCH  33  34
ENDBRANCH   1  33
TORSDOF 19
ENDMDL
MODEL 3
REMARK VINA RESULT:     -11.5      1.786      2.292
REMARK SMILES [NH3+][C@@H](Cc1cn(-c2nc(Cl)nc(N3CCOCC3)n2)c2ccccc12)C(=O)OCCOC(=O)c1ccc(-c2c3nc(c(-c4cccc(S(=O)(=O)[O-])c4F)c4ccc([nH]4)c(-c4cccc(S(=O)(=O)[O-])c4F)c4nc(c(-c5cccc(S(=O)(=O)[O-])c5F)c5ccc2[nH]5)C=C4)C=C3)cc1
REMARK SMILES IDX 29 1 28 2 26 3 27 4 2 5 1 6 3 10 4 11 5 12 25 13 6 14 20 15
REMARK SMILES IDX 24 16 21 17 23 18 22 19 7 20 8 21 19 22 9 23 12 24 10 25
REMARK SMILES IDX 11 26 13 27 14 28 18 29 15 30 17 31 16 32 30 33 31 34 32 35
REMARK SMILES IDX 33 36 34 37 35 38 96 39 36 40 95 41 37 42 38 43 39 44 89 45
REMARK SMILES IDX 40 46 94 47 88 48 90 49 41 50 93 51 87 52 86 53 42 55 74 56
REMARK SMILES IDX 54 57 73 58 55 59 58 60 72 61 91 62 56 63 57 64 71 66 92 67
REMARK SMILES IDX 59 68 43 69 44 70 52 71 45 72 47 73 53 74 46 75 48 76 49 77
REMARK SMILES IDX 50 78 51 79 75 80 76 81 84 82 77 83 79 84 85 85 78 86 80 87
REMARK SMILES IDX 81 88 82 89 83 90 60 91 61 92 69 93 62 94 64 95 70 96 63 97
REMARK SMILES IDX 65 98 66 99 67 100 68 101
REMARK H PARENT 1 7 1 8 1 9 90 54 58 65
REMARK Flexibility Score: inf
ROOT
ATOM      1  C   UNL A   1      33.418  35.232  29.136  1.00  0.00     0.274 C 
ENDROOT
BRANCH   1   2
ATOM      2  O   UNL A   1      32.523  35.013  30.245  1.00  0.00    -0.458 OA
BRANCH   2   3
ATOM      3  C   UNL A   1      32.661  35.852  31.320  1.00  0.00     0.365 C 
ATOM      4  O   UNL A   1      31.811  36.663  31.666  1.00  0.00    -0.245 OA
BRANCH   3   5
ATOM      5  C   UNL A   1      34.036  35.690  32.010  1.00  0.00     0.296 C 
BRANCH   5   6
ATOM      6  N   UNL A   1      34.451  36.920  32.742  1.00  0.00    -0.346 N 
ATOM      7  H   UNL A   1      35.400  36.801  33.096  1.00  0.00     0.345 HD
ATOM      8  H   UNL A   1      33.815  37.083  33.521  1.00  0.00     0.345 HD
ATOM      9  H   UNL A   1      34.423  37.718  32.106  1.00  0.00     0.345 HD
ENDBRANCH   5   6
BRANCH   5  10
ATOM     10  C   UNL A   1      34.130  34.413  32.845  1.00  0.00     0.115 C 
BRANCH  10  11
ATOM     11  C   UNL A   1      35.444  34.185  33.486  1.00  0.00    -0.015 A 
ATOM     12  C   UNL A   1      35.655  33.905  34.810  1.00  0.00     0.099 A 
ATOM     13  C   UNL A   1      36.721  34.187  32.851  1.00  0.00     0.004 A 
ATOM     14  N   UNL A   1      37.006  33.848  35.037  1.00  0.00    -0.285 N 
ATOM     15  C   UNL A   1      37.688  34.058  33.854  1.00  0.00     0.056 A 
ATOM     16  C   UNL A   1      37.141  34.298  31.509  1.00  0.00     0.010 A 
ATOM     17  C   UNL A   1      39.061  34.071  33.559  1.00  0.00     0.027 A 
ATOM     18  C   UNL A   1      38.502  34.292  31.205  1.00  0.00     0.001 A 
ATOM     19  C   UNL A   1      39.447  34.191  32.219  1.00  0.00     0.002 A 
BRANCH  14  20
ATOM     20  C   UNL A   1      37.534  33.604  36.323  1.00  0.00     0.240 A 
ATOM     21  N   UNL A   1      36.832  32.858  37.161  1.00  0.00    -0.181 NA
ATOM     22  N   UNL A   1      38.805  33.979  36.507  1.00  0.00    -0.176 NA
ATOM     23  C   UNL A   1      37.580  32.394  38.147  1.00  0.00     0.228 A 
ATOM     24  C   UNL A   1      39.414  33.524  37.588  1.00  0.00     0.231 A 
ATOM     25  Cl  UNL A   1      36.825  31.251  39.171  1.00  0.00    -0.041 Cl
ATOM     26  N   UNL A   1      38.855  32.661  38.419  1.00  0.00    -0.182 NA
BRANCH  24  27
ATOM     27  N   UNL A   1      40.700  33.951  37.781  1.00  0.00    -0.336 N 
ATOM     28  C   UNL A   1      40.989  35.348  37.453  1.00  0.00     0.148 C 
ATOM     29  C   UNL A   1      41.506  33.369  38.842  1.00  0.00     0.148 C 
ATOM     30  C   UNL A   1      42.499  35.526  37.225  1.00  0.00     0.181 C 
ATOM     31  C   UNL A   1      42.986  33.594  38.494  1.00  0.00     0.181 C 
ATOM     32  O   UNL A   1      43.271  34.995  38.318  1.00  0.00    -0.378 OA
ENDBRANCH  24  27
ENDBRANCH  14  20
ENDBRANCH  10  11
ENDBRANCH   5  10
ENDBRANCH   3   5
ENDBRANCH   2   3
ENDBRANCH   1   2
BRANCH   1  33
ATOM     33  C   UNL A   1      33.390  34.023  28.196  1.00  0.00     0.275 C 
BRANCH  33  34
ATOM     34  O   UNL A   1      34.290  33.023  28.693  1.00  0.00    -0.458 OA
BRANCH  34  35
ATOM     35  C   UNL A   1      34.232  31.815  28.078  1.00  0.00     0.338 C 
ATOM     36  O   UNL A   1      33.266  31.345  27.492  1.00  0.00    -0.246 OA
BRANCH  35  37
ATOM     37  C   UNL A   1      35.625  31.327  27.969  1.00  0.00     0.060 A 
ATOM     38  C   UNL A   1      35.896  29.975  27.719  1.00  0.00     0.016 A 
ATOM     39  C   UNL A   1      36.638  32.182  28.404  1.00  0.00     0.016 A 
ATOM     40  C   UNL A   1      37.122  29.439  28.098  1.00  0.00     0.010 A 
ATOM     41  C   UNL A   1      37.868  31.642  28.768  1.00  0.00     0.010 A 
ATOM     42  C   UNL A   1      38.074  30.257  28.712  1.00  0.00    -0.014 A 
BRANCH  42  43
ATOM     43  C   UNL A   1      39.368  29.694  29.096  1.00  0.00     0.031 A 
ATOM     44  C   UNL A   1      39.665  29.940  30.516  1.00  0.00     0.074 A 
ATOM     45  C   UNL A   1      40.247  28.981  28.357  1.00  0.00     0.049 A 
ATOM     46  N   UNL A   1      40.485  30.837  30.955  1.00  0.00    -0.248 NA
ATOM     47  C   UNL A   1      38.868  29.269  31.547  1.00  0.00     0.031 C 
ATOM     48  C   UNL A   1      40.133  28.532  26.979  1.00  0.00     0.029 A 
ATOM     49  N   UNL A   1      41.429  28.409  28.742  1.00  0.00    -0.354 N 
ATOM     50  C   UNL A   1      40.477  30.679  32.326  1.00  0.00     0.074 A 
ATOM     51  C   UNL A   1      39.333  29.861  32.648  1.00  0.00     0.031 C 
ATOM     52  C   UNL A   1      41.013  27.530  26.739  1.00  0.00     0.029 A 
ATOM     53  C   UNL A   1      41.899  27.421  27.877  1.00  0.00     0.049 A 
ATOM     54  H   UNL A   1      41.908  28.673  29.561  1.00  0.00     0.167 HD
ATOM     55  C   UNL A   1      41.560  30.996  33.079  1.00  0.00     0.034 A 
ATOM     56  C   UNL A   1      42.970  26.608  28.056  1.00  0.00     0.034 A 
ATOM     57  C   UNL A   1      42.543  31.758  32.364  1.00  0.00     0.049 A 
ATOM     58  C   UNL A   1      43.893  27.352  28.937  1.00  0.00     0.074 A 
ATOM     59  C   UNL A   1      42.554  32.967  31.697  1.00  0.00     0.029 A 
ATOM     60  N   UNL A   1      43.656  31.079  31.931  1.00  0.00    -0.354 N 
ATOM     61  N   UNL A   1      44.509  28.442  28.576  1.00  0.00    -0.248 NA
ATOM     62  C   UNL A   1      43.829  27.102  30.364  1.00  0.00     0.031 C 
ATOM     63  C   UNL A   1      43.414  32.772  30.577  1.00  0.00     0.029 A 
ATOM     64  C   UNL A   1      43.905  31.467  30.641  1.00  0.00     0.049 A 
ATOM     65  H   UNL A   1      44.180  30.430  32.453  1.00  0.00     0.167 HD
ATOM     66  C   UNL A   1      44.484  29.231  29.715  1.00  0.00     0.074 A 
ATOM     67  C   UNL A   1      44.161  28.315  30.806  1.00  0.00     0.031 C 
ATOM     68  C   UNL A   1      44.445  30.591  29.624  1.00  0.00     0.034 A 
BRANCH  55  69
ATOM     69  C   UNL A   1      41.867  30.280  34.352  1.00  0.00     0.023 A 
ATOM     70  C   UNL A   1      42.209  31.038  35.483  1.00  0.00     0.012 A 
ATOM     71  C   UNL A   1      42.039  28.877  34.413  1.00  0.00     0.148 A 
ATOM     72  C   UNL A   1      42.675  30.417  36.645  1.00  0.00     0.002 A 
ATOM     73  C   UNL A   1      42.415  28.260  35.594  1.00  0.00     0.091 A 
ATOM     74  F   UNL A   1      41.954  28.152  33.290  1.00  0.00    -0.205 F 
ATOM     75  C   UNL A   1      42.752  29.028  36.711  1.00  0.00     0.022 A 
BRANCH  73  76
ATOM     76  S   UNL A   1      42.466  26.473  35.735  1.00  0.00     0.127 S 
ATOM     77  O   UNL A   1      42.703  26.300  37.164  1.00  0.00    -0.237 OA
ATOM     78  O   UNL A   1      41.129  26.097  35.274  1.00  0.00    -0.237 OA
ATOM     79  O   UNL A   1      43.542  26.052  34.846  1.00  0.00    -0.744 OA
ENDBRANCH  73  76
ENDBRANCH  55  69
BRANCH  56  80
ATOM     80  C   UNL A   1      43.176  25.163  27.766  1.00  0.00     0.023 A 
ATOM     81  C   UNL A   1      42.292  24.220  28.342  1.00  0.00     0.012 A 
ATOM     82  C   UNL A   1      43.984  24.736  26.691  1.00  0.00     0.148 A 
ATOM     83  C   UNL A   1      42.153  22.931  27.811  1.00  0.00     0.002 A 
ATOM     84  C   UNL A   1      43.843  23.449  26.168  1.00  0.00     0.091 A 
ATOM     85  F   UNL A   1      44.817  25.616  26.120  1.00  0.00    -0.205 F 
ATOM     86  C   UNL A   1      42.913  22.552  26.712  1.00  0.00     0.022 A 
BRANCH  84  87
ATOM     87  S   UNL A   1      44.780  22.884  24.739  1.00  0.00     0.127 S 
ATOM     88  O   UNL A   1      45.515  21.742  25.285  1.00  0.00    -0.237 OA
ATOM     89  O   UNL A   1      43.719  22.534  23.798  1.00  0.00    -0.237 OA
ATOM     90  O   UNL A   1      45.623  24.009  24.353  1.00  0.00    -0.744 OA
ENDBRANCH  84  87
ENDBRANCH  56  80
BRANCH  68  91
ATOM     91  C   UNL A   1      44.737  31.223  28.287  1.00  0.00     0.023 A 
ATOM     92  C   UNL A   1      43.730  31.469  27.331  1.00  0.00     0.012 A 
ATOM     93  C   UNL A   1      46.023  31.749  28.077  1.00  0.00     0.148 A 
ATOM     94  C   UNL A   1      44.002  32.227  26.188  1.00  0.00     0.002 A 
ATOM     95  C   UNL A   1      46.280  32.532  26.959  1.00  0.00     0.091 A 
ATOM     96  F   UNL A   1      46.961  31.507  29.005  1.00  0.00    -0.205 F 
ATOM     97  C   UNL A   1      45.274  32.771  26.010  1.00  0.00     0.022 A 
BRANCH  95  98
ATOM     98  S   UNL A   1      47.860  33.350  26.718  1.00  0.00     0.127 S 
ATOM     99  O   UNL A   1      47.602  34.172  25.537  1.00  0.00    -0.237 OA
ATOM    100  O   UNL A   1      48.012  34.101  27.964  1.00  0.00    -0.237 OA
ATOM    101  O   UNL A   1      48.843  32.291  26.531  1.00  0.00    -0.744 OA
ENDBRANCH  95  98
ENDBRANCH  68  91
ENDBRANCH  42  43
ENDBRANCH  35  37
ENDBRANCH  34  35
ENDBRANCH  33  34
ENDBRANCH   1  33
TORSDOF 19
ENDMDL
