MODEL 1
REMARK VINA RESULT:     -10.9      0.000      0.000
REMARK SMILES CCOC(=O)c1noc(C)c1C(=O)OCCOC(=O)c1ccc(-c2c3nc(c(-c4cccc(S(=O)(=O)[O-])c4F)c4ccc([nH]4)c(-c4cccc(S(=O)(=O)[O-])c4F)c4nc(c(-c5cccc(S(=O)(=O)[O-])c5F)c5ccc2[nH]5)C=C4)C=C3)cc1
REMARK SMILES IDX 15 1 14 2 12 3 13 4 11 5 6 6 7 7 8 8 9 9 10 10 4 11 5 12
REMARK SMILES IDX 3 13 2 14 1 15 16 16 17 17 18 18 19 19 20 20 21 21 82 22
REMARK SMILES IDX 22 23 81 24 23 25 24 26 25 27 75 28 26 29 80 30 74 31 76 32
REMARK SMILES IDX 27 33 79 34 73 35 72 36 28 38 60 39 40 40 59 41 41 42 44 43
REMARK SMILES IDX 58 44 77 45 42 46 43 47 57 49 78 50 45 51 29 52 30 53 38 54
REMARK SMILES IDX 31 55 33 56 39 57 32 58 34 59 35 60 36 61 37 62 61 63 62 64
REMARK SMILES IDX 70 65 63 66 65 67 71 68 64 69 66 70 67 71 68 72 69 73 46 74
REMARK SMILES IDX 47 75 55 76 48 77 50 78 56 79 49 80 51 81 52 82 53 83 54 84
REMARK H PARENT 76 37 44 48
REMARK Flexibility Score: inf
ROOT
ATOM      1  C   UNL A   1      32.144  28.621  26.224  1.00  0.00     0.275 C 
ENDROOT
BRANCH   1   2
ATOM      2  O   UNL A   1      32.542  27.878  25.054  1.00  0.00    -0.458 OA
BRANCH   2   3
ATOM      3  C   UNL A   1      31.972  28.241  23.869  1.00  0.00     0.344 C 
ATOM      4  O   UNL A   1      32.543  28.857  22.984  1.00  0.00    -0.246 OA
BRANCH   3   5
ATOM      5  C   UNL A   1      30.594  27.824  23.784  1.00  0.00     0.137 A 
ATOM      6  C   UNL A   1      29.470  28.526  23.262  1.00  0.00     0.206 A 
ATOM      7  N   UNL A   1      28.361  27.768  23.330  1.00  0.00    -0.072 NA
ATOM      8  O   UNL A   1      28.743  26.584  23.922  1.00  0.00    -0.360 OA
ATOM      9  C   UNL A   1      30.076  26.609  24.178  1.00  0.00     0.149 A 
ATOM     10  C   UNL A   1      30.625  25.398  24.815  1.00  0.00     0.092 C 
BRANCH   6  11
ATOM     11  C   UNL A   1      29.442  29.851  22.654  1.00  0.00     0.361 C 
ATOM     12  O   UNL A   1      29.662  30.050  21.470  1.00  0.00    -0.244 OA
BRANCH  11  13
ATOM     13  O   UNL A   1      29.055  30.813  23.548  1.00  0.00    -0.461 OA
BRANCH  13  14
ATOM     14  C   UNL A   1      28.171  31.826  23.048  1.00  0.00     0.230 C 
ATOM     15  C   UNL A   1      28.857  33.175  22.986  1.00  0.00     0.049 C 
ENDBRANCH  13  14
ENDBRANCH  11  13
ENDBRANCH   6  11
ENDBRANCH   3   5
ENDBRANCH   2   3
ENDBRANCH   1   2
BRANCH   1  16
ATOM     16  C   UNL A   1      32.521  30.094  26.087  1.00  0.00     0.275 C 
BRANCH  16  17
ATOM     17  O   UNL A   1      32.815  30.629  27.388  1.00  0.00    -0.458 OA
BRANCH  17  18
ATOM     18  C   UNL A   1      33.690  31.659  27.433  1.00  0.00     0.338 C 
ATOM     19  O   UNL A   1      33.466  32.825  27.154  1.00  0.00    -0.246 OA
BRANCH  18  20
ATOM     20  C   UNL A   1      35.007  31.173  27.886  1.00  0.00     0.060 A 
ATOM     21  C   UNL A   1      35.177  29.832  28.221  1.00  0.00     0.016 A 
ATOM     22  C   UNL A   1      36.048  32.079  28.096  1.00  0.00     0.016 A 
ATOM     23  C   UNL A   1      36.344  29.420  28.866  1.00  0.00     0.010 A 
ATOM     24  C   UNL A   1      37.257  31.639  28.649  1.00  0.00     0.010 A 
ATOM     25  C   UNL A   1      37.405  30.312  29.088  1.00  0.00    -0.014 A 
BRANCH  25  26
ATOM     26  C   UNL A   1      38.634  29.856  29.804  1.00  0.00     0.031 A 
ATOM     27  C   UNL A   1      39.566  28.846  29.181  1.00  0.00     0.074 A 
ATOM     28  C   UNL A   1      38.947  30.381  31.006  1.00  0.00     0.049 A 
ATOM     29  N   UNL A   1      40.628  28.278  29.698  1.00  0.00    -0.248 NA
ATOM     30  C   UNL A   1      39.279  28.419  27.801  1.00  0.00     0.031 C 
ATOM     31  C   UNL A   1      38.158  31.386  31.718  1.00  0.00     0.029 A 
ATOM     32  N   UNL A   1      40.018  30.152  31.838  1.00  0.00    -0.354 N 
ATOM     33  C   UNL A   1      41.110  27.406  28.729  1.00  0.00     0.074 A 
ATOM     34  C   UNL A   1      40.223  27.512  27.589  1.00  0.00     0.031 C 
ATOM     35  C   UNL A   1      38.793  31.726  32.848  1.00  0.00     0.029 A 
ATOM     36  C   UNL A   1      39.984  30.896  32.995  1.00  0.00     0.049 A 
ATOM     37  H   UNL A   1      40.739  29.517  31.628  1.00  0.00     0.167 HD
ATOM     38  C   UNL A   1      42.204  26.609  28.767  1.00  0.00     0.034 A 
ATOM     39  C   UNL A   1      40.789  30.892  34.077  1.00  0.00     0.034 A 
ATOM     40  C   UNL A   1      43.127  26.539  29.868  1.00  0.00     0.049 A 
ATOM     41  C   UNL A   1      41.947  29.941  34.129  1.00  0.00     0.074 A 
ATOM     42  C   UNL A   1      44.280  25.779  29.974  1.00  0.00     0.029 A 
ATOM     43  N   UNL A   1      43.013  27.259  31.046  1.00  0.00    -0.354 N 
ATOM     44  N   UNL A   1      42.397  29.141  33.193  1.00  0.00    -0.248 NA
ATOM     45  C   UNL A   1      42.700  29.876  35.391  1.00  0.00     0.031 C 
ATOM     46  C   UNL A   1      44.862  26.037  31.222  1.00  0.00     0.029 A 
ATOM     47  C   UNL A   1      44.065  26.951  31.891  1.00  0.00     0.049 A 
ATOM     48  H   UNL A   1      42.290  27.895  31.251  1.00  0.00     0.167 HD
ATOM     49  C   UNL A   1      43.471  28.465  33.756  1.00  0.00     0.074 A 
ATOM     50  C   UNL A   1      43.636  28.981  35.100  1.00  0.00     0.031 C 
ATOM     51  C   UNL A   1      44.229  27.479  33.219  1.00  0.00     0.034 A 
BRANCH  38  52
ATOM     52  C   UNL A   1      42.509  25.779  27.552  1.00  0.00     0.023 A 
ATOM     53  C   UNL A   1      43.285  26.342  26.519  1.00  0.00     0.012 A 
ATOM     54  C   UNL A   1      42.114  24.430  27.469  1.00  0.00     0.148 A 
ATOM     55  C   UNL A   1      43.660  25.576  25.417  1.00  0.00     0.002 A 
ATOM     56  C   UNL A   1      42.510  23.665  26.377  1.00  0.00     0.091 A 
ATOM     57  F   UNL A   1      41.353  23.925  28.451  1.00  0.00    -0.205 F 
ATOM     58  C   UNL A   1      43.283  24.236  25.352  1.00  0.00     0.022 A 
BRANCH  56  59
ATOM     59  S   UNL A   1      42.113  21.919  26.227  1.00  0.00     0.127 S 
ATOM     60  O   UNL A   1      42.500  21.416  27.544  1.00  0.00    -0.237 OA
ATOM     61  O   UNL A   1      40.671  21.946  25.984  1.00  0.00    -0.237 OA
ATOM     62  O   UNL A   1      42.905  21.426  25.110  1.00  0.00    -0.744 OA
ENDBRANCH  56  59
ENDBRANCH  38  52
BRANCH  39  63
ATOM     63  C   UNL A   1      40.503  31.826  35.203  1.00  0.00     0.023 A 
ATOM     64  C   UNL A   1      41.205  33.041  35.297  1.00  0.00     0.012 A 
ATOM     65  C   UNL A   1      39.470  31.561  36.122  1.00  0.00     0.148 A 
ATOM     66  C   UNL A   1      40.875  33.976  36.280  1.00  0.00     0.002 A 
ATOM     67  C   UNL A   1      39.097  32.529  37.048  1.00  0.00     0.091 A 
ATOM     68  F   UNL A   1      38.829  30.384  36.054  1.00  0.00    -0.205 F 
ATOM     69  C   UNL A   1      39.806  33.732  37.141  1.00  0.00     0.022 A 
BRANCH  67  70
ATOM     70  S   UNL A   1      37.599  32.306  38.013  1.00  0.00     0.127 S 
ATOM     71  O   UNL A   1      36.624  33.090  37.262  1.00  0.00    -0.237 OA
ATOM     72  O   UNL A   1      37.389  30.858  37.966  1.00  0.00    -0.237 OA
ATOM     73  O   UNL A   1      37.961  32.806  39.336  1.00  0.00    -0.744 OA
ENDBRANCH  67  70
ENDBRANCH  39  63
BRANCH  51  74
ATOM     74  C   UNL A   1      45.269  26.850  34.103  1.00  0.00     0.023 A 
ATOM     75  C   UNL A   1      46.556  27.421  34.142  1.00  0.00     0.012 A 
ATOM     76  C   UNL A   1      44.976  25.746  34.925  1.00  0.00     0.148 A 
ATOM     77  C   UNL A   1      47.542  26.894  34.974  1.00  0.00     0.002 A 
ATOM     78  C   UNL A   1      45.957  25.242  35.774  1.00  0.00     0.091 A 
ATOM     79  F   UNL A   1      43.754  25.198  34.856  1.00  0.00    -0.205 F 
ATOM     80  C   UNL A   1      47.240  25.811  35.796  1.00  0.00     0.022 A 
BRANCH  78  81
ATOM     81  S   UNL A   1      45.617  23.888  36.906  1.00  0.00     0.127 S 
ATOM     82  O   UNL A   1      45.001  22.903  36.020  1.00  0.00    -0.237 OA
ATOM     83  O   UNL A   1      46.952  23.527  37.386  1.00  0.00    -0.237 OA
ATOM     84  O   UNL A   1      44.750  24.454  37.931  1.00  0.00    -0.744 OA
ENDBRANCH  78  81
ENDBRANCH  51  74
ENDBRANCH  25  26
ENDBRANCH  18  20
ENDBRANCH  17  18
ENDBRANCH  16  17
ENDBRANCH   1  16
TORSDOF 17
ENDMDL
MODEL 2
REMARK VINA RESULT:     -10.8      1.154      2.237
REMARK SMILES CCOC(=O)c1noc(C)c1C(=O)OCCOC(=O)c1ccc(-c2c3nc(c(-c4cccc(S(=O)(=O)[O-])c4F)c4ccc([nH]4)c(-c4cccc(S(=O)(=O)[O-])c4F)c4nc(c(-c5cccc(S(=O)(=O)[O-])c5F)c5ccc2[nH]5)C=C4)C=C3)cc1
REMARK SMILES IDX 15 1 14 2 12 3 13 4 11 5 6 6 7 7 8 8 9 9 10 10 4 11 5 12
REMARK SMILES IDX 3 13 2 14 1 15 16 16 17 17 18 18 19 19 20 20 21 21 82 22
REMARK SMILES IDX 22 23 81 24 23 25 24 26 25 27 75 28 26 29 80 30 74 31 76 32
REMARK SMILES IDX 27 33 79 34 73 35 72 36 28 38 60 39 40 40 59 41 41 42 44 43
REMARK SMILES IDX 58 44 77 45 42 46 43 47 57 49 78 50 45 51 29 52 30 53 38 54
REMARK SMILES IDX 31 55 33 56 39 57 32 58 34 59 35 60 36 61 37 62 61 63 62 64
REMARK SMILES IDX 70 65 63 66 65 67 71 68 64 69 66 70 67 71 68 72 69 73 46 74
REMARK SMILES IDX 47 75 55 76 48 77 50 78 56 79 49 80 51 81 52 82 53 83 54 84
REMARK H PARENT 76 37 44 48
REMARK Flexibility Score: inf
ROOT
ATOM      1  C   UNL A   1      32.732  29.516  25.141  1.00  0.00     0.275 C 
ENDROOT
BRANCH   1   2
ATOM      2  O   UNL A   1      31.894  28.350  25.010  1.00  0.00    -0.458 OA
BRANCH   2   3
ATOM      3  C   UNL A   1      31.257  28.179  23.815  1.00  0.00     0.344 C 
ATOM      4  O   UNL A   1      30.904  29.088  23.082  1.00  0.00    -0.246 OA
BRANCH   3   5
ATOM      5  C   UNL A   1      31.031  26.787  23.519  1.00  0.00     0.137 A 
ATOM      6  C   UNL A   1      31.952  25.798  23.069  1.00  0.00     0.206 A 
ATOM      7  N   UNL A   1      31.348  24.603  22.950  1.00  0.00    -0.072 NA
ATOM      8  O   UNL A   1      30.029  24.805  23.289  1.00  0.00    -0.360 OA
ATOM      9  C   UNL A   1      29.841  26.102  23.644  1.00  0.00     0.149 A 
ATOM     10  C   UNL A   1      28.466  26.463  24.034  1.00  0.00     0.092 C 
BRANCH   6  11
ATOM     11  C   UNL A   1      33.380  25.952  22.815  1.00  0.00     0.361 C 
ATOM     12  O   UNL A   1      33.836  26.281  21.732  1.00  0.00    -0.244 OA
BRANCH  11  13
ATOM     13  O   UNL A   1      34.121  25.772  23.952  1.00  0.00    -0.461 OA
BRANCH  13  14
ATOM     14  C   UNL A   1      34.473  24.419  24.273  1.00  0.00     0.230 C 
ATOM     15  C   UNL A   1      35.440  24.363  25.438  1.00  0.00     0.049 C 
ENDBRANCH  13  14
ENDBRANCH  11  13
ENDBRANCH   6  11
ENDBRANCH   3   5
ENDBRANCH   2   3
ENDBRANCH   1   2
BRANCH   1  16
ATOM     16  C   UNL A   1      32.113  30.525  26.105  1.00  0.00     0.275 C 
BRANCH  16  17
ATOM     17  O   UNL A   1      32.838  30.501  27.345  1.00  0.00    -0.458 OA
BRANCH  17  18
ATOM     18  C   UNL A   1      33.648  31.555  27.591  1.00  0.00     0.338 C 
ATOM     19  O   UNL A   1      33.368  32.738  27.485  1.00  0.00    -0.246 OA
BRANCH  18  20
ATOM     20  C   UNL A   1      34.973  31.073  28.027  1.00  0.00     0.060 A 
ATOM     21  C   UNL A   1      35.137  29.748  28.421  1.00  0.00     0.016 A 
ATOM     22  C   UNL A   1      36.031  31.974  28.160  1.00  0.00     0.016 A 
ATOM     23  C   UNL A   1      36.318  29.352  29.049  1.00  0.00     0.010 A 
ATOM     24  C   UNL A   1      37.251  31.544  28.696  1.00  0.00     0.010 A 
ATOM     25  C   UNL A   1      37.396  30.238  29.195  1.00  0.00    -0.014 A 
BRANCH  25  26
ATOM     26  C   UNL A   1      38.641  29.801  29.894  1.00  0.00     0.031 A 
ATOM     27  C   UNL A   1      39.581  28.805  29.258  1.00  0.00     0.074 A 
ATOM     28  C   UNL A   1      38.963  30.329  31.092  1.00  0.00     0.049 A 
ATOM     29  N   UNL A   1      40.657  28.252  29.760  1.00  0.00    -0.248 NA
ATOM     30  C   UNL A   1      39.281  28.375  27.882  1.00  0.00     0.031 C 
ATOM     31  C   UNL A   1      38.169  31.322  31.816  1.00  0.00     0.029 A 
ATOM     32  N   UNL A   1      40.049  30.116  31.910  1.00  0.00    -0.354 N 
ATOM     33  C   UNL A   1      41.139  27.389  28.784  1.00  0.00     0.074 A 
ATOM     34  C   UNL A   1      40.237  27.482  27.656  1.00  0.00     0.031 C 
ATOM     35  C   UNL A   1      38.813  31.671  32.937  1.00  0.00     0.029 A 
ATOM     36  C   UNL A   1      40.019  30.859  33.068  1.00  0.00     0.049 A 
ATOM     37  H   UNL A   1      40.776  29.492  31.689  1.00  0.00     0.167 HD
ATOM     38  C   UNL A   1      42.246  26.608  28.807  1.00  0.00     0.034 A 
ATOM     39  C   UNL A   1      40.838  30.866  34.139  1.00  0.00     0.034 A 
ATOM     40  C   UNL A   1      43.184  26.551  29.895  1.00  0.00     0.049 A 
ATOM     41  C   UNL A   1      42.011  29.932  34.174  1.00  0.00     0.074 A 
ATOM     42  C   UNL A   1      44.350  25.808  29.986  1.00  0.00     0.029 A 
ATOM     43  N   UNL A   1      43.075  27.269  31.075  1.00  0.00    -0.354 N 
ATOM     44  N   UNL A   1      42.460  29.140  33.232  1.00  0.00    -0.248 NA
ATOM     45  C   UNL A   1      42.781  29.877  35.426  1.00  0.00     0.031 C 
ATOM     46  C   UNL A   1      44.944  26.074  31.226  1.00  0.00     0.029 A 
ATOM     47  C   UNL A   1      44.144  26.976  31.907  1.00  0.00     0.049 A 
ATOM     48  H   UNL A   1      42.346  27.893  31.291  1.00  0.00     0.167 HD
ATOM     49  C   UNL A   1      43.552  28.480  33.780  1.00  0.00     0.074 A 
ATOM     50  C   UNL A   1      43.726  28.997  35.122  1.00  0.00     0.031 C 
ATOM     51  C   UNL A   1      44.317  27.505  33.233  1.00  0.00     0.034 A 
BRANCH  38  52
ATOM     52  C   UNL A   1      42.547  25.784  27.587  1.00  0.00     0.023 A 
ATOM     53  C   UNL A   1      43.336  26.345  26.563  1.00  0.00     0.012 A 
ATOM     54  C   UNL A   1      42.136  24.440  27.492  1.00  0.00     0.148 A 
ATOM     55  C   UNL A   1      43.707  25.582  25.457  1.00  0.00     0.002 A 
ATOM     56  C   UNL A   1      42.529  23.679  26.397  1.00  0.00     0.091 A 
ATOM     57  F   UNL A   1      41.364  23.937  28.466  1.00  0.00    -0.205 F 
ATOM     58  C   UNL A   1      43.314  24.247  25.379  1.00  0.00     0.022 A 
BRANCH  56  59
ATOM     59  S   UNL A   1      42.111  21.939  26.231  1.00  0.00     0.127 S 
ATOM     60  O   UNL A   1      42.498  21.419  27.541  1.00  0.00    -0.237 OA
ATOM     61  O   UNL A   1      40.668  21.985  25.995  1.00  0.00    -0.237 OA
ATOM     62  O   UNL A   1      42.893  21.447  25.105  1.00  0.00    -0.744 OA
ENDBRANCH  56  59
ENDBRANCH  38  52
BRANCH  39  63
ATOM     63  C   UNL A   1      40.552  31.795  35.269  1.00  0.00     0.023 A 
ATOM     64  C   UNL A   1      41.307  32.973  35.411  1.00  0.00     0.012 A 
ATOM     65  C   UNL A   1      39.474  31.565  36.144  1.00  0.00     0.148 A 
ATOM     66  C   UNL A   1      40.984  33.907  36.398  1.00  0.00     0.002 A 
ATOM     67  C   UNL A   1      39.112  32.535  37.072  1.00  0.00     0.091 A 
ATOM     68  F   UNL A   1      38.781  30.421  36.031  1.00  0.00    -0.205 F 
ATOM     69  C   UNL A   1      39.872  33.701  37.213  1.00  0.00     0.022 A 
BRANCH  67  70
ATOM     70  S   UNL A   1      37.568  32.369  37.976  1.00  0.00     0.127 S 
ATOM     71  O   UNL A   1      36.635  33.118  37.141  1.00  0.00    -0.237 OA
ATOM     72  O   UNL A   1      37.351  30.921  37.992  1.00  0.00    -0.237 OA
ATOM     73  O   UNL A   1      37.871  32.933  39.287  1.00  0.00    -0.744 OA
ENDBRANCH  67  70
ENDBRANCH  39  63
BRANCH  51  74
ATOM     74  C   UNL A   1      45.378  26.891  34.102  1.00  0.00     0.023 A 
ATOM     75  C   UNL A   1      46.668  27.456  34.092  1.00  0.00     0.012 A 
ATOM     76  C   UNL A   1      45.103  25.808  34.957  1.00  0.00     0.148 A 
ATOM     77  C   UNL A   1      47.674  26.943  34.908  1.00  0.00     0.002 A 
ATOM     78  C   UNL A   1      46.104  25.319  35.790  1.00  0.00     0.091 A 
ATOM     79  F   UNL A   1      43.876  25.266  34.935  1.00  0.00    -0.205 F 
ATOM     80  C   UNL A   1      47.390  25.881  35.764  1.00  0.00     0.022 A 
BRANCH  78  81
ATOM     81  S   UNL A   1      45.789  23.994  36.963  1.00  0.00     0.127 S 
ATOM     82  O   UNL A   1      47.092  23.847  37.607  1.00  0.00    -0.237 OA
ATOM     83  O   UNL A   1      44.747  24.563  37.819  1.00  0.00    -0.237 OA
ATOM     84  O   UNL A   1      45.346  22.865  36.156  1.00  0.00    -0.744 OA
ENDBRANCH  78  81
ENDBRANCH  51  74
ENDBRANCH  25  26
ENDBRANCH  18  20
ENDBRANCH  17  18
ENDBRANCH  16  17
ENDBRANCH   1  16
TORSDOF 17
ENDMDL
MODEL 3
REMARK VINA RESULT:     -10.8      1.841      2.786
REMARK SMILES CCOC(=O)c1noc(C)c1C(=O)OCCOC(=O)c1ccc(-c2c3nc(c(-c4cccc(S(=O)(=O)[O-])c4F)c4ccc([nH]4)c(-c4cccc(S(=O)(=O)[O-])c4F)c4nc(c(-c5cccc(S(=O)(=O)[O-])c5F)c5ccc2[nH]5)C=C4)C=C3)cc1
REMARK SMILES IDX 15 1 14 2 12 3 13 4 11 5 6 6 7 7 8 8 9 9 10 10 4 11 5 12
REMARK SMILES IDX 3 13 2 14 1 15 16 16 17 17 18 18 19 19 20 20 21 21 82 22
REMARK SMILES IDX 22 23 81 24 23 25 24 26 25 27 75 28 26 29 80 30 74 31 76 32
REMARK SMILES IDX 27 33 79 34 73 35 72 36 28 38 60 39 40 40 59 41 41 42 44 43
REMARK SMILES IDX 58 44 77 45 42 46 43 47 57 49 78 50 45 51 29 52 30 53 38 54
REMARK SMILES IDX 31 55 33 56 39 57 32 58 34 59 35 60 36 61 37 62 61 63 62 64
REMARK SMILES IDX 70 65 63 66 65 67 71 68 64 69 66 70 67 71 68 72 69 73 46 74
REMARK SMILES IDX 47 75 55 76 48 77 50 78 56 79 49 80 51 81 52 82 53 83 54 84
REMARK H PARENT 76 37 44 48
REMARK Flexibility Score: inf
ROOT
ATOM      1  C   UNL A   1      32.284  29.441  24.978  1.00  0.00     0.275 C 
ENDROOT
BRANCH   1   2
ATOM      2  O   UNL A   1      31.369  28.360  24.707  1.00  0.00    -0.458 OA
BRANCH   2   3
ATOM      3  C   UNL A   1      31.257  27.958  23.408  1.00  0.00     0.344 C 
ATOM      4  O   UNL A   1      31.344  28.699  22.443  1.00  0.00    -0.246 OA
BRANCH   3   5
ATOM      5  C   UNL A   1      31.005  26.542  23.301  1.00  0.00     0.137 A 
ATOM      6  C   UNL A   1      31.881  25.498  22.886  1.00  0.00     0.206 A 
ATOM      7  N   UNL A   1      31.270  24.303  22.967  1.00  0.00    -0.072 NA
ATOM      8  O   UNL A   1      29.988  24.558  23.402  1.00  0.00    -0.360 OA
ATOM      9  C   UNL A   1      29.834  25.889  23.617  1.00  0.00     0.149 A 
ATOM     10  C   UNL A   1      28.501  26.307  24.090  1.00  0.00     0.092 C 
BRANCH   6  11
ATOM     11  C   UNL A   1      33.279  25.606  22.483  1.00  0.00     0.361 C 
ATOM     12  O   UNL A   1      33.631  25.764  21.325  1.00  0.00    -0.244 OA
BRANCH  11  13
ATOM     13  O   UNL A   1      34.121  25.600  23.561  1.00  0.00    -0.461 OA
BRANCH  13  14
ATOM     14  C   UNL A   1      34.511  24.312  24.056  1.00  0.00     0.230 C 
ATOM     15  C   UNL A   1      35.273  24.429  25.360  1.00  0.00     0.049 C 
ENDBRANCH  13  14
ENDBRANCH  11  13
ENDBRANCH   6  11
ENDBRANCH   3   5
ENDBRANCH   2   3
ENDBRANCH   1   2
BRANCH   1  16
ATOM     16  C   UNL A   1      31.572  30.592  25.685  1.00  0.00     0.275 C 
BRANCH  16  17
ATOM     17  O   UNL A   1      32.099  30.729  27.014  1.00  0.00    -0.458 OA
BRANCH  17  18
ATOM     18  C   UNL A   1      32.842  31.832  27.258  1.00  0.00     0.338 C 
ATOM     19  O   UNL A   1      32.503  32.994  27.106  1.00  0.00    -0.246 OA
BRANCH  18  20
ATOM     20  C   UNL A   1      34.173  31.435  27.755  1.00  0.00     0.060 A 
ATOM     21  C   UNL A   1      34.443  30.098  28.031  1.00  0.00     0.016 A 
ATOM     22  C   UNL A   1      35.119  32.414  28.065  1.00  0.00     0.016 A 
ATOM     23  C   UNL A   1      35.609  29.752  28.716  1.00  0.00     0.010 A 
ATOM     24  C   UNL A   1      36.334  32.048  28.659  1.00  0.00     0.010 A 
ATOM     25  C   UNL A   1      36.575  30.717  29.039  1.00  0.00    -0.014 A 
BRANCH  25  26
ATOM     26  C   UNL A   1      37.803  30.329  29.795  1.00  0.00     0.031 A 
ATOM     27  C   UNL A   1      38.856  29.447  29.169  1.00  0.00     0.074 A 
ATOM     28  C   UNL A   1      38.005  30.803  31.042  1.00  0.00     0.049 A 
ATOM     29  N   UNL A   1      39.938  28.945  29.711  1.00  0.00    -0.248 NA
ATOM     30  C   UNL A   1      38.679  29.084  27.753  1.00  0.00     0.031 C 
ATOM     31  C   UNL A   1      37.092  31.687  31.765  1.00  0.00     0.029 A 
ATOM     32  N   UNL A   1      39.049  30.619  31.918  1.00  0.00    -0.354 N 
ATOM     33  C   UNL A   1      40.547  28.182  28.722  1.00  0.00     0.074 A 
ATOM     34  C   UNL A   1      39.714  28.279  27.542  1.00  0.00     0.031 C 
ATOM     35  C   UNL A   1      37.633  32.011  32.947  1.00  0.00     0.029 A 
ATOM     36  C   UNL A   1      38.887  31.284  33.113  1.00  0.00     0.049 A 
ATOM     37  H   UNL A   1      39.836  30.065  31.712  1.00  0.00     0.167 HD
ATOM     38  C   UNL A   1      41.707  27.485  28.776  1.00  0.00     0.034 A 
ATOM     39  C   UNL A   1      39.633  31.284  34.236  1.00  0.00     0.034 A 
ATOM     40  C   UNL A   1      42.575  27.429  29.921  1.00  0.00     0.049 A 
ATOM     41  C   UNL A   1      40.870  30.438  34.298  1.00  0.00     0.074 A 
ATOM     42  C   UNL A   1      43.787  26.769  30.049  1.00  0.00     0.029 A 
ATOM     43  N   UNL A   1      42.335  28.060  31.130  1.00  0.00    -0.354 N 
ATOM     44  N   UNL A   1      41.439  29.742  33.345  1.00  0.00    -0.248 NA
ATOM     45  C   UNL A   1      41.560  30.362  35.595  1.00  0.00     0.031 C 
ATOM     46  C   UNL A   1      44.277  27.000  31.340  1.00  0.00     0.029 A 
ATOM     47  C   UNL A   1      43.367  27.795  32.015  1.00  0.00     0.049 A 
ATOM     48  H   UNL A   1      41.547  28.615  31.331  1.00  0.00     0.167 HD
ATOM     49  C   UNL A   1      42.541  29.130  33.927  1.00  0.00     0.074 A 
ATOM     50  C   UNL A   1      42.588  29.574  35.306  1.00  0.00     0.031 C 
ATOM     51  C   UNL A   1      43.413  28.251  33.378  1.00  0.00     0.034 A 
BRANCH  38  52
ATOM     52  C   UNL A   1      42.149  26.763  27.534  1.00  0.00     0.023 A 
ATOM     53  C   UNL A   1      42.830  27.484  26.533  1.00  0.00     0.012 A 
ATOM     54  C   UNL A   1      41.976  25.373  27.395  1.00  0.00     0.148 A 
ATOM     55  C   UNL A   1      43.331  26.831  25.408  1.00  0.00     0.002 A 
ATOM     56  C   UNL A   1      42.497  24.725  26.280  1.00  0.00     0.091 A 
ATOM     57  F   UNL A   1      41.300  24.714  28.347  1.00  0.00    -0.205 F 
ATOM     58  C   UNL A   1      43.174  25.452  25.287  1.00  0.00     0.022 A 
BRANCH  56  59
ATOM     59  S   UNL A   1      42.387  22.945  26.059  1.00  0.00     0.127 S 
ATOM     60  O   UNL A   1      43.173  22.460  27.192  1.00  0.00    -0.237 OA
ATOM     61  O   UNL A   1      40.947  22.705  26.168  1.00  0.00    -0.237 OA
ATOM     62  O   UNL A   1      42.947  22.672  24.743  1.00  0.00    -0.744 OA
ENDBRANCH  56  59
ENDBRANCH  38  52
BRANCH  39  63
ATOM     63  C   UNL A   1      39.204  32.116  35.396  1.00  0.00     0.023 A 
ATOM     64  C   UNL A   1      38.456  31.532  36.434  1.00  0.00     0.012 A 
ATOM     65  C   UNL A   1      39.618  33.456  35.521  1.00  0.00     0.148 A 
ATOM     66  C   UNL A   1      38.139  32.267  37.578  1.00  0.00     0.002 A 
ATOM     67  C   UNL A   1      39.364  34.155  36.696  1.00  0.00     0.091 A 
ATOM     68  F   UNL A   1      40.296  34.021  34.511  1.00  0.00    -0.205 F 
ATOM     69  C   UNL A   1      38.612  33.571  37.721  1.00  0.00     0.022 A 
BRANCH  67  70
ATOM     70  S   UNL A   1      40.144  35.751  36.967  1.00  0.00     0.127 S 
ATOM     71  O   UNL A   1      39.666  36.110  38.298  1.00  0.00    -0.237 OA
ATOM     72  O   UNL A   1      41.572  35.435  36.893  1.00  0.00    -0.237 OA
ATOM     73  O   UNL A   1      39.663  36.566  35.856  1.00  0.00    -0.744 OA
ENDBRANCH  67  70
ENDBRANCH  39  63
BRANCH  51  74
ATOM     74  C   UNL A   1      44.461  27.664  34.282  1.00  0.00     0.023 A 
ATOM     75  C   UNL A   1      45.691  28.336  34.414  1.00  0.00     0.012 A 
ATOM     76  C   UNL A   1      44.225  26.497  35.032  1.00  0.00     0.148 A 
ATOM     77  C   UNL A   1      46.679  27.848  35.267  1.00  0.00     0.002 A 
ATOM     78  C   UNL A   1      45.204  26.030  35.903  1.00  0.00     0.091 A 
ATOM     79  F   UNL A   1      43.058  25.855  34.874  1.00  0.00    -0.205 F 
ATOM     80  C   UNL A   1      46.432  26.701  36.019  1.00  0.00     0.022 A 
BRANCH  78  81
ATOM     81  S   UNL A   1      44.928  24.595  36.948  1.00  0.00     0.127 S 
ATOM     82  O   UNL A   1      43.777  25.019  37.743  1.00  0.00    -0.237 OA
ATOM     83  O   UNL A   1      44.642  23.539  35.976  1.00  0.00    -0.237 OA
ATOM     84  O   UNL A   1      46.174  24.409  37.681  1.00  0.00    -0.744 OA
ENDBRANCH  78  81
ENDBRANCH  51  74
ENDBRANCH  25  26
ENDBRANCH  18  20
ENDBRANCH  17  18
ENDBRANCH  16  17
ENDBRANCH   1  16
TORSDOF 17
ENDMDL
