MODEL 1
REMARK VINA RESULT:     -11.1      0.000      0.000
REMARK SMILES O=C(C[C@H]1C[N@@H+](Cc2ccncc2)CCO1)OCCOC(=O)c1ccc(-c2c3nc(c(-c4cccc(S(=O)(=O)[O-])c4F)c4ccc([nH]4)c(-c4cccc(S(=O)(=O)[O-])c4F)c4nc(c(-c5cccc(S(=O)(=O)[O-])c5F)c5ccc2[nH]5)C=C4)C=C3)cc1
REMARK SMILES IDX 18 1 17 2 2 3 1 4 3 5 4 6 5 7 16 8 6 9 15 10 14 11 7 13 8 14
REMARK SMILES IDX 9 15 13 16 10 17 12 18 11 19 19 20 20 21 21 22 22 23 23 24
REMARK SMILES IDX 24 25 85 26 25 27 84 28 26 29 27 30 28 31 78 32 29 33 83 34
REMARK SMILES IDX 77 35 79 36 30 37 82 38 76 39 75 40 31 42 63 43 43 44 62 45
REMARK SMILES IDX 44 46 47 47 61 48 80 49 45 50 46 51 60 53 81 54 48 55 32 56
REMARK SMILES IDX 33 57 41 58 34 59 36 60 42 61 35 62 37 63 38 64 39 65 40 66
REMARK SMILES IDX 64 67 65 68 73 69 66 70 68 71 74 72 67 73 69 74 70 75 71 76
REMARK SMILES IDX 72 77 49 78 50 79 58 80 51 81 53 82 59 83 52 84 54 85 55 86
REMARK SMILES IDX 56 87 57 88
REMARK H PARENT 6 12 79 41 47 52
REMARK Flexibility Score: inf
ROOT
ATOM      1  C   UNL A   1      35.086  22.171  26.637  1.00  0.00     0.274 C 
ENDROOT
BRANCH   1   2
ATOM      2  O   UNL A   1      33.670  21.921  26.800  1.00  0.00    -0.462 OA
BRANCH   2   3
ATOM      3  C   UNL A   1      32.776  22.933  26.881  1.00  0.00     0.308 C 
ATOM      4  O   UNL A   1      31.824  22.845  27.646  1.00  0.00    -0.252 OA
BRANCH   3   5
ATOM      5  C   UNL A   1      33.022  24.133  26.011  1.00  0.00     0.160 C 
BRANCH   5   6
ATOM      6  C   UNL A   1      32.293  24.243  24.673  1.00  0.00     0.184 C 
ATOM      7  C   UNL A   1      31.962  25.712  24.296  1.00  0.00     0.295 C 
ATOM      8  O   UNL A   1      32.844  23.469  23.601  1.00  0.00    -0.366 OA
ATOM      9  N   UNL A   1      32.953  26.372  23.462  1.00  0.00    -0.327 N 
ATOM     10  C   UNL A   1      33.834  24.156  22.829  1.00  0.00     0.222 C 
ATOM     11  C   UNL A   1      33.376  25.541  22.353  1.00  0.00     0.291 C 
ATOM     12  H   UNL A   1      32.471  27.155  23.021  1.00  0.00     0.348 HD
BRANCH   9  13
ATOM     13  C   UNL A   1      33.768  27.466  23.966  1.00  0.00     0.299 C 
BRANCH  13  14
ATOM     14  C   UNL A   1      33.196  28.430  24.989  1.00  0.00     0.009 A 
ATOM     15  C   UNL A   1      32.159  29.321  24.708  1.00  0.00     0.029 A 
ATOM     16  C   UNL A   1      33.604  28.361  26.327  1.00  0.00     0.029 A 
ATOM     17  C   UNL A   1      31.681  30.163  25.705  1.00  0.00     0.111 A 
ATOM     18  C   UNL A   1      33.071  29.243  27.262  1.00  0.00     0.111 A 
ATOM     19  N   UNL A   1      32.115  30.148  26.981  1.00  0.00    -0.265 NA
ENDBRANCH  13  14
ENDBRANCH   9  13
ENDBRANCH   5   6
ENDBRANCH   3   5
ENDBRANCH   2   3
ENDBRANCH   1   2
BRANCH   1  20
ATOM     20  C   UNL A   1      35.735  21.406  25.476  1.00  0.00     0.275 C 
BRANCH  20  21
ATOM     21  O   UNL A   1      36.957  22.068  25.093  1.00  0.00    -0.458 OA
BRANCH  21  22
ATOM     22  C   UNL A   1      38.088  21.523  25.594  1.00  0.00     0.338 C 
ATOM     23  O   UNL A   1      38.515  20.395  25.387  1.00  0.00    -0.246 OA
BRANCH  22  24
ATOM     24  C   UNL A   1      38.856  22.575  26.281  1.00  0.00     0.060 A 
ATOM     25  C   UNL A   1      38.461  23.898  26.067  1.00  0.00     0.016 A 
ATOM     26  C   UNL A   1      39.951  22.295  27.093  1.00  0.00     0.016 A 
ATOM     27  C   UNL A   1      39.145  24.957  26.664  1.00  0.00     0.010 A 
ATOM     28  C   UNL A   1      40.657  23.358  27.674  1.00  0.00     0.010 A 
ATOM     29  C   UNL A   1      40.264  24.694  27.456  1.00  0.00    -0.014 A 
BRANCH  29  30
ATOM     30  C   UNL A   1      41.106  25.804  27.964  1.00  0.00     0.031 A 
ATOM     31  C   UNL A   1      40.459  26.895  28.763  1.00  0.00     0.074 A 
ATOM     32  C   UNL A   1      42.422  25.867  27.694  1.00  0.00     0.049 A 
ATOM     33  N   UNL A   1      40.927  28.068  29.093  1.00  0.00    -0.248 NA
ATOM     34  C   UNL A   1      39.104  26.616  29.262  1.00  0.00     0.031 C 
ATOM     35  C   UNL A   1      43.196  24.827  27.022  1.00  0.00     0.029 A 
ATOM     36  N   UNL A   1      43.328  26.878  27.915  1.00  0.00    -0.354 N 
ATOM     37  C   UNL A   1      39.900  28.699  29.783  1.00  0.00     0.074 A 
ATOM     38  C   UNL A   1      38.802  27.758  29.861  1.00  0.00     0.031 C 
ATOM     39  C   UNL A   1      44.447  25.276  26.827  1.00  0.00     0.029 A 
ATOM     40  C   UNL A   1      44.538  26.658  27.299  1.00  0.00     0.049 A 
ATOM     41  H   UNL A   1      43.130  27.676  28.457  1.00  0.00     0.167 HD
ATOM     42  C   UNL A   1      39.867  29.955  30.284  1.00  0.00     0.034 A 
ATOM     43  C   UNL A   1      45.569  27.498  27.071  1.00  0.00     0.034 A 
ATOM     44  C   UNL A   1      40.960  30.885  30.203  1.00  0.00     0.049 A 
ATOM     45  C   UNL A   1      45.490  28.921  27.563  1.00  0.00     0.074 A 
ATOM     46  C   UNL A   1      41.022  32.184  30.671  1.00  0.00     0.029 A 
ATOM     47  N   UNL A   1      42.178  30.619  29.596  1.00  0.00    -0.354 N 
ATOM     48  N   UNL A   1      44.529  29.508  28.237  1.00  0.00    -0.248 NA
ATOM     49  C   UNL A   1      46.637  29.795  27.274  1.00  0.00     0.031 C 
ATOM     50  C   UNL A   1      42.268  32.716  30.316  1.00  0.00     0.029 A 
ATOM     51  C   UNL A   1      42.994  31.733  29.661  1.00  0.00     0.049 A 
ATOM     52  H   UNL A   1      42.426  29.762  29.180  1.00  0.00     0.167 HD
ATOM     53  C   UNL A   1      44.965  30.806  28.477  1.00  0.00     0.074 A 
ATOM     54  C   UNL A   1      46.284  30.919  27.886  1.00  0.00     0.031 C 
ATOM     55  C   UNL A   1      44.327  31.816  29.119  1.00  0.00     0.034 A 
BRANCH  42  56
ATOM     56  C   UNL A   1      38.579  30.406  30.914  1.00  0.00     0.023 A 
ATOM     57  C   UNL A   1      38.278  30.059  32.246  1.00  0.00     0.012 A 
ATOM     58  C   UNL A   1      37.658  31.172  30.173  1.00  0.00     0.148 A 
ATOM     59  C   UNL A   1      37.060  30.431  32.815  1.00  0.00     0.002 A 
ATOM     60  C   UNL A   1      36.466  31.574  30.760  1.00  0.00     0.091 A 
ATOM     61  F   UNL A   1      37.950  31.466  28.897  1.00  0.00    -0.205 F 
ATOM     62  C   UNL A   1      36.159  31.193  32.076  1.00  0.00     0.022 A 
BRANCH  60  63
ATOM     63  S   UNL A   1      35.281  32.612  29.899  1.00  0.00     0.127 S 
ATOM     64  O   UNL A   1      34.904  31.758  28.774  1.00  0.00    -0.237 OA
ATOM     65  O   UNL A   1      34.233  32.791  30.906  1.00  0.00    -0.237 OA
ATOM     66  O   UNL A   1      35.999  33.831  29.555  1.00  0.00    -0.744 OA
ENDBRANCH  60  63
ENDBRANCH  42  56
BRANCH  43  67
ATOM     67  C   UNL A   1      46.749  27.018  26.293  1.00  0.00     0.023 A 
ATOM     68  C   UNL A   1      46.789  27.191  24.898  1.00  0.00     0.012 A 
ATOM     69  C   UNL A   1      47.851  26.429  26.945  1.00  0.00     0.148 A 
ATOM     70  C   UNL A   1      47.902  26.777  24.164  1.00  0.00     0.002 A 
ATOM     71  C   UNL A   1      48.980  26.075  26.218  1.00  0.00     0.091 A 
ATOM     72  F   UNL A   1      47.783  26.251  28.272  1.00  0.00    -0.205 F 
ATOM     73  C   UNL A   1      49.001  26.233  24.824  1.00  0.00     0.022 A 
BRANCH  71  74
ATOM     74  S   UNL A   1      50.492  25.502  27.000  1.00  0.00     0.127 S 
ATOM     75  O   UNL A   1      50.796  26.604  27.909  1.00  0.00    -0.237 OA
ATOM     76  O   UNL A   1      50.041  24.271  27.651  1.00  0.00    -0.237 OA
ATOM     77  O   UNL A   1      51.445  25.296  25.919  1.00  0.00    -0.744 OA
ENDBRANCH  71  74
ENDBRANCH  43  67
BRANCH  55  78
ATOM     78  C   UNL A   1      45.048  33.131  29.272  1.00  0.00     0.023 A 
ATOM     79  C   UNL A   1      45.932  33.329  30.351  1.00  0.00     0.012 A 
ATOM     80  C   UNL A   1      44.941  34.121  28.274  1.00  0.00     0.148 A 
ATOM     81  C   UNL A   1      46.686  34.499  30.441  1.00  0.00     0.002 A 
ATOM     82  C   UNL A   1      45.730  35.262  28.347  1.00  0.00     0.091 A 
ATOM     83  F   UNL A   1      44.079  33.919  27.267  1.00  0.00    -0.205 F 
ATOM     84  C   UNL A   1      46.597  35.458  29.433  1.00  0.00     0.022 A 
BRANCH  82  85
ATOM     85  S   UNL A   1      45.757  36.500  27.043  1.00  0.00     0.127 S 
ATOM     86  O   UNL A   1      46.759  37.438  27.545  1.00  0.00    -0.237 OA
ATOM     87  O   UNL A   1      46.180  35.717  25.882  1.00  0.00    -0.237 OA
ATOM     88  O   UNL A   1      44.400  37.024  26.957  1.00  0.00    -0.744 OA
ENDBRANCH  82  85
ENDBRANCH  55  78
ENDBRANCH  29  30
ENDBRANCH  22  24
ENDBRANCH  21  22
ENDBRANCH  20  21
ENDBRANCH   1  20
TORSDOF 17
ENDMDL
MODEL 2
REMARK VINA RESULT:     -11.0      5.247      9.990
REMARK SMILES O=C(C[C@H]1C[N@@H+](Cc2ccncc2)CCO1)OCCOC(=O)c1ccc(-c2c3nc(c(-c4cccc(S(=O)(=O)[O-])c4F)c4ccc([nH]4)c(-c4cccc(S(=O)(=O)[O-])c4F)c4nc(c(-c5cccc(S(=O)(=O)[O-])c5F)c5ccc2[nH]5)C=C4)C=C3)cc1
REMARK SMILES IDX 18 1 17 2 2 3 1 4 3 5 4 6 5 7 16 8 6 9 15 10 14 11 7 13 8 14
REMARK SMILES IDX 9 15 13 16 10 17 12 18 11 19 19 20 20 21 21 22 22 23 23 24
REMARK SMILES IDX 24 25 85 26 25 27 84 28 26 29 27 30 28 31 78 32 29 33 83 34
REMARK SMILES IDX 77 35 79 36 30 37 82 38 76 39 75 40 31 42 63 43 43 44 62 45
REMARK SMILES IDX 44 46 47 47 61 48 80 49 45 50 46 51 60 53 81 54 48 55 32 56
REMARK SMILES IDX 33 57 41 58 34 59 36 60 42 61 35 62 37 63 38 64 39 65 40 66
REMARK SMILES IDX 64 67 65 68 73 69 66 70 68 71 74 72 67 73 69 74 70 75 71 76
REMARK SMILES IDX 72 77 49 78 50 79 58 80 51 81 53 82 59 83 52 84 54 85 55 86
REMARK SMILES IDX 56 87 57 88
REMARK H PARENT 6 12 79 41 47 52
REMARK Flexibility Score: inf
ROOT
ATOM      1  C   UNL A   1      31.876  28.728  25.099  1.00  0.00     0.274 C 
ENDROOT
BRANCH   1   2
ATOM      2  O   UNL A   1      33.123  28.071  24.773  1.00  0.00    -0.462 OA
BRANCH   2   3
ATOM      3  C   UNL A   1      33.190  26.734  24.574  1.00  0.00     0.308 C 
ATOM      4  O   UNL A   1      33.437  26.297  23.457  1.00  0.00    -0.252 OA
BRANCH   3   5
ATOM      5  C   UNL A   1      32.958  25.854  25.768  1.00  0.00     0.160 C 
BRANCH   5   6
ATOM      6  C   UNL A   1      31.564  25.275  26.006  1.00  0.00     0.184 C 
ATOM      7  C   UNL A   1      30.961  24.633  24.727  1.00  0.00     0.295 C 
ATOM      8  O   UNL A   1      31.416  24.481  27.189  1.00  0.00    -0.366 OA
ATOM      9  N   UNL A   1      31.195  23.206  24.585  1.00  0.00    -0.327 N 
ATOM     10  C   UNL A   1      31.685  23.088  27.000  1.00  0.00     0.222 C 
ATOM     11  C   UNL A   1      30.927  22.483  25.811  1.00  0.00     0.291 C 
ATOM     12  H   UNL A   1      30.486  22.870  23.933  1.00  0.00     0.348 HD
BRANCH   9  13
ATOM     13  C   UNL A   1      32.061  22.675  23.545  1.00  0.00     0.299 C 
BRANCH  13  14
ATOM     14  C   UNL A   1      33.536  22.452  23.824  1.00  0.00     0.009 A 
ATOM     15  C   UNL A   1      34.013  21.448  24.668  1.00  0.00     0.029 A 
ATOM     16  C   UNL A   1      34.505  23.177  23.119  1.00  0.00     0.029 A 
ATOM     17  C   UNL A   1      35.382  21.301  24.862  1.00  0.00     0.111 A 
ATOM     18  C   UNL A   1      35.855  22.965  23.376  1.00  0.00     0.111 A 
ATOM     19  N   UNL A   1      36.320  22.040  24.236  1.00  0.00    -0.265 NA
ENDBRANCH  13  14
ENDBRANCH   9  13
ENDBRANCH   5   6
ENDBRANCH   3   5
ENDBRANCH   2   3
ENDBRANCH   1   2
BRANCH   1  20
ATOM     20  C   UNL A   1      32.016  29.906  26.072  1.00  0.00     0.275 C 
BRANCH  20  21
ATOM     21  O   UNL A   1      33.415  30.176  26.295  1.00  0.00    -0.458 OA
BRANCH  21  22
ATOM     22  C   UNL A   1      33.675  31.158  27.188  1.00  0.00     0.338 C 
ATOM     23  O   UNL A   1      32.885  31.980  27.629  1.00  0.00    -0.246 OA
BRANCH  22  24
ATOM     24  C   UNL A   1      35.036  30.965  27.719  1.00  0.00     0.060 A 
ATOM     25  C   UNL A   1      35.430  29.655  28.004  1.00  0.00     0.016 A 
ATOM     26  C   UNL A   1      35.902  32.025  27.964  1.00  0.00     0.016 A 
ATOM     27  C   UNL A   1      36.694  29.383  28.527  1.00  0.00     0.010 A 
ATOM     28  C   UNL A   1      37.164  31.759  28.516  1.00  0.00     0.010 A 
ATOM     29  C   UNL A   1      37.564  30.440  28.808  1.00  0.00    -0.014 A 
BRANCH  29  30
ATOM     30  C   UNL A   1      38.843  30.195  29.518  1.00  0.00     0.031 A 
ATOM     31  C   UNL A   1      39.800  29.187  28.955  1.00  0.00     0.074 A 
ATOM     32  C   UNL A   1      39.141  30.829  30.665  1.00  0.00     0.049 A 
ATOM     33  N   UNL A   1      40.841  28.632  29.515  1.00  0.00    -0.248 NA
ATOM     34  C   UNL A   1      39.550  28.758  27.571  1.00  0.00     0.031 C 
ATOM     35  C   UNL A   1      38.354  31.903  31.264  1.00  0.00     0.029 A 
ATOM     36  N   UNL A   1      40.169  30.623  31.554  1.00  0.00    -0.354 N 
ATOM     37  C   UNL A   1      41.335  27.736  28.577  1.00  0.00     0.074 A 
ATOM     38  C   UNL A   1      40.505  27.856  27.397  1.00  0.00     0.031 C 
ATOM     39  C   UNL A   1      38.890  32.221  32.454  1.00  0.00     0.029 A 
ATOM     40  C   UNL A   1      40.015  31.326  32.727  1.00  0.00     0.049 A 
ATOM     41  H   UNL A   1      40.936  30.033  31.371  1.00  0.00     0.167 HD
ATOM     42  C   UNL A   1      42.371  26.874  28.697  1.00  0.00     0.034 A 
ATOM     43  C   UNL A   1      40.652  31.205  33.909  1.00  0.00     0.034 A 
ATOM     44  C   UNL A   1      43.192  26.759  29.872  1.00  0.00     0.049 A 
ATOM     45  C   UNL A   1      41.752  30.185  34.059  1.00  0.00     0.074 A 
ATOM     46  C   UNL A   1      44.259  25.909  30.097  1.00  0.00     0.029 A 
ATOM     47  N   UNL A   1      43.022  27.504  31.029  1.00  0.00    -0.354 N 
ATOM     48  N   UNL A   1      42.235  29.356  33.164  1.00  0.00    -0.248 NA
ATOM     49  C   UNL A   1      42.403  30.088  35.375  1.00  0.00     0.031 C 
ATOM     50  C   UNL A   1      44.714  26.118  31.404  1.00  0.00     0.029 A 
ATOM     51  C   UNL A   1      43.953  27.124  31.979  1.00  0.00     0.049 A 
ATOM     52  H   UNL A   1      42.339  28.201  31.156  1.00  0.00     0.167 HD
ATOM     53  C   UNL A   1      43.261  28.662  33.796  1.00  0.00     0.074 A 
ATOM     54  C   UNL A   1      43.340  29.175  35.149  1.00  0.00     0.031 C 
ATOM     55  C   UNL A   1      44.059  27.681  33.304  1.00  0.00     0.034 A 
BRANCH  42  56
ATOM     56  C   UNL A   1      42.631  25.951  27.539  1.00  0.00     0.023 A 
ATOM     57  C   UNL A   1      43.385  26.392  26.434  1.00  0.00     0.012 A 
ATOM     58  C   UNL A   1      42.114  24.641  27.549  1.00  0.00     0.148 A 
ATOM     59  C   UNL A   1      43.582  25.555  25.335  1.00  0.00     0.002 A 
ATOM     60  C   UNL A   1      42.349  23.801  26.469  1.00  0.00     0.091 A 
ATOM     61  F   UNL A   1      41.373  24.252  28.597  1.00  0.00    -0.205 F 
ATOM     62  C   UNL A   1      43.071  24.259  25.356  1.00  0.00     0.022 A 
BRANCH  60  63
ATOM     63  S   UNL A   1      41.783  22.097  26.445  1.00  0.00     0.127 S 
ATOM     64  O   UNL A   1      40.343  22.268  26.257  1.00  0.00    -0.237 OA
ATOM     65  O   UNL A   1      42.489  21.550  25.285  1.00  0.00    -0.237 OA
ATOM     66  O   UNL A   1      42.190  21.527  27.721  1.00  0.00    -0.744 OA
ENDBRANCH  60  63
ENDBRANCH  42  56
BRANCH  43  67
ATOM     67  C   UNL A   1      40.224  32.049  35.063  1.00  0.00     0.023 A 
ATOM     68  C   UNL A   1      40.712  33.362  35.194  1.00  0.00     0.012 A 
ATOM     69  C   UNL A   1      39.298  31.562  36.008  1.00  0.00     0.148 A 
ATOM     70  C   UNL A   1      40.292  34.172  36.251  1.00  0.00     0.002 A 
ATOM     71  C   UNL A   1      38.838  32.392  37.021  1.00  0.00     0.091 A 
ATOM     72  F   UNL A   1      38.864  30.300  35.879  1.00  0.00    -0.205 F 
ATOM     73  C   UNL A   1      39.347  33.693  37.156  1.00  0.00     0.022 A 
BRANCH  71  74
ATOM     74  S   UNL A   1      37.519  31.909  38.141  1.00  0.00     0.127 S 
ATOM     75  O   UNL A   1      38.137  32.130  39.446  1.00  0.00    -0.237 OA
ATOM     76  O   UNL A   1      36.465  32.862  37.788  1.00  0.00    -0.237 OA
ATOM     77  O   UNL A   1      37.211  30.523  37.817  1.00  0.00    -0.744 OA
ENDBRANCH  71  74
ENDBRANCH  43  67
BRANCH  55  78
ATOM     78  C   UNL A   1      45.129  27.115  34.202  1.00  0.00     0.023 A 
ATOM     79  C   UNL A   1      46.380  27.755  34.299  1.00  0.00     0.012 A 
ATOM     80  C   UNL A   1      44.845  26.019  35.042  1.00  0.00     0.148 A 
ATOM     81  C   UNL A   1      47.337  27.304  35.208  1.00  0.00     0.002 A 
ATOM     82  C   UNL A   1      45.785  25.605  35.977  1.00  0.00     0.091 A 
ATOM     83  F   UNL A   1      43.655  25.413  34.919  1.00  0.00    -0.205 F 
ATOM     84  C   UNL A   1      47.035  26.240  36.056  1.00  0.00     0.022 A 
BRANCH  82  85
ATOM     85  S   UNL A   1      45.445  24.312  37.178  1.00  0.00     0.127 S 
ATOM     86  O   UNL A   1      44.295  24.866  37.892  1.00  0.00    -0.237 OA
ATOM     87  O   UNL A   1      45.138  23.166  36.323  1.00  0.00    -0.237 OA
ATOM     88  O   UNL A   1      46.659  24.169  37.971  1.00  0.00    -0.744 OA
ENDBRANCH  82  85
ENDBRANCH  55  78
ENDBRANCH  29  30
ENDBRANCH  22  24
ENDBRANCH  21  22
ENDBRANCH  20  21
ENDBRANCH   1  20
TORSDOF 17
ENDMDL
MODEL 3
REMARK VINA RESULT:     -11.0      5.296      9.893
REMARK SMILES O=C(C[C@H]1C[N@@H+](Cc2ccncc2)CCO1)OCCOC(=O)c1ccc(-c2c3nc(c(-c4cccc(S(=O)(=O)[O-])c4F)c4ccc([nH]4)c(-c4cccc(S(=O)(=O)[O-])c4F)c4nc(c(-c5cccc(S(=O)(=O)[O-])c5F)c5ccc2[nH]5)C=C4)C=C3)cc1
REMARK SMILES IDX 18 1 17 2 2 3 1 4 3 5 4 6 5 7 16 8 6 9 15 10 14 11 7 13 8 14
REMARK SMILES IDX 9 15 13 16 10 17 12 18 11 19 19 20 20 21 21 22 22 23 23 24
REMARK SMILES IDX 24 25 85 26 25 27 84 28 26 29 27 30 28 31 78 32 29 33 83 34
REMARK SMILES IDX 77 35 79 36 30 37 82 38 76 39 75 40 31 42 63 43 43 44 62 45
REMARK SMILES IDX 44 46 47 47 61 48 80 49 45 50 46 51 60 53 81 54 48 55 32 56
REMARK SMILES IDX 33 57 41 58 34 59 36 60 42 61 35 62 37 63 38 64 39 65 40 66
REMARK SMILES IDX 64 67 65 68 73 69 66 70 68 71 74 72 67 73 69 74 70 75 71 76
REMARK SMILES IDX 72 77 49 78 50 79 58 80 51 81 53 82 59 83 52 84 54 85 55 86
REMARK SMILES IDX 56 87 57 88
REMARK H PARENT 6 12 79 41 47 52
REMARK Flexibility Score: inf
ROOT
ATOM      1  C   UNL A   1      31.521  28.579  26.294  1.00  0.00     0.274 C 
ENDROOT
BRANCH   1   2
ATOM      2  O   UNL A   1      31.933  27.253  26.702  1.00  0.00    -0.462 OA
BRANCH   2   3
ATOM      3  C   UNL A   1      32.471  26.376  25.824  1.00  0.00     0.308 C 
ATOM      4  O   UNL A   1      33.561  25.870  26.060  1.00  0.00    -0.252 OA
BRANCH   3   5
ATOM      5  C   UNL A   1      31.672  26.068  24.591  1.00  0.00     0.160 C 
BRANCH   5   6
ATOM      6  C   UNL A   1      32.169  26.572  23.237  1.00  0.00     0.184 C 
ATOM      7  C   UNL A   1      31.016  27.095  22.338  1.00  0.00     0.295 C 
ATOM      8  O   UNL A   1      33.319  27.426  23.277  1.00  0.00    -0.366 OA
ATOM      9  N   UNL A   1      30.762  28.523  22.432  1.00  0.00    -0.327 N 
ATOM     10  C   UNL A   1      33.012  28.819  23.398  1.00  0.00     0.222 C 
ATOM     11  C   UNL A   1      31.981  29.302  22.370  1.00  0.00     0.291 C 
ATOM     12  H   UNL A   1      30.258  28.774  21.581  1.00  0.00     0.348 HD
BRANCH   9  13
ATOM     13  C   UNL A   1      29.539  29.043  23.024  1.00  0.00     0.299 C 
BRANCH  13  14
ATOM     14  C   UNL A   1      29.019  30.409  22.616  1.00  0.00     0.009 A 
ATOM     15  C   UNL A   1      29.026  31.517  23.466  1.00  0.00     0.029 A 
ATOM     16  C   UNL A   1      28.631  30.650  21.292  1.00  0.00     0.029 A 
ATOM     17  C   UNL A   1      28.544  32.739  23.012  1.00  0.00     0.111 A 
ATOM     18  C   UNL A   1      28.162  31.907  20.923  1.00  0.00     0.111 A 
ATOM     19  N   UNL A   1      28.108  32.962  21.756  1.00  0.00    -0.265 NA
ENDBRANCH  13  14
ENDBRANCH   9  13
ENDBRANCH   5   6
ENDBRANCH   3   5
ENDBRANCH   2   3
ENDBRANCH   1   2
BRANCH   1  20
ATOM     20  C   UNL A   1      32.007  29.705  27.216  1.00  0.00     0.275 C 
BRANCH  20  21
ATOM     21  O   UNL A   1      33.337  30.101  26.824  1.00  0.00    -0.458 OA
BRANCH  21  22
ATOM     22  C   UNL A   1      33.789  31.241  27.394  1.00  0.00     0.338 C 
ATOM     23  O   UNL A   1      33.145  32.256  27.620  1.00  0.00    -0.246 OA
BRANCH  22  24
ATOM     24  C   UNL A   1      35.152  31.008  27.901  1.00  0.00     0.060 A 
ATOM     25  C   UNL A   1      35.468  29.711  28.312  1.00  0.00     0.016 A 
ATOM     26  C   UNL A   1      36.097  32.023  28.004  1.00  0.00     0.016 A 
ATOM     27  C   UNL A   1      36.730  29.406  28.822  1.00  0.00     0.010 A 
ATOM     28  C   UNL A   1      37.358  31.728  28.541  1.00  0.00     0.010 A 
ATOM     29  C   UNL A   1      37.679  30.421  28.961  1.00  0.00    -0.014 A 
BRANCH  29  30
ATOM     30  C   UNL A   1      38.965  30.161  29.653  1.00  0.00     0.031 A 
ATOM     31  C   UNL A   1      39.907  29.151  29.071  1.00  0.00     0.074 A 
ATOM     32  C   UNL A   1      39.282  30.785  30.801  1.00  0.00     0.049 A 
ATOM     33  N   UNL A   1      40.950  28.584  29.614  1.00  0.00    -0.248 NA
ATOM     34  C   UNL A   1      39.636  28.733  27.687  1.00  0.00     0.031 C 
ATOM     35  C   UNL A   1      38.510  31.860  31.418  1.00  0.00     0.029 A 
ATOM     36  N   UNL A   1      40.320  30.564  31.676  1.00  0.00    -0.354 N 
ATOM     37  C   UNL A   1      41.426  27.691  28.663  1.00  0.00     0.074 A 
ATOM     38  C   UNL A   1      40.582  27.826  27.495  1.00  0.00     0.031 C 
ATOM     39  C   UNL A   1      39.064  32.166  32.603  1.00  0.00     0.029 A 
ATOM     40  C   UNL A   1      40.185  31.260  32.855  1.00  0.00     0.049 A 
ATOM     41  H   UNL A   1      41.080  29.970  31.478  1.00  0.00     0.167 HD
ATOM     42  C   UNL A   1      42.457  26.820  28.764  1.00  0.00     0.034 A 
ATOM     43  C   UNL A   1      40.836  31.126  34.029  1.00  0.00     0.034 A 
ATOM     44  C   UNL A   1      43.291  26.690  29.928  1.00  0.00     0.049 A 
ATOM     45  C   UNL A   1      41.930  30.096  34.158  1.00  0.00     0.074 A 
ATOM     46  C   UNL A   1      44.355  25.830  30.133  1.00  0.00     0.029 A 
ATOM     47  N   UNL A   1      43.142  27.428  31.092  1.00  0.00    -0.354 N 
ATOM     48  N   UNL A   1      42.395  29.270  33.250  1.00  0.00    -0.248 NA
ATOM     49  C   UNL A   1      42.596  29.985  35.464  1.00  0.00     0.031 C 
ATOM     50  C   UNL A   1      44.828  26.026  31.436  1.00  0.00     0.029 A 
ATOM     51  C   UNL A   1      44.081  27.034  32.028  1.00  0.00     0.049 A 
ATOM     52  H   UNL A   1      42.466  28.130  31.233  1.00  0.00     0.167 HD
ATOM     53  C   UNL A   1      43.424  28.564  33.865  1.00  0.00     0.074 A 
ATOM     54  C   UNL A   1      43.524  29.066  35.220  1.00  0.00     0.031 C 
ATOM     55  C   UNL A   1      44.208  27.581  33.355  1.00  0.00     0.034 A 
BRANCH  42  56
ATOM     56  C   UNL A   1      42.695  25.904  27.596  1.00  0.00     0.023 A 
ATOM     57  C   UNL A   1      43.487  26.327  26.511  1.00  0.00     0.012 A 
ATOM     58  C   UNL A   1      42.120  24.618  27.577  1.00  0.00     0.148 A 
ATOM     59  C   UNL A   1      43.665  25.499  25.402  1.00  0.00     0.002 A 
ATOM     60  C   UNL A   1      42.337  23.784  26.488  1.00  0.00     0.091 A 
ATOM     61  F   UNL A   1      41.345  24.247  28.607  1.00  0.00    -0.205 F 
ATOM     62  C   UNL A   1      43.098  24.227  25.394  1.00  0.00     0.022 A 
BRANCH  60  63
ATOM     63  S   UNL A   1      41.696  22.109  26.428  1.00  0.00     0.127 S 
ATOM     64  O   UNL A   1      42.375  21.574  25.250  1.00  0.00    -0.237 OA
ATOM     65  O   UNL A   1      42.155  21.553  27.702  1.00  0.00    -0.237 OA
ATOM     66  O   UNL A   1      40.250  22.241  26.317  1.00  0.00    -0.744 OA
ENDBRANCH  60  63
ENDBRANCH  42  56
BRANCH  43  67
ATOM     67  C   UNL A   1      40.429  31.964  35.194  1.00  0.00     0.023 A 
ATOM     68  C   UNL A   1      41.029  33.219  35.402  1.00  0.00     0.012 A 
ATOM     69  C   UNL A   1      39.413  31.534  36.071  1.00  0.00     0.148 A 
ATOM     70  C   UNL A   1      40.633  34.026  36.470  1.00  0.00     0.002 A 
ATOM     71  C   UNL A   1      38.980  32.367  37.095  1.00  0.00     0.091 A 
ATOM     72  F   UNL A   1      38.871  30.325  35.870  1.00  0.00    -0.205 F 
ATOM     73  C   UNL A   1      39.600  33.608  37.306  1.00  0.00     0.022 A 
BRANCH  71  74
ATOM     74  S   UNL A   1      37.565  31.972  38.128  1.00  0.00     0.127 S 
ATOM     75  O   UNL A   1      37.329  30.571  37.790  1.00  0.00    -0.237 OA
ATOM     76  O   UNL A   1      38.104  32.202  39.470  1.00  0.00    -0.237 OA
ATOM     77  O   UNL A   1      36.515  32.901  37.735  1.00  0.00    -0.744 OA
ENDBRANCH  71  74
ENDBRANCH  43  67
BRANCH  55  78
ATOM     78  C   UNL A   1      45.284  27.000  34.236  1.00  0.00     0.023 A 
ATOM     79  C   UNL A   1      46.551  27.613  34.298  1.00  0.00     0.012 A 
ATOM     80  C   UNL A   1      44.995  25.919  35.093  1.00  0.00     0.148 A 
ATOM     81  C   UNL A   1      47.518  27.149  35.191  1.00  0.00     0.002 A 
ATOM     82  C   UNL A   1      45.946  25.493  36.012  1.00  0.00     0.091 A 
ATOM     83  F   UNL A   1      43.789  25.339  35.003  1.00  0.00    -0.205 F 
ATOM     84  C   UNL A   1      47.211  26.101  36.057  1.00  0.00     0.022 A 
BRANCH  82  85
ATOM     85  S   UNL A   1      45.603  24.221  37.235  1.00  0.00     0.127 S 
ATOM     86  O   UNL A   1      44.447  24.783  37.931  1.00  0.00    -0.237 OA
ATOM     87  O   UNL A   1      45.307  23.059  36.398  1.00  0.00    -0.237 OA
ATOM     88  O   UNL A   1      46.813  24.098  38.037  1.00  0.00    -0.744 OA
ENDBRANCH  82  85
ENDBRANCH  55  78
ENDBRANCH  29  30
ENDBRANCH  22  24
ENDBRANCH  21  22
ENDBRANCH  20  21
ENDBRANCH   1  20
TORSDOF 17
ENDMDL
