MODEL 1
REMARK VINA RESULT:     -10.2      0.000      0.000
REMARK SMILES C[C@H](CCC[C@@H](C)[NH3+])C(=O)N[C@H]1C=C[C@@H](C(=O)OCCOC(=O)c2ccc(-c3c4nc(c(-c5cccc(S(=O)(=O)[O-])c5F)c5ccc([nH]5)c(-c5cccc(S(=O)(=O)[O-])c5F)c5nc(c(-c6cccc(S(=O)(=O)[O-])c6F)c6ccc3[nH]6)C=C5)C=C4)cc2)C1
REMARK SMILES IDX 16 1 17 2 15 3 12 4 13 5 87 6 14 7 11 8 9 9 10 10 2 12 1 13
REMARK SMILES IDX 3 14 4 15 5 16 6 17 7 18 8 19 18 23 19 24 20 25 21 26 22 27
REMARK SMILES IDX 23 28 24 29 25 30 86 31 26 32 85 33 27 34 28 35 29 36 79 37
REMARK SMILES IDX 30 38 84 39 78 40 80 41 31 42 83 43 77 44 76 45 32 47 64 48
REMARK SMILES IDX 44 49 63 50 45 51 48 52 62 53 81 54 46 55 47 56 61 58 82 59
REMARK SMILES IDX 49 60 33 61 34 62 42 63 35 64 37 65 43 66 36 67 38 68 39 69
REMARK SMILES IDX 40 70 41 71 65 72 66 73 74 74 67 75 69 76 75 77 68 78 70 79
REMARK SMILES IDX 71 80 72 81 73 82 50 83 51 84 59 85 52 86 54 87 60 88 53 89
REMARK SMILES IDX 55 90 56 91 57 92 58 93
REMARK H PARENT 11 11 8 20 8 21 8 22 80 46 48 57
REMARK Flexibility Score: inf
ROOT
ATOM      1  C   UNL A   1      31.773  28.649  23.814  1.00  0.00     0.312 C 
ATOM      2  O   UNL A   1      32.137  29.145  22.753  1.00  0.00    -0.252 OA
ENDROOT
BRANCH   1   3
ATOM      3  C   UNL A   1      31.365  27.196  23.923  1.00  0.00     0.124 C 
ATOM      4  C   UNL A   1      30.496  25.343  25.109  1.00  0.00     0.106 C 
ATOM      5  C   UNL A   1      29.421  25.940  24.260  1.00  0.00    -0.006 C 
ATOM      6  C   UNL A   1      31.448  26.514  25.296  1.00  0.00     0.048 C 
ATOM      7  C   UNL A   1      29.918  26.972  23.564  1.00  0.00    -0.014 C 
BRANCH   4   8
ATOM      8  N   UNL A   1      29.963  24.707  26.264  1.00  0.00    -0.350 N 
ATOM      9  C   UNL A   1      30.366  23.527  26.820  1.00  0.00     0.223 C 
ATOM     10  O   UNL A   1      29.602  23.008  27.641  1.00  0.00    -0.275 OA
ATOM     11  H   UNL A   1      29.220  25.170  26.715  1.00  0.00     0.164 HD
BRANCH   9  12
ATOM     12  C   UNL A   1      31.729  22.866  26.510  1.00  0.00     0.075 C 
ATOM     13  C   UNL A   1      31.649  21.820  25.403  1.00  0.00     0.018 C 
BRANCH  12  14
ATOM     14  C   UNL A   1      32.712  22.556  27.670  1.00  0.00     0.013 C 
BRANCH  14  15
ATOM     15  C   UNL A   1      34.240  22.472  27.508  1.00  0.00     0.007 C 
BRANCH  15  16
ATOM     16  C   UNL A   1      34.803  22.183  26.107  1.00  0.00     0.064 C 
BRANCH  16  17
ATOM     17  C   UNL A   1      35.728  23.240  25.494  1.00  0.00     0.177 C 
ATOM     18  C   UNL A   1      35.050  24.601  25.369  1.00  0.00     0.075 C 
BRANCH  17  19
ATOM     19  N   UNL A   1      36.881  23.368  26.394  1.00  0.00    -0.355 N 
ATOM     20  H   UNL A   1      36.658  24.024  27.142  1.00  0.00     0.344 HD
ATOM     21  H   UNL A   1      37.685  23.712  25.869  1.00  0.00     0.344 HD
ATOM     22  H   UNL A   1      37.102  22.458  26.796  1.00  0.00     0.344 HD
ENDBRANCH  17  19
ENDBRANCH  16  17
ENDBRANCH  15  16
ENDBRANCH  14  15
ENDBRANCH  12  14
ENDBRANCH   9  12
ENDBRANCH   4   8
ENDBRANCH   1   3
BRANCH   1  23
ATOM     23  O   UNL A   1      31.678  29.318  24.989  1.00  0.00    -0.462 OA
BRANCH  23  24
ATOM     24  C   UNL A   1      30.825  30.475  24.985  1.00  0.00     0.274 C 
BRANCH  24  25
ATOM     25  C   UNL A   1      31.212  31.424  26.120  1.00  0.00     0.275 C 
BRANCH  25  26
ATOM     26  O   UNL A   1      32.589  31.269  26.514  1.00  0.00    -0.458 OA
BRANCH  26  27
ATOM     27  C   UNL A   1      33.109  32.279  27.246  1.00  0.00     0.338 C 
ATOM     28  O   UNL A   1      32.585  33.363  27.477  1.00  0.00    -0.246 OA
BRANCH  27  29
ATOM     29  C   UNL A   1      34.391  31.875  27.843  1.00  0.00     0.060 A 
ATOM     30  C   UNL A   1      34.527  30.565  28.313  1.00  0.00     0.016 A 
ATOM     31  C   UNL A   1      35.426  32.798  28.013  1.00  0.00     0.016 A 
ATOM     32  C   UNL A   1      35.700  30.176  28.959  1.00  0.00     0.010 A 
ATOM     33  C   UNL A   1      36.602  32.403  28.659  1.00  0.00     0.010 A 
ATOM     34  C   UNL A   1      36.744  31.093  29.147  1.00  0.00    -0.014 A 
BRANCH  34  35
ATOM     35  C   UNL A   1      37.978  30.684  29.865  1.00  0.00     0.031 A 
ATOM     36  C   UNL A   1      38.920  29.688  29.248  1.00  0.00     0.074 A 
ATOM     37  C   UNL A   1      38.235  31.185  31.089  1.00  0.00     0.049 A 
ATOM     38  N   UNL A   1      40.008  29.163  29.749  1.00  0.00    -0.248 NA
ATOM     39  C   UNL A   1      38.596  29.217  27.891  1.00  0.00     0.031 C 
ATOM     40  C   UNL A   1      37.391  32.145  31.800  1.00  0.00     0.029 A 
ATOM     41  N   UNL A   1      39.266  30.935  31.960  1.00  0.00    -0.354 N 
ATOM     42  C   UNL A   1      40.478  28.272  28.791  1.00  0.00     0.074 A 
ATOM     43  C   UNL A   1      39.556  28.328  27.676  1.00  0.00     0.031 C 
ATOM     44  C   UNL A   1      37.926  32.387  33.007  1.00  0.00     0.029 A 
ATOM     45  C   UNL A   1      39.131  31.578  33.168  1.00  0.00     0.049 A 
ATOM     46  H   UNL A   1      40.029  30.352  31.741  1.00  0.00     0.167 HD
ATOM     47  C   UNL A   1      41.585  27.492  28.830  1.00  0.00     0.034 A 
ATOM     48  C   UNL A   1      39.879  31.506  34.287  1.00  0.00     0.034 A 
ATOM     49  C   UNL A   1      42.523  27.467  29.921  1.00  0.00     0.049 A 
ATOM     50  C   UNL A   1      41.105  30.633  34.299  1.00  0.00     0.074 A 
ATOM     51  C   UNL A   1      43.707  26.754  30.020  1.00  0.00     0.029 A 
ATOM     52  N   UNL A   1      42.388  28.180  31.101  1.00  0.00    -0.354 N 
ATOM     53  N   UNL A   1      41.602  29.896  33.336  1.00  0.00    -0.248 NA
ATOM     54  C   UNL A   1      41.891  30.605  35.542  1.00  0.00     0.031 C 
ATOM     55  C   UNL A   1      44.279  27.026  31.268  1.00  0.00     0.029 A 
ATOM     56  C   UNL A   1      43.460  27.919  31.939  1.00  0.00     0.049 A 
ATOM     57  H   UNL A   1      41.639  28.783  31.313  1.00  0.00     0.167 HD
ATOM     58  C   UNL A   1      42.771  29.341  33.844  1.00  0.00     0.074 A 
ATOM     59  C   UNL A   1      42.922  29.847  35.193  1.00  0.00     0.031 C 
ATOM     60  C   UNL A   1      43.631  28.474  33.256  1.00  0.00     0.034 A 
BRANCH  47  61
ATOM     61  C   UNL A   1      41.873  26.620  27.637  1.00  0.00     0.023 A 
ATOM     62  C   UNL A   1      42.614  27.144  26.559  1.00  0.00     0.012 A 
ATOM     63  C   UNL A   1      41.489  25.265  27.620  1.00  0.00     0.148 A 
ATOM     64  C   UNL A   1      42.949  26.339  25.471  1.00  0.00     0.002 A 
ATOM     65  C   UNL A   1      41.859  24.459  26.549  1.00  0.00     0.091 A 
ATOM     66  F   UNL A   1      40.769  24.791  28.645  1.00  0.00    -0.205 F 
ATOM     67  C   UNL A   1      42.583  24.996  25.471  1.00  0.00     0.022 A 
BRANCH  65  68
ATOM     68  S   UNL A   1      41.497  22.699  26.489  1.00  0.00     0.127 S 
ATOM     69  O   UNL A   1      42.208  22.294  25.276  1.00  0.00    -0.237 OA
ATOM     70  O   UNL A   1      42.093  22.218  27.734  1.00  0.00    -0.237 OA
ATOM     71  O   UNL A   1      40.046  22.592  26.429  1.00  0.00    -0.744 OA
ENDBRANCH  65  68
ENDBRANCH  47  61
BRANCH  48  72
ATOM     72  C   UNL A   1      39.508  32.315  35.483  1.00  0.00     0.023 A 
ATOM     73  C   UNL A   1      38.755  31.720  36.513  1.00  0.00     0.012 A 
ATOM     74  C   UNL A   1      39.916  33.656  35.615  1.00  0.00     0.148 A 
ATOM     75  C   UNL A   1      38.390  32.455  37.641  1.00  0.00     0.002 A 
ATOM     76  C   UNL A   1      39.597  34.366  36.768  1.00  0.00     0.091 A 
ATOM     77  F   UNL A   1      40.611  34.213  34.614  1.00  0.00    -0.205 F 
ATOM     78  C   UNL A   1      38.822  33.773  37.775  1.00  0.00     0.022 A 
BRANCH  76  79
ATOM     79  S   UNL A   1      40.230  36.019  37.072  1.00  0.00     0.127 S 
ATOM     80  O   UNL A   1      39.561  36.370  38.322  1.00  0.00    -0.237 OA
ATOM     81  O   UNL A   1      41.669  35.781  37.189  1.00  0.00    -0.237 OA
ATOM     82  O   UNL A   1      39.850  36.798  35.901  1.00  0.00    -0.744 OA
ENDBRANCH  76  79
ENDBRANCH  48  72
BRANCH  60  83
ATOM     83  C   UNL A   1      44.832  28.032  34.050  1.00  0.00     0.023 A 
ATOM     84  C   UNL A   1      46.000  28.821  34.042  1.00  0.00     0.012 A 
ATOM     85  C   UNL A   1      44.783  26.879  34.858  1.00  0.00     0.148 A 
ATOM     86  C   UNL A   1      47.109  28.454  34.804  1.00  0.00     0.002 A 
ATOM     87  C   UNL A   1      45.876  26.543  35.649  1.00  0.00     0.091 A 
ATOM     88  F   UNL A   1      43.672  26.129  34.836  1.00  0.00    -0.205 F 
ATOM     89  C   UNL A   1      47.043  27.324  35.615  1.00  0.00     0.022 A 
BRANCH  87  90
ATOM     90  S   UNL A   1      45.844  25.155  36.788  1.00  0.00     0.127 S 
ATOM     91  O   UNL A   1      45.540  24.041  35.893  1.00  0.00    -0.237 OA
ATOM     92  O   UNL A   1      47.208  25.154  37.321  1.00  0.00    -0.237 OA
ATOM     93  O   UNL A   1      44.817  25.472  37.771  1.00  0.00    -0.744 OA
ENDBRANCH  87  90
ENDBRANCH  60  83
ENDBRANCH  34  35
ENDBRANCH  27  29
ENDBRANCH  26  27
ENDBRANCH  25  26
ENDBRANCH  24  25
ENDBRANCH  23  24
ENDBRANCH   1  23
TORSDOF 21
ENDMDL
MODEL 2
REMARK VINA RESULT:     -10.1      5.196      8.415
REMARK SMILES C[C@H](CCC[C@@H](C)[NH3+])C(=O)N[C@H]1C=C[C@@H](C(=O)OCCOC(=O)c2ccc(-c3c4nc(c(-c5cccc(S(=O)(=O)[O-])c5F)c5ccc([nH]5)c(-c5cccc(S(=O)(=O)[O-])c5F)c5nc(c(-c6cccc(S(=O)(=O)[O-])c6F)c6ccc3[nH]6)C=C5)C=C4)cc2)C1
REMARK SMILES IDX 16 1 17 2 15 3 12 4 13 5 87 6 14 7 11 8 9 9 10 10 2 12 1 13
REMARK SMILES IDX 3 14 4 15 5 16 6 17 7 18 8 19 18 23 19 24 20 25 21 26 22 27
REMARK SMILES IDX 23 28 24 29 25 30 86 31 26 32 85 33 27 34 28 35 29 36 79 37
REMARK SMILES IDX 30 38 84 39 78 40 80 41 31 42 83 43 77 44 76 45 32 47 64 48
REMARK SMILES IDX 44 49 63 50 45 51 48 52 62 53 81 54 46 55 47 56 61 58 82 59
REMARK SMILES IDX 49 60 33 61 34 62 42 63 35 64 37 65 43 66 36 67 38 68 39 69
REMARK SMILES IDX 40 70 41 71 65 72 66 73 74 74 67 75 69 76 75 77 68 78 70 79
REMARK SMILES IDX 71 80 72 81 73 82 50 83 51 84 59 85 52 86 54 87 60 88 53 89
REMARK SMILES IDX 55 90 56 91 57 92 58 93
REMARK H PARENT 11 11 8 20 8 21 8 22 80 46 48 57
REMARK Flexibility Score: inf
ROOT
ATOM      1  C   UNL A   1      35.132  20.486  24.975  1.00  0.00     0.312 C 
ATOM      2  O   UNL A   1      34.854  19.331  24.669  1.00  0.00    -0.252 OA
ENDROOT
BRANCH   1   3
ATOM      3  C   UNL A   1      34.246  21.653  24.596  1.00  0.00     0.124 C 
ATOM      4  C   UNL A   1      33.519  23.339  23.105  1.00  0.00     0.106 C 
ATOM      5  C   UNL A   1      32.600  22.165  23.016  1.00  0.00    -0.006 C 
ATOM      6  C   UNL A   1      34.800  22.707  23.628  1.00  0.00     0.048 C 
ATOM      7  C   UNL A   1      32.991  21.219  23.881  1.00  0.00    -0.014 C 
BRANCH   4   8
ATOM      8  N   UNL A   1      33.567  24.065  21.882  1.00  0.00    -0.350 N 
ATOM      9  C   UNL A   1      33.041  25.300  21.632  1.00  0.00     0.223 C 
ATOM     10  O   UNL A   1      32.940  25.632  20.446  1.00  0.00    -0.275 OA
ATOM     11  H   UNL A   1      34.033  23.629  21.133  1.00  0.00     0.164 HD
BRANCH   9  12
ATOM     12  C   UNL A   1      32.632  26.290  22.747  1.00  0.00     0.075 C 
ATOM     13  C   UNL A   1      31.169  26.157  23.157  1.00  0.00     0.018 C 
BRANCH  12  14
ATOM     14  C   UNL A   1      33.211  27.729  22.744  1.00  0.00     0.013 C 
BRANCH  14  15
ATOM     15  C   UNL A   1      32.526  28.937  23.408  1.00  0.00     0.007 C 
BRANCH  15  16
ATOM     16  C   UNL A   1      32.988  29.345  24.816  1.00  0.00     0.064 C 
BRANCH  16  17
ATOM     17  C   UNL A   1      33.597  28.250  25.697  1.00  0.00     0.177 C 
ATOM     18  C   UNL A   1      34.477  28.820  26.805  1.00  0.00     0.075 C 
BRANCH  17  19
ATOM     19  N   UNL A   1      32.477  27.525  26.309  1.00  0.00    -0.355 N 
ATOM     20  H   UNL A   1      31.605  28.016  26.111  1.00  0.00     0.344 HD
ATOM     21  H   UNL A   1      32.617  27.473  27.318  1.00  0.00     0.344 HD
ATOM     22  H   UNL A   1      32.430  26.582  25.923  1.00  0.00     0.344 HD
ENDBRANCH  17  19
ENDBRANCH  16  17
ENDBRANCH  15  16
ENDBRANCH  14  15
ENDBRANCH  12  14
ENDBRANCH   9  12
ENDBRANCH   4   8
ENDBRANCH   1   3
BRANCH   1  23
ATOM     23  O   UNL A   1      36.240  20.861  25.659  1.00  0.00    -0.462 OA
BRANCH  23  24
ATOM     24  C   UNL A   1      37.461  20.903  24.900  1.00  0.00     0.274 C 
BRANCH  24  25
ATOM     25  C   UNL A   1      38.499  19.959  25.511  1.00  0.00     0.275 C 
BRANCH  25  26
ATOM     26  O   UNL A   1      39.800  20.570  25.608  1.00  0.00    -0.458 OA
BRANCH  26  27
ATOM     27  C   UNL A   1      40.329  20.634  26.850  1.00  0.00     0.338 C 
ATOM     28  O   UNL A   1      40.578  19.690  27.590  1.00  0.00    -0.246 OA
BRANCH  27  29
ATOM     29  C   UNL A   1      40.676  22.023  27.190  1.00  0.00     0.060 A 
ATOM     30  C   UNL A   1      40.186  23.052  26.382  1.00  0.00     0.016 A 
ATOM     31  C   UNL A   1      41.543  22.306  28.248  1.00  0.00     0.016 A 
ATOM     32  C   UNL A   1      40.566  24.371  26.628  1.00  0.00     0.010 A 
ATOM     33  C   UNL A   1      41.920  23.631  28.494  1.00  0.00     0.010 A 
ATOM     34  C   UNL A   1      41.443  24.672  27.679  1.00  0.00    -0.014 A 
BRANCH  34  35
ATOM     35  C   UNL A   1      41.872  26.074  27.917  1.00  0.00     0.031 A 
ATOM     36  C   UNL A   1      43.256  26.521  27.534  1.00  0.00     0.074 A 
ATOM     37  C   UNL A   1      41.024  26.939  28.508  1.00  0.00     0.049 A 
ATOM     38  N   UNL A   1      43.828  27.681  27.722  1.00  0.00    -0.248 NA
ATOM     39  C   UNL A   1      44.109  25.532  26.854  1.00  0.00     0.031 C 
ATOM     40  C   UNL A   1      39.663  26.623  28.939  1.00  0.00     0.029 A 
ATOM     41  N   UNL A   1      41.195  28.252  28.871  1.00  0.00    -0.354 N 
ATOM     42  C   UNL A   1      45.120  27.555  27.223  1.00  0.00     0.074 A 
ATOM     43  C   UNL A   1      45.246  26.202  26.722  1.00  0.00     0.031 C 
ATOM     44  C   UNL A   1      39.129  27.704  29.528  1.00  0.00     0.029 A 
ATOM     45  C   UNL A   1      40.118  28.779  29.544  1.00  0.00     0.049 A 
ATOM     46  H   UNL A   1      42.010  28.767  28.669  1.00  0.00     0.167 HD
ATOM     47  C   UNL A   1      46.103  28.484  27.172  1.00  0.00     0.034 A 
ATOM     48  C   UNL A   1      39.953  29.982  30.128  1.00  0.00     0.034 A 
ATOM     49  C   UNL A   1      45.963  29.841  27.633  1.00  0.00     0.049 A 
ATOM     50  C   UNL A   1      41.063  30.996  30.051  1.00  0.00     0.074 A 
ATOM     51  C   UNL A   1      46.886  30.871  27.563  1.00  0.00     0.029 A 
ATOM     52  N   UNL A   1      44.836  30.358  28.250  1.00  0.00    -0.354 N 
ATOM     53  N   UNL A   1      42.229  30.899  29.462  1.00  0.00    -0.248 NA
ATOM     54  C   UNL A   1      40.822  32.297  30.695  1.00  0.00     0.031 C 
ATOM     55  C   UNL A   1      46.321  32.007  28.153  1.00  0.00     0.029 A 
ATOM     56  C   UNL A   1      45.041  31.688  28.576  1.00  0.00     0.049 A 
ATOM     57  H   UNL A   1      44.011  29.852  28.432  1.00  0.00     0.167 HD
ATOM     58  C   UNL A   1      42.849  32.132  29.637  1.00  0.00     0.074 A 
ATOM     59  C   UNL A   1      41.917  32.969  30.365  1.00  0.00     0.031 C 
ATOM     60  C   UNL A   1      44.085  32.529  29.248  1.00  0.00     0.034 A 
BRANCH  47  61
ATOM     61  C   UNL A   1      47.418  28.085  26.558  1.00  0.00     0.023 A 
ATOM     62  C   UNL A   1      48.495  27.732  27.396  1.00  0.00     0.012 A 
ATOM     63  C   UNL A   1      47.563  27.976  25.161  1.00  0.00     0.148 A 
ATOM     64  C   UNL A   1      49.703  27.298  26.853  1.00  0.00     0.002 A 
ATOM     65  C   UNL A   1      48.758  27.506  24.628  1.00  0.00     0.091 A 
ATOM     66  F   UNL A   1      46.534  28.335  24.382  1.00  0.00    -0.205 F 
ATOM     67  C   UNL A   1      49.832  27.174  25.472  1.00  0.00     0.022 A 
BRANCH  65  68
ATOM     68  S   UNL A   1      48.998  27.244  22.866  1.00  0.00     0.127 S 
ATOM     69  O   UNL A   1      50.455  27.165  22.776  1.00  0.00    -0.237 OA
ATOM     70  O   UNL A   1      48.304  25.975  22.646  1.00  0.00    -0.237 OA
ATOM     71  O   UNL A   1      48.390  28.391  22.205  1.00  0.00    -0.744 OA
ENDBRANCH  65  68
ENDBRANCH  47  61
BRANCH  48  72
ATOM     72  C   UNL A   1      38.668  30.308  30.809  1.00  0.00     0.023 A 
ATOM     73  C   UNL A   1      38.466  29.895  32.140  1.00  0.00     0.012 A 
ATOM     74  C   UNL A   1      37.660  31.045  30.157  1.00  0.00     0.148 A 
ATOM     75  C   UNL A   1      37.272  30.183  32.800  1.00  0.00     0.002 A 
ATOM     76  C   UNL A   1      36.495  31.377  30.840  1.00  0.00     0.091 A 
ATOM     77  F   UNL A   1      37.859  31.409  28.883  1.00  0.00    -0.205 F 
ATOM     78  C   UNL A   1      36.292  30.935  32.156  1.00  0.00     0.022 A 
BRANCH  76  79
ATOM     79  S   UNL A   1      35.248  32.454  30.124  1.00  0.00     0.127 S 
ATOM     80  O   UNL A   1      34.300  32.590  31.227  1.00  0.00    -0.237 OA
ATOM     81  O   UNL A   1      36.020  33.661  29.823  1.00  0.00    -0.237 OA
ATOM     82  O   UNL A   1      34.762  31.750  28.945  1.00  0.00    -0.744 OA
ENDBRANCH  76  79
ENDBRANCH  48  72
BRANCH  60  83
ATOM     83  C   UNL A   1      44.502  33.939  29.574  1.00  0.00     0.023 A 
ATOM     84  C   UNL A   1      45.046  34.229  30.841  1.00  0.00     0.012 A 
ATOM     85  C   UNL A   1      44.421  34.960  28.606  1.00  0.00     0.148 A 
ATOM     86  C   UNL A   1      45.478  35.519  31.149  1.00  0.00     0.002 A 
ATOM     87  C   UNL A   1      44.895  36.233  28.905  1.00  0.00     0.091 A 
ATOM     88  F   UNL A   1      43.881  34.671  27.414  1.00  0.00    -0.205 F 
ATOM     89  C   UNL A   1      45.414  36.516  30.179  1.00  0.00     0.022 A 
BRANCH  87  90
ATOM     90  S   UNL A   1      44.931  37.552  27.687  1.00  0.00     0.127 S 
ATOM     91  O   UNL A   1      43.507  37.802  27.474  1.00  0.00    -0.237 OA
ATOM     92  O   UNL A   1      45.637  38.618  28.399  1.00  0.00    -0.237 OA
ATOM     93  O   UNL A   1      45.654  37.015  26.542  1.00  0.00    -0.744 OA
ENDBRANCH  87  90
ENDBRANCH  60  83
ENDBRANCH  34  35
ENDBRANCH  27  29
ENDBRANCH  26  27
ENDBRANCH  25  26
ENDBRANCH  24  25
ENDBRANCH  23  24
ENDBRANCH   1  23
TORSDOF 21
ENDMDL
MODEL 3
REMARK VINA RESULT:     -10.0      2.022      8.066
REMARK SMILES C[C@H](CCC[C@@H](C)[NH3+])C(=O)N[C@H]1C=C[C@@H](C(=O)OCCOC(=O)c2ccc(-c3c4nc(c(-c5cccc(S(=O)(=O)[O-])c5F)c5ccc([nH]5)c(-c5cccc(S(=O)(=O)[O-])c5F)c5nc(c(-c6cccc(S(=O)(=O)[O-])c6F)c6ccc3[nH]6)C=C5)C=C4)cc2)C1
REMARK SMILES IDX 16 1 17 2 15 3 12 4 13 5 87 6 14 7 11 8 9 9 10 10 2 12 1 13
REMARK SMILES IDX 3 14 4 15 5 16 6 17 7 18 8 19 18 23 19 24 20 25 21 26 22 27
REMARK SMILES IDX 23 28 24 29 25 30 86 31 26 32 85 33 27 34 28 35 29 36 79 37
REMARK SMILES IDX 30 38 84 39 78 40 80 41 31 42 83 43 77 44 76 45 32 47 64 48
REMARK SMILES IDX 44 49 63 50 45 51 48 52 62 53 81 54 46 55 47 56 61 58 82 59
REMARK SMILES IDX 49 60 33 61 34 62 42 63 35 64 37 65 43 66 36 67 38 68 39 69
REMARK SMILES IDX 40 70 41 71 65 72 66 73 74 74 67 75 69 76 75 77 68 78 70 79
REMARK SMILES IDX 71 80 72 81 73 82 50 83 51 84 59 85 52 86 54 87 60 88 53 89
REMARK SMILES IDX 55 90 56 91 57 92 58 93
REMARK H PARENT 11 11 8 20 8 21 8 22 80 46 48 57
REMARK Flexibility Score: inf
ROOT
ATOM      1  C   UNL A   1      31.819  27.866  26.476  1.00  0.00     0.312 C 
ATOM      2  O   UNL A   1      31.349  27.973  27.603  1.00  0.00    -0.252 OA
ENDROOT
BRANCH   1   3
ATOM      3  C   UNL A   1      32.142  26.519  25.865  1.00  0.00     0.124 C 
ATOM      4  C   UNL A   1      33.312  24.465  25.810  1.00  0.00     0.106 C 
ATOM      5  C   UNL A   1      31.963  24.254  26.416  1.00  0.00    -0.006 C 
ATOM      6  C   UNL A   1      33.552  25.946  26.063  1.00  0.00     0.048 C 
ATOM      7  C   UNL A   1      31.286  25.410  26.421  1.00  0.00    -0.014 C 
BRANCH   4   8
ATOM      8  N   UNL A   1      34.264  23.528  26.302  1.00  0.00    -0.350 N 
ATOM      9  C   UNL A   1      34.556  22.298  25.787  1.00  0.00     0.223 C 
ATOM     10  O   UNL A   1      35.196  21.528  26.512  1.00  0.00    -0.275 OA
ATOM     11  H   UNL A   1      34.769  23.797  27.103  1.00  0.00     0.164 HD
BRANCH   9  12
ATOM     12  C   UNL A   1      34.174  21.866  24.353  1.00  0.00     0.075 C 
ATOM     13  C   UNL A   1      34.763  22.774  23.277  1.00  0.00     0.018 C 
BRANCH  12  14
ATOM     14  C   UNL A   1      32.752  21.311  24.072  1.00  0.00     0.013 C 
BRANCH  14  15
ATOM     15  C   UNL A   1      32.465  19.884  23.573  1.00  0.00     0.007 C 
BRANCH  15  16
ATOM     16  C   UNL A   1      33.233  18.723  24.226  1.00  0.00     0.064 C 
BRANCH  16  17
ATOM     17  C   UNL A   1      32.504  17.927  25.313  1.00  0.00     0.177 C 
ATOM     18  C   UNL A   1      32.948  16.469  25.360  1.00  0.00     0.075 C 
BRANCH  17  19
ATOM     19  N   UNL A   1      32.832  18.562  26.596  1.00  0.00    -0.355 N 
ATOM     20  H   UNL A   1      31.993  18.992  26.987  1.00  0.00     0.344 HD
ATOM     21  H   UNL A   1      33.543  19.278  26.448  1.00  0.00     0.344 HD
ATOM     22  H   UNL A   1      33.186  17.858  27.243  1.00  0.00     0.344 HD
ENDBRANCH  17  19
ENDBRANCH  16  17
ENDBRANCH  15  16
ENDBRANCH  14  15
ENDBRANCH  12  14
ENDBRANCH   9  12
ENDBRANCH   4   8
ENDBRANCH   1   3
BRANCH   1  23
ATOM     23  O   UNL A   1      32.117  28.905  25.659  1.00  0.00    -0.462 OA
BRANCH  23  24
ATOM     24  C   UNL A   1      31.247  30.046  25.753  1.00  0.00     0.274 C 
BRANCH  24  25
ATOM     25  C   UNL A   1      32.048  31.296  26.122  1.00  0.00     0.275 C 
BRANCH  25  26
ATOM     26  O   UNL A   1      32.872  31.091  27.286  1.00  0.00    -0.458 OA
BRANCH  26  27
ATOM     27  C   UNL A   1      33.732  32.091  27.582  1.00  0.00     0.338 C 
ATOM     28  O   UNL A   1      33.509  33.293  27.514  1.00  0.00    -0.246 OA
BRANCH  27  29
ATOM     29  C   UNL A   1      34.991  31.546  28.113  1.00  0.00     0.060 A 
ATOM     30  C   UNL A   1      35.006  30.228  28.579  1.00  0.00     0.016 A 
ATOM     31  C   UNL A   1      36.128  32.349  28.225  1.00  0.00     0.016 A 
ATOM     32  C   UNL A   1      36.161  29.711  29.165  1.00  0.00     0.010 A 
ATOM     33  C   UNL A   1      37.286  31.825  28.811  1.00  0.00     0.010 A 
ATOM     34  C   UNL A   1      37.308  30.507  29.295  1.00  0.00    -0.014 A 
BRANCH  34  35
ATOM     35  C   UNL A   1      38.525  29.962  29.950  1.00  0.00     0.031 A 
ATOM     36  C   UNL A   1      38.941  30.454  31.309  1.00  0.00     0.074 A 
ATOM     37  C   UNL A   1      39.274  29.046  29.307  1.00  0.00     0.049 A 
ATOM     38  N   UNL A   1      40.002  30.145  32.007  1.00  0.00    -0.248 NA
ATOM     39  C   UNL A   1      38.048  31.422  31.967  1.00  0.00     0.031 C 
ATOM     40  C   UNL A   1      38.985  28.501  27.981  1.00  0.00     0.029 A 
ATOM     41  N   UNL A   1      40.447  28.432  29.673  1.00  0.00    -0.354 N 
ATOM     42  C   UNL A   1      39.931  30.908  33.167  1.00  0.00     0.074 A 
ATOM     43  C   UNL A   1      38.718  31.694  33.079  1.00  0.00     0.031 C 
ATOM     44  C   UNL A   1      39.965  27.652  27.634  1.00  0.00     0.029 A 
ATOM     45  C   UNL A   1      40.966  27.614  28.697  1.00  0.00     0.049 A 
ATOM     46  H   UNL A   1      40.876  28.566  30.549  1.00  0.00     0.167 HD
ATOM     47  C   UNL A   1      40.787  30.937  34.216  1.00  0.00     0.034 A 
ATOM     48  C   UNL A   1      42.126  26.930  28.653  1.00  0.00     0.034 A 
ATOM     49  C   UNL A   1      41.970  30.124  34.322  1.00  0.00     0.049 A 
ATOM     50  C   UNL A   1      43.055  26.979  29.836  1.00  0.00     0.074 A 
ATOM     51  C   UNL A   1      42.864  30.041  35.377  1.00  0.00     0.029 A 
ATOM     52  N   UNL A   1      42.429  29.259  33.343  1.00  0.00    -0.354 N 
ATOM     53  N   UNL A   1      42.906  27.606  30.976  1.00  0.00    -0.248 NA
ATOM     54  C   UNL A   1      44.300  26.201  29.737  1.00  0.00     0.031 C 
ATOM     55  C   UNL A   1      43.871  29.136  35.027  1.00  0.00     0.029 A 
ATOM     56  C   UNL A   1      43.597  28.644  33.762  1.00  0.00     0.049 A 
ATOM     57  H   UNL A   1      41.990  29.105  32.475  1.00  0.00     0.167 HD
ATOM     58  C   UNL A   1      44.020  27.277  31.742  1.00  0.00     0.074 A 
ATOM     59  C   UNL A   1      44.823  26.373  30.944  1.00  0.00     0.031 C 
ATOM     60  C   UNL A   1      44.357  27.701  32.984  1.00  0.00     0.034 A 
BRANCH  47  61
ATOM     61  C   UNL A   1      40.460  31.852  35.366  1.00  0.00     0.023 A 
ATOM     62  C   UNL A   1      41.112  33.097  35.467  1.00  0.00     0.012 A 
ATOM     63  C   UNL A   1      39.453  31.520  36.294  1.00  0.00     0.148 A 
ATOM     64  C   UNL A   1      40.783  33.990  36.486  1.00  0.00     0.002 A 
ATOM     65  C   UNL A   1      39.104  32.431  37.285  1.00  0.00     0.091 A 
ATOM     66  F   UNL A   1      38.859  30.323  36.192  1.00  0.00    -0.205 F 
ATOM     67  C   UNL A   1      39.773  33.663  37.387  1.00  0.00     0.022 A 
BRANCH  65  68
ATOM     68  S   UNL A   1      37.767  32.133  38.448  1.00  0.00     0.127 S 
ATOM     69  O   UNL A   1      38.494  32.040  39.714  1.00  0.00    -0.237 OA
ATOM     70  O   UNL A   1      36.952  33.338  38.299  1.00  0.00    -0.237 OA
ATOM     71  O   UNL A   1      37.119  30.905  38.007  1.00  0.00    -0.744 OA
ENDBRANCH  65  68
ENDBRANCH  47  61
BRANCH  48  72
ATOM     72  C   UNL A   1      42.458  26.107  27.456  1.00  0.00     0.023 A 
ATOM     73  C   UNL A   1      43.198  26.682  26.405  1.00  0.00     0.012 A 
ATOM     74  C   UNL A   1      42.069  24.756  27.364  1.00  0.00     0.148 A 
ATOM     75  C   UNL A   1      43.520  25.936  25.271  1.00  0.00     0.002 A 
ATOM     76  C   UNL A   1      42.441  24.003  26.257  1.00  0.00     0.091 A 
ATOM     77  F   UNL A   1      41.344  24.233  28.362  1.00  0.00    -0.205 F 
ATOM     78  C   UNL A   1      43.153  24.593  25.202  1.00  0.00     0.022 A 
BRANCH  76  79
ATOM     79  S   UNL A   1      42.123  22.237  26.157  1.00  0.00     0.127 S 
ATOM     80  O   UNL A   1      42.831  21.874  24.932  1.00  0.00    -0.237 OA
ATOM     81  O   UNL A   1      42.736  21.744  27.391  1.00  0.00    -0.237 OA
ATOM     82  O   UNL A   1      40.673  22.109  26.121  1.00  0.00    -0.744 OA
ENDBRANCH  76  79
ENDBRANCH  48  72
BRANCH  60  83
ATOM     83  C   UNL A   1      45.638  27.175  33.579  1.00  0.00     0.023 A 
ATOM     84  C   UNL A   1      46.836  27.892  33.395  1.00  0.00     0.012 A 
ATOM     85  C   UNL A   1      45.642  26.013  34.376  1.00  0.00     0.148 A 
ATOM     86  C   UNL A   1      48.025  27.446  33.973  1.00  0.00     0.002 A 
ATOM     87  C   UNL A   1      46.822  25.599  34.985  1.00  0.00     0.091 A 
ATOM     88  F   UNL A   1      44.497  25.332  34.521  1.00  0.00    -0.205 F 
ATOM     89  C   UNL A   1      48.015  26.309  34.777  1.00  0.00     0.022 A 
BRANCH  87  90
ATOM     90  S   UNL A   1      46.880  24.196  36.105  1.00  0.00     0.127 S 
ATOM     91  O   UNL A   1      45.756  24.477  36.995  1.00  0.00    -0.237 OA
ATOM     92  O   UNL A   1      46.673  23.063  35.200  1.00  0.00    -0.237 OA
ATOM     93  O   UNL A   1      48.198  24.236  36.723  1.00  0.00    -0.744 OA
ENDBRANCH  87  90
ENDBRANCH  60  83
ENDBRANCH  34  35
ENDBRANCH  27  29
ENDBRANCH  26  27
ENDBRANCH  25  26
ENDBRANCH  24  25
ENDBRANCH  23  24
ENDBRANCH   1  23
TORSDOF 21
ENDMDL
