MODEL 1
REMARK VINA RESULT:     -11.2      0.000      0.000
REMARK SMILES CC[C@]1(C(=O)OCCOC(=O)c2ccc(-c3c4nc(c(-c5cccc(S(=O)(=O)[O-])c5F)c5ccc([nH]5)c(-c5cccc(S(=O)(=O)[O-])c5F)c5nc(c(-c6cccc(S(=O)(=O)[O-])c6F)c6ccc3[nH]6)C=C5)C=C4)cc2)CCCN(S(=O)(=O)CCOC(C)C)C1
REMARK SMILES IDX 7 1 6 2 4 3 5 4 3 5 75 6 88 7 76 8 78 9 77 10 2 11 1 12
REMARK SMILES IDX 79 13 80 14 81 15 82 16 83 17 84 18 85 19 86 20 87 21 8 22
REMARK SMILES IDX 9 23 10 24 11 25 12 26 13 27 74 28 14 29 73 30 15 31 16 32
REMARK SMILES IDX 17 33 67 34 18 35 72 36 66 37 68 38 19 39 71 40 65 41 64 42
REMARK SMILES IDX 20 44 52 45 32 46 51 47 33 48 36 49 50 50 69 51 34 52 35 53
REMARK SMILES IDX 49 55 70 56 37 57 21 58 22 59 30 60 23 61 25 62 31 63 24 64
REMARK SMILES IDX 26 65 27 66 28 67 29 68 53 69 54 70 62 71 55 72 57 73 63 74
REMARK SMILES IDX 56 75 58 76 59 77 60 78 61 79 38 80 39 81 47 82 40 83 42 84
REMARK SMILES IDX 48 85 41 86 43 87 44 88 45 89 46 90
REMARK H PARENT 68 43 36 54
REMARK Flexibility Score: inf
ROOT
ATOM      1  C   UNL A   1      34.707  20.430  25.311  1.00  0.00     0.274 C 
ENDROOT
BRANCH   1   2
ATOM      2  O   UNL A   1      34.174  21.761  25.233  1.00  0.00    -0.462 OA
BRANCH   2   3
ATOM      3  C   UNL A   1      33.362  22.030  24.179  1.00  0.00     0.313 C 
ATOM      4  O   UNL A   1      32.707  21.178  23.595  1.00  0.00    -0.252 OA
BRANCH   3   5
ATOM      5  C   UNL A   1      33.437  23.497  23.733  1.00  0.00     0.082 C 
ATOM      6  C   UNL A   1      33.276  23.642  22.186  1.00  0.00     0.021 C 
ATOM      7  C   UNL A   1      32.215  24.157  24.437  1.00  0.00     0.121 C 
ATOM      8  C   UNL A   1      32.880  25.038  21.714  1.00  0.00     0.018 C 
ATOM      9  N   UNL A   1      31.922  25.535  23.908  1.00  0.00    -0.201 NA
ATOM     10  C   UNL A   1      31.641  25.525  22.451  1.00  0.00     0.102 C 
BRANCH   5  11
ATOM     11  C   UNL A   1      34.778  24.162  24.201  1.00  0.00     0.017 C 
ATOM     12  C   UNL A   1      34.870  24.851  25.559  1.00  0.00     0.005 C 
ENDBRANCH   5  11
BRANCH   9  13
ATOM     13  S   UNL A   1      30.872  26.481  24.865  1.00  0.00     0.216 S 
ATOM     14  O   UNL A   1      30.219  25.559  25.780  1.00  0.00    -0.212 OA
ATOM     15  O   UNL A   1      31.617  27.603  25.381  1.00  0.00    -0.212 OA
BRANCH  13  16
ATOM     16  C   UNL A   1      29.624  27.096  23.709  1.00  0.00     0.182 C 
BRANCH  16  17
ATOM     17  C   UNL A   1      29.667  28.606  23.476  1.00  0.00     0.178 C 
BRANCH  17  18
ATOM     18  O   UNL A   1      28.713  29.106  22.525  1.00  0.00    -0.378 OA
BRANCH  18  19
ATOM     19  C   UNL A   1      28.639  30.522  22.310  1.00  0.00     0.112 C 
ATOM     20  C   UNL A   1      28.028  30.931  20.964  1.00  0.00     0.038 C 
ATOM     21  C   UNL A   1      27.938  31.179  23.468  1.00  0.00     0.038 C 
ENDBRANCH  18  19
ENDBRANCH  17  18
ENDBRANCH  16  17
ENDBRANCH  13  16
ENDBRANCH   9  13
ENDBRANCH   3   5
ENDBRANCH   2   3
ENDBRANCH   1   2
BRANCH   1  22
ATOM     22  C   UNL A   1      36.187  20.442  24.931  1.00  0.00     0.275 C 
BRANCH  22  23
ATOM     23  O   UNL A   1      36.932  21.392  25.718  1.00  0.00    -0.458 OA
BRANCH  23  24
ATOM     24  C   UNL A   1      38.272  21.179  25.784  1.00  0.00     0.338 C 
ATOM     25  O   UNL A   1      38.875  20.200  25.375  1.00  0.00    -0.246 OA
BRANCH  24  26
ATOM     26  C   UNL A   1      38.950  22.393  26.291  1.00  0.00     0.060 A 
ATOM     27  C   UNL A   1      40.086  22.221  27.089  1.00  0.00     0.016 A 
ATOM     28  C   UNL A   1      38.506  23.680  25.987  1.00  0.00     0.016 A 
ATOM     29  C   UNL A   1      40.845  23.320  27.491  1.00  0.00     0.010 A 
ATOM     30  C   UNL A   1      39.235  24.788  26.443  1.00  0.00     0.010 A 
ATOM     31  C   UNL A   1      40.425  24.614  27.170  1.00  0.00    -0.014 A 
BRANCH  31  32
ATOM     32  C   UNL A   1      41.214  25.788  27.618  1.00  0.00     0.031 A 
ATOM     33  C   UNL A   1      40.547  26.881  28.400  1.00  0.00     0.074 A 
ATOM     34  C   UNL A   1      42.522  25.883  27.317  1.00  0.00     0.049 A 
ATOM     35  N   UNL A   1      41.026  28.037  28.774  1.00  0.00    -0.248 NA
ATOM     36  C   UNL A   1      39.161  26.633  28.831  1.00  0.00     0.031 C 
ATOM     37  C   UNL A   1      43.308  24.858  26.629  1.00  0.00     0.029 A 
ATOM     38  N   UNL A   1      43.415  26.908  27.522  1.00  0.00    -0.354 N 
ATOM     39  C   UNL A   1      39.999  28.670  29.462  1.00  0.00     0.074 A 
ATOM     40  C   UNL A   1      38.874  27.759  29.470  1.00  0.00     0.031 C 
ATOM     41  C   UNL A   1      44.551  25.329  26.421  1.00  0.00     0.029 A 
ATOM     42  C   UNL A   1      44.635  26.700  26.920  1.00  0.00     0.049 A 
ATOM     43  H   UNL A   1      43.202  27.713  28.049  1.00  0.00     0.167 HD
ATOM     44  C   UNL A   1      39.992  29.898  30.029  1.00  0.00     0.034 A 
ATOM     45  C   UNL A   1      45.677  27.540  26.745  1.00  0.00     0.034 A 
ATOM     46  C   UNL A   1      41.100  30.814  30.005  1.00  0.00     0.049 A 
ATOM     47  C   UNL A   1      45.595  28.946  27.288  1.00  0.00     0.074 A 
ATOM     48  C   UNL A   1      41.175  32.083  30.551  1.00  0.00     0.029 A 
ATOM     49  N   UNL A   1      42.315  30.574  29.384  1.00  0.00    -0.354 N 
ATOM     50  N   UNL A   1      44.651  29.504  28.008  1.00  0.00    -0.248 NA
ATOM     51  C   UNL A   1      46.732  29.838  27.007  1.00  0.00     0.031 C 
ATOM     52  C   UNL A   1      42.422  32.626  30.228  1.00  0.00     0.029 A 
ATOM     53  C   UNL A   1      43.138  31.681  29.512  1.00  0.00     0.049 A 
ATOM     54  H   UNL A   1      42.557  29.741  28.920  1.00  0.00     0.167 HD
ATOM     55  C   UNL A   1      45.095  30.794  28.289  1.00  0.00     0.074 A 
ATOM     56  C   UNL A   1      46.405  30.926  27.690  1.00  0.00     0.031 C 
ATOM     57  C   UNL A   1      44.464  31.787  28.962  1.00  0.00     0.034 A 
BRANCH  44  58
ATOM     58  C   UNL A   1      38.733  30.337  30.725  1.00  0.00     0.023 A 
ATOM     59  C   UNL A   1      38.595  30.138  32.113  1.00  0.00     0.012 A 
ATOM     60  C   UNL A   1      37.721  31.013  30.015  1.00  0.00     0.148 A 
ATOM     61  C   UNL A   1      37.459  30.588  32.782  1.00  0.00     0.002 A 
ATOM     62  C   UNL A   1      36.610  31.493  30.696  1.00  0.00     0.091 A 
ATOM     63  F   UNL A   1      37.867  31.172  28.693  1.00  0.00    -0.205 F 
ATOM     64  C   UNL A   1      36.473  31.273  32.077  1.00  0.00     0.022 A 
BRANCH  62  65
ATOM     65  S   UNL A   1      35.320  32.452  29.895  1.00  0.00     0.127 S 
ATOM     66  O   UNL A   1      34.404  32.700  31.008  1.00  0.00    -0.237 OA
ATOM     67  O   UNL A   1      36.056  33.630  29.437  1.00  0.00    -0.237 OA
ATOM     68  O   UNL A   1      34.790  31.609  28.833  1.00  0.00    -0.744 OA
ENDBRANCH  62  65
ENDBRANCH  44  58
BRANCH  45  69
ATOM     69  C   UNL A   1      46.888  27.106  25.986  1.00  0.00     0.023 A 
ATOM     70  C   UNL A   1      47.893  26.365  26.639  1.00  0.00     0.012 A 
ATOM     71  C   UNL A   1      47.078  27.479  24.640  1.00  0.00     0.148 A 
ATOM     72  C   UNL A   1      49.083  26.047  25.983  1.00  0.00     0.002 A 
ATOM     73  C   UNL A   1      48.241  27.108  23.975  1.00  0.00     0.091 A 
ATOM     74  F   UNL A   1      46.125  28.205  24.041  1.00  0.00    -0.205 F 
ATOM     75  C   UNL A   1      49.254  26.413  24.651  1.00  0.00     0.022 A 
BRANCH  73  76
ATOM     76  S   UNL A   1      48.499  27.439  22.229  1.00  0.00     0.127 S 
ATOM     77  O   UNL A   1      47.291  28.184  21.884  1.00  0.00    -0.237 OA
ATOM     78  O   UNL A   1      49.729  28.233  22.252  1.00  0.00    -0.237 OA
ATOM     79  O   UNL A   1      48.639  26.133  21.597  1.00  0.00    -0.744 OA
ENDBRANCH  73  76
ENDBRANCH  45  69
BRANCH  57  80
ATOM     80  C   UNL A   1      45.187  33.101  29.127  1.00  0.00     0.023 A 
ATOM     81  C   UNL A   1      46.015  33.312  30.248  1.00  0.00     0.012 A 
ATOM     82  C   UNL A   1      45.114  34.094  28.128  1.00  0.00     0.148 A 
ATOM     83  C   UNL A   1      46.733  34.499  30.388  1.00  0.00     0.002 A 
ATOM     84  C   UNL A   1      45.873  35.253  28.249  1.00  0.00     0.091 A 
ATOM     85  F   UNL A   1      44.313  33.882  27.074  1.00  0.00    -0.205 F 
ATOM     86  C   UNL A   1      46.673  35.463  29.385  1.00  0.00     0.022 A 
BRANCH  84  87
ATOM     87  S   UNL A   1      45.936  36.510  26.967  1.00  0.00     0.127 S 
ATOM     88  O   UNL A   1      46.960  37.416  27.488  1.00  0.00    -0.237 OA
ATOM     89  O   UNL A   1      46.348  35.735  25.796  1.00  0.00    -0.237 OA
ATOM     90  O   UNL A   1      44.595  37.072  26.883  1.00  0.00    -0.744 OA
ENDBRANCH  84  87
ENDBRANCH  57  80
ENDBRANCH  31  32
ENDBRANCH  24  26
ENDBRANCH  23  24
ENDBRANCH  22  23
ENDBRANCH   1  22
TORSDOF 20
ENDMDL
MODEL 2
REMARK VINA RESULT:     -10.9      1.287      1.932
REMARK SMILES CC[C@]1(C(=O)OCCOC(=O)c2ccc(-c3c4nc(c(-c5cccc(S(=O)(=O)[O-])c5F)c5ccc([nH]5)c(-c5cccc(S(=O)(=O)[O-])c5F)c5nc(c(-c6cccc(S(=O)(=O)[O-])c6F)c6ccc3[nH]6)C=C5)C=C4)cc2)CCCN(S(=O)(=O)CCOC(C)C)C1
REMARK SMILES IDX 7 1 6 2 4 3 5 4 3 5 75 6 88 7 76 8 78 9 77 10 2 11 1 12
REMARK SMILES IDX 79 13 80 14 81 15 82 16 83 17 84 18 85 19 86 20 87 21 8 22
REMARK SMILES IDX 9 23 10 24 11 25 12 26 13 27 74 28 14 29 73 30 15 31 16 32
REMARK SMILES IDX 17 33 67 34 18 35 72 36 66 37 68 38 19 39 71 40 65 41 64 42
REMARK SMILES IDX 20 44 52 45 32 46 51 47 33 48 36 49 50 50 69 51 34 52 35 53
REMARK SMILES IDX 49 55 70 56 37 57 21 58 22 59 30 60 23 61 25 62 31 63 24 64
REMARK SMILES IDX 26 65 27 66 28 67 29 68 53 69 54 70 62 71 55 72 57 73 63 74
REMARK SMILES IDX 56 75 58 76 59 77 60 78 61 79 38 80 39 81 47 82 40 83 42 84
REMARK SMILES IDX 48 85 41 86 43 87 44 88 45 89 46 90
REMARK H PARENT 68 43 36 54
REMARK Flexibility Score: inf
ROOT
ATOM      1  C   UNL A   1      36.423  22.165  23.897  1.00  0.00     0.274 C 
ENDROOT
BRANCH   1   2
ATOM      2  O   UNL A   1      35.012  21.974  24.084  1.00  0.00    -0.462 OA
BRANCH   2   3
ATOM      3  C   UNL A   1      34.197  22.935  23.580  1.00  0.00     0.313 C 
ATOM      4  O   UNL A   1      34.597  23.884  22.919  1.00  0.00    -0.252 OA
BRANCH   3   5
ATOM      5  C   UNL A   1      32.736  22.760  24.016  1.00  0.00     0.082 C 
ATOM      6  C   UNL A   1      32.593  21.702  25.156  1.00  0.00     0.021 C 
ATOM      7  C   UNL A   1      32.348  24.162  24.570  1.00  0.00     0.121 C 
ATOM      8  C   UNL A   1      31.295  21.794  25.953  1.00  0.00     0.018 C 
ATOM      9  N   UNL A   1      31.046  24.143  25.323  1.00  0.00    -0.201 NA
ATOM     10  C   UNL A   1      31.080  23.208  26.474  1.00  0.00     0.102 C 
BRANCH   5  11
ATOM     11  C   UNL A   1      31.826  22.369  22.800  1.00  0.00     0.017 C 
ATOM     12  C   UNL A   1      32.059  21.063  22.046  1.00  0.00     0.005 C 
ENDBRANCH   5  11
BRANCH   9  13
ATOM     13  S   UNL A   1      30.349  25.671  25.624  1.00  0.00     0.216 S 
ATOM     14  O   UNL A   1      29.838  26.141  24.347  1.00  0.00    -0.212 OA
ATOM     15  O   UNL A   1      29.462  25.552  26.756  1.00  0.00    -0.212 OA
BRANCH  13  16
ATOM     16  C   UNL A   1      31.741  26.729  26.089  1.00  0.00     0.182 C 
BRANCH  16  17
ATOM     17  C   UNL A   1      32.051  27.843  25.088  1.00  0.00     0.178 C 
BRANCH  17  18
ATOM     18  O   UNL A   1      33.013  27.504  24.075  1.00  0.00    -0.378 OA
BRANCH  18  19
ATOM     19  C   UNL A   1      32.698  27.798  22.708  1.00  0.00     0.112 C 
ATOM     20  C   UNL A   1      32.570  26.565  21.804  1.00  0.00     0.038 C 
ATOM     21  C   UNL A   1      31.475  28.673  22.641  1.00  0.00     0.038 C 
ENDBRANCH  18  19
ENDBRANCH  17  18
ENDBRANCH  16  17
ENDBRANCH  13  16
ENDBRANCH   9  13
ENDBRANCH   3   5
ENDBRANCH   2   3
ENDBRANCH   1   2
BRANCH   1  22
ATOM     22  C   UNL A   1      37.191  21.007  24.533  1.00  0.00     0.275 C 
BRANCH  22  23
ATOM     23  O   UNL A   1      37.631  21.327  25.868  1.00  0.00    -0.458 OA
BRANCH  23  24
ATOM     24  C   UNL A   1      38.960  21.175  26.101  1.00  0.00     0.338 C 
ATOM     25  O   UNL A   1      39.640  20.196  25.836  1.00  0.00    -0.246 OA
BRANCH  24  26
ATOM     26  C   UNL A   1      39.533  22.449  26.590  1.00  0.00     0.060 A 
ATOM     27  C   UNL A   1      40.540  22.382  27.560  1.00  0.00     0.016 A 
ATOM     28  C   UNL A   1      39.117  23.691  26.109  1.00  0.00     0.016 A 
ATOM     29  C   UNL A   1      41.211  23.534  27.969  1.00  0.00     0.010 A 
ATOM     30  C   UNL A   1      39.750  24.856  26.566  1.00  0.00     0.010 A 
ATOM     31  C   UNL A   1      40.822  24.782  27.473  1.00  0.00    -0.014 A 
BRANCH  31  32
ATOM     32  C   UNL A   1      41.514  26.014  27.924  1.00  0.00     0.031 A 
ATOM     33  C   UNL A   1      40.751  27.067  28.674  1.00  0.00     0.074 A 
ATOM     34  C   UNL A   1      42.820  26.197  27.656  1.00  0.00     0.049 A 
ATOM     35  N   UNL A   1      41.138  28.259  29.043  1.00  0.00    -0.248 NA
ATOM     36  C   UNL A   1      39.375  26.727  29.072  1.00  0.00     0.031 C 
ATOM     37  C   UNL A   1      43.694  25.222  27.003  1.00  0.00     0.029 A 
ATOM     38  N   UNL A   1      43.632  27.286  27.870  1.00  0.00    -0.354 N 
ATOM     39  C   UNL A   1      40.051  28.826  29.695  1.00  0.00     0.074 A 
ATOM     40  C   UNL A   1      38.993  27.838  29.687  1.00  0.00     0.031 C 
ATOM     41  C   UNL A   1      44.906  25.777  26.820  1.00  0.00     0.029 A 
ATOM     42  C   UNL A   1      44.879  27.157  27.302  1.00  0.00     0.049 A 
ATOM     43  H   UNL A   1      43.350  28.079  28.379  1.00  0.00     0.167 HD
ATOM     44  C   UNL A   1      39.943  30.058  30.244  1.00  0.00     0.034 A 
ATOM     45  C   UNL A   1      45.864  28.065  27.142  1.00  0.00     0.034 A 
ATOM     46  C   UNL A   1      40.984  31.049  30.236  1.00  0.00     0.049 A 
ATOM     47  C   UNL A   1      45.669  29.469  27.663  1.00  0.00     0.074 A 
ATOM     48  C   UNL A   1      40.955  32.327  30.765  1.00  0.00     0.029 A 
ATOM     49  N   UNL A   1      42.228  30.888  29.650  1.00  0.00    -0.354 N 
ATOM     50  N   UNL A   1      44.670  29.968  28.350  1.00  0.00    -0.248 NA
ATOM     51  C   UNL A   1      46.749  30.435  27.398  1.00  0.00     0.031 C 
ATOM     52  C   UNL A   1      42.169  32.953  30.466  1.00  0.00     0.029 A 
ATOM     53  C   UNL A   1      42.968  32.052  29.783  1.00  0.00     0.049 A 
ATOM     54  H   UNL A   1      42.540  30.068  29.204  1.00  0.00     0.167 HD
ATOM     55  C   UNL A   1      45.014  31.289  28.624  1.00  0.00     0.074 A 
ATOM     56  C   UNL A   1      46.328  31.506  28.057  1.00  0.00     0.031 C 
ATOM     57  C   UNL A   1      44.298  32.244  29.266  1.00  0.00     0.034 A 
BRANCH  44  58
ATOM     58  C   UNL A   1      38.638  30.415  30.902  1.00  0.00     0.023 A 
ATOM     59  C   UNL A   1      38.435  30.115  32.263  1.00  0.00     0.012 A 
ATOM     60  C   UNL A   1      37.644  31.114  30.187  1.00  0.00     0.148 A 
ATOM     61  C   UNL A   1      37.253  30.489  32.900  1.00  0.00     0.002 A 
ATOM     62  C   UNL A   1      36.487  31.519  30.840  1.00  0.00     0.091 A 
ATOM     63  F   UNL A   1      37.854  31.371  28.888  1.00  0.00    -0.205 F 
ATOM     64  C   UNL A   1      36.286  31.198  32.193  1.00  0.00     0.022 A 
BRANCH  62  65
ATOM     65  S   UNL A   1      35.214  32.499  30.040  1.00  0.00     0.127 S 
ATOM     66  O   UNL A   1      34.264  32.696  31.134  1.00  0.00    -0.237 OA
ATOM     67  O   UNL A   1      35.953  33.701  29.651  1.00  0.00    -0.237 OA
ATOM     68  O   UNL A   1      34.722  31.696  28.930  1.00  0.00    -0.744 OA
ENDBRANCH  62  65
ENDBRANCH  44  58
BRANCH  45  69
ATOM     69  C   UNL A   1      47.123  27.709  26.421  1.00  0.00     0.023 A 
ATOM     70  C   UNL A   1      48.260  27.315  27.153  1.00  0.00     0.012 A 
ATOM     71  C   UNL A   1      47.217  27.820  25.019  1.00  0.00     0.148 A 
ATOM     72  C   UNL A   1      49.478  27.088  26.511  1.00  0.00     0.002 A 
ATOM     73  C   UNL A   1      48.418  27.534  24.380  1.00  0.00     0.091 A 
ATOM     74  F   UNL A   1      46.135  28.220  24.338  1.00  0.00    -0.205 F 
ATOM     75  C   UNL A   1      49.555  27.191  25.125  1.00  0.00     0.022 A 
BRANCH  73  76
ATOM     76  S   UNL A   1      48.580  27.533  22.590  1.00  0.00     0.127 S 
ATOM     77  O   UNL A   1      49.899  28.135  22.410  1.00  0.00    -0.237 OA
ATOM     78  O   UNL A   1      48.506  26.104  22.282  1.00  0.00    -0.237 OA
ATOM     79  O   UNL A   1      47.455  28.314  22.093  1.00  0.00    -0.744 OA
ENDBRANCH  73  76
ENDBRANCH  45  69
BRANCH  57  80
ATOM     80  C   UNL A   1      44.922  33.608  29.430  1.00  0.00     0.023 A 
ATOM     81  C   UNL A   1      45.708  33.888  30.567  1.00  0.00     0.012 A 
ATOM     82  C   UNL A   1      44.802  34.582  28.419  1.00  0.00     0.148 A 
ATOM     83  C   UNL A   1      46.337  35.125  30.708  1.00  0.00     0.002 A 
ATOM     84  C   UNL A   1      45.474  35.793  28.542  1.00  0.00     0.091 A 
ATOM     85  F   UNL A   1      44.042  34.303  27.350  1.00  0.00    -0.205 F 
ATOM     86  C   UNL A   1      46.232  36.072  29.692  1.00  0.00     0.022 A 
BRANCH  84  87
ATOM     87  S   UNL A   1      45.478  37.038  27.246  1.00  0.00     0.127 S 
ATOM     88  O   UNL A   1      46.244  38.116  27.870  1.00  0.00    -0.237 OA
ATOM     89  O   UNL A   1      46.172  36.348  26.158  1.00  0.00    -0.237 OA
ATOM     90  O   UNL A   1      44.080  37.347  26.977  1.00  0.00    -0.744 OA
ENDBRANCH  84  87
ENDBRANCH  57  80
ENDBRANCH  31  32
ENDBRANCH  24  26
ENDBRANCH  23  24
ENDBRANCH  22  23
ENDBRANCH   1  22
TORSDOF 20
ENDMDL
MODEL 3
REMARK VINA RESULT:     -10.8      1.679      2.224
REMARK SMILES CC[C@]1(C(=O)OCCOC(=O)c2ccc(-c3c4nc(c(-c5cccc(S(=O)(=O)[O-])c5F)c5ccc([nH]5)c(-c5cccc(S(=O)(=O)[O-])c5F)c5nc(c(-c6cccc(S(=O)(=O)[O-])c6F)c6ccc3[nH]6)C=C5)C=C4)cc2)CCCN(S(=O)(=O)CCOC(C)C)C1
REMARK SMILES IDX 7 1 6 2 4 3 5 4 3 5 75 6 88 7 76 8 78 9 77 10 2 11 1 12
REMARK SMILES IDX 79 13 80 14 81 15 82 16 83 17 84 18 85 19 86 20 87 21 8 22
REMARK SMILES IDX 9 23 10 24 11 25 12 26 13 27 74 28 14 29 73 30 15 31 16 32
REMARK SMILES IDX 17 33 67 34 18 35 72 36 66 37 68 38 19 39 71 40 65 41 64 42
REMARK SMILES IDX 20 44 52 45 32 46 51 47 33 48 36 49 50 50 69 51 34 52 35 53
REMARK SMILES IDX 49 55 70 56 37 57 21 58 22 59 30 60 23 61 25 62 31 63 24 64
REMARK SMILES IDX 26 65 27 66 28 67 29 68 53 69 54 70 62 71 55 72 57 73 63 74
REMARK SMILES IDX 56 75 58 76 59 77 60 78 61 79 38 80 39 81 47 82 40 83 42 84
REMARK SMILES IDX 48 85 41 86 43 87 44 88 45 89 46 90
REMARK H PARENT 68 43 36 54
REMARK Flexibility Score: inf
ROOT
ATOM      1  C   UNL A   1      36.413  22.570  23.556  1.00  0.00     0.274 C 
ENDROOT
BRANCH   1   2
ATOM      2  O   UNL A   1      35.019  22.777  23.830  1.00  0.00    -0.462 OA
BRANCH   2   3
ATOM      3  C   UNL A   1      34.697  23.893  24.533  1.00  0.00     0.313 C 
ATOM      4  O   UNL A   1      35.352  24.309  25.479  1.00  0.00    -0.252 OA
BRANCH   3   5
ATOM      5  C   UNL A   1      33.368  24.515  24.081  1.00  0.00     0.082 C 
ATOM      6  C   UNL A   1      32.192  24.128  25.034  1.00  0.00     0.021 C 
ATOM      7  C   UNL A   1      33.626  26.047  24.186  1.00  0.00     0.121 C 
ATOM      8  C   UNL A   1      30.973  25.040  24.945  1.00  0.00     0.018 C 
ATOM      9  N   UNL A   1      32.360  26.852  24.070  1.00  0.00    -0.201 NA
ATOM     10  C   UNL A   1      31.375  26.497  25.120  1.00  0.00     0.102 C 
BRANCH   5  11
ATOM     11  C   UNL A   1      33.025  24.106  22.607  1.00  0.00     0.017 C 
ATOM     12  C   UNL A   1      32.800  25.171  21.538  1.00  0.00     0.005 C 
ENDBRANCH   5  11
BRANCH   9  13
ATOM     13  S   UNL A   1      32.575  28.520  23.781  1.00  0.00     0.216 S 
ATOM     14  O   UNL A   1      33.870  28.864  24.345  1.00  0.00    -0.212 OA
ATOM     15  O   UNL A   1      32.304  28.779  22.387  1.00  0.00    -0.212 OA
BRANCH  13  16
ATOM     16  C   UNL A   1      31.301  29.329  24.779  1.00  0.00     0.182 C 
BRANCH  16  17
ATOM     17  C   UNL A   1      30.268  30.114  23.970  1.00  0.00     0.178 C 
BRANCH  17  18
ATOM     18  O   UNL A   1      29.345  29.313  23.216  1.00  0.00    -0.378 OA
BRANCH  18  19
ATOM     19  C   UNL A   1      28.104  29.903  22.805  1.00  0.00     0.112 C 
ATOM     20  C   UNL A   1      27.640  31.080  23.672  1.00  0.00     0.038 C 
ATOM     21  C   UNL A   1      28.172  30.272  21.347  1.00  0.00     0.038 C 
ENDBRANCH  18  19
ENDBRANCH  17  18
ENDBRANCH  16  17
ENDBRANCH  13  16
ENDBRANCH   9  13
ENDBRANCH   3   5
ENDBRANCH   2   3
ENDBRANCH   1   2
BRANCH   1  22
ATOM     22  C   UNL A   1      36.904  21.322  24.288  1.00  0.00     0.275 C 
BRANCH  22  23
ATOM     23  O   UNL A   1      37.272  21.611  25.651  1.00  0.00    -0.458 OA
BRANCH  23  24
ATOM     24  C   UNL A   1      38.566  21.361  25.976  1.00  0.00     0.338 C 
ATOM     25  O   UNL A   1      39.185  20.329  25.767  1.00  0.00    -0.246 OA
BRANCH  24  26
ATOM     26  C   UNL A   1      39.202  22.594  26.492  1.00  0.00     0.060 A 
ATOM     27  C   UNL A   1      40.287  22.453  27.365  1.00  0.00     0.016 A 
ATOM     28  C   UNL A   1      38.769  23.869  26.126  1.00  0.00     0.016 A 
ATOM     29  C   UNL A   1      41.011  23.569  27.786  1.00  0.00     0.010 A 
ATOM     30  C   UNL A   1      39.460  24.995  26.598  1.00  0.00     0.010 A 
ATOM     31  C   UNL A   1      40.603  24.850  27.403  1.00  0.00    -0.014 A 
BRANCH  31  32
ATOM     32  C   UNL A   1      41.353  26.043  27.869  1.00  0.00     0.031 A 
ATOM     33  C   UNL A   1      40.641  27.122  28.630  1.00  0.00     0.074 A 
ATOM     34  C   UNL A   1      42.667  26.166  27.603  1.00  0.00     0.049 A 
ATOM     35  N   UNL A   1      41.085  28.290  29.013  1.00  0.00    -0.248 NA
ATOM     36  C   UNL A   1      39.250  26.845  29.023  1.00  0.00     0.031 C 
ATOM     37  C   UNL A   1      43.493  25.157  26.940  1.00  0.00     0.029 A 
ATOM     38  N   UNL A   1      43.530  27.211  27.829  1.00  0.00    -0.354 N 
ATOM     39  C   UNL A   1      40.026  28.901  29.670  1.00  0.00     0.074 A 
ATOM     40  C   UNL A   1      38.921  27.966  29.651  1.00  0.00     0.031 C 
ATOM     41  C   UNL A   1      44.731  25.655  26.764  1.00  0.00     0.029 A 
ATOM     42  C   UNL A   1      44.770  27.029  27.261  1.00  0.00     0.049 A 
ATOM     43  H   UNL A   1      43.286  28.012  28.348  1.00  0.00     0.167 HD
ATOM     44  C   UNL A   1      39.976  30.131  30.234  1.00  0.00     0.034 A 
ATOM     45  C   UNL A   1      45.798  27.890  27.111  1.00  0.00     0.034 A 
ATOM     46  C   UNL A   1      41.064  31.071  30.237  1.00  0.00     0.049 A 
ATOM     47  C   UNL A   1      45.671  29.296  27.648  1.00  0.00     0.074 A 
ATOM     48  C   UNL A   1      41.096  32.343  30.781  1.00  0.00     0.029 A 
ATOM     49  N   UNL A   1      42.300  30.856  29.649  1.00  0.00    -0.354 N 
ATOM     50  N   UNL A   1      44.695  29.835  28.340  1.00  0.00    -0.248 NA
ATOM     51  C   UNL A   1      46.795  30.212  27.395  1.00  0.00     0.031 C 
ATOM     52  C   UNL A   1      42.339  32.912  30.489  1.00  0.00     0.029 A 
ATOM     53  C   UNL A   1      43.095  31.981  29.797  1.00  0.00     0.049 A 
ATOM     54  H   UNL A   1      42.573  30.027  29.194  1.00  0.00     0.167 HD
ATOM     55  C   UNL A   1      45.103  31.135  28.629  1.00  0.00     0.074 A 
ATOM     56  C   UNL A   1      46.426  31.294  28.065  1.00  0.00     0.031 C 
ATOM     57  C   UNL A   1      44.433  32.115  29.282  1.00  0.00     0.034 A 
BRANCH  44  58
ATOM     58  C   UNL A   1      38.689  30.543  30.895  1.00  0.00     0.023 A 
ATOM     59  C   UNL A   1      38.507  30.316  32.273  1.00  0.00     0.012 A 
ATOM     60  C   UNL A   1      37.695  31.222  30.163  1.00  0.00     0.148 A 
ATOM     61  C   UNL A   1      37.343  30.742  32.911  1.00  0.00     0.002 A 
ATOM     62  C   UNL A   1      36.556  31.678  30.814  1.00  0.00     0.091 A 
ATOM     63  F   UNL A   1      37.884  31.408  28.849  1.00  0.00    -0.205 F 
ATOM     64  C   UNL A   1      36.375  31.430  32.185  1.00  0.00     0.022 A 
BRANCH  62  65
ATOM     65  S   UNL A   1      35.284  32.638  29.987  1.00  0.00     0.127 S 
ATOM     66  O   UNL A   1      34.838  31.706  28.952  1.00  0.00    -0.237 OA
ATOM     67  O   UNL A   1      34.320  32.859  31.065  1.00  0.00    -0.237 OA
ATOM     68  O   UNL A   1      35.940  33.841  29.496  1.00  0.00    -0.744 OA
ENDBRANCH  62  65
ENDBRANCH  44  58
BRANCH  45  69
ATOM     69  C   UNL A   1      47.038  27.482  26.387  1.00  0.00     0.023 A 
ATOM     70  C   UNL A   1      47.167  27.759  25.011  1.00  0.00     0.012 A 
ATOM     71  C   UNL A   1      48.062  26.766  27.039  1.00  0.00     0.148 A 
ATOM     72  C   UNL A   1      48.265  27.287  24.289  1.00  0.00     0.002 A 
ATOM     73  C   UNL A   1      49.181  26.350  26.325  1.00  0.00     0.091 A 
ATOM     74  F   UNL A   1      47.914  26.488  28.341  1.00  0.00    -0.205 F 
ATOM     75  C   UNL A   1      49.274  26.589  24.947  1.00  0.00     0.022 A 
BRANCH  73  76
ATOM     76  S   UNL A   1      50.579  25.543  27.113  1.00  0.00     0.127 S 
ATOM     77  O   UNL A   1      51.001  26.552  28.080  1.00  0.00    -0.237 OA
ATOM     78  O   UNL A   1      49.952  24.354  27.693  1.00  0.00    -0.237 OA
ATOM     79  O   UNL A   1      51.525  25.260  26.040  1.00  0.00    -0.744 OA
ENDBRANCH  73  76
ENDBRANCH  45  69
BRANCH  57  80
ATOM     80  C   UNL A   1      45.122  33.446  29.462  1.00  0.00     0.023 A 
ATOM     81  C   UNL A   1      45.908  33.680  30.608  1.00  0.00     0.012 A 
ATOM     82  C   UNL A   1      45.060  34.431  28.456  1.00  0.00     0.148 A 
ATOM     83  C   UNL A   1      46.596  34.883  30.764  1.00  0.00     0.002 A 
ATOM     84  C   UNL A   1      45.790  35.607  28.595  1.00  0.00     0.091 A 
ATOM     85  F   UNL A   1      44.298  34.197  27.377  1.00  0.00    -0.205 F 
ATOM     86  C   UNL A   1      46.548  35.840  29.754  1.00  0.00     0.022 A 
BRANCH  84  87
ATOM     87  S   UNL A   1      45.868  36.859  27.307  1.00  0.00     0.127 S 
ATOM     88  O   UNL A   1      46.286  36.069  26.149  1.00  0.00    -0.237 OA
ATOM     89  O   UNL A   1      44.485  37.333  27.254  1.00  0.00    -0.237 OA
ATOM     90  O   UNL A   1      46.834  37.849  27.763  1.00  0.00    -0.744 OA
ENDBRANCH  84  87
ENDBRANCH  57  80
ENDBRANCH  31  32
ENDBRANCH  24  26
ENDBRANCH  23  24
ENDBRANCH  22  23
ENDBRANCH   1  22
TORSDOF 20
ENDMDL
