MODEL 1
REMARK VINA RESULT:     -11.5      0.000      0.000
REMARK SMILES CCCn1nc(C(=O)OCCOC(=O)c2ccc(-c3c4nc(c(-c5cccc(S(=O)(=O)[O-])c5F)c5ccc([nH]5)c(-c5cccc(S(=O)(=O)[O-])c5F)c5nc(c(-c6cccc(S(=O)(=O)[O-])c6F)c6ccc3[nH]6)C=C5)C=C4)cc2)c2c1CC[C@@H]([NH+]1CC[NH+](Cc3ccccn3)CC1)C2
REMARK SMILES IDX 10 1 9 2 7 3 8 4 6 5 4 6 5 7 79 8 78 9 80 10 96 11 81 12
REMARK SMILES IDX 82 13 3 14 2 15 1 16 83 17 84 18 95 19 85 21 94 22 86 23
REMARK SMILES IDX 87 25 88 26 89 27 93 28 90 29 92 30 91 31 11 32 12 33 13 34
REMARK SMILES IDX 14 35 15 36 16 37 77 38 17 39 76 40 18 41 19 42 20 43 70 44
REMARK SMILES IDX 21 45 75 46 69 47 71 48 22 49 74 50 68 51 67 52 23 54 55 55
REMARK SMILES IDX 35 56 54 57 36 58 39 59 53 60 72 61 37 62 38 63 52 65 73 66
REMARK SMILES IDX 40 67 24 68 25 69 33 70 26 71 28 72 34 73 27 74 29 75 30 76
REMARK SMILES IDX 31 77 32 78 56 79 57 80 65 81 58 82 60 83 66 84 59 85 61 86
REMARK SMILES IDX 62 87 63 88 64 89 41 90 42 91 50 92 43 93 45 94 51 95 44 96
REMARK SMILES IDX 46 97 47 98 48 99 49 100
REMARK H PARENT 83 20 86 24 71 53 39 64
REMARK Flexibility Score: inf
ROOT
ATOM      1  C   UNL A   1      34.674  31.360  27.536  1.00  0.00     0.275 C 
ENDROOT
BRANCH   1   2
ATOM      2  O   UNL A   1      33.542  30.524  27.256  1.00  0.00    -0.457 OA
BRANCH   2   3
ATOM      3  C   UNL A   1      33.771  29.299  26.683  1.00  0.00     0.359 C 
ATOM      4  O   UNL A   1      34.779  28.628  26.891  1.00  0.00    -0.244 OA
BRANCH   3   5
ATOM      5  C   UNL A   1      32.629  28.881  25.850  1.00  0.00     0.174 A 
ATOM      6  N   UNL A   1      31.018  28.926  24.437  1.00  0.00    -0.268 N 
ATOM      7  N   UNL A   1      31.963  29.707  25.006  1.00  0.00    -0.165 NA
ATOM      8  C   UNL A   1      30.946  27.702  25.032  1.00  0.00     0.043 A 
ATOM      9  C   UNL A   1      32.100  27.563  25.761  1.00  0.00     0.014 A 
ATOM     10  C   UNL A   1      29.943  26.643  24.823  1.00  0.00     0.062 C 
ATOM     11  C   UNL A   1      32.566  26.252  26.318  1.00  0.00     0.105 C 
ATOM     12  C   UNL A   1      30.192  25.528  25.849  1.00  0.00     0.072 C 
ATOM     13  C   UNL A   1      31.662  25.056  25.896  1.00  0.00     0.189 C 
BRANCH   6  14
ATOM     14  C   UNL A   1      30.370  29.295  23.189  1.00  0.00     0.144 C 
BRANCH  14  15
ATOM     15  C   UNL A   1      29.157  30.214  23.288  1.00  0.00     0.020 C 
ATOM     16  C   UNL A   1      27.889  29.585  22.728  1.00  0.00     0.006 C 
ENDBRANCH  14  15
ENDBRANCH   6  14
BRANCH  13  17
ATOM     17  N   UNL A   1      32.085  24.276  24.723  1.00  0.00    -0.323 N 
ATOM     18  C   UNL A   1      31.349  23.107  24.263  1.00  0.00     0.324 C 
ATOM     19  C   UNL A   1      33.517  24.298  24.424  1.00  0.00     0.324 C 
ATOM     20  H   UNL A   1      31.637  24.901  24.053  1.00  0.00     0.348 HD
ATOM     21  C   UNL A   1      32.106  21.745  24.223  1.00  0.00     0.324 C 
ATOM     22  C   UNL A   1      34.098  23.051  23.724  1.00  0.00     0.324 C 
ATOM     23  N   UNL A   1      33.566  21.774  24.181  1.00  0.00    -0.321 N 
ATOM     24  H   UNL A   1      33.802  21.126  23.429  1.00  0.00     0.348 HD
BRANCH  23  25
ATOM     25  C   UNL A   1      34.294  21.075  25.245  1.00  0.00     0.319 C 
BRANCH  25  26
ATOM     26  C   UNL A   1      35.811  21.184  25.322  1.00  0.00     0.095 A 
ATOM     27  C   UNL A   1      36.623  20.152  24.849  1.00  0.00     0.030 A 
ATOM     28  N   UNL A   1      36.345  22.339  25.805  1.00  0.00    -0.255 NA
ATOM     29  C   UNL A   1      38.010  20.273  24.947  1.00  0.00     0.004 A 
ATOM     30  C   UNL A   1      37.692  22.426  25.896  1.00  0.00     0.111 A 
ATOM     31  C   UNL A   1      38.559  21.424  25.497  1.00  0.00     0.020 A 
ENDBRANCH  25  26
ENDBRANCH  23  25
ENDBRANCH  13  17
ENDBRANCH   3   5
ENDBRANCH   2   3
ENDBRANCH   1   2
BRANCH   1  32
ATOM     32  C   UNL A   1      34.799  31.562  29.040  1.00  0.00     0.275 C 
BRANCH  32  33
ATOM     33  O   UNL A   1      35.816  30.690  29.515  1.00  0.00    -0.458 OA
BRANCH  33  34
ATOM     34  C   UNL A   1      36.994  31.243  29.873  1.00  0.00     0.338 C 
ATOM     35  O   UNL A   1      37.169  32.269  30.503  1.00  0.00    -0.246 OA
BRANCH  34  36
ATOM     36  C   UNL A   1      38.073  30.463  29.266  1.00  0.00     0.060 A 
ATOM     37  C   UNL A   1      37.918  29.071  29.228  1.00  0.00     0.016 A 
ATOM     38  C   UNL A   1      39.310  31.090  29.087  1.00  0.00     0.016 A 
ATOM     39  C   UNL A   1      39.052  28.295  29.269  1.00  0.00     0.010 A 
ATOM     40  C   UNL A   1      40.432  30.324  29.184  1.00  0.00     0.010 A 
ATOM     41  C   UNL A   1      40.280  28.949  29.362  1.00  0.00    -0.014 A 
BRANCH  41  42
ATOM     42  C   UNL A   1      41.450  28.197  29.739  1.00  0.00     0.031 A 
ATOM     43  C   UNL A   1      41.725  28.194  31.189  1.00  0.00     0.074 A 
ATOM     44  C   UNL A   1      42.040  27.402  28.826  1.00  0.00     0.049 A 
ATOM     45  N   UNL A   1      42.758  28.668  31.802  1.00  0.00    -0.248 NA
ATOM     46  C   UNL A   1      40.641  27.761  32.086  1.00  0.00     0.031 C 
ATOM     47  C   UNL A   1      41.559  27.080  27.474  1.00  0.00     0.029 A 
ATOM     48  N   UNL A   1      43.082  26.551  28.992  1.00  0.00    -0.354 N 
ATOM     49  C   UNL A   1      42.533  28.398  33.150  1.00  0.00     0.074 A 
ATOM     50  C   UNL A   1      41.139  28.082  33.277  1.00  0.00     0.031 C 
ATOM     51  C   UNL A   1      42.128  25.921  27.074  1.00  0.00     0.029 A 
ATOM     52  C   UNL A   1      43.079  25.496  28.088  1.00  0.00     0.049 A 
ATOM     53  H   UNL A   1      43.773  26.669  29.683  1.00  0.00     0.167 HD
ATOM     54  C   UNL A   1      43.557  28.183  34.018  1.00  0.00     0.034 A 
ATOM     55  C   UNL A   1      43.705  24.306  28.256  1.00  0.00     0.034 A 
ATOM     56  C   UNL A   1      44.817  28.587  33.452  1.00  0.00     0.049 A 
ATOM     57  C   UNL A   1      44.704  24.482  29.342  1.00  0.00     0.074 A 
ATOM     58  C   UNL A   1      45.333  29.773  32.973  1.00  0.00     0.029 A 
ATOM     59  N   UNL A   1      45.623  27.587  32.962  1.00  0.00    -0.354 N 
ATOM     60  N   UNL A   1      45.751  25.257  29.247  1.00  0.00    -0.248 NA
ATOM     61  C   UNL A   1      44.293  24.157  30.701  1.00  0.00     0.031 C 
ATOM     62  C   UNL A   1      46.134  29.396  31.856  1.00  0.00     0.029 A 
ATOM     63  C   UNL A   1      46.097  28.004  31.748  1.00  0.00     0.049 A 
ATOM     64  H   UNL A   1      45.823  26.730  33.403  1.00  0.00     0.167 HD
ATOM     65  C   UNL A   1      45.858  25.859  30.497  1.00  0.00     0.074 A 
ATOM     66  C   UNL A   1      45.002  25.065  31.376  1.00  0.00     0.031 C 
ATOM     67  C   UNL A   1      46.377  27.115  30.638  1.00  0.00     0.034 A 
BRANCH  54  68
ATOM     68  C   UNL A   1      43.497  27.284  35.231  1.00  0.00     0.023 A 
ATOM     69  C   UNL A   1      42.462  26.323  35.254  1.00  0.00     0.012 A 
ATOM     70  C   UNL A   1      44.202  27.492  36.439  1.00  0.00     0.148 A 
ATOM     71  C   UNL A   1      42.106  25.654  36.428  1.00  0.00     0.002 A 
ATOM     72  C   UNL A   1      43.900  26.761  37.582  1.00  0.00     0.091 A 
ATOM     73  F   UNL A   1      45.078  28.494  36.552  1.00  0.00    -0.205 F 
ATOM     74  C   UNL A   1      42.830  25.867  37.593  1.00  0.00     0.022 A 
BRANCH  72  75
ATOM     75  S   UNL A   1      44.850  26.966  39.094  1.00  0.00     0.127 S 
ATOM     76  O   UNL A   1      46.137  26.395  38.712  1.00  0.00    -0.237 OA
ATOM     77  O   UNL A   1      44.841  28.420  39.265  1.00  0.00    -0.237 OA
ATOM     78  O   UNL A   1      44.102  26.245  40.119  1.00  0.00    -0.744 OA
ENDBRANCH  72  75
ENDBRANCH  54  68
BRANCH  55  79
ATOM     79  C   UNL A   1      43.271  22.972  27.774  1.00  0.00     0.023 A 
ATOM     80  C   UNL A   1      42.018  22.462  28.160  1.00  0.00     0.012 A 
ATOM     81  C   UNL A   1      43.981  22.290  26.757  1.00  0.00     0.148 A 
ATOM     82  C   UNL A   1      41.489  21.314  27.553  1.00  0.00     0.002 A 
ATOM     83  C   UNL A   1      43.463  21.137  26.174  1.00  0.00     0.091 A 
ATOM     84  F   UNL A   1      45.120  22.821  26.293  1.00  0.00    -0.205 F 
ATOM     85  C   UNL A   1      42.210  20.651  26.563  1.00  0.00     0.022 A 
BRANCH  83  86
ATOM     86  S   UNL A   1      44.353  20.234  24.898  1.00  0.00     0.127 S 
ATOM     87  O   UNL A   1      44.318  21.175  23.776  1.00  0.00    -0.237 OA
ATOM     88  O   UNL A   1      45.667  20.060  25.509  1.00  0.00    -0.237 OA
ATOM     89  O   UNL A   1      43.588  19.013  24.673  1.00  0.00    -0.744 OA
ENDBRANCH  83  86
ENDBRANCH  55  79
BRANCH  67  90
ATOM     90  C   UNL A   1      47.041  27.765  29.450  1.00  0.00     0.023 A 
ATOM     91  C   UNL A   1      48.385  27.499  29.113  1.00  0.00     0.012 A 
ATOM     92  C   UNL A   1      46.227  28.435  28.521  1.00  0.00     0.148 A 
ATOM     93  C   UNL A   1      48.905  27.894  27.878  1.00  0.00     0.002 A 
ATOM     94  C   UNL A   1      46.732  28.778  27.273  1.00  0.00     0.091 A 
ATOM     95  F   UNL A   1      44.950  28.676  28.855  1.00  0.00    -0.205 F 
ATOM     96  C   UNL A   1      48.073  28.516  26.950  1.00  0.00     0.022 A 
BRANCH  94  97
ATOM     97  S   UNL A   1      45.672  29.427  25.980  1.00  0.00     0.127 S 
ATOM     98  O   UNL A   1      45.155  30.649  26.593  1.00  0.00    -0.237 OA
ATOM     99  O   UNL A   1      46.614  29.646  24.880  1.00  0.00    -0.237 OA
ATOM    100  O   UNL A   1      44.682  28.390  25.715  1.00  0.00    -0.744 OA
ENDBRANCH  94  97
ENDBRANCH  67  90
ENDBRANCH  41  42
ENDBRANCH  34  36
ENDBRANCH  33  34
ENDBRANCH  32  33
ENDBRANCH   1  32
TORSDOF 19
ENDMDL
MODEL 2
REMARK VINA RESULT:     -11.3      2.357      7.449
REMARK SMILES CCCn1nc(C(=O)OCCOC(=O)c2ccc(-c3c4nc(c(-c5cccc(S(=O)(=O)[O-])c5F)c5ccc([nH]5)c(-c5cccc(S(=O)(=O)[O-])c5F)c5nc(c(-c6cccc(S(=O)(=O)[O-])c6F)c6ccc3[nH]6)C=C5)C=C4)cc2)c2c1CC[C@@H]([NH+]1CC[NH+](Cc3ccccn3)CC1)C2
REMARK SMILES IDX 10 1 9 2 7 3 8 4 6 5 4 6 5 7 79 8 78 9 80 10 96 11 81 12
REMARK SMILES IDX 82 13 3 14 2 15 1 16 83 17 84 18 95 19 85 21 94 22 86 23
REMARK SMILES IDX 87 25 88 26 89 27 93 28 90 29 92 30 91 31 11 32 12 33 13 34
REMARK SMILES IDX 14 35 15 36 16 37 77 38 17 39 76 40 18 41 19 42 20 43 70 44
REMARK SMILES IDX 21 45 75 46 69 47 71 48 22 49 74 50 68 51 67 52 23 54 55 55
REMARK SMILES IDX 35 56 54 57 36 58 39 59 53 60 72 61 37 62 38 63 52 65 73 66
REMARK SMILES IDX 40 67 24 68 25 69 33 70 26 71 28 72 34 73 27 74 29 75 30 76
REMARK SMILES IDX 31 77 32 78 56 79 57 80 65 81 58 82 60 83 66 84 59 85 61 86
REMARK SMILES IDX 62 87 63 88 64 89 41 90 42 91 50 92 43 93 45 94 51 95 44 96
REMARK SMILES IDX 46 97 47 98 48 99 49 100
REMARK H PARENT 83 20 86 24 71 53 39 64
REMARK Flexibility Score: inf
ROOT
ATOM      1  C   UNL A   1      34.571  31.218  27.376  1.00  0.00     0.275 C 
ENDROOT
BRANCH   1   2
ATOM      2  O   UNL A   1      33.450  30.355  27.130  1.00  0.00    -0.457 OA
BRANCH   2   3
ATOM      3  C   UNL A   1      33.693  29.123  26.579  1.00  0.00     0.359 C 
ATOM      4  O   UNL A   1      34.716  28.475  26.787  1.00  0.00    -0.244 OA
BRANCH   3   5
ATOM      5  C   UNL A   1      32.548  28.669  25.770  1.00  0.00     0.174 A 
ATOM      6  N   UNL A   1      30.920  28.657  24.376  1.00  0.00    -0.268 N 
ATOM      7  N   UNL A   1      31.860  29.465  24.916  1.00  0.00    -0.165 NA
ATOM      8  C   UNL A   1      30.876  27.446  24.999  1.00  0.00     0.043 A 
ATOM      9  C   UNL A   1      32.040  27.341  25.717  1.00  0.00     0.014 A 
ATOM     10  C   UNL A   1      29.887  26.367  24.826  1.00  0.00     0.062 C 
ATOM     11  C   UNL A   1      32.534  26.051  26.297  1.00  0.00     0.105 C 
ATOM     12  C   UNL A   1      30.166  25.279  25.873  1.00  0.00     0.072 C 
ATOM     13  C   UNL A   1      31.644  24.831  25.913  1.00  0.00     0.189 C 
BRANCH   6  14
ATOM     14  C   UNL A   1      30.251  28.987  23.128  1.00  0.00     0.144 C 
BRANCH  14  15
ATOM     15  C   UNL A   1      29.115  30.002  23.203  1.00  0.00     0.020 C 
ATOM     16  C   UNL A   1      27.788  29.442  22.713  1.00  0.00     0.006 C 
ENDBRANCH  14  15
ENDBRANCH   6  14
BRANCH  13  17
ATOM     17  N   UNL A   1      32.066  24.032  24.752  1.00  0.00    -0.323 N 
ATOM     18  C   UNL A   1      31.354  22.831  24.338  1.00  0.00     0.324 C 
ATOM     19  C   UNL A   1      33.490  24.085  24.423  1.00  0.00     0.324 C 
ATOM     20  H   UNL A   1      31.587  24.626  24.075  1.00  0.00     0.348 HD
ATOM     21  C   UNL A   1      32.148  21.490  24.318  1.00  0.00     0.324 C 
ATOM     22  C   UNL A   1      34.092  22.837  23.744  1.00  0.00     0.324 C 
ATOM     23  N   UNL A   1      33.606  21.558  24.245  1.00  0.00    -0.321 N 
ATOM     24  H   UNL A   1      33.845  20.897  23.505  1.00  0.00     0.348 HD
BRANCH  23  25
ATOM     25  C   UNL A   1      34.373  20.909  25.312  1.00  0.00     0.319 C 
BRANCH  25  26
ATOM     26  C   UNL A   1      35.886  21.081  25.368  1.00  0.00     0.095 A 
ATOM     27  C   UNL A   1      36.733  20.101  24.850  1.00  0.00     0.030 A 
ATOM     28  N   UNL A   1      36.378  22.242  25.880  1.00  0.00    -0.255 NA
ATOM     29  C   UNL A   1      38.116  20.279  24.930  1.00  0.00     0.004 A 
ATOM     30  C   UNL A   1      37.721  22.385  25.953  1.00  0.00     0.111 A 
ATOM     31  C   UNL A   1      38.623  21.435  25.508  1.00  0.00     0.020 A 
ENDBRANCH  25  26
ENDBRANCH  23  25
ENDBRANCH  13  17
ENDBRANCH   3   5
ENDBRANCH   2   3
ENDBRANCH   1   2
BRANCH   1  32
ATOM     32  C   UNL A   1      34.812  31.325  28.876  1.00  0.00     0.275 C 
BRANCH  32  33
ATOM     33  O   UNL A   1      35.865  30.431  29.213  1.00  0.00    -0.458 OA
BRANCH  33  34
ATOM     34  C   UNL A   1      37.130  30.840  28.975  1.00  0.00     0.338 C 
ATOM     35  O   UNL A   1      37.534  31.984  28.892  1.00  0.00    -0.246 OA
BRANCH  34  36
ATOM     36  C   UNL A   1      37.951  29.661  28.705  1.00  0.00     0.060 A 
ATOM     37  C   UNL A   1      38.186  28.781  29.769  1.00  0.00     0.016 A 
ATOM     38  C   UNL A   1      38.724  29.658  27.539  1.00  0.00     0.016 A 
ATOM     39  C   UNL A   1      39.364  28.071  29.772  1.00  0.00     0.010 A 
ATOM     40  C   UNL A   1      39.916  28.999  27.567  1.00  0.00     0.010 A 
ATOM     41  C   UNL A   1      40.252  28.289  28.719  1.00  0.00    -0.014 A 
BRANCH  41  42
ATOM     42  C   UNL A   1      41.614  27.836  28.843  1.00  0.00     0.031 A 
ATOM     43  C   UNL A   1      41.888  26.552  28.168  1.00  0.00     0.074 A 
ATOM     44  C   UNL A   1      42.543  28.680  29.333  1.00  0.00     0.049 A 
ATOM     45  N   UNL A   1      42.264  25.439  28.702  1.00  0.00    -0.248 NA
ATOM     46  C   UNL A   1      41.539  26.446  26.742  1.00  0.00     0.031 C 
ATOM     47  C   UNL A   1      42.378  30.105  29.655  1.00  0.00     0.029 A 
ATOM     48  N   UNL A   1      43.880  28.491  29.450  1.00  0.00    -0.354 N 
ATOM     49  C   UNL A   1      42.396  24.552  27.635  1.00  0.00     0.074 A 
ATOM     50  C   UNL A   1      41.706  25.144  26.524  1.00  0.00     0.031 C 
ATOM     51  C   UNL A   1      43.593  30.697  29.645  1.00  0.00     0.029 A 
ATOM     52  C   UNL A   1      44.605  29.676  29.429  1.00  0.00     0.049 A 
ATOM     53  H   UNL A   1      44.297  27.604  29.539  1.00  0.00     0.167 HD
ATOM     54  C   UNL A   1      43.293  23.531  27.659  1.00  0.00     0.034 A 
ATOM     55  C   UNL A   1      45.916  29.798  29.107  1.00  0.00     0.034 A 
ATOM     56  C   UNL A   1      43.801  23.312  28.987  1.00  0.00     0.049 A 
ATOM     57  C   UNL A   1      46.519  28.443  29.191  1.00  0.00     0.074 A 
ATOM     58  C   UNL A   1      43.239  22.986  30.203  1.00  0.00     0.029 A 
ATOM     59  N   UNL A   1      45.052  23.813  29.261  1.00  0.00    -0.354 N 
ATOM     60  N   UNL A   1      46.639  27.768  30.303  1.00  0.00    -0.248 NA
ATOM     61  C   UNL A   1      46.568  27.646  27.973  1.00  0.00     0.031 C 
ATOM     62  C   UNL A   1      43.985  23.730  31.161  1.00  0.00     0.029 A 
ATOM     63  C   UNL A   1      44.986  24.428  30.481  1.00  0.00     0.049 A 
ATOM     64  H   UNL A   1      45.847  23.742  28.686  1.00  0.00     0.167 HD
ATOM     65  C   UNL A   1      46.340  26.455  29.952  1.00  0.00     0.074 A 
ATOM     66  C   UNL A   1      46.410  26.426  28.493  1.00  0.00     0.031 C 
ATOM     67  C   UNL A   1      45.765  25.595  30.844  1.00  0.00     0.034 A 
BRANCH  54  68
ATOM     68  C   UNL A   1      43.992  22.958  26.449  1.00  0.00     0.023 A 
ATOM     69  C   UNL A   1      44.531  23.887  25.531  1.00  0.00     0.012 A 
ATOM     70  C   UNL A   1      43.923  21.610  26.026  1.00  0.00     0.148 A 
ATOM     71  C   UNL A   1      44.917  23.508  24.242  1.00  0.00     0.002 A 
ATOM     72  C   UNL A   1      44.389  21.224  24.775  1.00  0.00     0.091 A 
ATOM     73  F   UNL A   1      43.279  20.699  26.760  1.00  0.00    -0.205 F 
ATOM     74  C   UNL A   1      44.854  22.173  23.865  1.00  0.00     0.022 A 
BRANCH  72  75
ATOM     75  S   UNL A   1      44.377  19.499  24.270  1.00  0.00     0.127 S 
ATOM     76  O   UNL A   1      45.520  18.970  25.006  1.00  0.00    -0.237 OA
ATOM     77  O   UNL A   1      43.068  19.051  24.747  1.00  0.00    -0.237 OA
ATOM     78  O   UNL A   1      44.500  19.523  22.816  1.00  0.00    -0.744 OA
ENDBRANCH  72  75
ENDBRANCH  54  68
BRANCH  55  79
ATOM     79  C   UNL A   1      46.585  30.934  28.427  1.00  0.00     0.023 A 
ATOM     80  C   UNL A   1      46.398  31.132  27.047  1.00  0.00     0.012 A 
ATOM     81  C   UNL A   1      47.229  31.957  29.163  1.00  0.00     0.148 A 
ATOM     82  C   UNL A   1      46.833  32.309  26.422  1.00  0.00     0.002 A 
ATOM     83  C   UNL A   1      47.682  33.113  28.535  1.00  0.00     0.091 A 
ATOM     84  F   UNL A   1      47.316  31.842  30.495  1.00  0.00    -0.205 F 
ATOM     85  C   UNL A   1      47.476  33.297  27.163  1.00  0.00     0.022 A 
BRANCH  83  86
ATOM     86  S   UNL A   1      48.526  34.419  29.438  1.00  0.00     0.127 S 
ATOM     87  O   UNL A   1      47.434  35.011  30.212  1.00  0.00    -0.237 OA
ATOM     88  O   UNL A   1      49.496  33.665  30.226  1.00  0.00    -0.237 OA
ATOM     89  O   UNL A   1      49.082  35.305  28.422  1.00  0.00    -0.744 OA
ENDBRANCH  83  86
ENDBRANCH  55  79
BRANCH  67  90
ATOM     90  C   UNL A   1      45.654  26.013  32.290  1.00  0.00     0.023 A 
ATOM     91  C   UNL A   1      46.746  25.909  33.178  1.00  0.00     0.012 A 
ATOM     92  C   UNL A   1      44.529  26.760  32.679  1.00  0.00     0.148 A 
ATOM     93  C   UNL A   1      46.715  26.535  34.426  1.00  0.00     0.002 A 
ATOM     94  C   UNL A   1      44.525  27.426  33.898  1.00  0.00     0.091 A 
ATOM     95  F   UNL A   1      43.503  26.853  31.820  1.00  0.00    -0.205 F 
ATOM     96  C   UNL A   1      45.613  27.309  34.779  1.00  0.00     0.022 A 
BRANCH  94  97
ATOM     97  S   UNL A   1      43.213  28.568  34.337  1.00  0.00     0.127 S 
ATOM     98  O   UNL A   1      42.032  27.707  34.297  1.00  0.00    -0.237 OA
ATOM     99  O   UNL A   1      43.608  29.003  35.678  1.00  0.00    -0.237 OA
ATOM    100  O   UNL A   1      43.252  29.626  33.335  1.00  0.00    -0.744 OA
ENDBRANCH  94  97
ENDBRANCH  67  90
ENDBRANCH  41  42
ENDBRANCH  34  36
ENDBRANCH  33  34
ENDBRANCH  32  33
ENDBRANCH   1  32
TORSDOF 19
ENDMDL
MODEL 3
REMARK VINA RESULT:     -11.1      4.070      8.323
REMARK SMILES CCCn1nc(C(=O)OCCOC(=O)c2ccc(-c3c4nc(c(-c5cccc(S(=O)(=O)[O-])c5F)c5ccc([nH]5)c(-c5cccc(S(=O)(=O)[O-])c5F)c5nc(c(-c6cccc(S(=O)(=O)[O-])c6F)c6ccc3[nH]6)C=C5)C=C4)cc2)c2c1CC[C@@H]([NH+]1CC[NH+](Cc3ccccn3)CC1)C2
REMARK SMILES IDX 10 1 9 2 7 3 8 4 6 5 4 6 5 7 79 8 78 9 80 10 96 11 81 12
REMARK SMILES IDX 82 13 3 14 2 15 1 16 83 17 84 18 95 19 85 21 94 22 86 23
REMARK SMILES IDX 87 25 88 26 89 27 93 28 90 29 92 30 91 31 11 32 12 33 13 34
REMARK SMILES IDX 14 35 15 36 16 37 77 38 17 39 76 40 18 41 19 42 20 43 70 44
REMARK SMILES IDX 21 45 75 46 69 47 71 48 22 49 74 50 68 51 67 52 23 54 55 55
REMARK SMILES IDX 35 56 54 57 36 58 39 59 53 60 72 61 37 62 38 63 52 65 73 66
REMARK SMILES IDX 40 67 24 68 25 69 33 70 26 71 28 72 34 73 27 74 29 75 30 76
REMARK SMILES IDX 31 77 32 78 56 79 57 80 65 81 58 82 60 83 66 84 59 85 61 86
REMARK SMILES IDX 62 87 63 88 64 89 41 90 42 91 50 92 43 93 45 94 51 95 44 96
REMARK SMILES IDX 46 97 47 98 48 99 49 100
REMARK H PARENT 83 20 86 24 71 53 39 64
REMARK Flexibility Score: inf
ROOT
ATOM      1  C   UNL A   1      38.990  21.962  25.871  1.00  0.00     0.275 C 
ENDROOT
BRANCH   1   2
ATOM      2  O   UNL A   1      37.560  21.984  25.997  1.00  0.00    -0.457 OA
BRANCH   2   3
ATOM      3  C   UNL A   1      36.841  22.670  25.052  1.00  0.00     0.359 C 
ATOM      4  O   UNL A   1      37.355  23.312  24.139  1.00  0.00    -0.244 OA
BRANCH   3   5
ATOM      5  C   UNL A   1      35.392  22.478  25.247  1.00  0.00     0.174 A 
ATOM      6  N   UNL A   1      33.493  22.135  26.179  1.00  0.00    -0.268 N 
ATOM      7  N   UNL A   1      34.816  22.219  26.446  1.00  0.00    -0.165 NA
ATOM      8  C   UNL A   1      33.245  22.142  24.839  1.00  0.00     0.043 A 
ATOM      9  C   UNL A   1      34.394  22.593  24.239  1.00  0.00     0.014 A 
ATOM     10  C   UNL A   1      31.968  21.895  24.146  1.00  0.00     0.062 C 
ATOM     11  C   UNL A   1      34.452  23.043  22.811  1.00  0.00     0.105 C 
ATOM     12  C   UNL A   1      32.237  21.842  22.635  1.00  0.00     0.072 C 
ATOM     13  C   UNL A   1      33.058  23.042  22.116  1.00  0.00     0.189 C 
BRANCH   6  14
ATOM     14  C   UNL A   1      32.491  22.284  27.222  1.00  0.00     0.144 C 
BRANCH  14  15
ATOM     15  C   UNL A   1      31.572  23.498  27.127  1.00  0.00     0.020 C 
ATOM     16  C   UNL A   1      30.115  23.122  26.904  1.00  0.00     0.006 C 
ENDBRANCH  14  15
ENDBRANCH   6  14
BRANCH  13  17
ATOM     17  N   UNL A   1      32.321  24.315  22.091  1.00  0.00    -0.323 N 
ATOM     18  C   UNL A   1      32.841  25.498  21.419  1.00  0.00     0.324 C 
ATOM     19  C   UNL A   1      31.421  24.555  23.218  1.00  0.00     0.324 C 
ATOM     20  H   UNL A   1      31.735  24.046  21.300  1.00  0.00     0.348 HD
ATOM     21  C   UNL A   1      33.077  26.774  22.281  1.00  0.00     0.324 C 
ATOM     22  C   UNL A   1      31.184  26.028  23.614  1.00  0.00     0.324 C 
ATOM     23  N   UNL A   1      32.356  26.890  23.546  1.00  0.00    -0.321 N 
ATOM     24  H   UNL A   1      31.968  27.833  23.522  1.00  0.00     0.348 HD
BRANCH  23  25
ATOM     25  C   UNL A   1      33.147  27.060  24.769  1.00  0.00     0.319 C 
BRANCH  25  26
ATOM     26  C   UNL A   1      33.019  28.344  25.580  1.00  0.00     0.095 A 
ATOM     27  C   UNL A   1      33.944  28.648  26.579  1.00  0.00     0.030 A 
ATOM     28  N   UNL A   1      32.018  29.207  25.256  1.00  0.00    -0.255 NA
ATOM     29  C   UNL A   1      33.794  29.825  27.316  1.00  0.00     0.004 A 
ATOM     30  C   UNL A   1      31.890  30.335  25.992  1.00  0.00     0.111 A 
ATOM     31  C   UNL A   1      32.736  30.678  27.032  1.00  0.00     0.020 A 
ENDBRANCH  25  26
ENDBRANCH  23  25
ENDBRANCH  13  17
ENDBRANCH   3   5
ENDBRANCH   2   3
ENDBRANCH   1   2
BRANCH   1  32
ATOM     32  C   UNL A   1      39.609  22.863  26.932  1.00  0.00     0.275 C 
BRANCH  32  33
ATOM     33  O   UNL A   1      39.731  24.167  26.380  1.00  0.00    -0.458 OA
BRANCH  33  34
ATOM     34  C   UNL A   1      40.734  24.947  26.837  1.00  0.00     0.338 C 
ATOM     35  O   UNL A   1      41.919  24.677  26.880  1.00  0.00    -0.246 OA
BRANCH  34  36
ATOM     36  C   UNL A   1      40.150  26.162  27.404  1.00  0.00     0.060 A 
ATOM     37  C   UNL A   1      40.365  27.362  26.715  1.00  0.00     0.016 A 
ATOM     38  C   UNL A   1      39.729  26.122  28.737  1.00  0.00     0.016 A 
ATOM     39  C   UNL A   1      40.409  28.526  27.446  1.00  0.00     0.010 A 
ATOM     40  C   UNL A   1      39.828  27.266  29.470  1.00  0.00     0.010 A 
ATOM     41  C   UNL A   1      40.251  28.428  28.827  1.00  0.00    -0.014 A 
BRANCH  41  42
ATOM     42  C   UNL A   1      40.615  29.548  29.658  1.00  0.00     0.031 A 
ATOM     43  C   UNL A   1      39.465  30.286  30.217  1.00  0.00     0.074 A 
ATOM     44  C   UNL A   1      41.900  29.693  30.037  1.00  0.00     0.049 A 
ATOM     45  N   UNL A   1      39.133  31.516  30.008  1.00  0.00    -0.248 NA
ATOM     46  C   UNL A   1      38.463  29.514  30.969  1.00  0.00     0.031 C 
ATOM     47  C   UNL A   1      43.009  28.753  29.816  1.00  0.00     0.029 A 
ATOM     48  N   UNL A   1      42.436  30.610  30.878  1.00  0.00    -0.354 N 
ATOM     49  C   UNL A   1      37.989  31.718  30.777  1.00  0.00     0.074 A 
ATOM     50  C   UNL A   1      37.498  30.415  31.129  1.00  0.00     0.031 C 
ATOM     51  C   UNL A   1      43.976  29.001  30.728  1.00  0.00     0.029 A 
ATOM     52  C   UNL A   1      43.595  30.169  31.504  1.00  0.00     0.049 A 
ATOM     53  H   UNL A   1      42.044  31.500  31.031  1.00  0.00     0.167 HD
ATOM     54  C   UNL A   1      37.685  32.934  31.302  1.00  0.00     0.034 A 
ATOM     55  C   UNL A   1      44.104  30.654  32.663  1.00  0.00     0.034 A 
ATOM     56  C   UNL A   1      38.475  33.976  30.702  1.00  0.00     0.049 A 
ATOM     57  C   UNL A   1      43.461  31.971  32.911  1.00  0.00     0.074 A 
ATOM     58  C   UNL A   1      38.643  34.454  29.420  1.00  0.00     0.029 A 
ATOM     59  N   UNL A   1      39.546  34.436  31.431  1.00  0.00    -0.354 N 
ATOM     60  N   UNL A   1      43.635  33.019  32.151  1.00  0.00    -0.248 NA
ATOM     61  C   UNL A   1      42.262  31.995  33.737  1.00  0.00     0.031 C 
ATOM     62  C   UNL A   1      40.026  34.783  29.332  1.00  0.00     0.029 A 
ATOM     63  C   UNL A   1      40.610  34.531  30.576  1.00  0.00     0.049 A 
ATOM     64  H   UNL A   1      39.548  34.657  32.390  1.00  0.00     0.167 HD
ATOM     65  C   UNL A   1      42.379  33.612  32.075  1.00  0.00     0.074 A 
ATOM     66  C   UNL A   1      41.604  33.000  33.153  1.00  0.00     0.031 C 
ATOM     67  C   UNL A   1      41.988  34.308  30.967  1.00  0.00     0.034 A 
BRANCH  54  68
ATOM     68  C   UNL A   1      36.944  33.162  32.599  1.00  0.00     0.023 A 
ATOM     69  C   UNL A   1      35.771  33.945  32.528  1.00  0.00     0.012 A 
ATOM     70  C   UNL A   1      37.454  32.891  33.890  1.00  0.00     0.148 A 
ATOM     71  C   UNL A   1      35.177  34.485  33.672  1.00  0.00     0.002 A 
ATOM     72  C   UNL A   1      36.809  33.358  35.030  1.00  0.00     0.091 A 
ATOM     73  F   UNL A   1      38.643  32.303  34.043  1.00  0.00    -0.205 F 
ATOM     74  C   UNL A   1      35.691  34.185  34.926  1.00  0.00     0.022 A 
BRANCH  72  75
ATOM     75  S   UNL A   1      37.410  32.946  36.673  1.00  0.00     0.127 S 
ATOM     76  O   UNL A   1      37.657  31.514  36.545  1.00  0.00    -0.237 OA
ATOM     77  O   UNL A   1      38.611  33.776  36.775  1.00  0.00    -0.237 OA
ATOM     78  O   UNL A   1      36.340  33.338  37.584  1.00  0.00    -0.744 OA
ENDBRANCH  72  75
ENDBRANCH  54  68
BRANCH  55  79
ATOM     79  C   UNL A   1      44.847  29.914  33.711  1.00  0.00     0.023 A 
ATOM     80  C   UNL A   1      46.126  30.351  34.104  1.00  0.00     0.012 A 
ATOM     81  C   UNL A   1      44.220  28.912  34.490  1.00  0.00     0.148 A 
ATOM     82  C   UNL A   1      46.757  29.811  35.233  1.00  0.00     0.002 A 
ATOM     83  C   UNL A   1      44.861  28.361  35.596  1.00  0.00     0.091 A 
ATOM     84  F   UNL A   1      42.959  28.563  34.205  1.00  0.00    -0.205 F 
ATOM     85  C   UNL A   1      46.127  28.817  35.978  1.00  0.00     0.022 A 
BRANCH  83  86
ATOM     86  S   UNL A   1      44.101  27.068  36.590  1.00  0.00     0.127 S 
ATOM     87  O   UNL A   1      45.169  26.743  37.537  1.00  0.00    -0.237 OA
ATOM     88  O   UNL A   1      42.958  27.765  37.173  1.00  0.00    -0.237 OA
ATOM     89  O   UNL A   1      43.783  25.992  35.660  1.00  0.00    -0.744 OA
ENDBRANCH  83  86
ENDBRANCH  55  79
BRANCH  67  90
ATOM     90  C   UNL A   1      43.013  34.620  29.905  1.00  0.00     0.023 A 
ATOM     91  C   UNL A   1      43.269  33.732  28.839  1.00  0.00     0.012 A 
ATOM     92  C   UNL A   1      43.521  35.928  29.837  1.00  0.00     0.148 A 
ATOM     93  C   UNL A   1      44.017  34.140  27.732  1.00  0.00     0.002 A 
ATOM     94  C   UNL A   1      44.217  36.347  28.711  1.00  0.00     0.091 A 
ATOM     95  F   UNL A   1      43.262  36.761  30.857  1.00  0.00    -0.205 F 
ATOM     96  C   UNL A   1      44.475  35.453  27.659  1.00  0.00     0.022 A 
BRANCH  94  97
ATOM     97  S   UNL A   1      44.686  38.063  28.484  1.00  0.00     0.127 S 
ATOM     98  O   UNL A   1      44.901  38.134  27.040  1.00  0.00    -0.237 OA
ATOM     99  O   UNL A   1      43.501  38.780  28.961  1.00  0.00    -0.237 OA
ATOM    100  O   UNL A   1      45.872  38.267  29.306  1.00  0.00    -0.744 OA
ENDBRANCH  94  97
ENDBRANCH  67  90
ENDBRANCH  41  42
ENDBRANCH  34  36
ENDBRANCH  33  34
ENDBRANCH  32  33
ENDBRANCH   1  32
TORSDOF 19
ENDMDL
