MODEL 1
REMARK VINA RESULT:     -12.9      0.000      0.000
REMARK SMILES Cc1ccccc1[C@@H](Cc1ncnn1C(C)C)C(=O)OCCOC(=O)c1ccc(-c2c3nc(c(-c4cccc(S(=O)(=O)[O-])c4F)c4ccc([nH]4)c(-c4cccc(S(=O)(=O)[O-])c4F)c4nc(c(-c5cccc(S(=O)(=O)[O-])c5F)c5ccc2[nH]5)C=C4)C=C3)cc1
REMARK SMILES IDX 21 1 20 2 18 3 19 4 8 5 7 6 1 7 2 8 3 9 4 10 6 11 5 12 9 13
REMARK SMILES IDX 10 14 11 15 14 16 12 17 13 18 15 19 16 20 17 21 22 22 23 23
REMARK SMILES IDX 24 24 25 25 26 26 27 27 88 28 28 29 87 30 29 31 30 32 31 33
REMARK SMILES IDX 81 34 32 35 86 36 80 37 82 38 33 39 85 40 79 41 78 42 34 44
REMARK SMILES IDX 66 45 46 46 65 47 47 48 50 49 64 50 83 51 48 52 49 53 63 55
REMARK SMILES IDX 84 56 51 57 35 58 36 59 44 60 37 61 39 62 45 63 38 64 40 65
REMARK SMILES IDX 41 66 42 67 43 68 67 69 68 70 76 71 69 72 71 73 77 74 70 75
REMARK SMILES IDX 72 76 73 77 74 78 75 79 52 80 53 81 61 82 54 83 56 84 62 85
REMARK SMILES IDX 55 86 57 87 58 88 59 89 60 90
REMARK H PARENT 82 43 50 54
REMARK Flexibility Score: inf
ROOT
ATOM      1  C   UNL A   1      32.466  30.104  25.915  1.00  0.00     0.274 C 
ENDROOT
BRANCH   1   2
ATOM      2  O   UNL A   1      31.611  29.009  26.228  1.00  0.00    -0.462 OA
BRANCH   2   3
ATOM      3  C   UNL A   1      32.031  27.780  26.885  1.00  0.00     0.314 C 
ATOM      4  O   UNL A   1      31.465  27.916  28.009  1.00  0.00    -0.252 OA
BRANCH   3   5
ATOM      5  C   UNL A   1      33.294  26.270  25.954  1.00  0.00     0.137 C 
BRANCH   5   6
ATOM      6  C   UNL A   1      33.340  24.549  26.171  1.00  0.00    -0.030 A 
ATOM      7  C   UNL A   1      35.941  24.172  25.836  1.00  0.00     0.044 C 
ATOM      8  C   UNL A   1      34.526  23.745  26.163  1.00  0.00    -0.047 A 
ATOM      9  C   UNL A   1      34.407  22.388  26.515  1.00  0.00     0.004 A 
ATOM     10  C   UNL A   1      33.165  21.801  26.737  1.00  0.00     0.000 A 
ATOM     11  C   UNL A   1      32.090  23.897  26.264  1.00  0.00     0.005 A 
ATOM     12  C   UNL A   1      32.007  22.544  26.562  1.00  0.00     0.000 A 
ENDBRANCH   5   6
BRANCH   5  13
ATOM     13  C   UNL A   1      33.984  26.369  24.227  1.00  0.00     0.097 C 
BRANCH  13  14
ATOM     14  C   UNL A   1      33.013  26.446  22.897  1.00  0.00     0.128 A 
ATOM     15  N   UNL A   1      33.531  25.888  21.818  1.00  0.00    -0.220 NA
ATOM     16  N   UNL A   1      31.603  26.961  22.528  1.00  0.00    -0.248 N 
ATOM     17  C   UNL A   1      32.518  25.828  20.942  1.00  0.00     0.246 A 
ATOM     18  N   UNL A   1      31.366  26.353  21.319  1.00  0.00    -0.159 NA
BRANCH  16  19
ATOM     19  C   UNL A   1      30.254  27.461  23.217  1.00  0.00     0.103 C 
ATOM     20  C   UNL A   1      28.862  28.632  22.838  1.00  0.00     0.033 C 
ATOM     21  C   UNL A   1      29.774  26.414  24.258  1.00  0.00     0.033 C 
ENDBRANCH  16  19
ENDBRANCH  13  14
ENDBRANCH   5  13
ENDBRANCH   3   5
ENDBRANCH   2   3
ENDBRANCH   1   2
BRANCH   1  22
ATOM     22  C   UNL A   1      33.586  30.498  26.887  1.00  0.00     0.275 C 
BRANCH  22  23
ATOM     23  O   UNL A   1      33.340  31.391  28.012  1.00  0.00    -0.458 OA
BRANCH  23  24
ATOM     24  C   UNL A   1      33.294  32.761  28.118  1.00  0.00     0.338 C 
ATOM     25  O   UNL A   1      32.489  33.409  27.459  1.00  0.00    -0.246 OA
BRANCH  24  26
ATOM     26  C   UNL A   1      34.411  33.485  28.833  1.00  0.00     0.060 A 
ATOM     27  C   UNL A   1      35.983  33.235  28.004  1.00  0.00     0.016 A 
ATOM     28  C   UNL A   1      34.327  33.394  30.597  1.00  0.00     0.016 A 
ATOM     29  C   UNL A   1      37.409  32.631  28.907  1.00  0.00     0.010 A 
ATOM     30  C   UNL A   1      35.739  32.819  31.528  1.00  0.00     0.010 A 
ATOM     31  C   UNL A   1      37.304  32.344  30.653  1.00  0.00    -0.014 A 
BRANCH  31  32
ATOM     32  C   UNL A   1      38.397  31.533  31.233  1.00  0.00     0.031 A 
ATOM     33  C   UNL A   1      38.536  29.701  30.659  1.00  0.00     0.074 A 
ATOM     34  C   UNL A   1      39.309  32.710  31.594  1.00  0.00     0.049 A 
ATOM     35  N   UNL A   1      39.605  28.896  30.807  1.00  0.00    -0.248 NA
ATOM     36  C   UNL A   1      37.758  28.747  29.734  1.00  0.00     0.031 C 
ATOM     37  C   UNL A   1      40.719  33.255  31.104  1.00  0.00     0.029 A 
ATOM     38  N   UNL A   1      39.135  33.828  32.460  1.00  0.00    -0.354 N 
ATOM     39  C   UNL A   1      40.030  28.333  29.564  1.00  0.00     0.074 A 
ATOM     40  C   UNL A   1      38.703  28.023  29.044  1.00  0.00     0.031 C 
ATOM     41  C   UNL A   1      41.340  34.097  31.920  1.00  0.00     0.029 A 
ATOM     42  C   UNL A   1      40.401  34.325  32.932  1.00  0.00     0.049 A 
ATOM     43  H   UNL A   1      38.262  34.211  32.705  1.00  0.00     0.167 HD
ATOM     44  C   UNL A   1      41.384  28.330  29.094  1.00  0.00     0.034 A 
ATOM     45  C   UNL A   1      40.810  34.413  34.215  1.00  0.00     0.034 A 
ATOM     46  C   UNL A   1      42.491  29.068  29.939  1.00  0.00     0.049 A 
ATOM     47  C   UNL A   1      41.604  33.110  34.519  1.00  0.00     0.074 A 
ATOM     48  C   UNL A   1      43.384  30.136  29.729  1.00  0.00     0.029 A 
ATOM     49  N   UNL A   1      42.711  28.785  31.303  1.00  0.00    -0.354 N 
ATOM     50  N   UNL A   1      42.139  32.286  33.628  1.00  0.00    -0.248 NA
ATOM     51  C   UNL A   1      41.906  32.708  35.881  1.00  0.00     0.031 C 
ATOM     52  C   UNL A   1      43.751  30.713  31.024  1.00  0.00     0.029 A 
ATOM     53  C   UNL A   1      43.223  29.917  32.046  1.00  0.00     0.049 A 
ATOM     54  H   UNL A   1      42.533  27.907  31.711  1.00  0.00     0.167 HD
ATOM     55  C   UNL A   1      42.674  31.163  34.236  1.00  0.00     0.074 A 
ATOM     56  C   UNL A   1      42.579  31.567  35.662  1.00  0.00     0.031 C 
ATOM     57  C   UNL A   1      43.113  29.998  33.574  1.00  0.00     0.034 A 
BRANCH  44  58
ATOM     58  C   UNL A   1      41.962  27.767  27.743  1.00  0.00     0.023 A 
ATOM     59  C   UNL A   1      41.758  28.594  26.590  1.00  0.00     0.012 A 
ATOM     60  C   UNL A   1      42.661  26.568  27.491  1.00  0.00     0.148 A 
ATOM     61  C   UNL A   1      42.226  28.298  25.305  1.00  0.00     0.002 A 
ATOM     62  C   UNL A   1      43.199  26.301  26.207  1.00  0.00     0.091 A 
ATOM     63  F   UNL A   1      42.781  25.662  28.469  1.00  0.00    -0.205 F 
ATOM     64  C   UNL A   1      42.981  27.162  25.117  1.00  0.00     0.022 A 
BRANCH  62  65
ATOM     65  S   UNL A   1      44.285  24.902  25.850  1.00  0.00     0.127 S 
ATOM     66  O   UNL A   1      44.977  25.338  24.637  1.00  0.00    -0.237 OA
ATOM     67  O   UNL A   1      45.134  24.855  27.042  1.00  0.00    -0.237 OA
ATOM     68  O   UNL A   1      43.412  23.748  25.680  1.00  0.00    -0.744 OA
ENDBRANCH  62  65
ENDBRANCH  44  58
BRANCH  45  69
ATOM     69  C   UNL A   1      39.715  35.121  34.959  1.00  0.00     0.023 A 
ATOM     70  C   UNL A   1      38.524  34.353  35.196  1.00  0.00     0.012 A 
ATOM     71  C   UNL A   1      40.169  35.980  35.942  1.00  0.00     0.148 A 
ATOM     72  C   UNL A   1      38.041  34.204  36.505  1.00  0.00     0.002 A 
ATOM     73  C   UNL A   1      39.755  35.754  37.242  1.00  0.00     0.091 A 
ATOM     74  F   UNL A   1      41.241  36.737  35.681  1.00  0.00    -0.205 F 
ATOM     75  C   UNL A   1      38.699  34.870  37.544  1.00  0.00     0.022 A 
BRANCH  73  76
ATOM     76  S   UNL A   1      40.997  36.211  38.449  1.00  0.00     0.127 S 
ATOM     77  O   UNL A   1      42.257  35.991  37.740  1.00  0.00    -0.237 OA
ATOM     78  O   UNL A   1      40.660  37.602  38.732  1.00  0.00    -0.237 OA
ATOM     79  O   UNL A   1      40.771  35.302  39.565  1.00  0.00    -0.744 OA
ENDBRANCH  73  76
ENDBRANCH  45  69
BRANCH  57  80
ATOM     80  C   UNL A   1      43.509  28.722  34.356  1.00  0.00     0.023 A 
ATOM     81  C   UNL A   1      44.835  28.300  34.544  1.00  0.00     0.012 A 
ATOM     82  C   UNL A   1      42.546  27.884  34.974  1.00  0.00     0.148 A 
ATOM     83  C   UNL A   1      45.191  27.111  35.184  1.00  0.00     0.002 A 
ATOM     84  C   UNL A   1      42.900  26.780  35.735  1.00  0.00     0.091 A 
ATOM     85  F   UNL A   1      41.242  28.087  34.799  1.00  0.00    -0.205 F 
ATOM     86  C   UNL A   1      44.220  26.359  35.806  1.00  0.00     0.022 A 
BRANCH  84  87
ATOM     87  S   UNL A   1      41.678  25.856  36.664  1.00  0.00     0.127 S 
ATOM     88  O   UNL A   1      40.924  25.222  35.585  1.00  0.00    -0.237 OA
ATOM     89  O   UNL A   1      42.521  24.952  37.446  1.00  0.00    -0.237 OA
ATOM     90  O   UNL A   1      40.941  26.831  37.458  1.00  0.00    -0.744 OA
ENDBRANCH  84  87
ENDBRANCH  57  80
ENDBRANCH  31  32
ENDBRANCH  24  26
ENDBRANCH  23  24
ENDBRANCH  22  23
ENDBRANCH   1  22
TORSDOF 18
ENDMDL
MODEL 2
REMARK VINA RESULT:     -12.7      4.897     10.676
REMARK SMILES Cc1ccccc1[C@@H](Cc1ncnn1C(C)C)C(=O)OCCOC(=O)c1ccc(-c2c3nc(c(-c4cccc(S(=O)(=O)[O-])c4F)c4ccc([nH]4)c(-c4cccc(S(=O)(=O)[O-])c4F)c4nc(c(-c5cccc(S(=O)(=O)[O-])c5F)c5ccc2[nH]5)C=C4)C=C3)cc1
REMARK SMILES IDX 21 1 20 2 18 3 19 4 8 5 7 6 1 7 2 8 3 9 4 10 6 11 5 12 9 13
REMARK SMILES IDX 10 14 11 15 14 16 12 17 13 18 15 19 16 20 17 21 22 22 23 23
REMARK SMILES IDX 24 24 25 25 26 26 27 27 88 28 28 29 87 30 29 31 30 32 31 33
REMARK SMILES IDX 81 34 32 35 86 36 80 37 82 38 33 39 85 40 79 41 78 42 34 44
REMARK SMILES IDX 66 45 46 46 65 47 47 48 50 49 64 50 83 51 48 52 49 53 63 55
REMARK SMILES IDX 84 56 51 57 35 58 36 59 44 60 37 61 39 62 45 63 38 64 40 65
REMARK SMILES IDX 41 66 42 67 43 68 67 69 68 70 76 71 69 72 71 73 77 74 70 75
REMARK SMILES IDX 72 76 73 77 74 78 75 79 52 80 53 81 61 82 54 83 56 84 62 85
REMARK SMILES IDX 55 86 57 87 58 88 59 89 60 90
REMARK H PARENT 82 43 50 54
REMARK Flexibility Score: inf
ROOT
ATOM      1  C   UNL A   1      37.771  21.709  25.502  1.00  0.00     0.274 C 
ENDROOT
BRANCH   1   2
ATOM      2  O   UNL A   1      36.936  22.849  25.324  1.00  0.00    -0.462 OA
BRANCH   2   3
ATOM      3  C   UNL A   1      36.120  23.114  24.148  1.00  0.00     0.314 C 
ATOM      4  O   UNL A   1      36.855  22.619  23.243  1.00  0.00    -0.252 OA
BRANCH   3   5
ATOM      5  C   UNL A   1      34.183  24.106  24.206  1.00  0.00     0.137 C 
BRANCH   5   6
ATOM      6  C   UNL A   1      33.704  25.678  23.648  1.00  0.00    -0.030 A 
ATOM      7  C   UNL A   1      32.898  25.011  21.213  1.00  0.00     0.044 C 
ATOM      8  C   UNL A   1      33.108  25.959  22.375  1.00  0.00    -0.047 A 
ATOM      9  C   UNL A   1      32.631  27.262  22.142  1.00  0.00     0.004 A 
ATOM     10  C   UNL A   1      32.841  28.288  23.058  1.00  0.00     0.000 A 
ATOM     11  C   UNL A   1      34.024  26.765  24.492  1.00  0.00     0.005 A 
ATOM     12  C   UNL A   1      33.581  28.049  24.207  1.00  0.00     0.000 A 
ENDBRANCH   5   6
BRANCH   5  13
ATOM     13  C   UNL A   1      32.535  23.242  24.106  1.00  0.00     0.097 C 
BRANCH  13  14
ATOM     14  C   UNL A   1      31.373  23.435  25.259  1.00  0.00     0.128 A 
ATOM     15  N   UNL A   1      31.017  22.314  25.858  1.00  0.00    -0.220 NA
ATOM     16  N   UNL A   1      30.570  24.587  25.904  1.00  0.00    -0.248 N 
ATOM     17  C   UNL A   1      30.274  22.703  26.904  1.00  0.00     0.246 A 
ATOM     18  N   UNL A   1      30.048  23.998  27.031  1.00  0.00    -0.159 NA
BRANCH  16  19
ATOM     19  C   UNL A   1      30.563  26.178  26.007  1.00  0.00     0.103 C 
ATOM     20  C   UNL A   1      31.435  27.502  26.976  1.00  0.00     0.033 C 
ATOM     21  C   UNL A   1      30.001  26.790  24.696  1.00  0.00     0.033 C 
ENDBRANCH  16  19
ENDBRANCH  13  14
ENDBRANCH   5  13
ENDBRANCH   3   5
ENDBRANCH   2   3
ENDBRANCH   1   2
BRANCH   1  22
ATOM     22  C   UNL A   1      39.204  21.887  26.020  1.00  0.00     0.275 C 
BRANCH  22  23
ATOM     23  O   UNL A   1      39.963  20.767  26.561  1.00  0.00    -0.458 OA
BRANCH  23  24
ATOM     24  C   UNL A   1      41.176  20.216  26.220  1.00  0.00     0.338 C 
ATOM     25  O   UNL A   1      41.233  19.091  25.738  1.00  0.00    -0.246 OA
BRANCH  24  26
ATOM     26  C   UNL A   1      42.449  20.879  26.693  1.00  0.00     0.060 A 
ATOM     27  C   UNL A   1      42.181  21.788  28.217  1.00  0.00     0.016 A 
ATOM     28  C   UNL A   1      43.417  21.601  25.401  1.00  0.00     0.016 A 
ATOM     29  C   UNL A   1      42.648  23.513  28.349  1.00  0.00     0.010 A 
ATOM     30  C   UNL A   1      43.919  23.312  25.514  1.00  0.00     0.010 A 
ATOM     31  C   UNL A   1      43.452  24.327  26.995  1.00  0.00    -0.014 A 
BRANCH  31  32
ATOM     32  C   UNL A   1      43.480  25.804  27.062  1.00  0.00     0.031 A 
ATOM     33  C   UNL A   1      41.791  26.722  26.990  1.00  0.00     0.074 A 
ATOM     34  C   UNL A   1      44.834  25.916  27.772  1.00  0.00     0.049 A 
ATOM     35  N   UNL A   1      41.560  28.002  27.343  1.00  0.00    -0.248 NA
ATOM     36  C   UNL A   1      40.307  26.344  26.827  1.00  0.00     0.031 C 
ATOM     37  C   UNL A   1      45.339  26.391  29.201  1.00  0.00     0.029 A 
ATOM     38  N   UNL A   1      46.148  25.505  27.402  1.00  0.00    -0.354 N 
ATOM     39  C   UNL A   1      40.511  28.113  28.308  1.00  0.00     0.074 A 
ATOM     40  C   UNL A   1      39.606  27.142  27.700  1.00  0.00     0.031 C 
ATOM     41  C   UNL A   1      46.631  26.679  29.303  1.00  0.00     0.029 A 
ATOM     42  C   UNL A   1      47.149  26.305  28.058  1.00  0.00     0.049 A 
ATOM     43  H   UNL A   1      46.345  24.770  26.777  1.00  0.00     0.167 HD
ATOM     44  C   UNL A   1      40.599  28.874  29.519  1.00  0.00     0.034 A 
ATOM     45  C   UNL A   1      48.089  27.072  27.468  1.00  0.00     0.034 A 
ATOM     46  C   UNL A   1      41.960  29.576  29.888  1.00  0.00     0.049 A 
ATOM     47  C   UNL A   1      47.500  28.510  27.381  1.00  0.00     0.074 A 
ATOM     48  C   UNL A   1      42.887  29.501  30.944  1.00  0.00     0.029 A 
ATOM     49  N   UNL A   1      42.617  30.457  29.004  1.00  0.00    -0.354 N 
ATOM     50  N   UNL A   1      46.492  28.994  28.094  1.00  0.00    -0.248 NA
ATOM     51  C   UNL A   1      48.086  29.517  26.516  1.00  0.00     0.031 C 
ATOM     52  C   UNL A   1      44.193  29.961  30.468  1.00  0.00     0.029 A 
ATOM     53  C   UNL A   1      44.054  30.471  29.173  1.00  0.00     0.049 A 
ATOM     54  H   UNL A   1      42.145  31.008  28.338  1.00  0.00     0.167 HD
ATOM     55  C   UNL A   1      46.149  30.270  27.682  1.00  0.00     0.074 A 
ATOM     56  C   UNL A   1      47.276  30.559  26.760  1.00  0.00     0.031 C 
ATOM     57  C   UNL A   1      44.994  30.979  28.071  1.00  0.00     0.034 A 
BRANCH  44  58
ATOM     58  C   UNL A   1      39.528  29.047  30.658  1.00  0.00     0.023 A 
ATOM     59  C   UNL A   1      39.012  27.831  31.214  1.00  0.00     0.012 A 
ATOM     60  C   UNL A   1      38.996  30.224  31.226  1.00  0.00     0.148 A 
ATOM     61  C   UNL A   1      38.086  27.762  32.261  1.00  0.00     0.002 A 
ATOM     62  C   UNL A   1      38.113  30.159  32.333  1.00  0.00     0.091 A 
ATOM     63  F   UNL A   1      39.305  31.409  30.684  1.00  0.00    -0.205 F 
ATOM     64  C   UNL A   1      37.659  28.933  32.848  1.00  0.00     0.022 A 
BRANCH  62  65
ATOM     65  S   UNL A   1      37.557  31.611  33.254  1.00  0.00     0.127 S 
ATOM     66  O   UNL A   1      36.113  31.600  33.022  1.00  0.00    -0.237 OA
ATOM     67  O   UNL A   1      37.948  31.278  34.625  1.00  0.00    -0.237 OA
ATOM     68  O   UNL A   1      38.266  32.747  32.680  1.00  0.00    -0.744 OA
ENDBRANCH  62  65
ENDBRANCH  44  58
BRANCH  45  69
ATOM     69  C   UNL A   1      48.769  26.200  26.453  1.00  0.00     0.023 A 
ATOM     70  C   UNL A   1      48.364  26.397  25.089  1.00  0.00     0.012 A 
ATOM     71  C   UNL A   1      50.099  25.948  26.730  1.00  0.00     0.148 A 
ATOM     72  C   UNL A   1      49.328  26.685  24.111  1.00  0.00     0.002 A 
ATOM     73  C   UNL A   1      51.041  26.329  25.792  1.00  0.00     0.091 A 
ATOM     74  F   UNL A   1      50.450  25.701  27.998  1.00  0.00    -0.205 F 
ATOM     75  C   UNL A   1      50.677  26.704  24.482  1.00  0.00     0.022 A 
BRANCH  73  76
ATOM     76  S   UNL A   1      52.591  26.830  26.535  1.00  0.00     0.127 S 
ATOM     77  O   UNL A   1      53.113  25.587  27.103  1.00  0.00    -0.237 OA
ATOM     78  O   UNL A   1      53.325  27.367  25.395  1.00  0.00    -0.237 OA
ATOM     79  O   UNL A   1      52.213  27.829  27.526  1.00  0.00    -0.744 OA
ENDBRANCH  73  76
ENDBRANCH  45  69
BRANCH  57  80
ATOM     80  C   UNL A   1      44.600  32.317  27.401  1.00  0.00     0.023 A 
ATOM     81  C   UNL A   1      44.211  32.433  26.056  1.00  0.00     0.012 A 
ATOM     82  C   UNL A   1      44.579  33.543  28.113  1.00  0.00     0.148 A 
ATOM     83  C   UNL A   1      43.928  33.649  25.429  1.00  0.00     0.002 A 
ATOM     84  C   UNL A   1      44.159  34.732  27.535  1.00  0.00     0.091 A 
ATOM     85  F   UNL A   1      45.023  33.620  29.366  1.00  0.00    -0.205 F 
ATOM     86  C   UNL A   1      43.877  34.802  26.179  1.00  0.00     0.022 A 
BRANCH  84  87
ATOM     87  S   UNL A   1      43.955  36.223  28.509  1.00  0.00     0.127 S 
ATOM     88  O   UNL A   1      45.347  36.609  28.728  1.00  0.00    -0.237 OA
ATOM     89  O   UNL A   1      43.211  37.080  27.586  1.00  0.00    -0.237 OA
ATOM     90  O   UNL A   1      43.215  35.836  29.703  1.00  0.00    -0.744 OA
ENDBRANCH  84  87
ENDBRANCH  57  80
ENDBRANCH  31  32
ENDBRANCH  24  26
ENDBRANCH  23  24
ENDBRANCH  22  23
ENDBRANCH   1  22
TORSDOF 18
ENDMDL
MODEL 3
REMARK VINA RESULT:     -12.7      5.002     10.595
REMARK SMILES Cc1ccccc1[C@@H](Cc1ncnn1C(C)C)C(=O)OCCOC(=O)c1ccc(-c2c3nc(c(-c4cccc(S(=O)(=O)[O-])c4F)c4ccc([nH]4)c(-c4cccc(S(=O)(=O)[O-])c4F)c4nc(c(-c5cccc(S(=O)(=O)[O-])c5F)c5ccc2[nH]5)C=C4)C=C3)cc1
REMARK SMILES IDX 21 1 20 2 18 3 19 4 8 5 7 6 1 7 2 8 3 9 4 10 6 11 5 12 9 13
REMARK SMILES IDX 10 14 11 15 14 16 12 17 13 18 15 19 16 20 17 21 22 22 23 23
REMARK SMILES IDX 24 24 25 25 26 26 27 27 88 28 28 29 87 30 29 31 30 32 31 33
REMARK SMILES IDX 81 34 32 35 86 36 80 37 82 38 33 39 85 40 79 41 78 42 34 44
REMARK SMILES IDX 66 45 46 46 65 47 47 48 50 49 64 50 83 51 48 52 49 53 63 55
REMARK SMILES IDX 84 56 51 57 35 58 36 59 44 60 37 61 39 62 45 63 38 64 40 65
REMARK SMILES IDX 41 66 42 67 43 68 67 69 68 70 76 71 69 72 71 73 77 74 70 75
REMARK SMILES IDX 72 76 73 77 74 78 75 79 52 80 53 81 61 82 54 83 56 84 62 85
REMARK SMILES IDX 55 86 57 87 58 88 59 89 60 90
REMARK H PARENT 82 43 50 54
REMARK Flexibility Score: inf
ROOT
ATOM      1  C   UNL A   1      37.835  21.305  25.341  1.00  0.00     0.274 C 
ENDROOT
BRANCH   1   2
ATOM      2  O   UNL A   1      37.021  22.347  24.812  1.00  0.00    -0.462 OA
BRANCH   2   3
ATOM      3  C   UNL A   1      35.881  22.946  25.490  1.00  0.00     0.314 C 
ATOM      4  O   UNL A   1      36.462  23.855  26.154  1.00  0.00    -0.252 OA
BRANCH   3   5
ATOM      5  C   UNL A   1      33.826  22.272  25.247  1.00  0.00     0.137 C 
BRANCH   5   6
ATOM      6  C   UNL A   1      33.195  20.731  24.759  1.00  0.00    -0.030 A 
ATOM      7  C   UNL A   1      32.136  21.448  22.438  1.00  0.00     0.044 C 
ATOM      8  C   UNL A   1      32.540  20.461  23.513  1.00  0.00    -0.047 A 
ATOM      9  C   UNL A   1      32.233  19.123  23.204  1.00  0.00     0.004 A 
ATOM     10  C   UNL A   1      32.432  18.100  24.126  1.00  0.00     0.000 A 
ATOM     11  C   UNL A   1      33.256  19.697  25.721  1.00  0.00     0.005 A 
ATOM     12  C   UNL A   1      32.896  18.396  25.399  1.00  0.00     0.000 A 
ENDBRANCH   5   6
BRANCH   5  13
ATOM     13  C   UNL A   1      32.374  22.885  26.241  1.00  0.00     0.097 C 
BRANCH  13  14
ATOM     14  C   UNL A   1      31.388  24.091  25.703  1.00  0.00     0.128 A 
ATOM     15  N   UNL A   1      30.449  24.444  26.561  1.00  0.00    -0.220 NA
ATOM     16  N   UNL A   1      31.252  24.999  24.460  1.00  0.00    -0.248 N 
ATOM     17  C   UNL A   1      29.932  25.574  26.060  1.00  0.00     0.246 A 
ATOM     18  N   UNL A   1      30.405  25.988  24.899  1.00  0.00    -0.159 NA
BRANCH  16  19
ATOM     19  C   UNL A   1      32.069  25.447  23.165  1.00  0.00     0.103 C 
ATOM     20  C   UNL A   1      31.737  26.309  21.553  1.00  0.00     0.033 C 
ATOM     21  C   UNL A   1      33.578  25.568  23.509  1.00  0.00     0.033 C 
ENDBRANCH  16  19
ENDBRANCH  13  14
ENDBRANCH   5  13
ENDBRANCH   3   5
ENDBRANCH   2   3
ENDBRANCH   1   2
BRANCH   1  22
ATOM     22  C   UNL A   1      39.204  21.641  25.948  1.00  0.00     0.275 C 
BRANCH  22  23
ATOM     23  O   UNL A   1      40.032  20.618  26.573  1.00  0.00    -0.458 OA
BRANCH  23  24
ATOM     24  C   UNL A   1      41.273  20.112  26.266  1.00  0.00     0.338 C 
ATOM     25  O   UNL A   1      41.383  19.011  25.739  1.00  0.00    -0.246 OA
BRANCH  24  26
ATOM     26  C   UNL A   1      42.505  20.785  26.826  1.00  0.00     0.060 A 
ATOM     27  C   UNL A   1      42.109  21.757  28.283  1.00  0.00     0.016 A 
ATOM     28  C   UNL A   1      43.595  21.446  25.601  1.00  0.00     0.016 A 
ATOM     29  C   UNL A   1      42.581  23.483  28.387  1.00  0.00     0.010 A 
ATOM     30  C   UNL A   1      44.103  23.157  25.691  1.00  0.00     0.010 A 
ATOM     31  C   UNL A   1      43.514  24.234  27.081  1.00  0.00    -0.014 A 
BRANCH  31  32
ATOM     32  C   UNL A   1      43.552  25.713  27.092  1.00  0.00     0.031 A 
ATOM     33  C   UNL A   1      41.882  26.640  26.859  1.00  0.00     0.074 A 
ATOM     34  C   UNL A   1      44.851  25.844  27.895  1.00  0.00     0.049 A 
ATOM     35  N   UNL A   1      41.639  27.935  27.143  1.00  0.00    -0.248 NA
ATOM     36  C   UNL A   1      40.410  26.266  26.601  1.00  0.00     0.031 C 
ATOM     37  C   UNL A   1      45.254  26.373  29.338  1.00  0.00     0.029 A 
ATOM     38  N   UNL A   1      46.185  25.409  27.640  1.00  0.00    -0.354 N 
ATOM     39  C   UNL A   1      40.523  28.091  28.022  1.00  0.00     0.074 A 
ATOM     40  C   UNL A   1      39.656  27.104  27.389  1.00  0.00     0.031 C 
ATOM     41  C   UNL A   1      46.538  26.655  29.524  1.00  0.00     0.029 A 
ATOM     42  C   UNL A   1      47.142  26.227  28.336  1.00  0.00     0.049 A 
ATOM     43  H   UNL A   1      46.420  24.648  27.061  1.00  0.00     0.167 HD
ATOM     44  C   UNL A   1      40.528  28.900  29.206  1.00  0.00     0.034 A 
ATOM     45  C   UNL A   1      48.131  26.964  27.787  1.00  0.00     0.034 A 
ATOM     46  C   UNL A   1      41.866  29.606  29.646  1.00  0.00     0.049 A 
ATOM     47  C   UNL A   1      47.564  28.400  27.600  1.00  0.00     0.074 A 
ATOM     48  C   UNL A   1      42.712  29.567  30.771  1.00  0.00     0.029 A 
ATOM     49  N   UNL A   1      42.595  30.446  28.779  1.00  0.00    -0.354 N 
ATOM     50  N   UNL A   1      46.512  28.920  28.218  1.00  0.00    -0.248 NA
ATOM     51  C   UNL A   1      48.223  29.368  26.742  1.00  0.00     0.031 C 
ATOM     52  C   UNL A   1      44.054  29.999  30.374  1.00  0.00     0.029 A 
ATOM     53  C   UNL A   1      44.016  30.457  29.054  1.00  0.00     0.049 A 
ATOM     54  H   UNL A   1      42.180  30.974  28.059  1.00  0.00     0.167 HD
ATOM     55  C   UNL A   1      46.213  30.181  27.731  1.00  0.00     0.074 A 
ATOM     56  C   UNL A   1      47.407  30.425  26.884  1.00  0.00     0.031 C 
ATOM     57  C   UNL A   1      45.039  30.913  28.005  1.00  0.00     0.034 A 
BRANCH  44  58
ATOM     58  C   UNL A   1      39.378  29.126  30.254  1.00  0.00     0.023 A 
ATOM     59  C   UNL A   1      39.147  28.043  31.164  1.00  0.00     0.012 A 
ATOM     60  C   UNL A   1      38.536  30.243  30.444  1.00  0.00     0.148 A 
ATOM     61  C   UNL A   1      38.202  28.056  32.196  1.00  0.00     0.002 A 
ATOM     62  C   UNL A   1      37.629  30.288  31.532  1.00  0.00     0.091 A 
ATOM     63  F   UNL A   1      38.575  31.248  29.562  1.00  0.00    -0.205 F 
ATOM     64  C   UNL A   1      37.462  29.199  32.405  1.00  0.00     0.022 A 
BRANCH  62  65
ATOM     65  S   UNL A   1      36.673  31.756  31.975  1.00  0.00     0.127 S 
ATOM     66  O   UNL A   1      35.525  31.671  31.072  1.00  0.00    -0.237 OA
ATOM     67  O   UNL A   1      36.352  31.506  33.381  1.00  0.00    -0.237 OA
ATOM     68  O   UNL A   1      37.554  32.894  31.745  1.00  0.00    -0.744 OA
ENDBRANCH  62  65
ENDBRANCH  44  58
BRANCH  45  69
ATOM     69  C   UNL A   1      48.875  26.046  26.861  1.00  0.00     0.023 A 
ATOM     70  C   UNL A   1      48.448  26.064  25.490  1.00  0.00     0.012 A 
ATOM     71  C   UNL A   1      50.223  25.934  27.145  1.00  0.00     0.148 A 
ATOM     72  C   UNL A   1      49.379  26.324  24.473  1.00  0.00     0.002 A 
ATOM     73  C   UNL A   1      51.125  26.289  26.158  1.00  0.00     0.091 A 
ATOM     74  F   UNL A   1      50.600  25.853  28.426  1.00  0.00    -0.205 F 
ATOM     75  C   UNL A   1      50.724  26.491  24.821  1.00  0.00     0.022 A 
BRANCH  73  76
ATOM     76  S   UNL A   1      52.632  26.991  26.822  1.00  0.00     0.127 S 
ATOM     77  O   UNL A   1      53.373  27.397  25.627  1.00  0.00    -0.237 OA
ATOM     78  O   UNL A   1      52.130  28.076  27.658  1.00  0.00    -0.237 OA
ATOM     79  O   UNL A   1      53.246  25.899  27.565  1.00  0.00    -0.744 OA
ENDBRANCH  73  76
ENDBRANCH  45  69
BRANCH  57  80
ATOM     80  C   UNL A   1      44.710  32.226  27.255  1.00  0.00     0.023 A 
ATOM     81  C   UNL A   1      44.385  32.286  25.890  1.00  0.00     0.012 A 
ATOM     82  C   UNL A   1      44.686  33.485  27.907  1.00  0.00     0.148 A 
ATOM     83  C   UNL A   1      44.161  33.477  25.194  1.00  0.00     0.002 A 
ATOM     84  C   UNL A   1      44.322  34.654  27.255  1.00  0.00     0.091 A 
ATOM     85  F   UNL A   1      45.075  33.612  29.174  1.00  0.00    -0.205 F 
ATOM     86  C   UNL A   1      44.104  34.666  25.885  1.00  0.00     0.022 A 
BRANCH  84  87
ATOM     87  S   UNL A   1      44.111  36.194  28.148  1.00  0.00     0.127 S 
ATOM     88  O   UNL A   1      43.140  35.799  29.166  1.00  0.00    -0.237 OA
ATOM     89  O   UNL A   1      45.465  36.438  28.643  1.00  0.00    -0.237 OA
ATOM     90  O   UNL A   1      43.639  37.171  27.175  1.00  0.00    -0.744 OA
ENDBRANCH  84  87
ENDBRANCH  57  80
ENDBRANCH  31  32
ENDBRANCH  24  26
ENDBRANCH  23  24
ENDBRANCH  22  23
ENDBRANCH   1  22
TORSDOF 18
ENDMDL
