MODEL 1
REMARK VINA RESULT:     -11.1      0.000      0.000
REMARK SMILES O=C(CCC(=O)OCCOC(=O)c1ccc(-c2c3nc(c(-c4cccc(S(=O)(=O)[O-])c4F)c4ccc([nH]4)c(-c4cccc(S(=O)(=O)[O-])c4F)c4nc(c(-c5cccc(S(=O)(=O)[O-])c5F)c5ccc2[nH]5)C=C4)C=C3)cc1)Nc1ncc([N+](=O)[O-])s1
REMARK SMILES IDX 8 1 7 2 5 3 6 4 4 5 3 6 2 7 1 8 76 9 77 11 78 12 84 13 79 14
REMARK SMILES IDX 80 15 81 16 82 17 83 18 9 19 10 20 11 21 12 22 13 23 14 24
REMARK SMILES IDX 75 25 15 26 74 27 16 28 17 29 18 30 68 31 19 32 73 33 67 34
REMARK SMILES IDX 69 35 20 36 72 37 66 38 65 39 21 41 53 42 33 43 52 44 34 45
REMARK SMILES IDX 37 46 51 47 70 48 35 49 36 50 50 52 71 53 38 54 22 55 23 56
REMARK SMILES IDX 31 57 24 58 26 59 32 60 25 61 27 62 28 63 29 64 30 65 54 66
REMARK SMILES IDX 55 67 63 68 56 69 58 70 64 71 57 72 59 73 60 74 61 75 62 76
REMARK SMILES IDX 39 77 40 78 48 79 41 80 43 81 49 82 42 83 44 84 45 85 46 86
REMARK SMILES IDX 47 87
REMARK H PARENT 76 10 69 40 37 51
REMARK Flexibility Score: inf
ROOT
ATOM      1  C   UNL A   1      36.626  22.138  23.885  1.00  0.00     0.274 C 
ENDROOT
BRANCH   1   2
ATOM      2  O   UNL A   1      35.213  22.313  24.156  1.00  0.00    -0.462 OA
BRANCH   2   3
ATOM      3  C   UNL A   1      34.596  23.380  23.580  1.00  0.00     0.306 C 
ATOM      4  O   UNL A   1      34.856  24.548  23.835  1.00  0.00    -0.252 OA
BRANCH   3   5
ATOM      5  C   UNL A   1      33.477  22.972  22.639  1.00  0.00     0.132 C 
BRANCH   5   6
ATOM      6  C   UNL A   1      32.268  22.280  23.266  1.00  0.00     0.112 C 
BRANCH   6   7
ATOM      7  C   UNL A   1      32.412  20.768  23.275  1.00  0.00     0.226 C 
ATOM      8  O   UNL A   1      32.010  20.093  22.334  1.00  0.00    -0.275 OA
ATOM      9  N   UNL A   1      32.928  20.298  24.459  1.00  0.00    -0.302 N 
ATOM     10  H   UNL A   1      33.307  20.943  25.100  1.00  0.00     0.172 HD
BRANCH   9  11
ATOM     11  C   UNL A   1      32.933  18.974  24.780  1.00  0.00     0.195 A 
ATOM     12  N   UNL A   1      32.078  18.272  25.480  1.00  0.00    -0.221 NA
ATOM     13  S   UNL A   1      34.343  18.155  24.257  1.00  0.00    -0.024 S 
ATOM     14  C   UNL A   1      32.598  17.008  25.696  1.00  0.00     0.212 A 
ATOM     15  C   UNL A   1      33.864  16.824  25.197  1.00  0.00     0.345 A 
BRANCH  15  16
ATOM     16  N   UNL A   1      34.719  15.702  25.398  1.00  0.00     0.076 N 
ATOM     17  O   UNL A   1      34.215  14.572  25.358  1.00  0.00    -0.257 OA
ATOM     18  O   UNL A   1      35.920  15.948  25.565  1.00  0.00    -0.257 OA
ENDBRANCH  15  16
ENDBRANCH   9  11
ENDBRANCH   6   7
ENDBRANCH   5   6
ENDBRANCH   3   5
ENDBRANCH   2   3
ENDBRANCH   1   2
BRANCH   1  19
ATOM     19  C   UNL A   1      37.180  20.911  24.615  1.00  0.00     0.275 C 
BRANCH  19  20
ATOM     20  O   UNL A   1      37.636  21.270  25.929  1.00  0.00    -0.458 OA
BRANCH  20  21
ATOM     21  C   UNL A   1      38.972  21.161  26.114  1.00  0.00     0.338 C 
ATOM     22  O   UNL A   1      39.665  20.201  25.826  1.00  0.00    -0.246 OA
BRANCH  21  23
ATOM     23  C   UNL A   1      39.503  22.455  26.567  1.00  0.00     0.060 A 
ATOM     24  C   UNL A   1      38.872  23.628  26.139  1.00  0.00     0.016 A 
ATOM     25  C   UNL A   1      40.638  22.511  27.377  1.00  0.00     0.016 A 
ATOM     26  C   UNL A   1      39.386  24.868  26.506  1.00  0.00     0.010 A 
ATOM     27  C   UNL A   1      41.146  23.757  27.749  1.00  0.00     0.010 A 
ATOM     28  C   UNL A   1      40.537  24.943  27.301  1.00  0.00    -0.014 A 
BRANCH  28  29
ATOM     29  C   UNL A   1      41.146  26.257  27.613  1.00  0.00     0.031 A 
ATOM     30  C   UNL A   1      42.572  26.520  27.216  1.00  0.00     0.074 A 
ATOM     31  C   UNL A   1      40.434  27.196  28.266  1.00  0.00     0.049 A 
ATOM     32  N   UNL A   1      43.327  27.552  27.485  1.00  0.00    -0.248 NA
ATOM     33  C   UNL A   1      43.240  25.478  26.418  1.00  0.00     0.031 C 
ATOM     34  C   UNL A   1      39.043  27.055  28.697  1.00  0.00     0.029 A 
ATOM     35  N   UNL A   1      40.797  28.443  28.710  1.00  0.00    -0.354 N 
ATOM     36  C   UNL A   1      44.567  27.272  26.922  1.00  0.00     0.074 A 
ATOM     37  C   UNL A   1      44.467  25.966  26.306  1.00  0.00     0.031 C 
ATOM     38  C   UNL A   1      38.678  28.160  29.367  1.00  0.00     0.029 A 
ATOM     39  C   UNL A   1      39.819  29.068  29.448  1.00  0.00     0.049 A 
ATOM     40  H   UNL A   1      41.672  28.850  28.519  1.00  0.00     0.167 HD
ATOM     41  C   UNL A   1      45.682  28.040  26.907  1.00  0.00     0.034 A 
ATOM     42  C   UNL A   1      39.853  30.223  30.140  1.00  0.00     0.034 A 
ATOM     43  C   UNL A   1      45.765  29.347  27.501  1.00  0.00     0.049 A 
ATOM     44  C   UNL A   1      41.115  31.046  30.124  1.00  0.00     0.074 A 
ATOM     45  C   UNL A   1      46.841  30.216  27.517  1.00  0.00     0.029 A 
ATOM     46  N   UNL A   1      44.736  29.971  28.187  1.00  0.00    -0.354 N 
ATOM     47  N   UNL A   1      42.250  30.805  29.512  1.00  0.00    -0.248 NA
ATOM     48  C   UNL A   1      41.091  32.316  30.864  1.00  0.00     0.031 C 
ATOM     49  C   UNL A   1      46.469  31.358  28.233  1.00  0.00     0.029 A 
ATOM     50  C   UNL A   1      45.150  31.215  28.629  1.00  0.00     0.049 A 
ATOM     51  H   UNL A   1      43.842  29.587  28.336  1.00  0.00     0.167 HD
ATOM     52  C   UNL A   1      43.055  31.913  29.755  1.00  0.00     0.074 A 
ATOM     53  C   UNL A   1      42.272  32.833  30.553  1.00  0.00     0.031 C 
ATOM     54  C   UNL A   1      44.333  32.145  29.364  1.00  0.00     0.034 A 
BRANCH  41  55
ATOM     55  C   UNL A   1      46.899  27.503  26.199  1.00  0.00     0.023 A 
ATOM     56  C   UNL A   1      47.739  26.582  26.857  1.00  0.00     0.012 A 
ATOM     57  C   UNL A   1      47.164  27.848  24.860  1.00  0.00     0.148 A 
ATOM     58  C   UNL A   1      48.839  26.032  26.202  1.00  0.00     0.002 A 
ATOM     59  C   UNL A   1      48.237  27.261  24.198  1.00  0.00     0.091 A 
ATOM     60  F   UNL A   1      46.363  28.738  24.258  1.00  0.00    -0.205 F 
ATOM     61  C   UNL A   1      49.081  26.361  24.870  1.00  0.00     0.022 A 
BRANCH  59  62
ATOM     62  S   UNL A   1      48.590  27.557  22.463  1.00  0.00     0.127 S 
ATOM     63  O   UNL A   1      48.680  26.193  21.943  1.00  0.00    -0.237 OA
ATOM     64  O   UNL A   1      47.404  28.297  22.032  1.00  0.00    -0.237 OA
ATOM     65  O   UNL A   1      49.832  28.317  22.426  1.00  0.00    -0.744 OA
ENDBRANCH  59  62
ENDBRANCH  41  55
BRANCH  42  66
ATOM     66  C   UNL A   1      38.656  30.686  30.900  1.00  0.00     0.023 A 
ATOM     67  C   UNL A   1      38.556  30.412  32.279  1.00  0.00     0.012 A 
ATOM     68  C   UNL A   1      37.609  31.378  30.261  1.00  0.00     0.148 A 
ATOM     69  C   UNL A   1      37.415  30.775  32.995  1.00  0.00     0.002 A 
ATOM     70  C   UNL A   1      36.503  31.790  30.994  1.00  0.00     0.091 A 
ATOM     71  F   UNL A   1      37.714  31.616  28.947  1.00  0.00    -0.205 F 
ATOM     72  C   UNL A   1      36.393  31.472  32.355  1.00  0.00     0.022 A 
BRANCH  70  73
ATOM     73  S   UNL A   1      35.201  32.800  30.279  1.00  0.00     0.127 S 
ATOM     74  O   UNL A   1      34.670  31.916  29.245  1.00  0.00    -0.237 OA
ATOM     75  O   UNL A   1      34.316  33.011  31.426  1.00  0.00    -0.237 OA
ATOM     76  O   UNL A   1      35.861  34.009  29.803  1.00  0.00    -0.744 OA
ENDBRANCH  70  73
ENDBRANCH  42  66
BRANCH  54  77
ATOM     77  C   UNL A   1      44.947  33.472  29.729  1.00  0.00     0.023 A 
ATOM     78  C   UNL A   1      45.714  33.600  30.904  1.00  0.00     0.012 A 
ATOM     79  C   UNL A   1      44.818  34.576  28.863  1.00  0.00     0.148 A 
ATOM     80  C   UNL A   1      46.310  34.818  31.229  1.00  0.00     0.002 A 
ATOM     81  C   UNL A   1      45.460  35.769  29.165  1.00  0.00     0.091 A 
ATOM     82  F   UNL A   1      44.070  34.438  27.759  1.00  0.00    -0.205 F 
ATOM     83  C   UNL A   1      46.196  35.896  30.355  1.00  0.00     0.022 A 
BRANCH  81  84
ATOM     84  S   UNL A   1      45.452  37.178  28.051  1.00  0.00     0.127 S 
ATOM     85  O   UNL A   1      44.026  37.489  27.976  1.00  0.00    -0.237 OA
ATOM     86  O   UNL A   1      46.252  38.158  28.786  1.00  0.00    -0.237 OA
ATOM     87  O   UNL A   1      46.056  36.712  26.810  1.00  0.00    -0.744 OA
ENDBRANCH  81  84
ENDBRANCH  54  77
ENDBRANCH  28  29
ENDBRANCH  21  23
ENDBRANCH  20  21
ENDBRANCH  19  20
ENDBRANCH   1  19
TORSDOF 18
ENDMDL
MODEL 2
REMARK VINA RESULT:     -11.1      1.543      7.906
REMARK SMILES O=C(CCC(=O)OCCOC(=O)c1ccc(-c2c3nc(c(-c4cccc(S(=O)(=O)[O-])c4F)c4ccc([nH]4)c(-c4cccc(S(=O)(=O)[O-])c4F)c4nc(c(-c5cccc(S(=O)(=O)[O-])c5F)c5ccc2[nH]5)C=C4)C=C3)cc1)Nc1ncc([N+](=O)[O-])s1
REMARK SMILES IDX 8 1 7 2 5 3 6 4 4 5 3 6 2 7 1 8 76 9 77 11 78 12 84 13 79 14
REMARK SMILES IDX 80 15 81 16 82 17 83 18 9 19 10 20 11 21 12 22 13 23 14 24
REMARK SMILES IDX 75 25 15 26 74 27 16 28 17 29 18 30 68 31 19 32 73 33 67 34
REMARK SMILES IDX 69 35 20 36 72 37 66 38 65 39 21 41 53 42 33 43 52 44 34 45
REMARK SMILES IDX 37 46 51 47 70 48 35 49 36 50 50 52 71 53 38 54 22 55 23 56
REMARK SMILES IDX 31 57 24 58 26 59 32 60 25 61 27 62 28 63 29 64 30 65 54 66
REMARK SMILES IDX 55 67 63 68 56 69 58 70 64 71 57 72 59 73 60 74 61 75 62 76
REMARK SMILES IDX 39 77 40 78 48 79 41 80 43 81 49 82 42 83 44 84 45 85 46 86
REMARK SMILES IDX 47 87
REMARK H PARENT 76 10 69 40 37 51
REMARK Flexibility Score: inf
ROOT
ATOM      1  C   UNL A   1      35.683  20.614  24.985  1.00  0.00     0.274 C 
ENDROOT
BRANCH   1   2
ATOM      2  O   UNL A   1      35.581  22.060  24.966  1.00  0.00    -0.462 OA
BRANCH   2   3
ATOM      3  C   UNL A   1      35.083  22.635  23.838  1.00  0.00     0.306 C 
ATOM      4  O   UNL A   1      35.762  22.966  22.876  1.00  0.00    -0.252 OA
BRANCH   3   5
ATOM      5  C   UNL A   1      33.593  22.908  23.927  1.00  0.00     0.132 C 
BRANCH   5   6
ATOM      6  C   UNL A   1      32.668  21.921  23.216  1.00  0.00     0.112 C 
BRANCH   6   7
ATOM      7  C   UNL A   1      32.332  20.720  24.083  1.00  0.00     0.226 C 
ATOM      8  O   UNL A   1      31.936  20.869  25.234  1.00  0.00    -0.275 OA
ATOM      9  N   UNL A   1      32.620  19.529  23.463  1.00  0.00    -0.302 N 
ATOM     10  H   UNL A   1      32.838  19.535  22.502  1.00  0.00     0.172 HD
BRANCH   9  11
ATOM     11  C   UNL A   1      32.615  18.339  24.127  1.00  0.00     0.195 A 
ATOM     12  N   UNL A   1      31.885  17.940  25.137  1.00  0.00    -0.221 NA
ATOM     13  S   UNL A   1      33.835  17.261  23.597  1.00  0.00    -0.024 S 
ATOM     14  C   UNL A   1      32.364  16.724  25.591  1.00  0.00     0.212 A 
ATOM     15  C   UNL A   1      33.486  16.278  24.937  1.00  0.00     0.345 A 
BRANCH  15  16
ATOM     16  N   UNL A   1      34.297  15.157  25.276  1.00  0.00     0.076 N 
ATOM     17  O   UNL A   1      33.731  14.092  25.555  1.00  0.00    -0.257 OA
ATOM     18  O   UNL A   1      35.522  15.329  25.230  1.00  0.00    -0.257 OA
ENDBRANCH  15  16
ENDBRANCH   9  11
ENDBRANCH   6   7
ENDBRANCH   5   6
ENDBRANCH   3   5
ENDBRANCH   2   3
ENDBRANCH   1   2
BRANCH   1  19
ATOM     19  C   UNL A   1      37.147  20.163  24.977  1.00  0.00     0.275 C 
BRANCH  19  20
ATOM     20  O   UNL A   1      38.012  21.257  25.319  1.00  0.00    -0.458 OA
BRANCH  20  21
ATOM     21  C   UNL A   1      39.036  20.932  26.142  1.00  0.00     0.338 C 
ATOM     22  O   UNL A   1      39.488  19.816  26.327  1.00  0.00    -0.246 OA
BRANCH  21  23
ATOM     23  C   UNL A   1      39.645  22.165  26.664  1.00  0.00     0.060 A 
ATOM     24  C   UNL A   1      39.180  23.396  26.191  1.00  0.00     0.016 A 
ATOM     25  C   UNL A   1      40.693  22.104  27.582  1.00  0.00     0.016 A 
ATOM     26  C   UNL A   1      39.775  24.578  26.625  1.00  0.00     0.010 A 
ATOM     27  C   UNL A   1      41.283  23.291  28.020  1.00  0.00     0.010 A 
ATOM     28  C   UNL A   1      40.842  24.534  27.531  1.00  0.00    -0.014 A 
BRANCH  28  29
ATOM     29  C   UNL A   1      41.544  25.780  27.920  1.00  0.00     0.031 A 
ATOM     30  C   UNL A   1      40.789  26.850  28.657  1.00  0.00     0.074 A 
ATOM     31  C   UNL A   1      42.839  25.957  27.594  1.00  0.00     0.049 A 
ATOM     32  N   UNL A   1      41.178  28.052  28.994  1.00  0.00    -0.248 NA
ATOM     33  C   UNL A   1      39.409  26.530  29.060  1.00  0.00     0.031 C 
ATOM     34  C   UNL A   1      43.673  24.987  26.885  1.00  0.00     0.029 A 
ATOM     35  N   UNL A   1      43.669  27.032  27.790  1.00  0.00    -0.354 N 
ATOM     36  C   UNL A   1      40.085  28.644  29.616  1.00  0.00     0.074 A 
ATOM     37  C   UNL A   1      39.011  27.673  29.600  1.00  0.00     0.031 C 
ATOM     38  C   UNL A   1      44.888  25.521  26.680  1.00  0.00     0.029 A 
ATOM     39  C   UNL A   1      44.906  26.883  27.206  1.00  0.00     0.049 A 
ATOM     40  H   UNL A   1      43.405  27.832  28.299  1.00  0.00     0.167 HD
ATOM     41  C   UNL A   1      39.989  29.877  30.165  1.00  0.00     0.034 A 
ATOM     42  C   UNL A   1      45.922  27.758  27.080  1.00  0.00     0.034 A 
ATOM     43  C   UNL A   1      41.069  30.827  30.199  1.00  0.00     0.049 A 
ATOM     44  C   UNL A   1      45.779  29.132  27.682  1.00  0.00     0.074 A 
ATOM     45  C   UNL A   1      41.082  32.094  30.755  1.00  0.00     0.029 A 
ATOM     46  N   UNL A   1      42.325  30.617  29.652  1.00  0.00    -0.354 N 
ATOM     47  N   UNL A   1      44.768  29.644  28.344  1.00  0.00    -0.248 NA
ATOM     48  C   UNL A   1      46.929  30.040  27.550  1.00  0.00     0.031 C 
ATOM     49  C   UNL A   1      42.340  32.659  30.523  1.00  0.00     0.029 A 
ATOM     50  C   UNL A   1      43.121  31.730  29.858  1.00  0.00     0.049 A 
ATOM     51  H   UNL A   1      42.608  29.797  29.187  1.00  0.00     0.167 HD
ATOM     52  C   UNL A   1      45.179  30.911  28.745  1.00  0.00     0.074 A 
ATOM     53  C   UNL A   1      46.536  31.081  28.269  1.00  0.00     0.031 C 
ATOM     54  C   UNL A   1      44.492  31.854  29.435  1.00  0.00     0.034 A 
BRANCH  41  55
ATOM     55  C   UNL A   1      38.682  30.267  30.804  1.00  0.00     0.023 A 
ATOM     56  C   UNL A   1      38.442  29.944  32.155  1.00  0.00     0.012 A 
ATOM     57  C   UNL A   1      37.728  31.020  30.093  1.00  0.00     0.148 A 
ATOM     58  C   UNL A   1      37.263  30.341  32.782  1.00  0.00     0.002 A 
ATOM     59  C   UNL A   1      36.574  31.452  30.737  1.00  0.00     0.091 A 
ATOM     60  F   UNL A   1      37.968  31.302  28.805  1.00  0.00    -0.205 F 
ATOM     61  C   UNL A   1      36.335  31.105  32.077  1.00  0.00     0.022 A 
BRANCH  59  62
ATOM     62  S   UNL A   1      35.353  32.504  29.945  1.00  0.00     0.127 S 
ATOM     63  O   UNL A   1      36.187  33.592  29.436  1.00  0.00    -0.237 OA
ATOM     64  O   UNL A   1      34.811  31.619  28.914  1.00  0.00    -0.237 OA
ATOM     65  O   UNL A   1      34.408  32.883  30.985  1.00  0.00    -0.744 OA
ENDBRANCH  59  62
ENDBRANCH  41  55
BRANCH  42  66
ATOM     66  C   UNL A   1      47.173  27.368  26.368  1.00  0.00     0.023 A 
ATOM     67  C   UNL A   1      47.305  27.640  24.992  1.00  0.00     0.012 A 
ATOM     68  C   UNL A   1      48.222  26.715  27.042  1.00  0.00     0.148 A 
ATOM     69  C   UNL A   1      48.438  27.224  24.291  1.00  0.00     0.002 A 
ATOM     70  C   UNL A   1      49.373  26.357  26.350  1.00  0.00     0.091 A 
ATOM     71  F   UNL A   1      48.073  26.451  28.347  1.00  0.00    -0.205 F 
ATOM     72  C   UNL A   1      49.475  26.590  24.971  1.00  0.00     0.022 A 
BRANCH  70  73
ATOM     73  S   UNL A   1      50.807  25.653  27.172  1.00  0.00     0.127 S 
ATOM     74  O   UNL A   1      51.121  26.681  28.159  1.00  0.00    -0.237 OA
ATOM     75  O   UNL A   1      50.260  24.412  27.724  1.00  0.00    -0.237 OA
ATOM     76  O   UNL A   1      51.799  25.453  26.123  1.00  0.00    -0.744 OA
ENDBRANCH  70  73
ENDBRANCH  42  66
BRANCH  54  77
ATOM     77  C   UNL A   1      45.213  33.131  29.783  1.00  0.00     0.023 A 
ATOM     78  C   UNL A   1      45.941  33.231  30.984  1.00  0.00     0.012 A 
ATOM     79  C   UNL A   1      45.221  34.210  28.877  1.00  0.00     0.148 A 
ATOM     80  C   UNL A   1      46.635  34.399  31.295  1.00  0.00     0.002 A 
ATOM     81  C   UNL A   1      45.960  35.349  29.167  1.00  0.00     0.091 A 
ATOM     82  F   UNL A   1      44.507  34.101  27.747  1.00  0.00    -0.205 F 
ATOM     83  C   UNL A   1      46.656  35.452  30.383  1.00  0.00     0.022 A 
BRANCH  81  84
ATOM     84  S   UNL A   1      46.126  36.712  28.009  1.00  0.00     0.127 S 
ATOM     85  O   UNL A   1      44.744  37.172  27.889  1.00  0.00    -0.237 OA
ATOM     86  O   UNL A   1      47.013  37.625  28.730  1.00  0.00    -0.237 OA
ATOM     87  O   UNL A   1      46.702  36.141  26.798  1.00  0.00    -0.744 OA
ENDBRANCH  81  84
ENDBRANCH  54  77
ENDBRANCH  28  29
ENDBRANCH  21  23
ENDBRANCH  20  21
ENDBRANCH  19  20
ENDBRANCH   1  19
TORSDOF 18
ENDMDL
MODEL 3
REMARK VINA RESULT:     -11.1      1.749      2.051
REMARK SMILES O=C(CCC(=O)OCCOC(=O)c1ccc(-c2c3nc(c(-c4cccc(S(=O)(=O)[O-])c4F)c4ccc([nH]4)c(-c4cccc(S(=O)(=O)[O-])c4F)c4nc(c(-c5cccc(S(=O)(=O)[O-])c5F)c5ccc2[nH]5)C=C4)C=C3)cc1)Nc1ncc([N+](=O)[O-])s1
REMARK SMILES IDX 8 1 7 2 5 3 6 4 4 5 3 6 2 7 1 8 76 9 77 11 78 12 84 13 79 14
REMARK SMILES IDX 80 15 81 16 82 17 83 18 9 19 10 20 11 21 12 22 13 23 14 24
REMARK SMILES IDX 75 25 15 26 74 27 16 28 17 29 18 30 68 31 19 32 73 33 67 34
REMARK SMILES IDX 69 35 20 36 72 37 66 38 65 39 21 41 53 42 33 43 52 44 34 45
REMARK SMILES IDX 37 46 51 47 70 48 35 49 36 50 50 52 71 53 38 54 22 55 23 56
REMARK SMILES IDX 31 57 24 58 26 59 32 60 25 61 27 62 28 63 29 64 30 65 54 66
REMARK SMILES IDX 55 67 63 68 56 69 58 70 64 71 57 72 59 73 60 74 61 75 62 76
REMARK SMILES IDX 39 77 40 78 48 79 41 80 43 81 49 82 42 83 44 84 45 85 46 86
REMARK SMILES IDX 47 87
REMARK H PARENT 76 10 69 40 37 51
REMARK Flexibility Score: inf
ROOT
ATOM      1  C   UNL A   1      37.341  20.277  24.717  1.00  0.00     0.274 C 
ENDROOT
BRANCH   1   2
ATOM      2  O   UNL A   1      37.672  21.655  24.412  1.00  0.00    -0.462 OA
BRANCH   2   3
ATOM      3  C   UNL A   1      36.673  22.445  23.934  1.00  0.00     0.306 C 
ATOM      4  O   UNL A   1      36.629  22.888  22.794  1.00  0.00    -0.252 OA
BRANCH   3   5
ATOM      5  C   UNL A   1      35.647  22.799  24.995  1.00  0.00     0.132 C 
BRANCH   5   6
ATOM      6  C   UNL A   1      34.191  22.450  24.689  1.00  0.00     0.112 C 
BRANCH   6   7
ATOM      7  C   UNL A   1      33.768  21.138  25.326  1.00  0.00     0.226 C 
ATOM      8  O   UNL A   1      33.896  20.956  26.532  1.00  0.00    -0.275 OA
ATOM      9  N   UNL A   1      33.349  20.215  24.398  1.00  0.00    -0.302 N 
ATOM     10  H   UNL A   1      33.193  20.512  23.472  1.00  0.00     0.172 HD
BRANCH   9  11
ATOM     11  C   UNL A   1      33.140  18.906  24.712  1.00  0.00     0.195 A 
ATOM     12  N   UNL A   1      32.178  18.346  25.400  1.00  0.00    -0.221 NA
ATOM     13  S   UNL A   1      34.408  17.875  24.197  1.00  0.00    -0.024 S 
ATOM     14  C   UNL A   1      32.488  17.015  25.614  1.00  0.00     0.212 A 
ATOM     15  C   UNL A   1      33.714  16.634  25.126  1.00  0.00     0.345 A 
BRANCH  15  16
ATOM     16  N   UNL A   1      34.378  15.390  25.329  1.00  0.00     0.076 N 
ATOM     17  O   UNL A   1      33.684  14.368  25.413  1.00  0.00    -0.257 OA
ATOM     18  O   UNL A   1      35.614  15.425  25.372  1.00  0.00    -0.257 OA
ENDBRANCH  15  16
ENDBRANCH   9  11
ENDBRANCH   6   7
ENDBRANCH   5   6
ENDBRANCH   3   5
ENDBRANCH   2   3
ENDBRANCH   1   2
BRANCH   1  19
ATOM     19  C   UNL A   1      38.473  19.594  25.489  1.00  0.00     0.275 C 
BRANCH  19  20
ATOM     20  O   UNL A   1      39.621  20.454  25.564  1.00  0.00    -0.458 OA
BRANCH  20  21
ATOM     21  C   UNL A   1      40.231  20.477  26.772  1.00  0.00     0.338 C 
ATOM     22  O   UNL A   1      40.574  19.509  27.427  1.00  0.00    -0.246 OA
BRANCH  21  23
ATOM     23  C   UNL A   1      40.578  21.866  27.110  1.00  0.00     0.060 A 
ATOM     24  C   UNL A   1      40.075  22.898  26.311  1.00  0.00     0.016 A 
ATOM     25  C   UNL A   1      41.424  22.144  28.184  1.00  0.00     0.016 A 
ATOM     26  C   UNL A   1      40.432  24.218  26.573  1.00  0.00     0.010 A 
ATOM     27  C   UNL A   1      41.774  23.469  28.448  1.00  0.00     0.010 A 
ATOM     28  C   UNL A   1      41.296  24.513  27.634  1.00  0.00    -0.014 A 
BRANCH  28  29
ATOM     29  C   UNL A   1      41.759  25.903  27.857  1.00  0.00     0.031 A 
ATOM     30  C   UNL A   1      43.163  26.281  27.478  1.00  0.00     0.074 A 
ATOM     31  C   UNL A   1      40.935  26.809  28.416  1.00  0.00     0.049 A 
ATOM     32  N   UNL A   1      43.801  27.403  27.684  1.00  0.00    -0.248 NA
ATOM     33  C   UNL A   1      43.959  25.257  26.780  1.00  0.00     0.031 C 
ATOM     34  C   UNL A   1      39.551  26.558  28.821  1.00  0.00     0.029 A 
ATOM     35  N   UNL A   1      41.154  28.117  28.770  1.00  0.00    -0.354 N 
ATOM     36  C   UNL A   1      45.081  27.211  27.176  1.00  0.00     0.074 A 
ATOM     37  C   UNL A   1      45.134  25.859  26.662  1.00  0.00     0.031 C 
ATOM     38  C   UNL A   1      39.054  27.667  29.393  1.00  0.00     0.029 A 
ATOM     39  C   UNL A   1      40.093  28.691  29.432  1.00  0.00     0.049 A 
ATOM     40  H   UNL A   1      41.989  28.598  28.570  1.00  0.00     0.167 HD
ATOM     41  C   UNL A   1      46.112  28.087  27.129  1.00  0.00     0.034 A 
ATOM     42  C   UNL A   1      39.987  29.893  30.032  1.00  0.00     0.034 A 
ATOM     43  C   UNL A   1      46.043  29.437  27.621  1.00  0.00     0.049 A 
ATOM     44  C   UNL A   1      41.159  30.838  29.983  1.00  0.00     0.074 A 
ATOM     45  C   UNL A   1      47.024  30.412  27.596  1.00  0.00     0.029 A 
ATOM     46  N   UNL A   1      44.933  30.001  28.229  1.00  0.00    -0.354 N 
ATOM     47  N   UNL A   1      42.333  30.671  29.421  1.00  0.00    -0.248 NA
ATOM     48  C   UNL A   1      40.983  32.151  30.621  1.00  0.00     0.031 C 
ATOM     49  C   UNL A   1      46.515  31.559  28.211  1.00  0.00     0.029 A 
ATOM     50  C   UNL A   1      45.204  31.311  28.583  1.00  0.00     0.049 A 
ATOM     51  H   UNL A   1      44.078  29.539  28.385  1.00  0.00     0.167 HD
ATOM     52  C   UNL A   1      43.013  31.871  29.597  1.00  0.00     0.074 A 
ATOM     53  C   UNL A   1      42.114  32.762  30.301  1.00  0.00     0.031 C 
ATOM     54  C   UNL A   1      44.273  32.204  29.222  1.00  0.00     0.034 A 
BRANCH  41  55
ATOM     55  C   UNL A   1      47.400  27.627  26.497  1.00  0.00     0.023 A 
ATOM     56  C   UNL A   1      47.655  27.920  25.142  1.00  0.00     0.012 A 
ATOM     57  C   UNL A   1      48.388  26.979  27.263  1.00  0.00     0.148 A 
ATOM     58  C   UNL A   1      48.863  27.551  24.552  1.00  0.00     0.002 A 
ATOM     59  C   UNL A   1      49.608  26.655  26.680  1.00  0.00     0.091 A 
ATOM     60  F   UNL A   1      48.118  26.695  28.545  1.00  0.00    -0.205 F 
ATOM     61  C   UNL A   1      49.843  26.931  25.323  1.00  0.00     0.022 A 
BRANCH  59  62
ATOM     62  S   UNL A   1      50.964  25.924  27.603  1.00  0.00     0.127 S 
ATOM     63  O   UNL A   1      51.007  26.779  28.789  1.00  0.00    -0.237 OA
ATOM     64  O   UNL A   1      50.472  24.568  27.846  1.00  0.00    -0.237 OA
ATOM     65  O   UNL A   1      52.133  26.006  26.739  1.00  0.00    -0.744 OA
ENDBRANCH  59  62
ENDBRANCH  41  55
BRANCH  42  66
ATOM     66  C   UNL A   1      38.725  30.285  30.723  1.00  0.00     0.023 A 
ATOM     67  C   UNL A   1      38.515  29.903  32.062  1.00  0.00     0.012 A 
ATOM     68  C   UNL A   1      37.725  31.017  30.054  1.00  0.00     0.148 A 
ATOM     69  C   UNL A   1      37.313  30.201  32.707  1.00  0.00     0.002 A 
ATOM     70  C   UNL A   1      36.556  31.362  30.721  1.00  0.00     0.091 A 
ATOM     71  F   UNL A   1      37.935  31.358  28.775  1.00  0.00    -0.205 F 
ATOM     72  C   UNL A   1      36.338  30.937  32.039  1.00  0.00     0.022 A 
BRANCH  70  73
ATOM     73  S   UNL A   1      35.303  32.415  29.979  1.00  0.00     0.127 S 
ATOM     74  O   UNL A   1      34.816  31.576  28.888  1.00  0.00    -0.237 OA
ATOM     75  O   UNL A   1      34.364  32.595  31.087  1.00  0.00    -0.237 OA
ATOM     76  O   UNL A   1      36.000  33.632  29.583  1.00  0.00    -0.744 OA
ENDBRANCH  70  73
ENDBRANCH  42  66
BRANCH  54  77
ATOM     77  C   UNL A   1      44.737  33.611  29.497  1.00  0.00     0.023 A 
ATOM     78  C   UNL A   1      45.380  33.922  30.712  1.00  0.00     0.012 A 
ATOM     79  C   UNL A   1      44.596  34.611  28.514  1.00  0.00     0.148 A 
ATOM     80  C   UNL A   1      45.839  35.215  30.958  1.00  0.00     0.002 A 
ATOM     81  C   UNL A   1      45.105  35.881  28.743  1.00  0.00     0.091 A 
ATOM     82  F   UNL A   1      43.966  34.298  27.371  1.00  0.00    -0.205 F 
ATOM     83  C   UNL A   1      45.715  36.190  29.970  1.00  0.00     0.022 A 
BRANCH  81  84
ATOM     84  S   UNL A   1      45.080  37.170  27.492  1.00  0.00     0.127 S 
ATOM     85  O   UNL A   1      46.022  36.645  26.505  1.00  0.00    -0.237 OA
ATOM     86  O   UNL A   1      43.681  37.160  27.066  1.00  0.00    -0.237 OA
ATOM     87  O   UNL A   1      45.498  38.392  28.166  1.00  0.00    -0.744 OA
ENDBRANCH  81  84
ENDBRANCH  54  77
ENDBRANCH  28  29
ENDBRANCH  21  23
ENDBRANCH  20  21
ENDBRANCH  19  20
ENDBRANCH   1  19
TORSDOF 18
ENDMDL
