MODEL 1
REMARK VINA RESULT:     -12.1      0.000      0.000
REMARK SMILES Cc1nc(-c2ccccc2Cl)nc2sc(C(=O)OCCOC(=O)c3ccc(-c4c5nc(c(-c6cccc(S(=O)(=O)[O-])c6F)c6ccc([nH]6)c(-c6cccc(S(=O)(=O)[O-])c6F)c6nc(c(-c7cccc(S(=O)(=O)[O-])c7F)c7ccc4[nH]7)C=C6)C=C5)cc3)c(N)c12
REMARK SMILES IDX 20 1 19 2 18 3 16 4 17 5 15 6 1 7 2 8 3 9 89 10 4 11 13 12
REMARK SMILES IDX 87 13 12 14 14 15 5 16 6 17 10 18 7 19 9 20 11 21 8 22 88 23
REMARK SMILES IDX 21 26 22 27 23 28 24 29 25 30 86 31 26 32 85 33 27 34 28 35
REMARK SMILES IDX 29 36 79 37 30 38 84 39 78 40 80 41 31 42 83 43 77 44 76 45
REMARK SMILES IDX 32 47 64 48 44 49 63 50 45 51 48 52 62 53 81 54 46 55 47 56
REMARK SMILES IDX 61 58 82 59 49 60 33 61 34 62 42 63 35 64 37 65 43 66 36 67
REMARK SMILES IDX 38 68 39 69 40 70 41 71 65 72 66 73 74 74 67 75 69 76 75 77
REMARK SMILES IDX 68 78 70 79 71 80 72 81 73 82 50 83 51 84 59 85 52 86 54 87
REMARK SMILES IDX 60 88 53 89 55 90 56 91 57 92 58 93
REMARK H PARENT 88 24 88 25 80 46 48 57
REMARK Flexibility Score: inf
ROOT
ATOM      1  C   UNL A   1      39.981  20.327  25.722  1.00  0.00     0.275 C 
ENDROOT
BRANCH   1   2
ATOM      2  C   UNL A   1      38.611  19.844  25.272  1.00  0.00     0.275 C 
BRANCH   2   3
ATOM      3  O   UNL A   1      37.639  20.897  25.339  1.00  0.00    -0.458 OA
BRANCH   3   4
ATOM      4  C   UNL A   1      36.320  20.571  25.148  1.00  0.00     0.350 C 
ATOM      5  O   UNL A   1      35.929  19.469  24.805  1.00  0.00    -0.245 OA
BRANCH   4   6
ATOM      6  C   UNL A   1      35.468  21.718  25.441  1.00  0.00     0.138 A 
ATOM      7  C   UNL A   1      31.220  22.987  27.047  1.00  0.00     0.067 C 
ATOM      8  C   UNL A   1      32.428  23.685  26.501  1.00  0.00     0.052 A 
ATOM      9  N   UNL A   1      32.295  25.046  26.410  1.00  0.00    -0.233 NA
ATOM     10  C   UNL A   1      33.647  23.094  26.085  1.00  0.00     0.057 A 
ATOM     11  C   UNL A   1      33.322  25.790  25.969  1.00  0.00     0.162 A 
ATOM     12  C   UNL A   1      34.605  23.997  25.646  1.00  0.00     0.130 A 
ATOM     13  C   UNL A   1      34.181  21.748  25.967  1.00  0.00     0.069 A 
ATOM     14  N   UNL A   1      34.498  25.325  25.564  1.00  0.00    -0.217 NA
ATOM     15  S   UNL A   1      36.049  23.294  25.138  1.00  0.00    -0.106 S 
BRANCH  11  16
ATOM     16  C   UNL A   1      33.143  27.229  25.779  1.00  0.00     0.038 A 
ATOM     17  C   UNL A   1      33.565  28.099  26.810  1.00  0.00     0.013 A 
ATOM     18  C   UNL A   1      32.492  27.794  24.674  1.00  0.00     0.052 A 
ATOM     19  C   UNL A   1      33.340  29.474  26.750  1.00  0.00     0.001 A 
ATOM     20  C   UNL A   1      32.264  29.176  24.615  1.00  0.00     0.021 A 
ATOM     21  Cl  UNL A   1      31.869  26.839  23.372  1.00  0.00    -0.084 Cl
ATOM     22  C   UNL A   1      32.684  30.012  25.650  1.00  0.00     0.002 A 
ENDBRANCH  11  16
BRANCH  13  23
ATOM     23  N   UNL A   1      33.528  20.616  26.316  1.00  0.00    -0.397 N 
ATOM     24  H   UNL A   1      33.939  19.738  26.149  1.00  0.00     0.156 HD
ATOM     25  H   UNL A   1      32.640  20.671  26.739  1.00  0.00     0.156 HD
ENDBRANCH  13  23
ENDBRANCH   4   6
ENDBRANCH   3   4
ENDBRANCH   2   3
ENDBRANCH   1   2
BRANCH   1  26
ATOM     26  O   UNL A   1      40.901  19.243  25.800  1.00  0.00    -0.458 OA
BRANCH  26  27
ATOM     27  C   UNL A   1      42.195  19.568  25.589  1.00  0.00     0.338 C 
ATOM     28  O   UNL A   1      43.021  18.921  24.966  1.00  0.00    -0.246 OA
BRANCH  27  29
ATOM     29  C   UNL A   1      42.524  20.745  26.395  1.00  0.00     0.060 A 
ATOM     30  C   UNL A   1      42.109  20.741  27.727  1.00  0.00     0.016 A 
ATOM     31  C   UNL A   1      43.021  21.906  25.779  1.00  0.00     0.016 A 
ATOM     32  C   UNL A   1      42.047  21.944  28.395  1.00  0.00     0.010 A 
ATOM     33  C   UNL A   1      42.957  23.108  26.447  1.00  0.00     0.010 A 
ATOM     34  C   UNL A   1      42.410  23.124  27.724  1.00  0.00    -0.014 A 
BRANCH  34  35
ATOM     35  C   UNL A   1      42.386  24.357  28.482  1.00  0.00     0.031 A 
ATOM     36  C   UNL A   1      41.150  25.118  28.202  1.00  0.00     0.074 A 
ATOM     37  C   UNL A   1      43.337  24.726  29.364  1.00  0.00     0.049 A 
ATOM     38  N   UNL A   1      41.033  26.118  27.393  1.00  0.00    -0.248 NA
ATOM     39  C   UNL A   1      39.863  24.560  28.650  1.00  0.00     0.031 C 
ATOM     40  C   UNL A   1      44.411  23.889  29.908  1.00  0.00     0.029 A 
ATOM     41  N   UNL A   1      43.480  25.893  30.054  1.00  0.00    -0.354 N 
ATOM     42  C   UNL A   1      39.707  26.518  27.521  1.00  0.00     0.074 A 
ATOM     43  C   UNL A   1      39.001  25.386  28.050  1.00  0.00     0.031 C 
ATOM     44  C   UNL A   1      44.917  24.479  31.016  1.00  0.00     0.029 A 
ATOM     45  C   UNL A   1      44.321  25.796  31.161  1.00  0.00     0.049 A 
ATOM     46  H   UNL A   1      43.030  26.729  29.794  1.00  0.00     0.167 HD
ATOM     47  C   UNL A   1      39.421  27.848  27.573  1.00  0.00     0.034 A 
ATOM     48  C   UNL A   1      44.459  26.718  32.147  1.00  0.00     0.034 A 
ATOM     49  C   UNL A   1      40.556  28.621  27.130  1.00  0.00     0.049 A 
ATOM     50  C   UNL A   1      44.048  28.022  31.586  1.00  0.00     0.074 A 
ATOM     51  C   UNL A   1      41.172  28.948  25.945  1.00  0.00     0.029 A 
ATOM     52  N   UNL A   1      41.449  28.857  28.139  1.00  0.00    -0.354 N 
ATOM     53  N   UNL A   1      44.711  28.633  30.643  1.00  0.00    -0.248 NA
ATOM     54  C   UNL A   1      42.698  28.514  31.835  1.00  0.00     0.031 C 
ATOM     55  C   UNL A   1      42.508  29.323  26.280  1.00  0.00     0.029 A 
ATOM     56  C   UNL A   1      42.662  29.258  27.662  1.00  0.00     0.049 A 
ATOM     57  H   UNL A   1      41.242  28.750  29.095  1.00  0.00     0.167 HD
ATOM     58  C   UNL A   1      43.721  29.239  29.897  1.00  0.00     0.074 A 
ATOM     59  C   UNL A   1      42.551  29.300  30.766  1.00  0.00     0.031 C 
ATOM     60  C   UNL A   1      43.809  29.300  28.541  1.00  0.00     0.034 A 
BRANCH  47  61
ATOM     61  C   UNL A   1      38.410  28.493  28.511  1.00  0.00     0.023 A 
ATOM     62  C   UNL A   1      37.499  29.402  27.921  1.00  0.00     0.012 A 
ATOM     63  C   UNL A   1      38.488  28.509  29.923  1.00  0.00     0.148 A 
ATOM     64  C   UNL A   1      36.762  30.315  28.683  1.00  0.00     0.002 A 
ATOM     65  C   UNL A   1      37.704  29.373  30.683  1.00  0.00     0.091 A 
ATOM     66  F   UNL A   1      39.404  27.781  30.559  1.00  0.00    -0.205 F 
ATOM     67  C   UNL A   1      36.863  30.299  30.067  1.00  0.00     0.022 A 
BRANCH  65  68
ATOM     68  S   UNL A   1      37.769  29.377  32.481  1.00  0.00     0.127 S 
ATOM     69  O   UNL A   1      36.624  30.220  32.812  1.00  0.00    -0.237 OA
ATOM     70  O   UNL A   1      37.604  27.955  32.781  1.00  0.00    -0.237 OA
ATOM     71  O   UNL A   1      39.078  29.915  32.831  1.00  0.00    -0.744 OA
ENDBRANCH  65  68
ENDBRANCH  47  61
BRANCH  48  72
ATOM     72  C   UNL A   1      44.667  26.560  33.607  1.00  0.00     0.023 A 
ATOM     73  C   UNL A   1      45.839  27.084  34.198  1.00  0.00     0.012 A 
ATOM     74  C   UNL A   1      43.587  26.230  34.452  1.00  0.00     0.148 A 
ATOM     75  C   UNL A   1      45.904  27.343  35.572  1.00  0.00     0.002 A 
ATOM     76  C   UNL A   1      43.652  26.498  35.817  1.00  0.00     0.091 A 
ATOM     77  F   UNL A   1      42.466  25.745  33.903  1.00  0.00    -0.205 F 
ATOM     78  C   UNL A   1      44.802  27.071  36.378  1.00  0.00     0.022 A 
BRANCH  76  79
ATOM     79  S   UNL A   1      42.254  26.232  36.917  1.00  0.00     0.127 S 
ATOM     80  O   UNL A   1      42.852  26.489  38.228  1.00  0.00    -0.237 OA
ATOM     81  O   UNL A   1      41.316  27.254  36.463  1.00  0.00    -0.237 OA
ATOM     82  O   UNL A   1      41.837  24.853  36.706  1.00  0.00    -0.744 OA
ENDBRANCH  76  79
ENDBRANCH  48  72
BRANCH  60  83
ATOM     83  C   UNL A   1      45.164  29.275  27.914  1.00  0.00     0.023 A 
ATOM     84  C   UNL A   1      46.038  30.378  27.892  1.00  0.00     0.012 A 
ATOM     85  C   UNL A   1      45.612  28.027  27.454  1.00  0.00     0.148 A 
ATOM     86  C   UNL A   1      47.347  30.225  27.422  1.00  0.00     0.002 A 
ATOM     87  C   UNL A   1      46.925  27.867  27.045  1.00  0.00     0.091 A 
ATOM     88  F   UNL A   1      44.745  27.003  27.462  1.00  0.00    -0.205 F 
ATOM     89  C   UNL A   1      47.796  28.966  27.019  1.00  0.00     0.022 A 
BRANCH  87  90
ATOM     90  S   UNL A   1      47.582  26.245  26.656  1.00  0.00     0.127 S 
ATOM     91  O   UNL A   1      47.256  25.487  27.862  1.00  0.00    -0.237 OA
ATOM     92  O   UNL A   1      46.809  25.874  25.469  1.00  0.00    -0.237 OA
ATOM     93  O   UNL A   1      49.005  26.437  26.403  1.00  0.00    -0.744 OA
ENDBRANCH  87  90
ENDBRANCH  60  83
ENDBRANCH  34  35
ENDBRANCH  27  29
ENDBRANCH  26  27
ENDBRANCH   1  26
TORSDOF 16
ENDMDL
MODEL 2
REMARK VINA RESULT:     -11.9      2.976      6.963
REMARK SMILES Cc1nc(-c2ccccc2Cl)nc2sc(C(=O)OCCOC(=O)c3ccc(-c4c5nc(c(-c6cccc(S(=O)(=O)[O-])c6F)c6ccc([nH]6)c(-c6cccc(S(=O)(=O)[O-])c6F)c6nc(c(-c7cccc(S(=O)(=O)[O-])c7F)c7ccc4[nH]7)C=C6)C=C5)cc3)c(N)c12
REMARK SMILES IDX 20 1 19 2 18 3 16 4 17 5 15 6 1 7 2 8 3 9 89 10 4 11 13 12
REMARK SMILES IDX 87 13 12 14 14 15 5 16 6 17 10 18 7 19 9 20 11 21 8 22 88 23
REMARK SMILES IDX 21 26 22 27 23 28 24 29 25 30 86 31 26 32 85 33 27 34 28 35
REMARK SMILES IDX 29 36 79 37 30 38 84 39 78 40 80 41 31 42 83 43 77 44 76 45
REMARK SMILES IDX 32 47 64 48 44 49 63 50 45 51 48 52 62 53 81 54 46 55 47 56
REMARK SMILES IDX 61 58 82 59 49 60 33 61 34 62 42 63 35 64 37 65 43 66 36 67
REMARK SMILES IDX 38 68 39 69 40 70 41 71 65 72 66 73 74 74 67 75 69 76 75 77
REMARK SMILES IDX 68 78 70 79 71 80 72 81 73 82 50 83 51 84 59 85 52 86 54 87
REMARK SMILES IDX 60 88 53 89 55 90 56 91 57 92 58 93
REMARK H PARENT 88 24 88 25 80 46 48 57
REMARK Flexibility Score: inf
ROOT
ATOM      1  C   UNL A   1      37.263  21.507  24.609  1.00  0.00     0.275 C 
ENDROOT
BRANCH   1   2
ATOM      2  C   UNL A   1      36.294  20.494  25.197  1.00  0.00     0.275 C 
BRANCH   2   3
ATOM      3  O   UNL A   1      35.092  21.128  25.658  1.00  0.00    -0.458 OA
BRANCH   3   4
ATOM      4  C   UNL A   1      34.153  21.489  24.724  1.00  0.00     0.350 C 
ATOM      5  O   UNL A   1      33.534  20.698  24.034  1.00  0.00    -0.245 OA
BRANCH   4   6
ATOM      6  C   UNL A   1      33.992  22.938  24.702  1.00  0.00     0.138 A 
ATOM      7  C   UNL A   1      33.277  26.642  21.873  1.00  0.00     0.067 C 
ATOM      8  C   UNL A   1      33.512  26.422  23.336  1.00  0.00     0.052 A 
ATOM      9  N   UNL A   1      33.558  27.575  24.076  1.00  0.00    -0.233 NA
ATOM     10  C   UNL A   1      33.686  25.182  24.002  1.00  0.00     0.057 A 
ATOM     11  C   UNL A   1      33.727  27.510  25.405  1.00  0.00     0.162 A 
ATOM     12  C   UNL A   1      33.859  25.285  25.374  1.00  0.00     0.130 A 
ATOM     13  C   UNL A   1      33.755  23.782  23.623  1.00  0.00     0.069 A 
ATOM     14  N   UNL A   1      33.893  26.397  26.112  1.00  0.00    -0.217 NA
ATOM     15  S   UNL A   1      34.080  23.814  26.164  1.00  0.00    -0.106 S 
BRANCH  11  16
ATOM     16  C   UNL A   1      33.877  28.744  26.177  1.00  0.00     0.038 A 
ATOM     17  C   UNL A   1      35.042  28.907  26.960  1.00  0.00     0.013 A 
ATOM     18  C   UNL A   1      32.891  29.736  26.259  1.00  0.00     0.052 A 
ATOM     19  C   UNL A   1      35.215  30.007  27.800  1.00  0.00     0.001 A 
ATOM     20  C   UNL A   1      33.064  30.841  27.105  1.00  0.00     0.021 A 
ATOM     21  Cl  UNL A   1      31.391  29.631  25.402  1.00  0.00    -0.084 Cl
ATOM     22  C   UNL A   1      34.221  30.973  27.875  1.00  0.00     0.002 A 
ENDBRANCH  11  16
BRANCH  13  23
ATOM     23  N   UNL A   1      33.615  23.307  22.364  1.00  0.00    -0.397 N 
ATOM     24  H   UNL A   1      33.485  22.343  22.214  1.00  0.00     0.156 HD
ATOM     25  H   UNL A   1      33.641  23.925  21.598  1.00  0.00     0.156 HD
ENDBRANCH  13  23
ENDBRANCH   4   6
ENDBRANCH   3   4
ENDBRANCH   2   3
ENDBRANCH   1   2
BRANCH   1  26
ATOM     26  O   UNL A   1      37.684  22.441  25.599  1.00  0.00    -0.458 OA
BRANCH  26  27
ATOM     27  C   UNL A   1      38.924  22.238  26.093  1.00  0.00     0.338 C 
ATOM     28  O   UNL A   1      39.586  21.216  26.016  1.00  0.00    -0.246 OA
BRANCH  27  29
ATOM     29  C   UNL A   1      39.296  23.386  26.922  1.00  0.00     0.060 A 
ATOM     30  C   UNL A   1      38.466  24.506  26.869  1.00  0.00     0.016 A 
ATOM     31  C   UNL A   1      40.555  23.428  27.545  1.00  0.00     0.016 A 
ATOM     32  C   UNL A   1      38.967  25.712  27.307  1.00  0.00     0.010 A 
ATOM     33  C   UNL A   1      41.055  24.634  27.981  1.00  0.00     0.010 A 
ATOM     34  C   UNL A   1      40.282  25.773  27.799  1.00  0.00    -0.014 A 
BRANCH  34  35
ATOM     35  C   UNL A   1      40.747  27.049  28.302  1.00  0.00     0.031 A 
ATOM     36  C   UNL A   1      42.081  27.372  27.754  1.00  0.00     0.074 A 
ATOM     37  C   UNL A   1      40.031  27.851  29.115  1.00  0.00     0.049 A 
ATOM     38  N   UNL A   1      43.214  27.211  28.351  1.00  0.00    -0.248 NA
ATOM     39  C   UNL A   1      42.201  27.649  26.313  1.00  0.00     0.031 C 
ATOM     40  C   UNL A   1      38.606  27.735  29.440  1.00  0.00     0.029 A 
ATOM     41  N   UNL A   1      40.392  29.012  29.733  1.00  0.00    -0.354 N 
ATOM     42  C   UNL A   1      44.156  27.710  27.457  1.00  0.00     0.074 A 
ATOM     43  C   UNL A   1      43.529  27.682  26.166  1.00  0.00     0.031 C 
ATOM     44  C   UNL A   1      38.173  28.906  29.965  1.00  0.00     0.029 A 
ATOM     45  C   UNL A   1      39.314  29.784  30.161  1.00  0.00     0.049 A 
ATOM     46  H   UNL A   1      41.329  29.280  29.866  1.00  0.00     0.167 HD
ATOM     47  C   UNL A   1      45.179  28.471  27.932  1.00  0.00     0.034 A 
ATOM     48  C   UNL A   1      39.368  31.071  30.588  1.00  0.00     0.034 A 
ATOM     49  C   UNL A   1      45.285  28.329  29.363  1.00  0.00     0.049 A 
ATOM     50  C   UNL A   1      40.746  31.316  31.062  1.00  0.00     0.074 A 
ATOM     51  C   UNL A   1      45.746  27.403  30.270  1.00  0.00     0.029 A 
ATOM     52  N   UNL A   1      44.449  29.180  30.033  1.00  0.00    -0.354 N 
ATOM     53  N   UNL A   1      41.252  30.734  32.113  1.00  0.00    -0.248 NA
ATOM     54  C   UNL A   1      41.702  31.968  30.174  1.00  0.00     0.031 C 
ATOM     55  C   UNL A   1      45.090  27.691  31.504  1.00  0.00     0.029 A 
ATOM     56  C   UNL A   1      44.279  28.809  31.335  1.00  0.00     0.049 A 
ATOM     57  H   UNL A   1      44.020  29.967  29.625  1.00  0.00     0.167 HD
ATOM     58  C   UNL A   1      42.576  30.548  31.770  1.00  0.00     0.074 A 
ATOM     59  C   UNL A   1      42.837  31.481  30.680  1.00  0.00     0.031 C 
ATOM     60  C   UNL A   1      43.237  29.416  32.131  1.00  0.00     0.034 A 
BRANCH  47  61
ATOM     61  C   UNL A   1      45.709  29.738  27.275  1.00  0.00     0.023 A 
ATOM     62  C   UNL A   1      47.108  29.946  27.354  1.00  0.00     0.012 A 
ATOM     63  C   UNL A   1      44.930  30.849  26.876  1.00  0.00     0.148 A 
ATOM     64  C   UNL A   1      47.686  31.198  27.115  1.00  0.00     0.002 A 
ATOM     65  C   UNL A   1      45.516  32.075  26.575  1.00  0.00     0.091 A 
ATOM     66  F   UNL A   1      43.600  30.785  26.895  1.00  0.00    -0.205 F 
ATOM     67  C   UNL A   1      46.890  32.264  26.723  1.00  0.00     0.022 A 
BRANCH  65  68
ATOM     68  S   UNL A   1      44.538  33.485  26.032  1.00  0.00     0.127 S 
ATOM     69  O   UNL A   1      43.759  33.778  27.232  1.00  0.00    -0.237 OA
ATOM     70  O   UNL A   1      45.583  34.458  25.714  1.00  0.00    -0.237 OA
ATOM     71  O   UNL A   1      43.779  33.023  24.877  1.00  0.00    -0.744 OA
ENDBRANCH  65  68
ENDBRANCH  47  61
BRANCH  48  72
ATOM     72  C   UNL A   1      38.426  32.201  30.396  1.00  0.00     0.023 A 
ATOM     73  C   UNL A   1      37.953  32.492  29.097  1.00  0.00     0.012 A 
ATOM     74  C   UNL A   1      37.729  32.746  31.495  1.00  0.00     0.148 A 
ATOM     75  C   UNL A   1      36.782  33.234  28.901  1.00  0.00     0.002 A 
ATOM     76  C   UNL A   1      36.559  33.476  31.296  1.00  0.00     0.091 A 
ATOM     77  F   UNL A   1      38.159  32.466  32.732  1.00  0.00    -0.205 F 
ATOM     78  C   UNL A   1      36.074  33.707  30.001  1.00  0.00     0.022 A 
BRANCH  76  79
ATOM     79  S   UNL A   1      35.553  34.070  32.663  1.00  0.00     0.127 S 
ATOM     80  O   UNL A   1      35.240  32.827  33.367  1.00  0.00    -0.237 OA
ATOM     81  O   UNL A   1      36.485  34.951  33.361  1.00  0.00    -0.237 OA
ATOM     82  O   UNL A   1      34.401  34.724  32.055  1.00  0.00    -0.744 OA
ENDBRANCH  76  79
ENDBRANCH  48  72
BRANCH  60  83
ATOM     83  C   UNL A   1      42.777  28.680  33.347  1.00  0.00     0.023 A 
ATOM     84  C   UNL A   1      41.789  27.677  33.328  1.00  0.00     0.012 A 
ATOM     85  C   UNL A   1      43.487  28.931  34.531  1.00  0.00     0.148 A 
ATOM     86  C   UNL A   1      41.528  26.931  34.483  1.00  0.00     0.002 A 
ATOM     87  C   UNL A   1      43.265  28.152  35.653  1.00  0.00     0.091 A 
ATOM     88  F   UNL A   1      44.401  29.914  34.522  1.00  0.00    -0.205 F 
ATOM     89  C   UNL A   1      42.279  27.155  35.638  1.00  0.00     0.022 A 
BRANCH  87  90
ATOM     90  S   UNL A   1      44.302  28.308  37.107  1.00  0.00     0.127 S 
ATOM     91  O   UNL A   1      43.977  29.655  37.572  1.00  0.00    -0.237 OA
ATOM     92  O   UNL A   1      43.805  27.226  37.959  1.00  0.00    -0.237 OA
ATOM     93  O   UNL A   1      45.673  28.119  36.646  1.00  0.00    -0.744 OA
ENDBRANCH  87  90
ENDBRANCH  60  83
ENDBRANCH  34  35
ENDBRANCH  27  29
ENDBRANCH  26  27
ENDBRANCH   1  26
TORSDOF 16
ENDMDL
MODEL 3
REMARK VINA RESULT:     -11.9      4.100      9.526
REMARK SMILES Cc1nc(-c2ccccc2Cl)nc2sc(C(=O)OCCOC(=O)c3ccc(-c4c5nc(c(-c6cccc(S(=O)(=O)[O-])c6F)c6ccc([nH]6)c(-c6cccc(S(=O)(=O)[O-])c6F)c6nc(c(-c7cccc(S(=O)(=O)[O-])c7F)c7ccc4[nH]7)C=C6)C=C5)cc3)c(N)c12
REMARK SMILES IDX 20 1 19 2 18 3 16 4 17 5 15 6 1 7 2 8 3 9 89 10 4 11 13 12
REMARK SMILES IDX 87 13 12 14 14 15 5 16 6 17 10 18 7 19 9 20 11 21 8 22 88 23
REMARK SMILES IDX 21 26 22 27 23 28 24 29 25 30 86 31 26 32 85 33 27 34 28 35
REMARK SMILES IDX 29 36 79 37 30 38 84 39 78 40 80 41 31 42 83 43 77 44 76 45
REMARK SMILES IDX 32 47 64 48 44 49 63 50 45 51 48 52 62 53 81 54 46 55 47 56
REMARK SMILES IDX 61 58 82 59 49 60 33 61 34 62 42 63 35 64 37 65 43 66 36 67
REMARK SMILES IDX 38 68 39 69 40 70 41 71 65 72 66 73 74 74 67 75 69 76 75 77
REMARK SMILES IDX 68 78 70 79 71 80 72 81 73 82 50 83 51 84 59 85 52 86 54 87
REMARK SMILES IDX 60 88 53 89 55 90 56 91 57 92 58 93
REMARK H PARENT 88 24 88 25 80 46 48 57
REMARK Flexibility Score: inf
ROOT
ATOM      1  C   UNL A   1      32.875  32.161  27.659  1.00  0.00     0.275 C 
ENDROOT
BRANCH   1   2
ATOM      2  C   UNL A   1      31.823  31.452  26.821  1.00  0.00     0.275 C 
BRANCH   2   3
ATOM      3  O   UNL A   1      32.390  30.357  26.088  1.00  0.00    -0.458 OA
BRANCH   3   4
ATOM      4  C   UNL A   1      31.649  29.805  25.073  1.00  0.00     0.350 C 
ATOM      5  O   UNL A   1      30.628  30.298  24.625  1.00  0.00    -0.245 OA
BRANCH   4   6
ATOM      6  C   UNL A   1      32.273  28.575  24.602  1.00  0.00     0.138 A 
ATOM      7  C   UNL A   1      32.703  25.715  20.877  1.00  0.00     0.067 C 
ATOM      8  C   UNL A   1      33.182  25.729  22.297  1.00  0.00     0.052 A 
ATOM      9  N   UNL A   1      33.924  24.632  22.649  1.00  0.00    -0.233 NA
ATOM     10  C   UNL A   1      32.947  26.730  23.273  1.00  0.00     0.057 A 
ATOM     11  C   UNL A   1      34.441  24.543  23.885  1.00  0.00     0.162 A 
ATOM     12  C   UNL A   1      33.541  26.486  24.502  1.00  0.00     0.130 A 
ATOM     13  C   UNL A   1      32.209  27.979  23.347  1.00  0.00     0.069 A 
ATOM     14  N   UNL A   1      34.278  25.431  24.859  1.00  0.00    -0.217 NA
ATOM     15  S   UNL A   1      33.252  27.669  25.667  1.00  0.00    -0.106 S 
BRANCH  11  16
ATOM     16  C   UNL A   1      35.146  23.327  24.287  1.00  0.00     0.038 A 
ATOM     17  C   UNL A   1      36.559  23.322  24.231  1.00  0.00     0.013 A 
ATOM     18  C   UNL A   1      34.502  22.133  24.638  1.00  0.00     0.052 A 
ATOM     19  C   UNL A   1      37.300  22.173  24.503  1.00  0.00     0.001 A 
ATOM     20  C   UNL A   1      35.249  20.977  24.909  1.00  0.00     0.021 A 
ATOM     21  Cl  UNL A   1      32.779  21.983  24.684  1.00  0.00    -0.084 Cl
ATOM     22  C   UNL A   1      36.643  20.996  24.838  1.00  0.00     0.002 A 
ENDBRANCH  11  16
BRANCH  13  23
ATOM     23  N   UNL A   1      31.516  28.537  22.328  1.00  0.00    -0.397 N 
ATOM     24  H   UNL A   1      30.867  29.254  22.509  1.00  0.00     0.156 HD
ATOM     25  H   UNL A   1      31.662  28.227  21.405  1.00  0.00     0.156 HD
ENDBRANCH  13  23
ENDBRANCH   4   6
ENDBRANCH   3   4
ENDBRANCH   2   3
ENDBRANCH   1   2
BRANCH   1  26
ATOM     26  O   UNL A   1      32.664  33.569  27.655  1.00  0.00    -0.458 OA
BRANCH  26  27
ATOM     27  C   UNL A   1      32.998  34.206  28.798  1.00  0.00     0.338 C 
ATOM     28  O   UNL A   1      32.323  35.015  29.411  1.00  0.00    -0.246 OA
BRANCH  27  29
ATOM     29  C   UNL A   1      34.403  33.923  29.103  1.00  0.00     0.060 A 
ATOM     30  C   UNL A   1      35.323  34.078  28.066  1.00  0.00     0.016 A 
ATOM     31  C   UNL A   1      34.750  33.299  30.313  1.00  0.00     0.016 A 
ATOM     32  C   UNL A   1      36.551  33.467  28.186  1.00  0.00     0.010 A 
ATOM     33  C   UNL A   1      35.977  32.686  30.431  1.00  0.00     0.010 A 
ATOM     34  C   UNL A   1      36.839  32.722  29.342  1.00  0.00    -0.014 A 
BRANCH  34  35
ATOM     35  C   UNL A   1      38.163  32.145  29.452  1.00  0.00     0.031 A 
ATOM     36  C   UNL A   1      38.156  30.734  29.014  1.00  0.00     0.074 A 
ATOM     37  C   UNL A   1      39.258  32.826  29.846  1.00  0.00     0.049 A 
ATOM     38  N   UNL A   1      38.111  29.695  29.779  1.00  0.00    -0.248 NA
ATOM     39  C   UNL A   1      37.906  30.439  27.593  1.00  0.00     0.031 C 
ATOM     40  C   UNL A   1      39.390  34.279  29.994  1.00  0.00     0.029 A 
ATOM     41  N   UNL A   1      40.523  32.379  30.086  1.00  0.00    -0.354 N 
ATOM     42  C   UNL A   1      38.183  28.614  28.906  1.00  0.00     0.074 A 
ATOM     43  C   UNL A   1      37.767  29.111  27.626  1.00  0.00     0.031 C 
ATOM     44  C   UNL A   1      40.704  34.604  30.036  1.00  0.00     0.029 A 
ATOM     45  C   UNL A   1      41.489  33.383  30.083  1.00  0.00     0.049 A 
ATOM     46  H   UNL A   1      40.735  31.431  30.249  1.00  0.00     0.167 HD
ATOM     47  C   UNL A   1      38.966  27.551  29.236  1.00  0.00     0.034 A 
ATOM     48  C   UNL A   1      42.834  33.203  30.060  1.00  0.00     0.034 A 
ATOM     49  C   UNL A   1      39.319  27.604  30.634  1.00  0.00     0.049 A 
ATOM     50  C   UNL A   1      43.103  31.858  30.608  1.00  0.00     0.074 A 
ATOM     51  C   UNL A   1      38.726  27.358  31.850  1.00  0.00     0.029 A 
ATOM     52  N   UNL A   1      40.421  28.383  30.862  1.00  0.00    -0.354 N 
ATOM     53  N   UNL A   1      42.878  31.536  31.852  1.00  0.00    -0.248 NA
ATOM     54  C   UNL A   1      43.320  30.743  29.693  1.00  0.00     0.031 C 
ATOM     55  C   UNL A   1      39.481  28.088  32.817  1.00  0.00     0.029 A 
ATOM     56  C   UNL A   1      40.540  28.725  32.177  1.00  0.00     0.049 A 
ATOM     57  H   UNL A   1      41.053  28.663  30.161  1.00  0.00     0.167 HD
ATOM     58  C   UNL A   1      42.467  30.221  31.773  1.00  0.00     0.074 A 
ATOM     59  C   UNL A   1      42.938  29.735  30.482  1.00  0.00     0.031 C 
ATOM     60  C   UNL A   1      41.475  29.752  32.577  1.00  0.00     0.034 A 
BRANCH  47  61
ATOM     61  C   UNL A   1      39.876  26.799  28.274  1.00  0.00     0.023 A 
ATOM     62  C   UNL A   1      39.952  25.396  28.452  1.00  0.00     0.012 A 
ATOM     63  C   UNL A   1      40.861  27.381  27.443  1.00  0.00     0.148 A 
ATOM     64  C   UNL A   1      40.982  24.632  27.893  1.00  0.00     0.002 A 
ATOM     65  C   UNL A   1      41.846  26.608  26.835  1.00  0.00     0.091 A 
ATOM     66  F   UNL A   1      40.945  28.704  27.318  1.00  0.00    -0.205 F 
ATOM     67  C   UNL A   1      41.930  25.238  27.081  1.00  0.00     0.022 A 
BRANCH  65  68
ATOM     68  S   UNL A   1      43.083  27.333  25.748  1.00  0.00     0.127 S 
ATOM     69  O   UNL A   1      42.247  28.068  24.804  1.00  0.00    -0.237 OA
ATOM     70  O   UNL A   1      43.842  28.162  26.685  1.00  0.00    -0.237 OA
ATOM     71  O   UNL A   1      43.835  26.213  25.195  1.00  0.00    -0.744 OA
ENDBRANCH  65  68
ENDBRANCH  47  61
BRANCH  48  72
ATOM     72  C   UNL A   1      43.908  33.966  29.378  1.00  0.00     0.023 A 
ATOM     73  C   UNL A   1      44.813  34.725  30.153  1.00  0.00     0.012 A 
ATOM     74  C   UNL A   1      44.259  33.672  28.044  1.00  0.00     0.148 A 
ATOM     75  C   UNL A   1      46.059  35.110  29.642  1.00  0.00     0.002 A 
ATOM     76  C   UNL A   1      45.503  34.048  27.543  1.00  0.00     0.091 A 
ATOM     77  F   UNL A   1      43.414  32.942  27.303  1.00  0.00    -0.205 F 
ATOM     78  C   UNL A   1      46.412  34.752  28.345  1.00  0.00     0.022 A 
BRANCH  76  79
ATOM     79  S   UNL A   1      46.061  33.575  25.900  1.00  0.00     0.127 S 
ATOM     80  O   UNL A   1      47.407  34.147  25.864  1.00  0.00    -0.237 OA
ATOM     81  O   UNL A   1      46.018  32.117  25.976  1.00  0.00    -0.237 OA
ATOM     82  O   UNL A   1      45.122  34.186  24.968  1.00  0.00    -0.744 OA
ENDBRANCH  76  79
ENDBRANCH  48  72
BRANCH  60  83
ATOM     83  C   UNL A   1      41.249  30.420  33.893  1.00  0.00     0.023 A 
ATOM     84  C   UNL A   1      42.081  30.244  35.015  1.00  0.00     0.012 A 
ATOM     85  C   UNL A   1      40.222  31.377  33.936  1.00  0.00     0.148 A 
ATOM     86  C   UNL A   1      41.889  31.025  36.159  1.00  0.00     0.002 A 
ATOM     87  C   UNL A   1      40.072  32.186  35.049  1.00  0.00     0.091 A 
ATOM     88  F   UNL A   1      39.429  31.499  32.860  1.00  0.00    -0.205 F 
ATOM     89  C   UNL A   1      40.898  32.009  36.168  1.00  0.00     0.022 A 
BRANCH  87  90
ATOM     90  S   UNL A   1      38.912  33.553  35.048  1.00  0.00     0.127 S 
ATOM     91  O   UNL A   1      39.419  34.384  36.139  1.00  0.00    -0.237 OA
ATOM     92  O   UNL A   1      39.097  34.115  33.710  1.00  0.00    -0.237 OA
ATOM     93  O   UNL A   1      37.596  32.965  35.269  1.00  0.00    -0.744 OA
ENDBRANCH  87  90
ENDBRANCH  60  83
ENDBRANCH  34  35
ENDBRANCH  27  29
ENDBRANCH  26  27
ENDBRANCH   1  26
TORSDOF 16
ENDMDL
