MODEL 1
REMARK VINA RESULT:     -13.0      0.000      0.000
REMARK SMILES O=C(OCCOC(=O)c1ccc(-n2cc(CSc3nc4ccccc4c(=O)n3-c3ccc(Cl)cc3)nn2)cc1)c1ccc(-c2c3nc(c(-c4cccc(S(=O)(=O)[O-])c4F)c4ccc([nH]4)c(-c4cccc(S(=O)(=O)[O-])c4F)c4nc(c(-c5cccc(S(=O)(=O)[O-])c5F)c5ccc2[nH]5)C=C4)C=C3)cc1
REMARK SMILES IDX 5 1 4 2 3 3 2 4 1 5 40 6 41 7 102 8 42 9 101 10 43 11 44 12
REMARK SMILES IDX 45 13 95 14 46 15 100 16 94 17 96 18 47 19 99 20 93 21 92 22
REMARK SMILES IDX 48 24 80 25 60 26 79 27 61 28 64 29 78 30 97 31 62 32 63 33
REMARK SMILES IDX 77 35 98 36 65 37 49 38 50 39 58 40 51 41 53 42 59 43 52 44
REMARK SMILES IDX 54 45 55 46 56 47 57 48 81 49 82 50 90 51 83 52 85 53 91 54
REMARK SMILES IDX 84 55 86 56 87 57 88 58 89 59 66 60 67 61 75 62 68 63 70 64
REMARK SMILES IDX 76 65 69 66 71 67 72 68 73 69 74 70 6 71 7 72 8 73 9 74
REMARK SMILES IDX 10 75 39 76 11 77 38 78 12 79 13 80 14 81 37 82 15 83 36 84
REMARK SMILES IDX 16 85 17 86 18 87 19 88 28 89 20 90 26 91 21 92 25 93 27 94
REMARK SMILES IDX 22 95 24 96 23 97 29 98 30 99 35 100 31 101 34 102 32 103
REMARK SMILES IDX 33 104
REMARK H PARENT 96 23 64 34
REMARK Flexibility Score: inf
ROOT
ATOM      1  C   UNL A   1      34.726  33.127  29.263  1.00  0.00     0.275 C 
ENDROOT
BRANCH   1   2
ATOM      2  C   UNL A   1      34.728  32.460  30.638  1.00  0.00     0.275 C 
BRANCH   2   3
ATOM      3  O   UNL A   1      35.909  31.723  31.015  1.00  0.00    -0.458 OA
BRANCH   3   4
ATOM      4  C   UNL A   1      37.110  32.340  30.976  1.00  0.00     0.338 C 
ATOM      5  O   UNL A   1      37.261  33.539  31.163  1.00  0.00    -0.246 OA
BRANCH   4   6
ATOM      6  C   UNL A   1      38.238  31.381  30.920  1.00  0.00     0.060 A 
ATOM      7  C   UNL A   1      38.046  29.995  30.949  1.00  0.00     0.016 A 
ATOM      8  C   UNL A   1      39.532  31.911  30.833  1.00  0.00     0.016 A 
ATOM      9  C   UNL A   1      39.139  29.148  30.984  1.00  0.00     0.010 A 
ATOM     10  C   UNL A   1      40.626  31.063  30.835  1.00  0.00     0.010 A 
ATOM     11  C   UNL A   1      40.425  29.691  30.975  1.00  0.00    -0.014 A 
BRANCH  11  12
ATOM     12  C   UNL A   1      41.555  28.778  31.049  1.00  0.00     0.031 A 
ATOM     13  C   UNL A   1      42.096  28.573  32.419  1.00  0.00     0.074 A 
ATOM     14  C   UNL A   1      41.979  28.087  29.972  1.00  0.00     0.049 A 
ATOM     15  N   UNL A   1      43.246  28.935  32.887  1.00  0.00    -0.248 NA
ATOM     16  C   UNL A   1      41.179  28.047  33.438  1.00  0.00     0.031 C 
ATOM     17  C   UNL A   1      41.334  28.013  28.655  1.00  0.00     0.029 A 
ATOM     18  N   UNL A   1      42.986  27.176  29.869  1.00  0.00    -0.354 N 
ATOM     19  C   UNL A   1      43.289  28.434  34.191  1.00  0.00     0.074 A 
ATOM     20  C   UNL A   1      41.931  28.124  34.535  1.00  0.00     0.031 C 
ATOM     21  C   UNL A   1      41.786  26.921  28.003  1.00  0.00     0.029 A 
ATOM     22  C   UNL A   1      42.846  26.311  28.785  1.00  0.00     0.049 A 
ATOM     23  H   UNL A   1      43.741  27.133  30.499  1.00  0.00     0.167 HD
ATOM     24  C   UNL A   1      44.467  28.038  34.753  1.00  0.00     0.034 A 
ATOM     25  C   UNL A   1      43.492  25.134  28.596  1.00  0.00     0.034 A 
ATOM     26  C   UNL A   1      45.590  28.577  34.017  1.00  0.00     0.049 A 
ATOM     27  C   UNL A   1      44.701  25.154  29.450  1.00  0.00     0.074 A 
ATOM     28  C   UNL A   1      46.029  29.836  33.659  1.00  0.00     0.029 A 
ATOM     29  N   UNL A   1      46.264  27.699  33.203  1.00  0.00    -0.354 N 
ATOM     30  N   UNL A   1      45.703  25.964  29.256  1.00  0.00    -0.248 NA
ATOM     31  C   UNL A   1      44.605  24.579  30.780  1.00  0.00     0.031 C 
ATOM     32  C   UNL A   1      46.578  29.677  32.352  1.00  0.00     0.029 A 
ATOM     33  C   UNL A   1      46.507  28.324  32.014  1.00  0.00     0.049 A 
ATOM     34  H   UNL A   1      46.527  26.781  33.437  1.00  0.00     0.167 HD
ATOM     35  C   UNL A   1      46.060  26.371  30.534  1.00  0.00     0.074 A 
ATOM     36  C   UNL A   1      45.436  25.398  31.429  1.00  0.00     0.031 C 
ATOM     37  C   UNL A   1      46.569  27.620  30.753  1.00  0.00     0.034 A 
BRANCH  24  38
ATOM     38  C   UNL A   1      44.648  26.806  35.641  1.00  0.00     0.023 A 
ATOM     39  C   UNL A   1      45.265  27.032  36.897  1.00  0.00     0.012 A 
ATOM     40  C   UNL A   1      44.571  25.458  35.214  1.00  0.00     0.148 A 
ATOM     41  C   UNL A   1      45.916  26.013  37.599  1.00  0.00     0.002 A 
ATOM     42  C   UNL A   1      45.171  24.436  35.946  1.00  0.00     0.091 A 
ATOM     43  F   UNL A   1      44.002  25.142  34.055  1.00  0.00    -0.205 F 
ATOM     44  C   UNL A   1      45.885  24.716  37.112  1.00  0.00     0.022 A 
BRANCH  42  45
ATOM     45  S   UNL A   1      45.138  22.718  35.406  1.00  0.00     0.127 S 
ATOM     46  O   UNL A   1      46.164  22.725  34.365  1.00  0.00    -0.237 OA
ATOM     47  O   UNL A   1      45.510  22.018  36.636  1.00  0.00    -0.237 OA
ATOM     48  O   UNL A   1      43.779  22.458  34.959  1.00  0.00    -0.744 OA
ENDBRANCH  42  45
ENDBRANCH  24  38
BRANCH  25  49
ATOM     49  C   UNL A   1      43.014  23.889  27.950  1.00  0.00     0.023 A 
ATOM     50  C   UNL A   1      41.649  23.545  28.022  1.00  0.00     0.012 A 
ATOM     51  C   UNL A   1      43.828  23.187  27.031  1.00  0.00     0.148 A 
ATOM     52  C   UNL A   1      41.107  22.559  27.187  1.00  0.00     0.002 A 
ATOM     53  C   UNL A   1      43.288  22.201  26.212  1.00  0.00     0.091 A 
ATOM     54  F   UNL A   1      45.110  23.548  26.897  1.00  0.00    -0.205 F 
ATOM     55  C   UNL A   1      41.923  21.894  26.277  1.00  0.00     0.022 A 
BRANCH  53  56
ATOM     56  S   UNL A   1      44.276  21.310  25.003  1.00  0.00     0.127 S 
ATOM     57  O   UNL A   1      44.229  22.209  23.849  1.00  0.00    -0.237 OA
ATOM     58  O   UNL A   1      45.575  21.235  25.666  1.00  0.00    -0.237 OA
ATOM     59  O   UNL A   1      43.598  20.036  24.795  1.00  0.00    -0.744 OA
ENDBRANCH  53  56
ENDBRANCH  25  49
BRANCH  37  60
ATOM     60  C   UNL A   1      47.005  28.433  29.565  1.00  0.00     0.023 A 
ATOM     61  C   UNL A   1      48.260  28.263  28.946  1.00  0.00     0.012 A 
ATOM     62  C   UNL A   1      46.050  29.262  28.953  1.00  0.00     0.148 A 
ATOM     63  C   UNL A   1      48.562  28.925  27.753  1.00  0.00     0.002 A 
ATOM     64  C   UNL A   1      46.336  29.879  27.745  1.00  0.00     0.091 A 
ATOM     65  F   UNL A   1      44.859  29.408  29.556  1.00  0.00    -0.205 F 
ATOM     66  C   UNL A   1      47.595  29.722  27.144  1.00  0.00     0.022 A 
BRANCH  64  67
ATOM     67  S   UNL A   1      45.086  30.808  26.854  1.00  0.00     0.127 S 
ATOM     68  O   UNL A   1      44.710  31.828  27.830  1.00  0.00    -0.237 OA
ATOM     69  O   UNL A   1      45.833  31.312  25.699  1.00  0.00    -0.237 OA
ATOM     70  O   UNL A   1      44.042  29.850  26.512  1.00  0.00    -0.744 OA
ENDBRANCH  64  67
ENDBRANCH  37  60
ENDBRANCH  11  12
ENDBRANCH   4   6
ENDBRANCH   3   4
ENDBRANCH   2   3
ENDBRANCH   1   2
BRANCH   1  71
ATOM     71  O   UNL A   1      34.126  32.264  28.284  1.00  0.00    -0.458 OA
BRANCH  71  72
ATOM     72  C   UNL A   1      34.944  31.330  27.744  1.00  0.00     0.338 C 
ATOM     73  O   UNL A   1      36.167  31.361  27.660  1.00  0.00    -0.246 OA
BRANCH  72  74
ATOM     74  C   UNL A   1      34.115  30.211  27.283  1.00  0.00     0.060 A 
ATOM     75  C   UNL A   1      34.737  29.025  26.878  1.00  0.00     0.018 A 
ATOM     76  C   UNL A   1      32.724  30.351  27.230  1.00  0.00     0.018 A 
ATOM     77  C   UNL A   1      33.962  27.939  26.480  1.00  0.00     0.029 A 
ATOM     78  C   UNL A   1      31.946  29.285  26.774  1.00  0.00     0.029 A 
ATOM     79  C   UNL A   1      32.575  28.079  26.435  1.00  0.00     0.066 A 
BRANCH  79  80
ATOM     80  N   UNL A   1      31.843  27.072  25.798  1.00  0.00    -0.220 N 
ATOM     81  C   UNL A   1      31.788  25.772  26.208  1.00  0.00     0.141 A 
ATOM     82  N   UNL A   1      31.063  27.257  24.734  1.00  0.00    -0.062 NA
ATOM     83  C   UNL A   1      30.909  25.145  25.362  1.00  0.00     0.093 A 
ATOM     84  N   UNL A   1      30.503  26.086  24.440  1.00  0.00    -0.134 NA
BRANCH  83  85
ATOM     85  C   UNL A   1      30.614  23.706  25.129  1.00  0.00     0.138 C 
BRANCH  85  86
ATOM     86  S   UNL A   1      31.216  22.320  26.102  1.00  0.00    -0.081 SA
BRANCH  86  87
ATOM     87  C   UNL A   1      32.296  21.250  25.262  1.00  0.00     0.176 A 
ATOM     88  N   UNL A   1      31.895  20.010  25.274  1.00  0.00    -0.223 NA
ATOM     89  N   UNL A   1      33.450  21.614  24.589  1.00  0.00    -0.255 N 
ATOM     90  C   UNL A   1      32.751  19.027  24.763  1.00  0.00     0.079 A 
ATOM     91  C   UNL A   1      34.499  20.697  24.736  1.00  0.00     0.266 A 
ATOM     92  C   UNL A   1      32.291  17.751  24.443  1.00  0.00     0.029 A 
ATOM     93  C   UNL A   1      34.111  19.282  24.674  1.00  0.00     0.066 A 
ATOM     94  O   UNL A   1      35.688  20.975  24.882  1.00  0.00    -0.268 OA
ATOM     95  C   UNL A   1      33.199  16.736  24.113  1.00  0.00     0.002 A 
ATOM     96  C   UNL A   1      35.038  18.268  24.414  1.00  0.00     0.016 A 
ATOM     97  C   UNL A   1      34.573  16.984  24.142  1.00  0.00     0.001 A 
BRANCH  89  98
ATOM     98  C   UNL A   1      33.686  22.820  23.818  1.00  0.00     0.051 A 
ATOM     99  C   UNL A   1      34.400  23.892  24.402  1.00  0.00     0.028 A 
ATOM    100  C   UNL A   1      33.193  23.048  22.528  1.00  0.00     0.028 A 
ATOM    101  C   UNL A   1      34.381  25.180  23.859  1.00  0.00     0.022 A 
ATOM    102  C   UNL A   1      33.114  24.349  22.003  1.00  0.00     0.022 A 
ATOM    103  C   UNL A   1      33.670  25.416  22.696  1.00  0.00     0.041 A 
ATOM    104  Cl  UNL A   1      33.465  27.022  22.124  1.00  0.00    -0.084 Cl
ENDBRANCH  89  98
ENDBRANCH  86  87
ENDBRANCH  85  86
ENDBRANCH  83  85
ENDBRANCH  79  80
ENDBRANCH  72  74
ENDBRANCH  71  72
ENDBRANCH   1  71
TORSDOF 19
ENDMDL
MODEL 2
REMARK VINA RESULT:     -12.4      3.537      9.585
REMARK SMILES O=C(OCCOC(=O)c1ccc(-n2cc(CSc3nc4ccccc4c(=O)n3-c3ccc(Cl)cc3)nn2)cc1)c1ccc(-c2c3nc(c(-c4cccc(S(=O)(=O)[O-])c4F)c4ccc([nH]4)c(-c4cccc(S(=O)(=O)[O-])c4F)c4nc(c(-c5cccc(S(=O)(=O)[O-])c5F)c5ccc2[nH]5)C=C4)C=C3)cc1
REMARK SMILES IDX 5 1 4 2 3 3 2 4 1 5 40 6 41 7 102 8 42 9 101 10 43 11 44 12
REMARK SMILES IDX 45 13 95 14 46 15 100 16 94 17 96 18 47 19 99 20 93 21 92 22
REMARK SMILES IDX 48 24 80 25 60 26 79 27 61 28 64 29 78 30 97 31 62 32 63 33
REMARK SMILES IDX 77 35 98 36 65 37 49 38 50 39 58 40 51 41 53 42 59 43 52 44
REMARK SMILES IDX 54 45 55 46 56 47 57 48 81 49 82 50 90 51 83 52 85 53 91 54
REMARK SMILES IDX 84 55 86 56 87 57 88 58 89 59 66 60 67 61 75 62 68 63 70 64
REMARK SMILES IDX 76 65 69 66 71 67 72 68 73 69 74 70 6 71 7 72 8 73 9 74
REMARK SMILES IDX 10 75 39 76 11 77 38 78 12 79 13 80 14 81 37 82 15 83 36 84
REMARK SMILES IDX 16 85 17 86 18 87 19 88 28 89 20 90 26 91 21 92 25 93 27 94
REMARK SMILES IDX 22 95 24 96 23 97 29 98 30 99 35 100 31 101 34 102 32 103
REMARK SMILES IDX 33 104
REMARK H PARENT 96 23 64 34
REMARK Flexibility Score: inf
ROOT
ATOM      1  C   UNL A   1      41.905  20.518  26.232  1.00  0.00     0.275 C 
ENDROOT
BRANCH   1   2
ATOM      2  C   UNL A   1      43.214  21.305  26.158  1.00  0.00     0.275 C 
BRANCH   2   3
ATOM      3  O   UNL A   1      43.240  22.608  26.776  1.00  0.00    -0.458 OA
BRANCH   3   4
ATOM      4  C   UNL A   1      43.170  23.708  25.994  1.00  0.00     0.338 C 
ATOM      5  O   UNL A   1      43.139  23.669  24.773  1.00  0.00    -0.246 OA
BRANCH   4   6
ATOM      6  C   UNL A   1      42.896  24.938  26.772  1.00  0.00     0.060 A 
ATOM      7  C   UNL A   1      41.871  25.829  26.432  1.00  0.00     0.016 A 
ATOM      8  C   UNL A   1      43.708  25.192  27.886  1.00  0.00     0.016 A 
ATOM      9  C   UNL A   1      41.717  27.007  27.141  1.00  0.00     0.010 A 
ATOM     10  C   UNL A   1      43.534  26.355  28.616  1.00  0.00     0.010 A 
ATOM     11  C   UNL A   1      42.582  27.284  28.200  1.00  0.00    -0.014 A 
BRANCH  11  12
ATOM     12  C   UNL A   1      42.419  28.547  28.905  1.00  0.00     0.031 A 
ATOM     13  C   UNL A   1      43.343  29.625  28.461  1.00  0.00     0.074 A 
ATOM     14  C   UNL A   1      41.423  28.740  29.791  1.00  0.00     0.049 A 
ATOM     15  N   UNL A   1      44.308  30.175  29.125  1.00  0.00    -0.248 NA
ATOM     16  C   UNL A   1      43.290  30.025  27.050  1.00  0.00     0.031 C 
ATOM     17  C   UNL A   1      40.305  27.835  30.080  1.00  0.00     0.029 A 
ATOM     18  N   UNL A   1      41.105  29.854  30.508  1.00  0.00    -0.354 N 
ATOM     19  C   UNL A   1      44.805  31.180  28.292  1.00  0.00     0.074 A 
ATOM     20  C   UNL A   1      44.312  30.878  26.978  1.00  0.00     0.031 C 
ATOM     21  C   UNL A   1      39.312  28.533  30.672  1.00  0.00     0.029 A 
ATOM     22  C   UNL A   1      39.779  29.882  30.934  1.00  0.00     0.049 A 
ATOM     23  H   UNL A   1      41.751  30.570  30.706  1.00  0.00     0.167 HD
ATOM     24  C   UNL A   1      45.321  32.331  28.810  1.00  0.00     0.034 A 
ATOM     25  C   UNL A   1      39.093  30.962  31.383  1.00  0.00     0.034 A 
ATOM     26  C   UNL A   1      45.637  32.162  30.212  1.00  0.00     0.049 A 
ATOM     27  C   UNL A   1      40.089  31.970  31.808  1.00  0.00     0.074 A 
ATOM     28  C   UNL A   1      46.432  31.312  30.954  1.00  0.00     0.029 A 
ATOM     29  N   UNL A   1      44.771  32.742  31.107  1.00  0.00    -0.354 N 
ATOM     30  N   UNL A   1      40.888  31.807  32.825  1.00  0.00    -0.248 NA
ATOM     31  C   UNL A   1      40.500  32.972  30.840  1.00  0.00     0.031 C 
ATOM     32  C   UNL A   1      45.700  31.078  32.156  1.00  0.00     0.029 A 
ATOM     33  C   UNL A   1      44.536  31.849  32.111  1.00  0.00     0.049 A 
ATOM     34  H   UNL A   1      44.387  33.645  31.037  1.00  0.00     0.167 HD
ATOM     35  C   UNL A   1      42.103  32.309  32.383  1.00  0.00     0.074 A 
ATOM     36  C   UNL A   1      41.775  33.119  31.210  1.00  0.00     0.031 C 
ATOM     37  C   UNL A   1      43.282  31.779  32.826  1.00  0.00     0.034 A 
BRANCH  24  38
ATOM     38  C   UNL A   1      45.106  33.731  28.232  1.00  0.00     0.023 A 
ATOM     39  C   UNL A   1      46.274  34.516  28.061  1.00  0.00     0.012 A 
ATOM     40  C   UNL A   1      43.872  34.421  28.168  1.00  0.00     0.148 A 
ATOM     41  C   UNL A   1      46.227  35.913  28.005  1.00  0.00     0.002 A 
ATOM     42  C   UNL A   1      43.827  35.808  28.053  1.00  0.00     0.091 A 
ATOM     43  F   UNL A   1      42.720  33.770  28.306  1.00  0.00    -0.205 F 
ATOM     44  C   UNL A   1      45.002  36.560  28.021  1.00  0.00     0.022 A 
BRANCH  42  45
ATOM     45  S   UNL A   1      42.276  36.722  28.022  1.00  0.00     0.127 S 
ATOM     46  O   UNL A   1      42.157  37.038  26.601  1.00  0.00    -0.237 OA
ATOM     47  O   UNL A   1      41.333  35.716  28.514  1.00  0.00    -0.237 OA
ATOM     48  O   UNL A   1      42.455  37.857  28.914  1.00  0.00    -0.744 OA
ENDBRANCH  42  45
ENDBRANCH  24  38
BRANCH  25  49
ATOM     49  C   UNL A   1      37.659  31.301  31.225  1.00  0.00     0.023 A 
ATOM     50  C   UNL A   1      36.789  31.189  32.328  1.00  0.00     0.012 A 
ATOM     51  C   UNL A   1      37.197  31.995  30.083  1.00  0.00     0.148 A 
ATOM     52  C   UNL A   1      35.517  31.775  32.308  1.00  0.00     0.002 A 
ATOM     53  C   UNL A   1      35.928  32.566  30.063  1.00  0.00     0.091 A 
ATOM     54  F   UNL A   1      38.033  32.173  29.053  1.00  0.00    -0.205 F 
ATOM     55  C   UNL A   1      35.090  32.471  31.181  1.00  0.00     0.022 A 
BRANCH  53  56
ATOM     56  S   UNL A   1      35.314  33.491  28.648  1.00  0.00     0.127 S 
ATOM     57  O   UNL A   1      36.212  34.646  28.627  1.00  0.00    -0.237 OA
ATOM     58  O   UNL A   1      35.511  32.543  27.556  1.00  0.00    -0.237 OA
ATOM     59  O   UNL A   1      33.928  33.819  28.958  1.00  0.00    -0.744 OA
ENDBRANCH  53  56
ENDBRANCH  25  49
BRANCH  37  60
ATOM     60  C   UNL A   1      43.247  30.848  34.007  1.00  0.00     0.023 A 
ATOM     61  C   UNL A   1      43.251  31.309  35.340  1.00  0.00     0.012 A 
ATOM     62  C   UNL A   1      43.025  29.484  33.759  1.00  0.00     0.148 A 
ATOM     63  C   UNL A   1      43.059  30.422  36.402  1.00  0.00     0.002 A 
ATOM     64  C   UNL A   1      42.787  28.614  34.813  1.00  0.00     0.091 A 
ATOM     65  F   UNL A   1      43.022  29.065  32.484  1.00  0.00    -0.205 F 
ATOM     66  C   UNL A   1      42.813  29.076  36.138  1.00  0.00     0.022 A 
BRANCH  64  67
ATOM     67  S   UNL A   1      42.337  26.902  34.525  1.00  0.00     0.127 S 
ATOM     68  O   UNL A   1      42.616  26.291  35.823  1.00  0.00    -0.237 OA
ATOM     69  O   UNL A   1      40.916  27.003  34.189  1.00  0.00    -0.237 OA
ATOM     70  O   UNL A   1      43.176  26.446  33.423  1.00  0.00    -0.744 OA
ENDBRANCH  64  67
ENDBRANCH  37  60
ENDBRANCH  11  12
ENDBRANCH   4   6
ENDBRANCH   3   4
ENDBRANCH   2   3
ENDBRANCH   1   2
BRANCH   1  71
ATOM     71  O   UNL A   1      40.808  21.318  25.762  1.00  0.00    -0.458 OA
BRANCH  71  72
ATOM     72  C   UNL A   1      39.993  21.819  26.720  1.00  0.00     0.338 C 
ATOM     73  O   UNL A   1      40.243  21.981  27.910  1.00  0.00    -0.246 OA
BRANCH  72  74
ATOM     74  C   UNL A   1      38.721  22.184  26.089  1.00  0.00     0.060 A 
ATOM     75  C   UNL A   1      38.046  21.232  25.316  1.00  0.00     0.018 A 
ATOM     76  C   UNL A   1      38.214  23.479  26.244  1.00  0.00     0.018 A 
ATOM     77  C   UNL A   1      36.816  21.550  24.747  1.00  0.00     0.029 A 
ATOM     78  C   UNL A   1      37.010  23.821  25.624  1.00  0.00     0.029 A 
ATOM     79  C   UNL A   1      36.310  22.840  24.909  1.00  0.00     0.066 A 
BRANCH  79  80
ATOM     80  N   UNL A   1      35.211  23.206  24.125  1.00  0.00    -0.220 N 
ATOM     81  C   UNL A   1      33.971  23.500  24.612  1.00  0.00     0.141 A 
ATOM     82  N   UNL A   1      35.241  23.365  22.804  1.00  0.00    -0.062 NA
ATOM     83  C   UNL A   1      33.219  23.881  23.530  1.00  0.00     0.093 A 
ATOM     84  N   UNL A   1      34.027  23.754  22.420  1.00  0.00    -0.134 NA
BRANCH  83  85
ATOM     85  C   UNL A   1      31.754  24.077  23.361  1.00  0.00     0.138 C 
BRANCH  85  86
ATOM     86  S   UNL A   1      30.657  24.956  24.479  1.00  0.00    -0.081 SA
BRANCH  86  87
ATOM     87  C   UNL A   1      30.401  26.630  24.089  1.00  0.00     0.176 A 
ATOM     88  N   UNL A   1      29.207  26.866  23.622  1.00  0.00    -0.223 NA
ATOM     89  N   UNL A   1      31.305  27.661  24.274  1.00  0.00    -0.255 N 
ATOM     90  C   UNL A   1      28.925  28.146  23.130  1.00  0.00     0.079 A 
ATOM     91  C   UNL A   1      31.295  28.609  23.242  1.00  0.00     0.266 A 
ATOM     92  C   UNL A   1      27.616  28.575  22.916  1.00  0.00     0.029 A 
ATOM     93  C   UNL A   1      29.966  28.974  22.736  1.00  0.00     0.066 A 
ATOM     94  O   UNL A   1      32.281  29.165  22.760  1.00  0.00    -0.268 OA
ATOM     95  C   UNL A   1      27.370  29.784  22.251  1.00  0.00     0.002 A 
ATOM     96  C   UNL A   1      29.743  30.147  22.009  1.00  0.00     0.016 A 
ATOM     97  C   UNL A   1      28.432  30.546  21.759  1.00  0.00     0.001 A 
BRANCH  89  98
ATOM     98  C   UNL A   1      32.254  27.827  25.359  1.00  0.00     0.051 A 
ATOM     99  C   UNL A   1      31.920  28.649  26.459  1.00  0.00     0.028 A 
ATOM    100  C   UNL A   1      33.542  27.278  25.379  1.00  0.00     0.028 A 
ATOM    101  C   UNL A   1      32.883  29.115  27.358  1.00  0.00     0.022 A 
ATOM    102  C   UNL A   1      34.531  27.784  26.238  1.00  0.00     0.022 A 
ATOM    103  C   UNL A   1      34.204  28.736  27.195  1.00  0.00     0.041 A 
ATOM    104  Cl  UNL A   1      35.431  29.452  28.161  1.00  0.00    -0.084 Cl
ENDBRANCH  89  98
ENDBRANCH  86  87
ENDBRANCH  85  86
ENDBRANCH  83  85
ENDBRANCH  79  80
ENDBRANCH  72  74
ENDBRANCH  71  72
ENDBRANCH   1  71
TORSDOF 19
ENDMDL
MODEL 3
REMARK VINA RESULT:     -12.2      1.972      2.532
REMARK SMILES O=C(OCCOC(=O)c1ccc(-n2cc(CSc3nc4ccccc4c(=O)n3-c3ccc(Cl)cc3)nn2)cc1)c1ccc(-c2c3nc(c(-c4cccc(S(=O)(=O)[O-])c4F)c4ccc([nH]4)c(-c4cccc(S(=O)(=O)[O-])c4F)c4nc(c(-c5cccc(S(=O)(=O)[O-])c5F)c5ccc2[nH]5)C=C4)C=C3)cc1
REMARK SMILES IDX 5 1 4 2 3 3 2 4 1 5 40 6 41 7 102 8 42 9 101 10 43 11 44 12
REMARK SMILES IDX 45 13 95 14 46 15 100 16 94 17 96 18 47 19 99 20 93 21 92 22
REMARK SMILES IDX 48 24 80 25 60 26 79 27 61 28 64 29 78 30 97 31 62 32 63 33
REMARK SMILES IDX 77 35 98 36 65 37 49 38 50 39 58 40 51 41 53 42 59 43 52 44
REMARK SMILES IDX 54 45 55 46 56 47 57 48 81 49 82 50 90 51 83 52 85 53 91 54
REMARK SMILES IDX 84 55 86 56 87 57 88 58 89 59 66 60 67 61 75 62 68 63 70 64
REMARK SMILES IDX 76 65 69 66 71 67 72 68 73 69 74 70 6 71 7 72 8 73 9 74
REMARK SMILES IDX 10 75 39 76 11 77 38 78 12 79 13 80 14 81 37 82 15 83 36 84
REMARK SMILES IDX 16 85 17 86 18 87 19 88 28 89 20 90 26 91 21 92 25 93 27 94
REMARK SMILES IDX 22 95 24 96 23 97 29 98 30 99 35 100 31 101 34 102 32 103
REMARK SMILES IDX 33 104
REMARK H PARENT 96 23 64 34
REMARK Flexibility Score: inf
ROOT
ATOM      1  C   UNL A   1      34.517  33.785  28.065  1.00  0.00     0.275 C 
ENDROOT
BRANCH   1   2
ATOM      2  C   UNL A   1      35.964  33.418  28.394  1.00  0.00     0.275 C 
BRANCH   2   3
ATOM      3  O   UNL A   1      36.360  33.461  29.780  1.00  0.00    -0.458 OA
BRANCH   3   4
ATOM      4  C   UNL A   1      36.290  32.332  30.519  1.00  0.00     0.338 C 
ATOM      5  O   UNL A   1      35.276  31.958  31.089  1.00  0.00    -0.246 OA
BRANCH   4   6
ATOM      6  C   UNL A   1      37.494  31.482  30.368  1.00  0.00     0.060 A 
ATOM      7  C   UNL A   1      37.416  30.100  30.157  1.00  0.00     0.016 A 
ATOM      8  C   UNL A   1      38.743  32.113  30.443  1.00  0.00     0.016 A 
ATOM      9  C   UNL A   1      38.573  29.343  30.113  1.00  0.00     0.010 A 
ATOM     10  C   UNL A   1      39.902  31.360  30.366  1.00  0.00     0.010 A 
ATOM     11  C   UNL A   1      39.808  29.973  30.266  1.00  0.00    -0.014 A 
BRANCH  11  12
ATOM     12  C   UNL A   1      41.006  29.147  30.251  1.00  0.00     0.031 A 
ATOM     13  C   UNL A   1      41.544  28.816  31.597  1.00  0.00     0.074 A 
ATOM     14  C   UNL A   1      41.495  28.629  29.106  1.00  0.00     0.049 A 
ATOM     15  N   UNL A   1      42.658  29.203  32.130  1.00  0.00    -0.248 NA
ATOM     16  C   UNL A   1      40.660  28.099  32.523  1.00  0.00     0.031 C 
ATOM     17  C   UNL A   1      40.873  28.670  27.778  1.00  0.00     0.029 A 
ATOM     18  N   UNL A   1      42.571  27.818  28.914  1.00  0.00    -0.354 N 
ATOM     19  C   UNL A   1      42.724  28.550  33.363  1.00  0.00     0.074 A 
ATOM     20  C   UNL A   1      41.391  28.096  33.638  1.00  0.00     0.031 C 
ATOM     21  C   UNL A   1      41.416  27.705  27.006  1.00  0.00     0.029 A 
ATOM     22  C   UNL A   1      42.511  27.086  27.729  1.00  0.00     0.049 A 
ATOM     23  H   UNL A   1      43.320  27.755  29.549  1.00  0.00     0.167 HD
ATOM     24  C   UNL A   1      43.923  28.178  33.897  1.00  0.00     0.034 A 
ATOM     25  C   UNL A   1      43.250  25.994  27.411  1.00  0.00     0.034 A 
ATOM     26  C   UNL A   1      45.009  28.888  33.257  1.00  0.00     0.049 A 
ATOM     27  C   UNL A   1      44.444  26.000  28.286  1.00  0.00     0.074 A 
ATOM     28  C   UNL A   1      45.353  30.211  33.066  1.00  0.00     0.029 A 
ATOM     29  N   UNL A   1      45.759  28.172  32.356  1.00  0.00    -0.354 N 
ATOM     30  N   UNL A   1      45.382  26.902  28.214  1.00  0.00    -0.248 NA
ATOM     31  C   UNL A   1      44.378  25.258  29.533  1.00  0.00     0.031 C 
ATOM     32  C   UNL A   1      45.928  30.257  31.760  1.00  0.00     0.029 A 
ATOM     33  C   UNL A   1      45.967  28.955  31.258  1.00  0.00     0.049 A 
ATOM     34  H   UNL A   1      46.090  27.254  32.481  1.00  0.00     0.167 HD
ATOM     35  C   UNL A   1      45.691  27.173  29.540  1.00  0.00     0.074 A 
ATOM     36  C   UNL A   1      45.134  26.052  30.296  1.00  0.00     0.031 C 
ATOM     37  C   UNL A   1      46.097  28.420  29.922  1.00  0.00     0.034 A 
BRANCH  24  38
ATOM     38  C   UNL A   1      44.190  26.862  34.630  1.00  0.00     0.023 A 
ATOM     39  C   UNL A   1      43.614  25.703  34.053  1.00  0.00     0.012 A 
ATOM     40  C   UNL A   1      44.654  26.734  35.962  1.00  0.00     0.148 A 
ATOM     41  C   UNL A   1      43.357  24.550  34.801  1.00  0.00     0.002 A 
ATOM     42  C   UNL A   1      44.449  25.563  36.686  1.00  0.00     0.091 A 
ATOM     43  F   UNL A   1      45.219  27.762  36.587  1.00  0.00    -0.205 F 
ATOM     44  C   UNL A   1      43.758  24.488  36.126  1.00  0.00     0.022 A 
BRANCH  42  45
ATOM     45  S   UNL A   1      44.979  25.384  38.398  1.00  0.00     0.127 S 
ATOM     46  O   UNL A   1      44.044  26.275  39.082  1.00  0.00    -0.237 OA
ATOM     47  O   UNL A   1      44.753  23.956  38.627  1.00  0.00    -0.237 OA
ATOM     48  O   UNL A   1      46.378  25.780  38.435  1.00  0.00    -0.744 OA
ENDBRANCH  42  45
ENDBRANCH  24  38
BRANCH  25  49
ATOM     49  C   UNL A   1      42.879  24.806  26.607  1.00  0.00     0.023 A 
ATOM     50  C   UNL A   1      43.600  24.503  25.435  1.00  0.00     0.012 A 
ATOM     51  C   UNL A   1      42.012  23.818  27.126  1.00  0.00     0.148 A 
ATOM     52  C   UNL A   1      43.487  23.250  24.819  1.00  0.00     0.002 A 
ATOM     53  C   UNL A   1      41.894  22.578  26.506  1.00  0.00     0.091 A 
ATOM     54  F   UNL A   1      41.372  24.060  28.278  1.00  0.00    -0.205 F 
ATOM     55  C   UNL A   1      42.642  22.285  25.359  1.00  0.00     0.022 A 
BRANCH  53  56
ATOM     56  S   UNL A   1      40.833  21.278  27.153  1.00  0.00     0.127 S 
ATOM     57  O   UNL A   1      39.506  21.732  26.733  1.00  0.00    -0.237 OA
ATOM     58  O   UNL A   1      41.328  20.101  26.446  1.00  0.00    -0.237 OA
ATOM     59  O   UNL A   1      41.035  21.280  28.596  1.00  0.00    -0.744 OA
ENDBRANCH  53  56
ENDBRANCH  25  49
BRANCH  37  60
ATOM     60  C   UNL A   1      46.482  29.406  28.851  1.00  0.00     0.023 A 
ATOM     61  C   UNL A   1      47.753  29.407  28.240  1.00  0.00     0.012 A 
ATOM     62  C   UNL A   1      45.474  30.231  28.330  1.00  0.00     0.148 A 
ATOM     63  C   UNL A   1      48.016  30.233  27.144  1.00  0.00     0.002 A 
ATOM     64  C   UNL A   1      45.724  31.014  27.212  1.00  0.00     0.091 A 
ATOM     65  F   UNL A   1      44.270  30.213  28.923  1.00  0.00    -0.205 F 
ATOM     66  C   UNL A   1      46.997  31.027  26.621  1.00  0.00     0.022 A 
BRANCH  64  67
ATOM     67  S   UNL A   1      44.416  31.952  26.420  1.00  0.00     0.127 S 
ATOM     68  O   UNL A   1      43.432  30.914  26.123  1.00  0.00    -0.237 OA
ATOM     69  O   UNL A   1      44.019  32.890  27.472  1.00  0.00    -0.237 OA
ATOM     70  O   UNL A   1      45.027  32.589  25.259  1.00  0.00    -0.744 OA
ENDBRANCH  64  67
ENDBRANCH  37  60
ENDBRANCH  11  12
ENDBRANCH   4   6
ENDBRANCH   3   4
ENDBRANCH   2   3
ENDBRANCH   1   2
BRANCH   1  71
ATOM     71  O   UNL A   1      33.657  32.646  28.227  1.00  0.00    -0.458 OA
BRANCH  71  72
ATOM     72  C   UNL A   1      32.592  32.589  27.394  1.00  0.00     0.338 C 
ATOM     73  O   UNL A   1      31.783  33.477  27.147  1.00  0.00    -0.246 OA
BRANCH  72  74
ATOM     74  C   UNL A   1      32.568  31.258  26.777  1.00  0.00     0.060 A 
ATOM     75  C   UNL A   1      31.475  30.897  25.982  1.00  0.00     0.018 A 
ATOM     76  C   UNL A   1      33.617  30.363  27.012  1.00  0.00     0.018 A 
ATOM     77  C   UNL A   1      31.457  29.654  25.354  1.00  0.00     0.029 A 
ATOM     78  C   UNL A   1      33.575  29.093  26.434  1.00  0.00     0.029 A 
ATOM     79  C   UNL A   1      32.509  28.766  25.585  1.00  0.00     0.066 A 
BRANCH  79  80
ATOM     80  N   UNL A   1      32.346  27.446  25.152  1.00  0.00    -0.220 N 
ATOM     81  C   UNL A   1      33.074  26.856  24.161  1.00  0.00     0.141 A 
ATOM     82  N   UNL A   1      31.493  26.573  25.685  1.00  0.00    -0.062 NA
ATOM     83  C   UNL A   1      32.656  25.550  24.109  1.00  0.00     0.093 A 
ATOM     84  N   UNL A   1      31.651  25.417  25.044  1.00  0.00    -0.134 NA
BRANCH  83  85
ATOM     85  C   UNL A   1      32.875  24.480  23.101  1.00  0.00     0.138 C 
BRANCH  85  86
ATOM     86  S   UNL A   1      31.926  22.963  22.930  1.00  0.00    -0.081 SA
BRANCH  86  87
ATOM     87  C   UNL A   1      32.651  21.559  23.653  1.00  0.00     0.176 A 
ATOM     88  N   UNL A   1      32.273  20.446  23.091  1.00  0.00    -0.223 NA
ATOM     89  N   UNL A   1      33.575  21.555  24.683  1.00  0.00    -0.255 N 
ATOM     90  C   UNL A   1      32.668  19.236  23.676  1.00  0.00     0.079 A 
ATOM     91  C   UNL A   1      33.388  20.511  25.600  1.00  0.00     0.266 A 
ATOM     92  C   UNL A   1      32.589  18.029  22.984  1.00  0.00     0.029 A 
ATOM     93  C   UNL A   1      33.042  19.211  25.011  1.00  0.00     0.066 A 
ATOM     94  O   UNL A   1      33.515  20.589  26.821  1.00  0.00    -0.268 OA
ATOM     95  C   UNL A   1      32.812  16.818  23.653  1.00  0.00     0.002 A 
ATOM     96  C   UNL A   1      33.200  18.012  25.712  1.00  0.00     0.016 A 
ATOM     97  C   UNL A   1      33.074  16.807  25.025  1.00  0.00     0.001 A 
BRANCH  89  98
ATOM     98  C   UNL A   1      34.642  22.508  24.925  1.00  0.00     0.051 A 
ATOM     99  C   UNL A   1      35.770  22.523  24.073  1.00  0.00     0.028 A 
ATOM    100  C   UNL A   1      34.683  23.397  26.005  1.00  0.00     0.028 A 
ATOM    101  C   UNL A   1      36.959  23.165  24.427  1.00  0.00     0.022 A 
ATOM    102  C   UNL A   1      35.889  23.997  26.402  1.00  0.00     0.022 A 
ATOM    103  C   UNL A   1      37.034  23.840  25.633  1.00  0.00     0.041 A 
ATOM    104  Cl  UNL A   1      38.539  24.462  26.180  1.00  0.00    -0.084 Cl
ENDBRANCH  89  98
ENDBRANCH  86  87
ENDBRANCH  85  86
ENDBRANCH  83  85
ENDBRANCH  79  80
ENDBRANCH  72  74
ENDBRANCH  71  72
ENDBRANCH   1  71
TORSDOF 19
ENDMDL
