MODEL 1
REMARK VINA RESULT:     -11.4      0.000      0.000
REMARK SMILES [NH3+]CCC1=c2cc([N+](=O)[O-])ccc2=N[C@H]1C(=O)OCCOC(=O)c1ccc(-c2c3nc(c(-c4cccc(S(=O)(=O)[O-])c4F)c4ccc([nH]4)c(-c4cccc(S(=O)(=O)[O-])c4F)c4nc(c(-c5cccc(S(=O)(=O)[O-])c5F)c5ccc2[nH]5)C=C4)C=C3)cc1
REMARK SMILES IDX 19 1 18 2 16 3 17 4 15 5 4 6 5 7 6 8 13 9 14 10 7 11 12 12
REMARK SMILES IDX 11 13 3 14 2 15 1 16 8 20 9 21 10 22 20 23 21 24 22 25 23 26
REMARK SMILES IDX 24 27 25 28 86 29 26 30 85 31 27 32 28 33 29 34 79 35 30 36
REMARK SMILES IDX 84 37 78 38 80 39 31 40 83 41 77 42 76 43 32 45 64 46 44 47
REMARK SMILES IDX 63 48 45 49 48 50 62 51 81 52 46 53 47 54 61 56 82 57 49 58
REMARK SMILES IDX 33 59 34 60 42 61 35 62 37 63 43 64 36 65 38 66 39 67 40 68
REMARK SMILES IDX 41 69 65 70 66 71 74 72 67 73 69 74 75 75 68 76 70 77 71 78
REMARK SMILES IDX 72 79 73 80 50 81 51 82 59 83 52 84 54 85 60 86 53 87 55 88
REMARK SMILES IDX 56 89 57 90 58 91
REMARK H PARENT 1 17 1 18 1 19 80 44 48 55
REMARK Flexibility Score: inf
ROOT
ATOM      1  C   UNL A   1      35.293  21.887  26.236  1.00  0.00     0.274 C 
ENDROOT
BRANCH   1   2
ATOM      2  O   UNL A   1      34.079  21.234  26.661  1.00  0.00    -0.460 OA
BRANCH   2   3
ATOM      3  C   UNL A   1      33.109  22.028  27.198  1.00  0.00     0.335 C 
ATOM      4  O   UNL A   1      33.056  22.355  28.380  1.00  0.00    -0.249 OA
BRANCH   3   5
ATOM      5  C   UNL A   1      32.075  22.517  26.163  1.00  0.00     0.242 C 
ATOM      6  C   UNL A   1      32.320  23.917  25.656  1.00  0.00    -0.019 C 
ATOM      7  C   UNL A   1      32.540  23.897  24.341  1.00  0.00     0.009 A 
ATOM      8  C   UNL A   1      32.833  24.891  23.352  1.00  0.00     0.096 A 
ATOM      9  C   UNL A   1      32.365  22.478  23.991  1.00  0.00     0.067 A 
ATOM     10  N   UNL A   1      32.103  21.641  24.944  1.00  0.00    -0.265 NA
ATOM     11  C   UNL A   1      32.929  24.498  22.067  1.00  0.00     0.270 A 
ATOM     12  C   UNL A   1      32.476  22.131  22.560  1.00  0.00     0.035 A 
ATOM     13  C   UNL A   1      32.734  23.106  21.670  1.00  0.00     0.088 A 
BRANCH   6  14
ATOM     14  C   UNL A   1      32.264  25.142  26.523  1.00  0.00     0.096 C 
BRANCH  14  15
ATOM     15  C   UNL A   1      31.143  26.149  26.218  1.00  0.00     0.263 C 
BRANCH  15  16
ATOM     16  N   UNL A   1      31.026  27.251  27.166  1.00  0.00    -0.357 N 
ATOM     17  H   UNL A   1      31.922  27.734  27.237  1.00  0.00     0.344 HD
ATOM     18  H   UNL A   1      30.763  26.885  28.080  1.00  0.00     0.344 HD
ATOM     19  H   UNL A   1      30.313  27.903  26.841  1.00  0.00     0.344 HD
ENDBRANCH  15  16
ENDBRANCH  14  15
ENDBRANCH   6  14
BRANCH  11  20
ATOM     20  N   UNL A   1      33.238  25.518  21.058  1.00  0.00     0.062 N 
ATOM     21  O   UNL A   1      32.993  25.268  19.872  1.00  0.00    -0.258 OA
ATOM     22  O   UNL A   1      33.723  26.583  21.467  1.00  0.00    -0.258 OA
ENDBRANCH  11  20
ENDBRANCH   3   5
ENDBRANCH   2   3
ENDBRANCH   1   2
BRANCH   1  23
ATOM     23  C   UNL A   1      36.131  20.955  25.368  1.00  0.00     0.275 C 
BRANCH  23  24
ATOM     24  O   UNL A   1      37.337  21.640  25.003  1.00  0.00    -0.458 OA
BRANCH  24  25
ATOM     25  C   UNL A   1      38.465  21.256  25.644  1.00  0.00     0.338 C 
ATOM     26  O   UNL A   1      38.928  20.131  25.704  1.00  0.00    -0.246 OA
BRANCH  25  27
ATOM     27  C   UNL A   1      39.076  22.441  26.284  1.00  0.00     0.060 A 
ATOM     28  C   UNL A   1      40.242  22.304  27.032  1.00  0.00     0.016 A 
ATOM     29  C   UNL A   1      38.541  23.711  26.064  1.00  0.00     0.016 A 
ATOM     30  C   UNL A   1      40.857  23.442  27.568  1.00  0.00     0.010 A 
ATOM     31  C   UNL A   1      39.230  24.847  26.487  1.00  0.00     0.010 A 
ATOM     32  C   UNL A   1      40.382  24.736  27.270  1.00  0.00    -0.014 A 
BRANCH  32  33
ATOM     33  C   UNL A   1      41.102  25.954  27.743  1.00  0.00     0.031 A 
ATOM     34  C   UNL A   1      42.534  26.236  27.345  1.00  0.00     0.074 A 
ATOM     35  C   UNL A   1      40.491  26.796  28.601  1.00  0.00     0.049 A 
ATOM     36  N   UNL A   1      43.279  27.272  27.647  1.00  0.00    -0.248 NA
ATOM     37  C   UNL A   1      43.240  25.216  26.553  1.00  0.00     0.031 C 
ATOM     38  C   UNL A   1      39.176  26.578  29.211  1.00  0.00     0.029 A 
ATOM     39  N   UNL A   1      40.889  28.009  29.107  1.00  0.00    -0.354 N 
ATOM     40  C   UNL A   1      44.541  27.001  27.130  1.00  0.00     0.074 A 
ATOM     41  C   UNL A   1      44.479  25.684  26.540  1.00  0.00     0.031 C 
ATOM     42  C   UNL A   1      38.849  27.649  29.950  1.00  0.00     0.029 A 
ATOM     43  C   UNL A   1      39.931  28.625  29.879  1.00  0.00     0.049 A 
ATOM     44  H   UNL A   1      41.776  28.400  28.934  1.00  0.00     0.167 HD
ATOM     45  C   UNL A   1      45.639  27.795  27.089  1.00  0.00     0.034 A 
ATOM     46  C   UNL A   1      39.902  29.853  30.432  1.00  0.00     0.034 A 
ATOM     47  C   UNL A   1      45.673  29.150  27.563  1.00  0.00     0.049 A 
ATOM     48  C   UNL A   1      41.053  30.792  30.214  1.00  0.00     0.074 A 
ATOM     49  C   UNL A   1      46.696  30.076  27.451  1.00  0.00     0.029 A 
ATOM     50  N   UNL A   1      44.627  29.785  28.211  1.00  0.00    -0.354 N 
ATOM     51  N   UNL A   1      42.176  30.576  29.574  1.00  0.00    -0.248 NA
ATOM     52  C   UNL A   1      40.921  32.154  30.754  1.00  0.00     0.031 C 
ATOM     53  C   UNL A   1      46.257  31.280  28.009  1.00  0.00     0.029 A 
ATOM     54  C   UNL A   1      44.966  31.099  28.479  1.00  0.00     0.049 A 
ATOM     55  H   UNL A   1      43.769  29.364  28.446  1.00  0.00     0.167 HD
ATOM     56  C   UNL A   1      42.877  31.775  29.619  1.00  0.00     0.074 A 
ATOM     57  C   UNL A   1      42.044  32.722  30.332  1.00  0.00     0.031 C 
ATOM     58  C   UNL A   1      44.109  32.052  29.132  1.00  0.00     0.034 A 
BRANCH  45  59
ATOM     59  C   UNL A   1      46.858  27.263  26.382  1.00  0.00     0.023 A 
ATOM     60  C   UNL A   1      46.978  27.471  24.992  1.00  0.00     0.012 A 
ATOM     61  C   UNL A   1      47.901  26.624  27.080  1.00  0.00     0.148 A 
ATOM     62  C   UNL A   1      48.099  27.022  24.299  1.00  0.00     0.002 A 
ATOM     63  C   UNL A   1      49.035  26.210  26.387  1.00  0.00     0.091 A 
ATOM     64  F   UNL A   1      47.764  26.426  28.398  1.00  0.00    -0.205 F 
ATOM     65  C   UNL A   1      49.130  26.399  24.997  1.00  0.00     0.022 A 
BRANCH  63  66
ATOM     66  S   UNL A   1      50.452  25.457  27.195  1.00  0.00     0.127 S 
ATOM     67  O   UNL A   1      49.865  24.238  27.747  1.00  0.00    -0.237 OA
ATOM     68  O   UNL A   1      51.367  25.239  26.073  1.00  0.00    -0.237 OA
ATOM     69  O   UNL A   1      50.917  26.428  28.176  1.00  0.00    -0.744 OA
ENDBRANCH  63  66
ENDBRANCH  45  59
BRANCH  46  70
ATOM     70  C   UNL A   1      38.657  30.303  31.110  1.00  0.00     0.023 A 
ATOM     71  C   UNL A   1      38.543  30.119  32.502  1.00  0.00     0.012 A 
ATOM     72  C   UNL A   1      37.647  30.995  30.418  1.00  0.00     0.148 A 
ATOM     73  C   UNL A   1      37.438  30.611  33.195  1.00  0.00     0.002 A 
ATOM     74  C   UNL A   1      36.564  31.513  31.119  1.00  0.00     0.091 A 
ATOM     75  F   UNL A   1      37.789  31.164  29.096  1.00  0.00    -0.205 F 
ATOM     76  C   UNL A   1      36.455  31.315  32.506  1.00  0.00     0.022 A 
BRANCH  74  77
ATOM     77  S   UNL A   1      35.292  32.516  30.346  1.00  0.00     0.127 S 
ATOM     78  O   UNL A   1      34.855  31.654  29.250  1.00  0.00    -0.237 OA
ATOM     79  O   UNL A   1      34.328  32.663  31.437  1.00  0.00    -0.237 OA
ATOM     80  O   UNL A   1      35.951  33.750  29.941  1.00  0.00    -0.744 OA
ENDBRANCH  74  77
ENDBRANCH  46  70
BRANCH  58  81
ATOM     81  C   UNL A   1      44.660  33.435  29.336  1.00  0.00     0.023 A 
ATOM     82  C   UNL A   1      45.513  33.676  30.430  1.00  0.00     0.012 A 
ATOM     83  C   UNL A   1      44.446  34.448  28.381  1.00  0.00     0.148 A 
ATOM     84  C   UNL A   1      46.148  34.909  30.571  1.00  0.00     0.002 A 
ATOM     85  C   UNL A   1      45.104  35.665  28.514  1.00  0.00     0.091 A 
ATOM     86  F   UNL A   1      43.619  34.195  27.356  1.00  0.00    -0.205 F 
ATOM     87  C   UNL A   1      45.953  35.898  29.609  1.00  0.00     0.022 A 
BRANCH  85  88
ATOM     88  S   UNL A   1      44.973  36.977  27.292  1.00  0.00     0.127 S 
ATOM     89  O   UNL A   1      45.309  38.157  28.086  1.00  0.00    -0.237 OA
ATOM     90  O   UNL A   1      45.989  36.589  26.313  1.00  0.00    -0.237 OA
ATOM     91  O   UNL A   1      43.604  36.931  26.796  1.00  0.00    -0.744 OA
ENDBRANCH  85  88
ENDBRANCH  58  81
ENDBRANCH  32  33
ENDBRANCH  25  27
ENDBRANCH  24  25
ENDBRANCH  23  24
ENDBRANCH   1  23
TORSDOF 18
ENDMDL
MODEL 2
REMARK VINA RESULT:     -11.0      5.103     10.023
REMARK SMILES [NH3+]CCC1=c2cc([N+](=O)[O-])ccc2=N[C@H]1C(=O)OCCOC(=O)c1ccc(-c2c3nc(c(-c4cccc(S(=O)(=O)[O-])c4F)c4ccc([nH]4)c(-c4cccc(S(=O)(=O)[O-])c4F)c4nc(c(-c5cccc(S(=O)(=O)[O-])c5F)c5ccc2[nH]5)C=C4)C=C3)cc1
REMARK SMILES IDX 19 1 18 2 16 3 17 4 15 5 4 6 5 7 6 8 13 9 14 10 7 11 12 12
REMARK SMILES IDX 11 13 3 14 2 15 1 16 8 20 9 21 10 22 20 23 21 24 22 25 23 26
REMARK SMILES IDX 24 27 25 28 86 29 26 30 85 31 27 32 28 33 29 34 79 35 30 36
REMARK SMILES IDX 84 37 78 38 80 39 31 40 83 41 77 42 76 43 32 45 64 46 44 47
REMARK SMILES IDX 63 48 45 49 48 50 62 51 81 52 46 53 47 54 61 56 82 57 49 58
REMARK SMILES IDX 33 59 34 60 42 61 35 62 37 63 43 64 36 65 38 66 39 67 40 68
REMARK SMILES IDX 41 69 65 70 66 71 74 72 67 73 69 74 75 75 68 76 70 77 71 78
REMARK SMILES IDX 72 79 73 80 50 81 51 82 59 83 52 84 54 85 60 86 53 87 55 88
REMARK SMILES IDX 56 89 57 90 58 91
REMARK H PARENT 1 17 1 18 1 19 80 44 48 55
REMARK Flexibility Score: inf
ROOT
ATOM      1  C   UNL A   1      31.923  28.671  27.041  1.00  0.00     0.274 C 
ENDROOT
BRANCH   1   2
ATOM      2  O   UNL A   1      31.741  27.739  25.955  1.00  0.00    -0.460 OA
BRANCH   2   3
ATOM      3  C   UNL A   1      32.743  26.839  25.742  1.00  0.00     0.335 C 
ATOM      4  O   UNL A   1      33.925  27.044  26.003  1.00  0.00    -0.249 OA
BRANCH   3   5
ATOM      5  C   UNL A   1      32.250  25.499  25.161  1.00  0.00     0.242 C 
ATOM      6  C   UNL A   1      33.274  24.769  24.329  1.00  0.00    -0.019 C 
ATOM      7  C   UNL A   1      33.558  23.588  24.880  1.00  0.00     0.009 A 
ATOM      8  C   UNL A   1      34.438  22.506  24.552  1.00  0.00     0.096 A 
ATOM      9  C   UNL A   1      32.654  23.532  26.040  1.00  0.00     0.067 A 
ATOM     10  N   UNL A   1      31.889  24.551  26.270  1.00  0.00    -0.265 NA
ATOM     11  C   UNL A   1      34.409  21.407  25.330  1.00  0.00     0.270 A 
ATOM     12  C   UNL A   1      32.675  22.287  26.835  1.00  0.00     0.035 A 
ATOM     13  C   UNL A   1      33.507  21.295  26.473  1.00  0.00     0.088 A 
BRANCH   6  14
ATOM     14  C   UNL A   1      33.836  25.299  23.041  1.00  0.00     0.096 C 
BRANCH  14  15
ATOM     15  C   UNL A   1      32.822  25.836  22.019  1.00  0.00     0.263 C 
BRANCH  15  16
ATOM     16  N   UNL A   1      32.543  24.946  20.898  1.00  0.00    -0.357 N 
ATOM     17  H   UNL A   1      33.153  24.131  20.951  1.00  0.00     0.344 HD
ATOM     18  H   UNL A   1      32.711  25.440  20.022  1.00  0.00     0.344 HD
ATOM     19  H   UNL A   1      31.569  24.645  20.937  1.00  0.00     0.344 HD
ENDBRANCH  15  16
ENDBRANCH  14  15
ENDBRANCH   6  14
BRANCH  11  20
ATOM     20  N   UNL A   1      35.318  20.304  24.995  1.00  0.00     0.062 N 
ATOM     21  O   UNL A   1      34.831  19.226  24.636  1.00  0.00    -0.258 OA
ATOM     22  O   UNL A   1      36.533  20.532  25.087  1.00  0.00    -0.258 OA
ENDBRANCH  11  20
ENDBRANCH   3   5
ENDBRANCH   2   3
ENDBRANCH   1   2
BRANCH   1  23
ATOM     23  C   UNL A   1      31.790  30.108  26.547  1.00  0.00     0.275 C 
BRANCH  23  24
ATOM     24  O   UNL A   1      33.107  30.644  26.357  1.00  0.00    -0.458 OA
BRANCH  24  25
ATOM     25  C   UNL A   1      33.520  31.562  27.260  1.00  0.00     0.338 C 
ATOM     26  O   UNL A   1      32.921  32.560  27.618  1.00  0.00    -0.246 OA
BRANCH  25  27
ATOM     27  C   UNL A   1      34.850  31.164  27.769  1.00  0.00     0.060 A 
ATOM     28  C   UNL A   1      35.796  32.137  28.080  1.00  0.00     0.016 A 
ATOM     29  C   UNL A   1      35.129  29.822  28.029  1.00  0.00     0.016 A 
ATOM     30  C   UNL A   1      37.023  31.755  28.635  1.00  0.00     0.010 A 
ATOM     31  C   UNL A   1      36.296  29.463  28.703  1.00  0.00     0.010 A 
ATOM     32  C   UNL A   1      37.276  30.415  28.992  1.00  0.00    -0.014 A 
BRANCH  32  33
ATOM     33  C   UNL A   1      38.536  30.024  29.691  1.00  0.00     0.031 A 
ATOM     34  C   UNL A   1      38.864  30.525  31.080  1.00  0.00     0.074 A 
ATOM     35  C   UNL A   1      39.442  29.259  29.048  1.00  0.00     0.049 A 
ATOM     36  N   UNL A   1      39.902  30.242  31.829  1.00  0.00    -0.248 NA
ATOM     37  C   UNL A   1      37.947  31.500  31.692  1.00  0.00     0.031 C 
ATOM     38  C   UNL A   1      39.352  28.834  27.648  1.00  0.00     0.029 A 
ATOM     39  N   UNL A   1      40.614  28.695  29.487  1.00  0.00    -0.354 N 
ATOM     40  C   UNL A   1      39.786  31.036  32.964  1.00  0.00     0.074 A 
ATOM     41  C   UNL A   1      38.607  31.853  32.785  1.00  0.00     0.031 C 
ATOM     42  C   UNL A   1      40.384  28.024  27.366  1.00  0.00     0.029 A 
ATOM     43  C   UNL A   1      41.215  27.879  28.556  1.00  0.00     0.049 A 
ATOM     44  H   UNL A   1      40.989  28.858  30.382  1.00  0.00     0.167 HD
ATOM     45  C   UNL A   1      40.548  31.049  34.084  1.00  0.00     0.034 A 
ATOM     46  C   UNL A   1      42.287  27.069  28.656  1.00  0.00     0.034 A 
ATOM     47  C   UNL A   1      41.648  30.156  34.320  1.00  0.00     0.049 A 
ATOM     48  C   UNL A   1      43.008  26.952  29.967  1.00  0.00     0.074 A 
ATOM     49  C   UNL A   1      42.402  30.005  35.472  1.00  0.00     0.029 A 
ATOM     50  N   UNL A   1      42.133  29.242  33.400  1.00  0.00    -0.354 N 
ATOM     51  N   UNL A   1      42.778  27.591  31.087  1.00  0.00    -0.248 NA
ATOM     52  C   UNL A   1      44.106  25.976  30.045  1.00  0.00     0.031 C 
ATOM     53  C   UNL A   1      43.325  28.977  35.256  1.00  0.00     0.029 A 
ATOM     54  C   UNL A   1      43.155  28.501  33.967  1.00  0.00     0.049 A 
ATOM     55  H   UNL A   1      41.801  29.134  32.481  1.00  0.00     0.167 HD
ATOM     56  C   UNL A   1      43.689  27.086  32.008  1.00  0.00     0.074 A 
ATOM     57  C   UNL A   1      44.462  26.072  31.320  1.00  0.00     0.031 C 
ATOM     58  C   UNL A   1      43.878  27.451  33.298  1.00  0.00     0.034 A 
BRANCH  45  59
ATOM     59  C   UNL A   1      40.132  31.969  35.201  1.00  0.00     0.023 A 
ATOM     60  C   UNL A   1      40.731  33.242  35.287  1.00  0.00     0.012 A 
ATOM     61  C   UNL A   1      39.121  31.614  36.116  1.00  0.00     0.148 A 
ATOM     62  C   UNL A   1      40.359  34.138  36.287  1.00  0.00     0.002 A 
ATOM     63  C   UNL A   1      38.729  32.528  37.090  1.00  0.00     0.091 A 
ATOM     64  F   UNL A   1      38.571  30.396  36.025  1.00  0.00    -0.205 F 
ATOM     65  C   UNL A   1      39.354  33.784  37.182  1.00  0.00     0.022 A 
BRANCH  63  66
ATOM     66  S   UNL A   1      37.399  32.204  38.253  1.00  0.00     0.127 S 
ATOM     67  O   UNL A   1      38.005  32.613  39.518  1.00  0.00    -0.237 OA
ATOM     68  O   UNL A   1      36.342  33.094  37.768  1.00  0.00    -0.237 OA
ATOM     69  O   UNL A   1      37.097  30.784  38.133  1.00  0.00    -0.744 OA
ENDBRANCH  63  66
ENDBRANCH  45  59
BRANCH  46  70
ATOM     70  C   UNL A   1      42.630  26.191  27.505  1.00  0.00     0.023 A 
ATOM     71  C   UNL A   1      43.563  26.653  26.557  1.00  0.00     0.012 A 
ATOM     72  C   UNL A   1      42.127  24.880  27.401  1.00  0.00     0.148 A 
ATOM     73  C   UNL A   1      43.986  25.827  25.517  1.00  0.00     0.002 A 
ATOM     74  C   UNL A   1      42.579  24.050  26.382  1.00  0.00     0.091 A 
ATOM     75  F   UNL A   1      41.250  24.465  28.325  1.00  0.00    -0.205 F 
ATOM     76  C   UNL A   1      43.502  24.525  25.435  1.00  0.00     0.022 A 
BRANCH  74  77
ATOM     77  S   UNL A   1      42.095  22.327  26.241  1.00  0.00     0.127 S 
ATOM     78  O   UNL A   1      42.665  21.756  27.459  1.00  0.00    -0.237 OA
ATOM     79  O   UNL A   1      40.635  22.431  26.233  1.00  0.00    -0.237 OA
ATOM     80  O   UNL A   1      42.681  21.850  24.997  1.00  0.00    -0.744 OA
ENDBRANCH  74  77
ENDBRANCH  46  70
BRANCH  58  81
ATOM     81  C   UNL A   1      44.958  26.762  34.081  1.00  0.00     0.023 A 
ATOM     82  C   UNL A   1      46.199  27.405  34.246  1.00  0.00     0.012 A 
ATOM     83  C   UNL A   1      44.702  25.555  34.762  1.00  0.00     0.148 A 
ATOM     84  C   UNL A   1      47.173  26.857  35.078  1.00  0.00     0.002 A 
ATOM     85  C   UNL A   1      45.668  25.029  35.610  1.00  0.00     0.091 A 
ATOM     86  F   UNL A   1      43.515  24.958  34.578  1.00  0.00    -0.205 F 
ATOM     87  C   UNL A   1      46.905  25.677  35.768  1.00  0.00     0.022 A 
BRANCH  85  88
ATOM     88  S   UNL A   1      45.391  23.552  36.597  1.00  0.00     0.127 S 
ATOM     89  O   UNL A   1      44.751  24.106  37.788  1.00  0.00    -0.237 OA
ATOM     90  O   UNL A   1      44.505  22.767  35.736  1.00  0.00    -0.237 OA
ATOM     91  O   UNL A   1      46.704  22.960  36.815  1.00  0.00    -0.744 OA
ENDBRANCH  85  88
ENDBRANCH  58  81
ENDBRANCH  32  33
ENDBRANCH  25  27
ENDBRANCH  24  25
ENDBRANCH  23  24
ENDBRANCH   1  23
TORSDOF 18
ENDMDL
MODEL 3
REMARK VINA RESULT:     -11.0      4.776      9.844
REMARK SMILES [NH3+]CCC1=c2cc([N+](=O)[O-])ccc2=N[C@H]1C(=O)OCCOC(=O)c1ccc(-c2c3nc(c(-c4cccc(S(=O)(=O)[O-])c4F)c4ccc([nH]4)c(-c4cccc(S(=O)(=O)[O-])c4F)c4nc(c(-c5cccc(S(=O)(=O)[O-])c5F)c5ccc2[nH]5)C=C4)C=C3)cc1
REMARK SMILES IDX 19 1 18 2 16 3 17 4 15 5 4 6 5 7 6 8 13 9 14 10 7 11 12 12
REMARK SMILES IDX 11 13 3 14 2 15 1 16 8 20 9 21 10 22 20 23 21 24 22 25 23 26
REMARK SMILES IDX 24 27 25 28 86 29 26 30 85 31 27 32 28 33 29 34 79 35 30 36
REMARK SMILES IDX 84 37 78 38 80 39 31 40 83 41 77 42 76 43 32 45 64 46 44 47
REMARK SMILES IDX 63 48 45 49 48 50 62 51 81 52 46 53 47 54 61 56 82 57 49 58
REMARK SMILES IDX 33 59 34 60 42 61 35 62 37 63 43 64 36 65 38 66 39 67 40 68
REMARK SMILES IDX 41 69 65 70 66 71 74 72 67 73 69 74 75 75 68 76 70 77 71 78
REMARK SMILES IDX 72 79 73 80 50 81 51 82 59 83 52 84 54 85 60 86 53 87 55 88
REMARK SMILES IDX 56 89 57 90 58 91
REMARK H PARENT 1 17 1 18 1 19 80 44 48 55
REMARK Flexibility Score: inf
ROOT
ATOM      1  C   UNL A   1      33.124  27.438  25.491  1.00  0.00     0.274 C 
ENDROOT
BRANCH   1   2
ATOM      2  O   UNL A   1      33.118  27.062  24.099  1.00  0.00    -0.460 OA
BRANCH   2   3
ATOM      3  C   UNL A   1      33.603  25.825  23.793  1.00  0.00     0.335 C 
ATOM      4  O   UNL A   1      33.947  25.474  22.668  1.00  0.00    -0.249 OA
BRANCH   3   5
ATOM      5  C   UNL A   1      33.716  24.891  25.016  1.00  0.00     0.242 C 
ATOM      6  C   UNL A   1      32.702  23.773  25.038  1.00  0.00    -0.019 C 
ATOM      7  C   UNL A   1      33.320  22.592  24.998  1.00  0.00     0.009 A 
ATOM      8  C   UNL A   1      32.887  21.227  24.981  1.00  0.00     0.096 A 
ATOM      9  C   UNL A   1      34.746  22.956  25.019  1.00  0.00     0.067 A 
ATOM     10  N   UNL A   1      35.057  24.213  25.032  1.00  0.00    -0.265 NA
ATOM     11  C   UNL A   1      33.827  20.263  25.006  1.00  0.00     0.270 A 
ATOM     12  C   UNL A   1      35.713  21.840  25.056  1.00  0.00     0.035 A 
ATOM     13  C   UNL A   1      35.252  20.577  25.058  1.00  0.00     0.088 A 
BRANCH   6  14
ATOM     14  C   UNL A   1      31.220  23.991  25.145  1.00  0.00     0.096 C 
BRANCH  14  15
ATOM     15  C   UNL A   1      30.567  23.619  26.486  1.00  0.00     0.263 C 
BRANCH  15  16
ATOM     16  N   UNL A   1      29.885  22.331  26.506  1.00  0.00    -0.357 N 
ATOM     17  H   UNL A   1      28.975  22.435  26.954  1.00  0.00     0.344 HD
ATOM     18  H   UNL A   1      30.445  21.658  27.028  1.00  0.00     0.344 HD
ATOM     19  H   UNL A   1      29.758  21.999  25.550  1.00  0.00     0.344 HD
ENDBRANCH  15  16
ENDBRANCH  14  15
ENDBRANCH   6  14
BRANCH  11  20
ATOM     20  N   UNL A   1      33.379  18.865  24.981  1.00  0.00     0.062 N 
ATOM     21  O   UNL A   1      34.186  17.993  24.638  1.00  0.00    -0.258 OA
ATOM     22  O   UNL A   1      32.206  18.646  25.320  1.00  0.00    -0.258 OA
ENDBRANCH  11  20
ENDBRANCH   3   5
ENDBRANCH   2   3
ENDBRANCH   1   2
BRANCH   1  23
ATOM     23  C   UNL A   1      32.354  28.736  25.703  1.00  0.00     0.275 C 
BRANCH  23  24
ATOM     24  O   UNL A   1      33.286  29.826  25.675  1.00  0.00    -0.458 OA
BRANCH  24  25
ATOM     25  C   UNL A   1      33.217  30.704  26.702  1.00  0.00     0.338 C 
ATOM     26  O   UNL A   1      32.341  31.525  26.907  1.00  0.00    -0.246 OA
BRANCH  25  27
ATOM     27  C   UNL A   1      34.399  30.517  27.570  1.00  0.00     0.060 A 
ATOM     28  C   UNL A   1      34.590  29.307  28.233  1.00  0.00     0.016 A 
ATOM     29  C   UNL A   1      35.373  31.512  27.654  1.00  0.00     0.016 A 
ATOM     30  C   UNL A   1      35.752  29.110  28.989  1.00  0.00     0.010 A 
ATOM     31  C   UNL A   1      36.584  31.260  28.298  1.00  0.00     0.010 A 
ATOM     32  C   UNL A   1      36.785  30.069  29.001  1.00  0.00    -0.014 A 
BRANCH  32  33
ATOM     33  C   UNL A   1      38.073  29.812  29.711  1.00  0.00     0.031 A 
ATOM     34  C   UNL A   1      38.341  30.358  31.096  1.00  0.00     0.074 A 
ATOM     35  C   UNL A   1      39.054  29.132  29.081  1.00  0.00     0.049 A 
ATOM     36  N   UNL A   1      39.397  30.186  31.853  1.00  0.00    -0.248 NA
ATOM     37  C   UNL A   1      37.329  31.245  31.691  1.00  0.00     0.031 C 
ATOM     38  C   UNL A   1      39.014  28.685  27.686  1.00  0.00     0.029 A 
ATOM     39  N   UNL A   1      40.273  28.691  29.533  1.00  0.00    -0.354 N 
ATOM     40  C   UNL A   1      39.196  30.979  32.978  1.00  0.00     0.074 A 
ATOM     41  C   UNL A   1      37.944  31.673  32.783  1.00  0.00     0.031 C 
ATOM     42  C   UNL A   1      40.123  27.977  27.419  1.00  0.00     0.029 A 
ATOM     43  C   UNL A   1      40.958  27.928  28.615  1.00  0.00     0.049 A 
ATOM     44  H   UNL A   1      40.625  28.901  30.428  1.00  0.00     0.167 HD
ATOM     45  C   UNL A   1      39.947  31.079  34.101  1.00  0.00     0.034 A 
ATOM     46  C   UNL A   1      42.103  27.229  28.730  1.00  0.00     0.034 A 
ATOM     47  C   UNL A   1      41.128  30.302  34.354  1.00  0.00     0.049 A 
ATOM     48  C   UNL A   1      42.824  27.198  30.046  1.00  0.00     0.074 A 
ATOM     49  C   UNL A   1      41.885  30.238  35.511  1.00  0.00     0.029 A 
ATOM     50  N   UNL A   1      41.706  29.429  33.448  1.00  0.00    -0.354 N 
ATOM     51  N   UNL A   1      42.525  27.824  31.157  1.00  0.00    -0.248 NA
ATOM     52  C   UNL A   1      44.012  26.336  30.141  1.00  0.00     0.031 C 
ATOM     53  C   UNL A   1      42.907  29.304  35.313  1.00  0.00     0.029 A 
ATOM     54  C   UNL A   1      42.792  28.799  34.028  1.00  0.00     0.049 A 
ATOM     55  H   UNL A   1      41.392  29.279  32.527  1.00  0.00     0.167 HD
ATOM     56  C   UNL A   1      43.476  27.422  32.089  1.00  0.00     0.074 A 
ATOM     57  C   UNL A   1      44.349  26.481  31.417  1.00  0.00     0.031 C 
ATOM     58  C   UNL A   1      43.619  27.818  33.375  1.00  0.00     0.034 A 
BRANCH  45  59
ATOM     59  C   UNL A   1      39.435  31.965  35.206  1.00  0.00     0.023 A 
ATOM     60  C   UNL A   1      38.507  31.432  36.124  1.00  0.00     0.012 A 
ATOM     61  C   UNL A   1      39.904  33.282  35.379  1.00  0.00     0.148 A 
ATOM     62  C   UNL A   1      38.025  32.204  37.178  1.00  0.00     0.002 A 
ATOM     63  C   UNL A   1      39.445  34.035  36.456  1.00  0.00     0.091 A 
ATOM     64  F   UNL A   1      40.778  33.774  34.490  1.00  0.00    -0.205 F 
ATOM     65  C   UNL A   1      38.500  33.501  37.349  1.00  0.00     0.022 A 
BRANCH  63  66
ATOM     66  S   UNL A   1      40.039  35.694  36.810  1.00  0.00     0.127 S 
ATOM     67  O   UNL A   1      39.675  36.406  35.587  1.00  0.00    -0.237 OA
ATOM     68  O   UNL A   1      39.248  36.060  37.986  1.00  0.00    -0.237 OA
ATOM     69  O   UNL A   1      41.468  35.564  37.057  1.00  0.00    -0.744 OA
ENDBRANCH  63  66
ENDBRANCH  45  59
BRANCH  46  70
ATOM     70  C   UNL A   1      42.538  26.375  27.591  1.00  0.00     0.023 A 
ATOM     71  C   UNL A   1      43.512  26.875  26.706  1.00  0.00     0.012 A 
ATOM     72  C   UNL A   1      42.079  25.054  27.442  1.00  0.00     0.148 A 
ATOM     73  C   UNL A   1      44.020  26.075  25.684  1.00  0.00     0.002 A 
ATOM     74  C   UNL A   1      42.613  24.250  26.442  1.00  0.00     0.091 A 
ATOM     75  F   UNL A   1      41.159  24.602  28.306  1.00  0.00    -0.205 F 
ATOM     76  C   UNL A   1      43.578  24.762  25.558  1.00  0.00     0.022 A 
BRANCH  74  77
ATOM     77  S   UNL A   1      42.186  22.517  26.252  1.00  0.00     0.127 S 
ATOM     78  O   UNL A   1      42.930  22.155  25.047  1.00  0.00    -0.237 OA
ATOM     79  O   UNL A   1      42.708  21.946  27.493  1.00  0.00    -0.237 OA
ATOM     80  O   UNL A   1      40.736  22.477  26.121  1.00  0.00    -0.744 OA
ENDBRANCH  74  77
ENDBRANCH  46  70
BRANCH  58  81
ATOM     81  C   UNL A   1      44.757  27.247  34.172  1.00  0.00     0.023 A 
ATOM     82  C   UNL A   1      45.992  27.924  34.181  1.00  0.00     0.012 A 
ATOM     83  C   UNL A   1      44.566  26.132  35.011  1.00  0.00     0.148 A 
ATOM     84  C   UNL A   1      47.024  27.497  35.015  1.00  0.00     0.002 A 
ATOM     85  C   UNL A   1      45.591  25.729  35.859  1.00  0.00     0.091 A 
ATOM     86  F   UNL A   1      43.384  25.499  34.974  1.00  0.00    -0.205 F 
ATOM     87  C   UNL A   1      46.820  26.410  35.861  1.00  0.00     0.022 A 
BRANCH  85  88
ATOM     88  S   UNL A   1      45.403  24.383  37.036  1.00  0.00     0.127 S 
ATOM     89  O   UNL A   1      46.673  24.439  37.757  1.00  0.00    -0.237 OA
ATOM     90  O   UNL A   1      44.240  24.813  37.813  1.00  0.00    -0.237 OA
ATOM     91  O   UNL A   1      45.191  23.180  36.243  1.00  0.00    -0.744 OA
ENDBRANCH  85  88
ENDBRANCH  58  81
ENDBRANCH  32  33
ENDBRANCH  25  27
ENDBRANCH  24  25
ENDBRANCH  23  24
ENDBRANCH   1  23
TORSDOF 18
ENDMDL
