MODEL 1
REMARK VINA RESULT:     -12.6      0.000      0.000
REMARK SMILES O=C(OCCOC(=O)c1[nH]ncc1C[NH+]1CCC([N@H+]2CCC[C@@H](C(=O)N3CCCC3)C2)CC1)c1ccc(-c2c3nc(c(-c4cccc(S(=O)(=O)[O-])c4F)c4ccc([nH]4)c(-c4cccc(S(=O)(=O)[O-])c4F)c4nc(c(-c5cccc(S(=O)(=O)[O-])c5F)c5ccc2[nH]5)C=C4)C=C3)cc1
REMARK SMILES IDX 5 1 4 2 3 3 2 4 1 5 34 6 35 7 96 8 36 9 95 10 37 11 38 12
REMARK SMILES IDX 39 13 89 14 40 15 94 16 88 17 90 18 41 19 93 20 87 21 86 22
REMARK SMILES IDX 42 24 74 25 54 26 73 27 55 28 58 29 72 30 91 31 56 32 57 33
REMARK SMILES IDX 71 35 92 36 59 37 43 38 44 39 52 40 45 41 47 42 53 43 46 44
REMARK SMILES IDX 48 45 49 46 50 47 51 48 75 49 76 50 84 51 77 52 79 53 85 54
REMARK SMILES IDX 78 55 80 56 81 57 82 58 83 59 60 60 61 61 69 62 62 63 64 64
REMARK SMILES IDX 70 65 63 66 65 67 66 68 67 69 68 70 6 71 7 72 8 73 9 74
REMARK SMILES IDX 10 75 13 76 11 77 12 79 14 80 15 81 16 82 33 83 17 85 32 86
REMARK SMILES IDX 18 87 19 88 20 89 31 90 21 92 23 93 22 94 24 95 25 96 26 97
REMARK SMILES IDX 27 98 30 99 28 100 29 101
REMARK H PARENT 90 23 58 34 10 78 15 84 19 91
REMARK Flexibility Score: inf
ROOT
ATOM      1  C   UNL A   1      35.938  22.139  25.910  1.00  0.00     0.275 C 
ENDROOT
BRANCH   1   2
ATOM      2  C   UNL A   1      36.867  21.288  25.041  1.00  0.00     0.275 C 
BRANCH   2   3
ATOM      3  O   UNL A   1      37.901  20.625  25.794  1.00  0.00    -0.458 OA
BRANCH   3   4
ATOM      4  C   UNL A   1      39.181  20.952  26.086  1.00  0.00     0.338 C 
ATOM      5  O   UNL A   1      40.003  20.033  26.065  1.00  0.00    -0.246 OA
BRANCH   4   6
ATOM      6  C   UNL A   1      39.683  22.317  26.480  1.00  0.00     0.060 A 
ATOM      7  C   UNL A   1      39.292  23.546  25.946  1.00  0.00     0.016 A 
ATOM      8  C   UNL A   1      40.643  22.348  27.515  1.00  0.00     0.016 A 
ATOM      9  C   UNL A   1      39.846  24.752  26.408  1.00  0.00     0.010 A 
ATOM     10  C   UNL A   1      41.176  23.550  28.003  1.00  0.00     0.010 A 
ATOM     11  C   UNL A   1      40.796  24.765  27.433  1.00  0.00    -0.014 A 
BRANCH  11  12
ATOM     12  C   UNL A   1      41.428  26.046  27.844  1.00  0.00     0.031 A 
ATOM     13  C   UNL A   1      42.846  26.320  27.467  1.00  0.00     0.074 A 
ATOM     14  C   UNL A   1      40.727  26.982  28.511  1.00  0.00     0.049 A 
ATOM     15  N   UNL A   1      43.534  27.416  27.636  1.00  0.00    -0.248 NA
ATOM     16  C   UNL A   1      43.586  25.227  26.816  1.00  0.00     0.031 C 
ATOM     17  C   UNL A   1      39.359  26.801  28.959  1.00  0.00     0.029 A 
ATOM     18  N   UNL A   1      41.038  28.250  28.931  1.00  0.00    -0.354 N 
ATOM     19  C   UNL A   1      44.790  27.150  27.117  1.00  0.00     0.074 A 
ATOM     20  C   UNL A   1      44.779  25.780  26.651  1.00  0.00     0.031 C 
ATOM     21  C   UNL A   1      38.919  27.919  29.552  1.00  0.00     0.029 A 
ATOM     22  C   UNL A   1      40.007  28.877  29.596  1.00  0.00     0.049 A 
ATOM     23  H   UNL A   1      41.913  28.672  28.772  1.00  0.00     0.167 HD
ATOM     24  C   UNL A   1      45.849  27.985  27.019  1.00  0.00     0.034 A 
ATOM     25  C   UNL A   1      39.940  30.078  30.200  1.00  0.00     0.034 A 
ATOM     26  C   UNL A   1      45.853  29.339  27.499  1.00  0.00     0.049 A 
ATOM     27  C   UNL A   1      41.138  30.969  30.111  1.00  0.00     0.074 A 
ATOM     28  C   UNL A   1      46.868  30.273  27.430  1.00  0.00     0.029 A 
ATOM     29  N   UNL A   1      44.794  29.943  28.162  1.00  0.00    -0.354 N 
ATOM     30  N   UNL A   1      42.278  30.740  29.505  1.00  0.00    -0.248 NA
ATOM     31  C   UNL A   1      41.037  32.288  30.745  1.00  0.00     0.031 C 
ATOM     32  C   UNL A   1      46.427  31.441  28.065  1.00  0.00     0.029 A 
ATOM     33  C   UNL A   1      45.132  31.238  28.515  1.00  0.00     0.049 A 
ATOM     34  H   UNL A   1      43.928  29.514  28.353  1.00  0.00     0.167 HD
ATOM     35  C   UNL A   1      43.022  31.897  29.656  1.00  0.00     0.074 A 
ATOM     36  C   UNL A   1      42.197  32.831  30.401  1.00  0.00     0.031 C 
ATOM     37  C   UNL A   1      44.278  32.158  29.223  1.00  0.00     0.034 A 
BRANCH  24  38
ATOM     38  C   UNL A   1      47.068  27.435  26.339  1.00  0.00     0.023 A 
ATOM     39  C   UNL A   1      47.192  27.560  24.939  1.00  0.00     0.012 A 
ATOM     40  C   UNL A   1      48.064  26.763  27.068  1.00  0.00     0.148 A 
ATOM     41  C   UNL A   1      48.273  26.990  24.271  1.00  0.00     0.002 A 
ATOM     42  C   UNL A   1      49.155  26.224  26.398  1.00  0.00     0.091 A 
ATOM     43  F   UNL A   1      47.907  26.630  28.392  1.00  0.00    -0.205 F 
ATOM     44  C   UNL A   1      49.256  26.327  25.000  1.00  0.00     0.022 A 
BRANCH  42  45
ATOM     45  S   UNL A   1      50.491  25.379  27.248  1.00  0.00     0.127 S 
ATOM     46  O   UNL A   1      49.792  24.238  27.836  1.00  0.00    -0.237 OA
ATOM     47  O   UNL A   1      51.391  25.041  26.144  1.00  0.00    -0.237 OA
ATOM     48  O   UNL A   1      51.032  26.339  28.200  1.00  0.00    -0.744 OA
ENDBRANCH  42  45
ENDBRANCH  24  38
BRANCH  25  49
ATOM     49  C   UNL A   1      38.700  30.512  30.903  1.00  0.00     0.023 A 
ATOM     50  C   UNL A   1      38.532  30.215  32.268  1.00  0.00     0.012 A 
ATOM     51  C   UNL A   1      37.689  31.223  30.227  1.00  0.00     0.148 A 
ATOM     52  C   UNL A   1      37.370  30.597  32.942  1.00  0.00     0.002 A 
ATOM     53  C   UNL A   1      36.542  31.619  30.909  1.00  0.00     0.091 A 
ATOM     54  F   UNL A   1      37.860  31.489  28.924  1.00  0.00    -0.205 F 
ATOM     55  C   UNL A   1      36.378  31.303  32.266  1.00  0.00     0.022 A 
BRANCH  53  56
ATOM     56  S   UNL A   1      35.247  32.576  30.111  1.00  0.00     0.127 S 
ATOM     57  O   UNL A   1      34.843  31.685  29.028  1.00  0.00    -0.237 OA
ATOM     58  O   UNL A   1      34.262  32.723  31.184  1.00  0.00    -0.237 OA
ATOM     59  O   UNL A   1      35.892  33.820  29.711  1.00  0.00    -0.744 OA
ENDBRANCH  53  56
ENDBRANCH  25  49
BRANCH  37  60
ATOM     60  C   UNL A   1      44.824  33.523  29.520  1.00  0.00     0.023 A 
ATOM     61  C   UNL A   1      45.487  33.760  30.739  1.00  0.00     0.012 A 
ATOM     62  C   UNL A   1      44.731  34.549  28.562  1.00  0.00     0.148 A 
ATOM     63  C   UNL A   1      46.035  35.013  31.008  1.00  0.00     0.002 A 
ATOM     64  C   UNL A   1      45.319  35.780  28.819  1.00  0.00     0.091 A 
ATOM     65  F   UNL A   1      44.063  34.306  27.425  1.00  0.00    -0.205 F 
ATOM     66  C   UNL A   1      45.964  36.017  30.045  1.00  0.00     0.022 A 
BRANCH  64  67
ATOM     67  S   UNL A   1      45.348  37.091  27.593  1.00  0.00     0.127 S 
ATOM     68  O   UNL A   1      46.110  36.472  26.511  1.00  0.00    -0.237 OA
ATOM     69  O   UNL A   1      43.926  37.284  27.309  1.00  0.00    -0.237 OA
ATOM     70  O   UNL A   1      45.988  38.227  28.245  1.00  0.00    -0.744 OA
ENDBRANCH  64  67
ENDBRANCH  37  60
ENDBRANCH  11  12
ENDBRANCH   4   6
ENDBRANCH   3   4
ENDBRANCH   2   3
ENDBRANCH   1   2
BRANCH   1  71
ATOM     71  O   UNL A   1      34.562  21.930  25.576  1.00  0.00    -0.457 OA
BRANCH  71  72
ATOM     72  C   UNL A   1      33.849  21.173  26.459  1.00  0.00     0.356 C 
ATOM     73  O   UNL A   1      33.613  21.474  27.622  1.00  0.00    -0.244 OA
BRANCH  72  74
ATOM     74  C   UNL A   1      33.257  20.074  25.764  1.00  0.00     0.152 A 
ATOM     75  N   UNL A   1      33.202  18.825  26.317  1.00  0.00    -0.271 N 
ATOM     76  C   UNL A   1      32.600  19.981  24.544  1.00  0.00     0.059 A 
ATOM     77  N   UNL A   1      32.443  17.963  25.629  1.00  0.00    -0.183 NA
ATOM     78  H   UNL A   1      33.675  18.582  27.146  1.00  0.00     0.190 HD
ATOM     79  C   UNL A   1      32.055  18.670  24.566  1.00  0.00     0.145 A 
BRANCH  76  80
ATOM     80  C   UNL A   1      32.473  21.033  23.490  1.00  0.00     0.303 C 
BRANCH  80  81
ATOM     81  N   UNL A   1      32.236  22.378  24.016  1.00  0.00    -0.331 N 
ATOM     82  C   UNL A   1      32.455  23.410  23.012  1.00  0.00     0.268 C 
ATOM     83  C   UNL A   1      30.960  22.569  24.719  1.00  0.00     0.268 C 
ATOM     84  H   UNL A   1      32.945  22.480  24.743  1.00  0.00     0.348 HD
ATOM     85  C   UNL A   1      32.448  24.785  23.663  1.00  0.00     0.126 C 
ATOM     86  C   UNL A   1      30.910  23.918  25.436  1.00  0.00     0.126 C 
ATOM     87  C   UNL A   1      31.117  25.031  24.403  1.00  0.00     0.195 C 
BRANCH  87  88
ATOM     88  N   UNL A   1      30.951  26.393  24.953  1.00  0.00    -0.331 N 
ATOM     89  C   UNL A   1      31.969  26.788  25.927  1.00  0.00     0.262 C 
ATOM     90  C   UNL A   1      30.773  27.353  23.869  1.00  0.00     0.275 C 
ATOM     91  H   UNL A   1      30.097  26.384  25.511  1.00  0.00     0.348 HD
ATOM     92  C   UNL A   1      31.777  28.229  26.413  1.00  0.00     0.062 C 
ATOM     93  C   UNL A   1      30.597  28.815  24.298  1.00  0.00     0.134 C 
ATOM     94  C   UNL A   1      31.730  29.210  25.242  1.00  0.00     0.025 C 
BRANCH  93  95
ATOM     95  C   UNL A   1      30.601  29.564  22.968  1.00  0.00     0.231 C 
ATOM     96  O   UNL A   1      31.291  29.199  22.015  1.00  0.00    -0.274 OA
ATOM     97  N   UNL A   1      29.589  30.494  22.809  1.00  0.00    -0.342 N 
ATOM     98  C   UNL A   1      29.001  31.352  23.825  1.00  0.00     0.119 C 
ATOM     99  C   UNL A   1      28.849  30.562  21.564  1.00  0.00     0.119 C 
ATOM    100  C   UNL A   1      27.595  31.615  23.319  1.00  0.00     0.023 C 
ATOM    101  C   UNL A   1      27.760  31.600  21.803  1.00  0.00     0.023 C 
ENDBRANCH  93  95
ENDBRANCH  87  88
ENDBRANCH  80  81
ENDBRANCH  76  80
ENDBRANCH  72  74
ENDBRANCH  71  72
ENDBRANCH   1  71
TORSDOF 18
ENDMDL
MODEL 2
REMARK VINA RESULT:     -12.1      2.030      2.340
REMARK SMILES O=C(OCCOC(=O)c1[nH]ncc1C[NH+]1CCC([N@H+]2CCC[C@@H](C(=O)N3CCCC3)C2)CC1)c1ccc(-c2c3nc(c(-c4cccc(S(=O)(=O)[O-])c4F)c4ccc([nH]4)c(-c4cccc(S(=O)(=O)[O-])c4F)c4nc(c(-c5cccc(S(=O)(=O)[O-])c5F)c5ccc2[nH]5)C=C4)C=C3)cc1
REMARK SMILES IDX 5 1 4 2 3 3 2 4 1 5 34 6 35 7 96 8 36 9 95 10 37 11 38 12
REMARK SMILES IDX 39 13 89 14 40 15 94 16 88 17 90 18 41 19 93 20 87 21 86 22
REMARK SMILES IDX 42 24 74 25 54 26 73 27 55 28 58 29 72 30 91 31 56 32 57 33
REMARK SMILES IDX 71 35 92 36 59 37 43 38 44 39 52 40 45 41 47 42 53 43 46 44
REMARK SMILES IDX 48 45 49 46 50 47 51 48 75 49 76 50 84 51 77 52 79 53 85 54
REMARK SMILES IDX 78 55 80 56 81 57 82 58 83 59 60 60 61 61 69 62 62 63 64 64
REMARK SMILES IDX 70 65 63 66 65 67 66 68 67 69 68 70 6 71 7 72 8 73 9 74
REMARK SMILES IDX 10 75 13 76 11 77 12 79 14 80 15 81 16 82 33 83 17 85 32 86
REMARK SMILES IDX 18 87 19 88 20 89 31 90 21 92 23 93 22 94 24 95 25 96 26 97
REMARK SMILES IDX 27 98 30 99 28 100 29 101
REMARK H PARENT 90 23 58 34 10 78 15 84 19 91
REMARK Flexibility Score: inf
ROOT
ATOM      1  C   UNL A   1      36.743  22.733  25.409  1.00  0.00     0.275 C 
ENDROOT
BRANCH   1   2
ATOM      2  C   UNL A   1      37.770  21.670  25.011  1.00  0.00     0.275 C 
BRANCH   2   3
ATOM      3  O   UNL A   1      38.563  21.202  26.120  1.00  0.00    -0.458 OA
BRANCH   3   4
ATOM      4  C   UNL A   1      39.818  21.487  26.539  1.00  0.00     0.338 C 
ATOM      5  O   UNL A   1      40.562  20.526  26.744  1.00  0.00    -0.246 OA
BRANCH   4   6
ATOM      6  C   UNL A   1      40.371  22.860  26.824  1.00  0.00     0.060 A 
ATOM      7  C   UNL A   1      40.088  24.042  26.139  1.00  0.00     0.016 A 
ATOM      8  C   UNL A   1      41.261  22.953  27.917  1.00  0.00     0.016 A 
ATOM      9  C   UNL A   1      40.679  25.261  26.512  1.00  0.00     0.010 A 
ATOM     10  C   UNL A   1      41.829  24.171  28.314  1.00  0.00     0.010 A 
ATOM     11  C   UNL A   1      41.559  25.336  27.595  1.00  0.00    -0.014 A 
BRANCH  11  12
ATOM     12  C   UNL A   1      42.235  26.621  27.916  1.00  0.00     0.031 A 
ATOM     13  C   UNL A   1      43.643  26.840  27.471  1.00  0.00     0.074 A 
ATOM     14  C   UNL A   1      41.583  27.606  28.559  1.00  0.00     0.049 A 
ATOM     15  N   UNL A   1      44.363  27.926  27.557  1.00  0.00    -0.248 NA
ATOM     16  C   UNL A   1      44.332  25.698  26.849  1.00  0.00     0.031 C 
ATOM     17  C   UNL A   1      40.230  27.482  29.068  1.00  0.00     0.029 A 
ATOM     18  N   UNL A   1      41.939  28.885  28.901  1.00  0.00    -0.354 N 
ATOM     19  C   UNL A   1      45.590  27.603  27.005  1.00  0.00     0.074 A 
ATOM     20  C   UNL A   1      45.529  26.211  26.611  1.00  0.00     0.031 C 
ATOM     21  C   UNL A   1      39.839  28.639  29.619  1.00  0.00     0.029 A 
ATOM     22  C   UNL A   1      40.949  29.570  29.572  1.00  0.00     0.049 A 
ATOM     23  H   UNL A   1      42.816  29.277  28.687  1.00  0.00     0.167 HD
ATOM     24  C   UNL A   1      46.663  28.405  26.823  1.00  0.00     0.034 A 
ATOM     25  C   UNL A   1      40.934  30.802  30.115  1.00  0.00     0.034 A 
ATOM     26  C   UNL A   1      46.717  29.781  27.233  1.00  0.00     0.049 A 
ATOM     27  C   UNL A   1      42.147  31.657  29.935  1.00  0.00     0.074 A 
ATOM     28  C   UNL A   1      47.749  30.686  27.077  1.00  0.00     0.029 A 
ATOM     29  N   UNL A   1      45.699  30.444  27.903  1.00  0.00    -0.354 N 
ATOM     30  N   UNL A   1      43.256  31.370  29.298  1.00  0.00    -0.248 NA
ATOM     31  C   UNL A   1      42.101  33.009  30.503  1.00  0.00     0.031 C 
ATOM     32  C   UNL A   1      47.360  31.895  27.666  1.00  0.00     0.029 A 
ATOM     33  C   UNL A   1      46.080  31.747  28.176  1.00  0.00     0.049 A 
ATOM     34  H   UNL A   1      44.832  30.047  28.149  1.00  0.00     0.167 HD
ATOM     35  C   UNL A   1      44.032  32.515  29.361  1.00  0.00     0.074 A 
ATOM     36  C   UNL A   1      43.259  33.505  30.088  1.00  0.00     0.031 C 
ATOM     37  C   UNL A   1      45.276  32.722  28.867  1.00  0.00     0.034 A 
BRANCH  24  38
ATOM     38  C   UNL A   1      47.842  27.792  26.127  1.00  0.00     0.023 A 
ATOM     39  C   UNL A   1      48.880  27.225  26.896  1.00  0.00     0.012 A 
ATOM     40  C   UNL A   1      47.947  27.811  24.725  1.00  0.00     0.148 A 
ATOM     41  C   UNL A   1      50.023  26.720  26.281  1.00  0.00     0.002 A 
ATOM     42  C   UNL A   1      49.076  27.278  24.117  1.00  0.00     0.091 A 
ATOM     43  F   UNL A   1      46.963  28.383  24.019  1.00  0.00    -0.205 F 
ATOM     44  C   UNL A   1      50.119  26.741  24.893  1.00  0.00     0.022 A 
BRANCH  42  45
ATOM     45  S   UNL A   1      49.283  27.227  22.335  1.00  0.00     0.127 S 
ATOM     46  O   UNL A   1      50.720  26.987  22.212  1.00  0.00    -0.237 OA
ATOM     47  O   UNL A   1      48.439  26.092  21.960  1.00  0.00    -0.237 OA
ATOM     48  O   UNL A   1      48.821  28.516  21.840  1.00  0.00    -0.744 OA
ENDBRANCH  42  45
ENDBRANCH  24  38
BRANCH  25  49
ATOM     49  C   UNL A   1      39.732  31.302  30.842  1.00  0.00     0.023 A 
ATOM     50  C   UNL A   1      38.660  31.855  30.119  1.00  0.00     0.012 A 
ATOM     51  C   UNL A   1      39.646  31.226  32.246  1.00  0.00     0.148 A 
ATOM     52  C   UNL A   1      37.532  32.345  30.782  1.00  0.00     0.002 A 
ATOM     53  C   UNL A   1      38.511  31.698  32.900  1.00  0.00     0.091 A 
ATOM     54  F   UNL A   1      40.681  30.705  32.921  1.00  0.00    -0.205 F 
ATOM     55  C   UNL A   1      37.454  32.262  32.170  1.00  0.00     0.022 A 
BRANCH  53  56
ATOM     56  S   UNL A   1      38.323  31.575  34.683  1.00  0.00     0.127 S 
ATOM     57  O   UNL A   1      37.035  32.230  34.893  1.00  0.00    -0.237 OA
ATOM     58  O   UNL A   1      38.317  30.127  34.898  1.00  0.00    -0.237 OA
ATOM     59  O   UNL A   1      39.487  32.261  35.230  1.00  0.00    -0.744 OA
ENDBRANCH  53  56
ENDBRANCH  25  49
BRANCH  37  60
ATOM     60  C   UNL A   1      45.864  34.086  29.073  1.00  0.00     0.023 A 
ATOM     61  C   UNL A   1      46.748  34.312  30.145  1.00  0.00     0.012 A 
ATOM     62  C   UNL A   1      45.585  35.124  28.165  1.00  0.00     0.148 A 
ATOM     63  C   UNL A   1      47.333  35.564  30.321  1.00  0.00     0.002 A 
ATOM     64  C   UNL A   1      46.207  36.355  28.322  1.00  0.00     0.091 A 
ATOM     65  F   UNL A   1      44.711  34.891  27.174  1.00  0.00    -0.205 F 
ATOM     66  C   UNL A   1      47.075  36.580  29.403  1.00  0.00     0.022 A 
BRANCH  64  67
ATOM     67  S   UNL A   1      45.995  37.682  27.131  1.00  0.00     0.127 S 
ATOM     68  O   UNL A   1      44.545  37.690  26.947  1.00  0.00    -0.237 OA
ATOM     69  O   UNL A   1      46.527  38.838  27.854  1.00  0.00    -0.237 OA
ATOM     70  O   UNL A   1      46.777  37.295  25.964  1.00  0.00    -0.744 OA
ENDBRANCH  64  67
ENDBRANCH  37  60
ENDBRANCH  11  12
ENDBRANCH   4   6
ENDBRANCH   3   4
ENDBRANCH   2   3
ENDBRANCH   1   2
BRANCH   1  71
ATOM     71  O   UNL A   1      35.411  22.337  25.065  1.00  0.00    -0.457 OA
BRANCH  71  72
ATOM     72  C   UNL A   1      34.823  21.446  25.914  1.00  0.00     0.356 C 
ATOM     73  O   UNL A   1      34.460  21.690  27.057  1.00  0.00    -0.244 OA
BRANCH  72  74
ATOM     74  C   UNL A   1      34.520  20.247  25.199  1.00  0.00     0.152 A 
ATOM     75  N   UNL A   1      35.487  19.325  24.907  1.00  0.00    -0.271 N 
ATOM     76  C   UNL A   1      33.328  19.712  24.728  1.00  0.00     0.059 A 
ATOM     77  N   UNL A   1      35.006  18.176  24.416  1.00  0.00    -0.183 NA
ATOM     78  H   UNL A   1      36.447  19.491  25.046  1.00  0.00     0.190 HD
ATOM     79  C   UNL A   1      33.693  18.399  24.331  1.00  0.00     0.145 A 
BRANCH  76  80
ATOM     80  C   UNL A   1      31.983  20.363  24.693  1.00  0.00     0.303 C 
BRANCH  80  81
ATOM     81  N   UNL A   1      32.013  21.806  24.938  1.00  0.00    -0.331 N 
ATOM     82  C   UNL A   1      31.970  22.577  23.702  1.00  0.00     0.268 C 
ATOM     83  C   UNL A   1      31.040  22.304  25.920  1.00  0.00     0.268 C 
ATOM     84  H   UNL A   1      32.920  21.955  25.380  1.00  0.00     0.348 HD
ATOM     85  C   UNL A   1      32.259  24.042  23.988  1.00  0.00     0.126 C 
ATOM     86  C   UNL A   1      31.308  23.763  26.286  1.00  0.00     0.126 C 
ATOM     87  C   UNL A   1      31.250  24.609  25.009  1.00  0.00     0.195 C 
BRANCH  87  88
ATOM     88  N   UNL A   1      31.356  26.063  25.250  1.00  0.00    -0.331 N 
ATOM     89  C   UNL A   1      32.679  26.517  25.679  1.00  0.00     0.262 C 
ATOM     90  C   UNL A   1      30.823  26.800  24.110  1.00  0.00     0.275 C 
ATOM     91  H   UNL A   1      30.773  26.270  26.062  1.00  0.00     0.348 HD
ATOM     92  C   UNL A   1      32.740  28.038  25.854  1.00  0.00     0.062 C 
ATOM     93  C   UNL A   1      30.879  28.329  24.223  1.00  0.00     0.134 C 
ATOM     94  C   UNL A   1      32.297  28.764  24.583  1.00  0.00     0.025 C 
BRANCH  93  95
ATOM     95  C   UNL A   1      30.414  28.790  22.845  1.00  0.00     0.231 C 
ATOM     96  O   UNL A   1      30.653  28.143  21.824  1.00  0.00    -0.274 OA
ATOM     97  N   UNL A   1      29.485  29.815  22.845  1.00  0.00    -0.342 N 
ATOM     98  C   UNL A   1      29.397  30.937  23.765  1.00  0.00     0.119 C 
ATOM     99  C   UNL A   1      28.325  29.749  21.977  1.00  0.00     0.119 C 
ATOM    100  C   UNL A   1      27.926  31.309  23.758  1.00  0.00     0.023 C 
ATOM    101  C   UNL A   1      27.486  30.969  22.338  1.00  0.00     0.023 C 
ENDBRANCH  93  95
ENDBRANCH  87  88
ENDBRANCH  80  81
ENDBRANCH  76  80
ENDBRANCH  72  74
ENDBRANCH  71  72
ENDBRANCH   1  71
TORSDOF 18
ENDMDL
MODEL 3
REMARK VINA RESULT:     -11.6      5.600     11.991
REMARK SMILES O=C(OCCOC(=O)c1[nH]ncc1C[NH+]1CCC([N@H+]2CCC[C@@H](C(=O)N3CCCC3)C2)CC1)c1ccc(-c2c3nc(c(-c4cccc(S(=O)(=O)[O-])c4F)c4ccc([nH]4)c(-c4cccc(S(=O)(=O)[O-])c4F)c4nc(c(-c5cccc(S(=O)(=O)[O-])c5F)c5ccc2[nH]5)C=C4)C=C3)cc1
REMARK SMILES IDX 5 1 4 2 3 3 2 4 1 5 34 6 35 7 96 8 36 9 95 10 37 11 38 12
REMARK SMILES IDX 39 13 89 14 40 15 94 16 88 17 90 18 41 19 93 20 87 21 86 22
REMARK SMILES IDX 42 24 74 25 54 26 73 27 55 28 58 29 72 30 91 31 56 32 57 33
REMARK SMILES IDX 71 35 92 36 59 37 43 38 44 39 52 40 45 41 47 42 53 43 46 44
REMARK SMILES IDX 48 45 49 46 50 47 51 48 75 49 76 50 84 51 77 52 79 53 85 54
REMARK SMILES IDX 78 55 80 56 81 57 82 58 83 59 60 60 61 61 69 62 62 63 64 64
REMARK SMILES IDX 70 65 63 66 65 67 66 68 67 69 68 70 6 71 7 72 8 73 9 74
REMARK SMILES IDX 10 75 13 76 11 77 12 79 14 80 15 81 16 82 33 83 17 85 32 86
REMARK SMILES IDX 18 87 19 88 20 89 31 90 21 92 23 93 22 94 24 95 25 96 26 97
REMARK SMILES IDX 27 98 30 99 28 100 29 101
REMARK H PARENT 90 23 58 34 10 78 15 84 19 91
REMARK Flexibility Score: inf
ROOT
ATOM      1  C   UNL A   1      33.998  34.642  28.189  1.00  0.00     0.275 C 
ENDROOT
BRANCH   1   2
ATOM      2  C   UNL A   1      33.442  33.294  27.726  1.00  0.00     0.275 C 
BRANCH   2   3
ATOM      3  O   UNL A   1      34.039  32.170  28.401  1.00  0.00    -0.458 OA
BRANCH   3   4
ATOM      4  C   UNL A   1      34.612  31.028  27.956  1.00  0.00     0.338 C 
ATOM      5  O   UNL A   1      34.029  30.438  27.043  1.00  0.00    -0.246 OA
BRANCH   4   6
ATOM      6  C   UNL A   1      35.862  30.387  28.502  1.00  0.00     0.060 A 
ATOM      7  C   UNL A   1      35.994  29.684  29.700  1.00  0.00     0.016 A 
ATOM      8  C   UNL A   1      37.018  30.503  27.699  1.00  0.00     0.016 A 
ATOM      9  C   UNL A   1      37.227  29.136  30.093  1.00  0.00     0.010 A 
ATOM     10  C   UNL A   1      38.243  29.931  28.070  1.00  0.00     0.010 A 
ATOM     11  C   UNL A   1      38.363  29.260  29.287  1.00  0.00    -0.014 A 
BRANCH  11  12
ATOM     12  C   UNL A   1      39.673  28.745  29.765  1.00  0.00     0.031 A 
ATOM     13  C   UNL A   1      40.320  29.376  30.953  1.00  0.00     0.074 A 
ATOM     14  C   UNL A   1      40.261  27.690  29.171  1.00  0.00     0.049 A 
ATOM     15  N   UNL A   1      41.400  29.002  31.584  1.00  0.00    -0.248 NA
ATOM     16  C   UNL A   1      39.675  30.577  31.505  1.00  0.00     0.031 C 
ATOM     17  C   UNL A   1      39.737  27.031  27.990  1.00  0.00     0.029 A 
ATOM     18  N   UNL A   1      41.402  26.984  29.454  1.00  0.00    -0.354 N 
ATOM     19  C   UNL A   1      41.570  29.919  32.606  1.00  0.00     0.074 A 
ATOM     20  C   UNL A   1      40.498  30.885  32.496  1.00  0.00     0.031 C 
ATOM     21  C   UNL A   1      40.515  25.991  27.662  1.00  0.00     0.029 A 
ATOM     22  C   UNL A   1      41.646  25.956  28.570  1.00  0.00     0.049 A 
ATOM     23  H   UNL A   1      41.990  27.192  30.215  1.00  0.00     0.167 HD
ATOM     24  C   UNL A   1      42.524  29.938  33.564  1.00  0.00     0.034 A 
ATOM     25  C   UNL A   1      42.671  25.090  28.476  1.00  0.00     0.034 A 
ATOM     26  C   UNL A   1      43.593  28.982  33.653  1.00  0.00     0.049 A 
ATOM     27  C   UNL A   1      43.735  25.155  29.525  1.00  0.00     0.074 A 
ATOM     28  C   UNL A   1      44.599  28.901  34.597  1.00  0.00     0.029 A 
ATOM     29  N   UNL A   1      43.807  27.952  32.748  1.00  0.00    -0.354 N 
ATOM     30  N   UNL A   1      43.809  25.958  30.559  1.00  0.00    -0.248 NA
ATOM     31  C   UNL A   1      44.828  24.181  29.428  1.00  0.00     0.031 C 
ATOM     32  C   UNL A   1      45.431  27.828  34.253  1.00  0.00     0.029 A 
ATOM     33  C   UNL A   1      44.934  27.232  33.105  1.00  0.00     0.049 A 
ATOM     34  H   UNL A   1      43.240  27.761  31.965  1.00  0.00     0.167 HD
ATOM     35  C   UNL A   1      44.941  25.569  31.255  1.00  0.00     0.074 A 
ATOM     36  C   UNL A   1      45.514  24.449  30.531  1.00  0.00     0.031 C 
ATOM     37  C   UNL A   1      45.461  26.099  32.388  1.00  0.00     0.034 A 
BRANCH  24  38
ATOM     38  C   UNL A   1      42.413  31.024  34.592  1.00  0.00     0.023 A 
ATOM     39  C   UNL A   1      41.772  30.749  35.819  1.00  0.00     0.012 A 
ATOM     40  C   UNL A   1      42.897  32.319  34.336  1.00  0.00     0.148 A 
ATOM     41  C   UNL A   1      41.584  31.758  36.761  1.00  0.00     0.002 A 
ATOM     42  C   UNL A   1      42.732  33.312  35.292  1.00  0.00     0.091 A 
ATOM     43  F   UNL A   1      43.472  32.562  33.150  1.00  0.00    -0.205 F 
ATOM     44  C   UNL A   1      42.067  33.037  36.500  1.00  0.00     0.022 A 
BRANCH  42  45
ATOM     45  S   UNL A   1      43.347  34.983  35.068  1.00  0.00     0.127 S 
ATOM     46  O   UNL A   1      42.896  35.631  36.299  1.00  0.00    -0.237 OA
ATOM     47  O   UNL A   1      44.792  34.770  34.984  1.00  0.00    -0.237 OA
ATOM     48  O   UNL A   1      42.734  35.476  33.842  1.00  0.00    -0.744 OA
ENDBRANCH  42  45
ENDBRANCH  24  38
BRANCH  25  49
ATOM     49  C   UNL A   1      42.722  24.081  27.380  1.00  0.00     0.023 A 
ATOM     50  C   UNL A   1      43.366  24.399  26.170  1.00  0.00     0.012 A 
ATOM     51  C   UNL A   1      42.140  22.808  27.532  1.00  0.00     0.148 A 
ATOM     52  C   UNL A   1      43.411  23.475  25.123  1.00  0.00     0.002 A 
ATOM     53  C   UNL A   1      42.205  21.884  26.494  1.00  0.00     0.091 A 
ATOM     54  F   UNL A   1      41.522  22.525  28.688  1.00  0.00    -0.205 F 
ATOM     55  C   UNL A   1      42.836  22.217  25.286  1.00  0.00     0.022 A 
BRANCH  53  56
ATOM     56  S   UNL A   1      41.530  20.226  26.654  1.00  0.00     0.127 S 
ATOM     57  O   UNL A   1      42.294  19.701  27.782  1.00  0.00    -0.237 OA
ATOM     58  O   UNL A   1      40.119  20.491  26.940  1.00  0.00    -0.237 OA
ATOM     59  O   UNL A   1      41.775  19.594  25.364  1.00  0.00    -0.744 OA
ENDBRANCH  53  56
ENDBRANCH  25  49
BRANCH  37  60
ATOM     60  C   UNL A   1      46.699  25.450  32.929  1.00  0.00     0.023 A 
ATOM     61  C   UNL A   1      46.594  24.486  33.950  1.00  0.00     0.012 A 
ATOM     62  C   UNL A   1      47.959  25.755  32.382  1.00  0.00     0.148 A 
ATOM     63  C   UNL A   1      47.733  23.847  34.433  1.00  0.00     0.002 A 
ATOM     64  C   UNL A   1      49.083  25.081  32.837  1.00  0.00     0.091 A 
ATOM     65  F   UNL A   1      48.033  26.703  31.436  1.00  0.00    -0.205 F 
ATOM     66  C   UNL A   1      48.975  24.132  33.867  1.00  0.00     0.022 A 
BRANCH  64  67
ATOM     67  S   UNL A   1      50.700  25.328  32.097  1.00  0.00     0.127 S 
ATOM     68  O   UNL A   1      51.535  24.436  32.898  1.00  0.00    -0.237 OA
ATOM     69  O   UNL A   1      50.483  24.891  30.717  1.00  0.00    -0.237 OA
ATOM     70  O   UNL A   1      50.984  26.751  32.236  1.00  0.00    -0.744 OA
ENDBRANCH  64  67
ENDBRANCH  37  60
ENDBRANCH  11  12
ENDBRANCH   4   6
ENDBRANCH   3   4
ENDBRANCH   2   3
ENDBRANCH   1   2
BRANCH   1  71
ATOM     71  O   UNL A   1      34.457  34.589  29.544  1.00  0.00    -0.457 OA
BRANCH  71  72
ATOM     72  C   UNL A   1      33.611  35.117  30.475  1.00  0.00     0.356 C 
ATOM     73  O   UNL A   1      32.421  35.345  30.302  1.00  0.00    -0.244 OA
BRANCH  72  74
ATOM     74  C   UNL A   1      34.281  35.179  31.735  1.00  0.00     0.152 A 
ATOM     75  N   UNL A   1      34.051  36.198  32.617  1.00  0.00    -0.271 N 
ATOM     76  C   UNL A   1      35.166  34.317  32.370  1.00  0.00     0.059 A 
ATOM     77  N   UNL A   1      34.599  36.002  33.824  1.00  0.00    -0.183 NA
ATOM     78  H   UNL A   1      33.531  37.002  32.387  1.00  0.00     0.190 HD
ATOM     79  C   UNL A   1      35.254  34.848  33.683  1.00  0.00     0.145 A 
BRANCH  76  80
ATOM     80  C   UNL A   1      35.828  33.104  31.802  1.00  0.00     0.303 C 
BRANCH  80  81
ATOM     81  N   UNL A   1      37.247  33.287  31.497  1.00  0.00    -0.331 N 
ATOM     82  C   UNL A   1      37.499  33.367  30.064  1.00  0.00     0.268 C 
ATOM     83  C   UNL A   1      37.919  34.372  32.226  1.00  0.00     0.268 C 
ATOM     84  H   UNL A   1      37.681  32.435  31.853  1.00  0.00     0.348 HD
ATOM     85  C   UNL A   1      38.993  33.300  29.789  1.00  0.00     0.126 C 
ATOM     86  C   UNL A   1      39.434  34.329  32.027  1.00  0.00     0.126 C 
ATOM     87  C   UNL A   1      39.736  34.432  30.528  1.00  0.00     0.195 C 
BRANCH  87  88
ATOM     88  N   UNL A   1      41.176  34.541  30.216  1.00  0.00    -0.331 N 
ATOM     89  C   UNL A   1      41.885  33.263  30.141  1.00  0.00     0.262 C 
ATOM     90  C   UNL A   1      41.373  35.390  29.046  1.00  0.00     0.275 C 
ATOM     91  H   UNL A   1      41.618  34.996  31.015  1.00  0.00     0.348 HD
ATOM     92  C   UNL A   1      43.358  33.439  29.755  1.00  0.00     0.062 C 
ATOM     93  C   UNL A   1      42.829  35.584  28.603  1.00  0.00     0.134 C 
ATOM     94  C   UNL A   1      43.502  34.223  28.451  1.00  0.00     0.025 C 
BRANCH  93  95
ATOM     95  C   UNL A   1      42.687  36.361  27.297  1.00  0.00     0.231 C 
ATOM     96  O   UNL A   1      42.315  35.823  26.253  1.00  0.00    -0.274 OA
ATOM     97  N   UNL A   1      42.732  37.739  27.419  1.00  0.00    -0.342 N 
ATOM     98  C   UNL A   1      43.531  38.524  28.345  1.00  0.00     0.119 C 
ATOM     99  C   UNL A   1      41.775  38.566  26.710  1.00  0.00     0.119 C 
ATOM    100  C   UNL A   1      42.735  39.803  28.529  1.00  0.00     0.023 C 
ATOM    101  C   UNL A   1      42.053  39.988  27.178  1.00  0.00     0.023 C 
ENDBRANCH  93  95
ENDBRANCH  87  88
ENDBRANCH  80  81
ENDBRANCH  76  80
ENDBRANCH  72  74
ENDBRANCH  71  72
ENDBRANCH   1  71
TORSDOF 18
ENDMDL
