MODEL 1
REMARK VINA RESULT:     -13.9      0.000      0.000
REMARK SMILES Cc1cccc(CC(=O)N2CCC3(CCC(=O)N([C@H](C)C(=O)OCCOC(=O)c4ccc(-c5c6nc(c(-c7cccc(S(=O)(=O)[O-])c7F)c7ccc([nH]7)c(-c7cccc(S(=O)(=O)[O-])c7F)c7nc(c(-c8cccc(S(=O)(=O)[O-])c8F)c8ccc5[nH]8)C=C7)C=C6)cc4)C3)CC2)c1
REMARK SMILES IDX 24 1 23 2 21 3 22 4 19 5 20 6 18 7 8 8 9 9 10 10 11 11 94 12
REMARK SMILES IDX 12 13 93 14 13 15 14 16 92 17 15 18 16 19 17 20 7 21 6 22
REMARK SMILES IDX 1 23 2 24 3 25 95 26 4 27 5 28 25 29 26 30 27 31 28 32 29 33
REMARK SMILES IDX 30 34 91 35 31 36 90 37 32 38 33 39 34 40 84 41 35 42 89 43
REMARK SMILES IDX 83 44 85 45 36 46 88 47 82 48 81 49 37 51 69 52 49 53 68 54
REMARK SMILES IDX 50 55 53 56 67 57 86 58 51 59 52 60 66 62 87 63 54 64 38 65
REMARK SMILES IDX 39 66 47 67 40 68 42 69 48 70 41 71 43 72 44 73 45 74 46 75
REMARK SMILES IDX 70 76 71 77 79 78 72 79 74 80 80 81 73 82 75 83 76 84 77 85
REMARK SMILES IDX 78 86 55 87 56 88 64 89 57 90 59 91 65 92 58 93 60 94 61 95
REMARK SMILES IDX 62 96 63 97
REMARK H PARENT 85 50 53 61
REMARK Flexibility Score: inf
ROOT
ATOM      1  C   UNL A   1      33.216  28.622  26.531  1.00  0.00     0.274 C 
ENDROOT
BRANCH   1   2
ATOM      2  O   UNL A   1      33.375  28.847  25.127  1.00  0.00    -0.461 OA
BRANCH   2   3
ATOM      3  C   UNL A   1      32.281  29.394  24.534  1.00  0.00     0.328 C 
ATOM      4  O   UNL A   1      31.484  30.104  25.144  1.00  0.00    -0.250 OA
BRANCH   3   5
ATOM      5  C   UNL A   1      32.035  28.819  23.116  1.00  0.00     0.192 C 
ATOM      6  C   UNL A   1      33.390  28.656  22.432  1.00  0.00     0.044 C 
BRANCH   5   7
ATOM      7  N   UNL A   1      31.190  27.615  22.927  1.00  0.00    -0.329 N 
ATOM      8  C   UNL A   1      32.568  22.529  26.902  1.00  0.00     0.226 C 
ATOM      9  O   UNL A   1      32.376  22.824  28.089  1.00  0.00    -0.275 OA
ATOM     10  N   UNL A   1      32.038  23.295  25.867  1.00  0.00    -0.342 N 
ATOM     11  C   UNL A   1      31.430  24.569  26.216  1.00  0.00     0.120 C 
ATOM     12  C   UNL A   1      31.719  22.810  24.521  1.00  0.00     0.120 C 
ATOM     13  C   UNL A   1      31.750  25.628  25.170  1.00  0.00     0.030 C 
ATOM     14  C   UNL A   1      31.966  23.856  23.427  1.00  0.00     0.030 C 
ATOM     15  C   UNL A   1      31.326  25.233  23.737  1.00  0.00    -0.008 C 
ATOM     16  C   UNL A   1      29.801  25.162  23.539  1.00  0.00     0.019 C 
ATOM     17  C   UNL A   1      31.829  26.302  22.741  1.00  0.00     0.127 C 
ATOM     18  C   UNL A   1      29.118  26.505  23.739  1.00  0.00     0.101 C 
ATOM     19  C   UNL A   1      29.838  27.729  23.202  1.00  0.00     0.223 C 
ATOM     20  O   UNL A   1      29.266  28.820  23.168  1.00  0.00    -0.275 OA
BRANCH   8  21
ATOM     21  C   UNL A   1      33.549  21.409  26.586  1.00  0.00     0.135 C 
BRANCH  21  22
ATOM     22  C   UNL A   1      34.907  21.810  26.076  1.00  0.00    -0.038 A 
ATOM     23  C   UNL A   1      37.982  20.023  24.712  1.00  0.00     0.044 C 
ATOM     24  C   UNL A   1      37.058  21.115  25.162  1.00  0.00    -0.051 A 
ATOM     25  C   UNL A   1      37.518  22.430  25.287  1.00  0.00     0.003 A 
ATOM     26  C   UNL A   1      35.742  20.823  25.527  1.00  0.00     0.007 A 
ATOM     27  C   UNL A   1      36.674  23.432  25.773  1.00  0.00     0.001 A 
ATOM     28  C   UNL A   1      35.372  23.126  26.168  1.00  0.00     0.004 A 
ENDBRANCH  21  22
ENDBRANCH   8  21
ENDBRANCH   5   7
ENDBRANCH   3   5
ENDBRANCH   2   3
ENDBRANCH   1   2
BRANCH   1  29
ATOM     29  C   UNL A   1      34.050  29.531  27.472  1.00  0.00     0.275 C 
BRANCH  29  30
ATOM     30  O   UNL A   1      35.509  29.536  27.386  1.00  0.00    -0.458 OA
BRANCH  30  31
ATOM     31  C   UNL A   1      36.429  30.342  27.995  1.00  0.00     0.338 C 
ATOM     32  O   UNL A   1      36.163  31.496  28.312  1.00  0.00    -0.246 OA
BRANCH  31  33
ATOM     33  C   UNL A   1      37.679  29.698  28.424  1.00  0.00     0.060 A 
ATOM     34  C   UNL A   1      37.739  28.932  29.598  1.00  0.00     0.016 A 
ATOM     35  C   UNL A   1      38.716  29.670  27.521  1.00  0.00     0.016 A 
ATOM     36  C   UNL A   1      38.729  27.949  29.733  1.00  0.00     0.010 A 
ATOM     37  C   UNL A   1      39.523  28.564  27.536  1.00  0.00     0.010 A 
ATOM     38  C   UNL A   1      39.558  27.695  28.643  1.00  0.00    -0.014 A 
BRANCH  38  39
ATOM     39  C   UNL A   1      40.722  26.809  28.621  1.00  0.00     0.031 A 
ATOM     40  C   UNL A   1      40.733  25.371  28.326  1.00  0.00     0.074 A 
ATOM     41  C   UNL A   1      41.882  27.494  28.692  1.00  0.00     0.049 A 
ATOM     42  N   UNL A   1      41.519  24.547  28.939  1.00  0.00    -0.248 NA
ATOM     43  C   UNL A   1      39.920  24.748  27.287  1.00  0.00     0.031 C 
ATOM     44  C   UNL A   1      43.234  27.132  28.342  1.00  0.00     0.029 A 
ATOM     45  N   UNL A   1      41.991  28.797  29.174  1.00  0.00    -0.354 N 
ATOM     46  C   UNL A   1      41.534  23.388  28.191  1.00  0.00     0.074 A 
ATOM     47  C   UNL A   1      40.424  23.504  27.268  1.00  0.00     0.031 C 
ATOM     48  C   UNL A   1      44.060  28.088  28.815  1.00  0.00     0.029 A 
ATOM     49  C   UNL A   1      43.277  29.023  29.620  1.00  0.00     0.049 A 
ATOM     50  H   UNL A   1      41.259  29.456  29.192  1.00  0.00     0.167 HD
ATOM     51  C   UNL A   1      42.616  22.556  28.220  1.00  0.00     0.034 A 
ATOM     52  C   UNL A   1      43.467  29.447  30.904  1.00  0.00     0.034 A 
ATOM     53  C   UNL A   1      43.739  23.193  28.923  1.00  0.00     0.049 A 
ATOM     54  C   UNL A   1      44.084  28.316  31.704  1.00  0.00     0.074 A 
ATOM     55  C   UNL A   1      44.811  23.926  28.435  1.00  0.00     0.029 A 
ATOM     56  N   UNL A   1      43.696  23.436  30.291  1.00  0.00    -0.354 N 
ATOM     57  N   UNL A   1      44.398  27.154  31.199  1.00  0.00    -0.248 NA
ATOM     58  C   UNL A   1      44.314  28.371  33.144  1.00  0.00     0.031 C 
ATOM     59  C   UNL A   1      45.339  24.700  29.498  1.00  0.00     0.029 A 
ATOM     60  C   UNL A   1      44.612  24.425  30.641  1.00  0.00     0.049 A 
ATOM     61  H   UNL A   1      43.102  22.972  30.924  1.00  0.00     0.167 HD
ATOM     62  C   UNL A   1      44.633  26.272  32.211  1.00  0.00     0.074 A 
ATOM     63  C   UNL A   1      44.673  27.103  33.402  1.00  0.00     0.031 C 
ATOM     64  C   UNL A   1      44.681  24.920  32.013  1.00  0.00     0.034 A 
BRANCH  51  65
ATOM     65  C   UNL A   1      42.791  21.388  27.262  1.00  0.00     0.023 A 
ATOM     66  C   UNL A   1      42.020  20.222  27.476  1.00  0.00     0.012 A 
ATOM     67  C   UNL A   1      43.669  21.369  26.152  1.00  0.00     0.148 A 
ATOM     68  C   UNL A   1      42.166  19.069  26.699  1.00  0.00     0.002 A 
ATOM     69  C   UNL A   1      43.837  20.203  25.390  1.00  0.00     0.091 A 
ATOM     70  F   UNL A   1      44.319  22.494  25.820  1.00  0.00    -0.205 F 
ATOM     71  C   UNL A   1      43.092  19.050  25.670  1.00  0.00     0.022 A 
BRANCH  69  72
ATOM     72  S   UNL A   1      45.050  20.057  24.066  1.00  0.00     0.127 S 
ATOM     73  O   UNL A   1      44.856  18.676  23.619  1.00  0.00    -0.237 OA
ATOM     74  O   UNL A   1      44.597  21.071  23.116  1.00  0.00    -0.237 OA
ATOM     75  O   UNL A   1      46.345  20.306  24.687  1.00  0.00    -0.744 OA
ENDBRANCH  69  72
ENDBRANCH  51  65
BRANCH  52  76
ATOM     76  C   UNL A   1      42.345  30.353  31.388  1.00  0.00     0.023 A 
ATOM     77  C   UNL A   1      42.038  31.487  30.584  1.00  0.00     0.012 A 
ATOM     78  C   UNL A   1      41.360  29.913  32.292  1.00  0.00     0.148 A 
ATOM     79  C   UNL A   1      40.757  32.052  30.573  1.00  0.00     0.002 A 
ATOM     80  C   UNL A   1      40.083  30.485  32.275  1.00  0.00     0.091 A 
ATOM     81  F   UNL A   1      41.626  28.883  33.104  1.00  0.00    -0.205 F 
ATOM     82  C   UNL A   1      39.767  31.529  31.397  1.00  0.00     0.022 A 
BRANCH  80  83
ATOM     83  S   UNL A   1      38.781  29.757  33.281  1.00  0.00     0.127 S 
ATOM     84  O   UNL A   1      37.575  30.442  32.815  1.00  0.00    -0.237 OA
ATOM     85  O   UNL A   1      38.825  28.343  32.932  1.00  0.00    -0.237 OA
ATOM     86  O   UNL A   1      39.208  30.116  34.629  1.00  0.00    -0.744 OA
ENDBRANCH  80  83
ENDBRANCH  52  76
BRANCH  64  87
ATOM     87  C   UNL A   1      44.823  23.943  33.141  1.00  0.00     0.023 A 
ATOM     88  C   UNL A   1      43.783  23.067  33.504  1.00  0.00     0.012 A 
ATOM     89  C   UNL A   1      46.062  23.812  33.803  1.00  0.00     0.148 A 
ATOM     90  C   UNL A   1      43.936  22.163  34.557  1.00  0.00     0.002 A 
ATOM     91  C   UNL A   1      46.241  22.841  34.779  1.00  0.00     0.091 A 
ATOM     92  F   UNL A   1      47.066  24.649  33.502  1.00  0.00    -0.205 F 
ATOM     93  C   UNL A   1      45.170  22.040  35.187  1.00  0.00     0.022 A 
BRANCH  91  94
ATOM     94  S   UNL A   1      47.876  22.509  35.441  1.00  0.00     0.127 S 
ATOM     95  O   UNL A   1      48.658  22.288  34.227  1.00  0.00    -0.237 OA
ATOM     96  O   UNL A   1      48.189  23.750  36.151  1.00  0.00    -0.237 OA
ATOM     97  O   UNL A   1      47.697  21.355  36.313  1.00  0.00    -0.744 OA
ENDBRANCH  91  94
ENDBRANCH  64  87
ENDBRANCH  38  39
ENDBRANCH  31  33
ENDBRANCH  30  31
ENDBRANCH  29  30
ENDBRANCH   1  29
TORSDOF 17
ENDMDL
MODEL 2
REMARK VINA RESULT:     -13.5      4.533     10.735
REMARK SMILES Cc1cccc(CC(=O)N2CCC3(CCC(=O)N([C@H](C)C(=O)OCCOC(=O)c4ccc(-c5c6nc(c(-c7cccc(S(=O)(=O)[O-])c7F)c7ccc([nH]7)c(-c7cccc(S(=O)(=O)[O-])c7F)c7nc(c(-c8cccc(S(=O)(=O)[O-])c8F)c8ccc5[nH]8)C=C7)C=C6)cc4)C3)CC2)c1
REMARK SMILES IDX 24 1 23 2 21 3 22 4 19 5 20 6 18 7 8 8 9 9 10 10 11 11 94 12
REMARK SMILES IDX 12 13 93 14 13 15 14 16 92 17 15 18 16 19 17 20 7 21 6 22
REMARK SMILES IDX 1 23 2 24 3 25 95 26 4 27 5 28 25 29 26 30 27 31 28 32 29 33
REMARK SMILES IDX 30 34 91 35 31 36 90 37 32 38 33 39 34 40 84 41 35 42 89 43
REMARK SMILES IDX 83 44 85 45 36 46 88 47 82 48 81 49 37 51 69 52 49 53 68 54
REMARK SMILES IDX 50 55 53 56 67 57 86 58 51 59 52 60 66 62 87 63 54 64 38 65
REMARK SMILES IDX 39 66 47 67 40 68 42 69 48 70 41 71 43 72 44 73 45 74 46 75
REMARK SMILES IDX 70 76 71 77 79 78 72 79 74 80 80 81 73 82 75 83 76 84 77 85
REMARK SMILES IDX 78 86 55 87 56 88 64 89 57 90 59 91 65 92 58 93 60 94 61 95
REMARK SMILES IDX 62 96 63 97
REMARK H PARENT 85 50 53 61
REMARK Flexibility Score: inf
ROOT
ATOM      1  C   UNL A   1      37.029  22.659  25.382  1.00  0.00     0.274 C 
ENDROOT
BRANCH   1   2
ATOM      2  O   UNL A   1      35.630  22.385  25.505  1.00  0.00    -0.461 OA
BRANCH   2   3
ATOM      3  C   UNL A   1      35.339  21.061  25.597  1.00  0.00     0.328 C 
ATOM      4  O   UNL A   1      36.093  20.186  25.176  1.00  0.00    -0.250 OA
BRANCH   3   5
ATOM      5  C   UNL A   1      33.875  20.813  26.046  1.00  0.00     0.192 C 
ATOM      6  C   UNL A   1      33.684  21.471  27.410  1.00  0.00     0.044 C 
BRANCH   5   7
ATOM      7  N   UNL A   1      32.746  21.123  25.136  1.00  0.00    -0.329 N 
ATOM      8  C   UNL A   1      32.916  27.098  22.334  1.00  0.00     0.226 C 
ATOM      9  O   UNL A   1      33.908  27.221  21.604  1.00  0.00    -0.275 OA
ATOM     10  N   UNL A   1      32.477  25.846  22.760  1.00  0.00    -0.342 N 
ATOM     11  C   UNL A   1      33.338  24.705  22.496  1.00  0.00     0.120 C 
ATOM     12  C   UNL A   1      31.101  25.505  23.134  1.00  0.00     0.120 C 
ATOM     13  C   UNL A   1      33.322  23.730  23.665  1.00  0.00     0.030 C 
ATOM     14  C   UNL A   1      31.021  24.479  24.271  1.00  0.00     0.030 C 
ATOM     15  C   UNL A   1      31.909  23.230  24.037  1.00  0.00    -0.008 C 
ATOM     16  C   UNL A   1      31.270  22.324  22.968  1.00  0.00     0.019 C 
ATOM     17  C   UNL A   1      31.989  22.373  25.320  1.00  0.00     0.127 C 
ATOM     18  C   UNL A   1      32.043  21.033  22.753  1.00  0.00     0.101 C 
ATOM     19  C   UNL A   1      32.619  20.362  23.988  1.00  0.00     0.223 C 
ATOM     20  O   UNL A   1      33.099  19.229  23.911  1.00  0.00    -0.275 OA
BRANCH   8  21
ATOM     21  C   UNL A   1      32.283  28.356  22.913  1.00  0.00     0.135 C 
BRANCH  21  22
ATOM     22  C   UNL A   1      32.643  28.717  24.329  1.00  0.00    -0.038 A 
ATOM     23  C   UNL A   1      31.694  31.448  26.808  1.00  0.00     0.044 C 
ATOM     24  C   UNL A   1      32.340  30.232  26.215  1.00  0.00    -0.051 A 
ATOM     25  C   UNL A   1      33.382  29.582  26.884  1.00  0.00     0.003 A 
ATOM     26  C   UNL A   1      31.957  29.770  24.954  1.00  0.00     0.007 A 
ATOM     27  C   UNL A   1      34.029  28.491  26.297  1.00  0.00     0.001 A 
ATOM     28  C   UNL A   1      33.663  28.058  25.022  1.00  0.00     0.004 A 
ENDBRANCH  21  22
ENDBRANCH   8  21
ENDBRANCH   5   7
ENDBRANCH   3   5
ENDBRANCH   2   3
ENDBRANCH   1   2
BRANCH   1  29
ATOM     29  C   UNL A   1      37.499  24.061  25.849  1.00  0.00     0.275 C 
BRANCH  29  30
ATOM     30  O   UNL A   1      38.914  24.312  26.114  1.00  0.00    -0.458 OA
BRANCH  30  31
ATOM     31  C   UNL A   1      39.600  24.358  27.295  1.00  0.00     0.338 C 
ATOM     32  O   UNL A   1      40.077  23.348  27.801  1.00  0.00    -0.246 OA
BRANCH  31  33
ATOM     33  C   UNL A   1      39.901  25.696  27.824  1.00  0.00     0.060 A 
ATOM     34  C   UNL A   1      40.425  26.704  27.000  1.00  0.00     0.016 A 
ATOM     35  C   UNL A   1      39.431  25.999  29.080  1.00  0.00     0.016 A 
ATOM     36  C   UNL A   1      40.240  28.048  27.349  1.00  0.00     0.010 A 
ATOM     37  C   UNL A   1      39.037  27.290  29.302  1.00  0.00     0.010 A 
ATOM     38  C   UNL A   1      39.445  28.339  28.454  1.00  0.00    -0.014 A 
BRANCH  38  39
ATOM     39  C   UNL A   1      39.232  29.656  29.054  1.00  0.00     0.031 A 
ATOM     40  C   UNL A   1      38.179  30.621  28.718  1.00  0.00     0.074 A 
ATOM     41  C   UNL A   1      39.998  29.844  30.149  1.00  0.00     0.049 A 
ATOM     42  N   UNL A   1      38.389  31.897  28.709  1.00  0.00    -0.248 NA
ATOM     43  C   UNL A   1      36.798  30.249  28.428  1.00  0.00     0.031 C 
ATOM     44  C   UNL A   1      39.886  30.768  31.252  1.00  0.00     0.029 A 
ATOM     45  N   UNL A   1      41.149  29.113  30.431  1.00  0.00    -0.354 N 
ATOM     46  C   UNL A   1      37.148  32.501  28.715  1.00  0.00     0.074 A 
ATOM     47  C   UNL A   1      36.203  31.452  28.392  1.00  0.00     0.031 C 
ATOM     48  C   UNL A   1      41.026  30.704  31.970  1.00  0.00     0.029 A 
ATOM     49  C   UNL A   1      41.973  29.843  31.264  1.00  0.00     0.049 A 
ATOM     50  H   UNL A   1      41.345  28.211  30.088  1.00  0.00     0.167 HD
ATOM     51  C   UNL A   1      36.984  33.749  29.243  1.00  0.00     0.034 A 
ATOM     52  C   UNL A   1      43.258  30.089  30.874  1.00  0.00     0.034 A 
ATOM     53  C   UNL A   1      38.198  34.172  29.956  1.00  0.00     0.049 A 
ATOM     54  C   UNL A   1      43.390  31.560  30.529  1.00  0.00     0.074 A 
ATOM     55  C   UNL A   1      38.537  34.077  31.298  1.00  0.00     0.029 A 
ATOM     56  N   UNL A   1      39.381  34.446  29.279  1.00  0.00    -0.354 N 
ATOM     57  N   UNL A   1      42.416  32.422  30.634  1.00  0.00    -0.248 NA
ATOM     58  C   UNL A   1      44.594  32.156  29.957  1.00  0.00     0.031 C 
ATOM     59  C   UNL A   1      39.945  34.182  31.409  1.00  0.00     0.029 A 
ATOM     60  C   UNL A   1      40.470  34.366  30.143  1.00  0.00     0.049 A 
ATOM     61  H   UNL A   1      39.440  34.667  28.322  1.00  0.00     0.167 HD
ATOM     62  C   UNL A   1      42.750  33.563  29.967  1.00  0.00     0.074 A 
ATOM     63  C   UNL A   1      44.158  33.389  29.654  1.00  0.00     0.031 C 
ATOM     64  C   UNL A   1      41.831  34.520  29.638  1.00  0.00     0.034 A 
BRANCH  51  65
ATOM     65  C   UNL A   1      35.621  34.377  29.481  1.00  0.00     0.023 A 
ATOM     66  C   UNL A   1      34.913  34.889  28.369  1.00  0.00     0.012 A 
ATOM     67  C   UNL A   1      34.982  34.489  30.739  1.00  0.00     0.148 A 
ATOM     68  C   UNL A   1      33.690  35.555  28.494  1.00  0.00     0.002 A 
ATOM     69  C   UNL A   1      33.770  35.182  30.870  1.00  0.00     0.091 A 
ATOM     70  F   UNL A   1      35.542  33.897  31.805  1.00  0.00    -0.205 F 
ATOM     71  C   UNL A   1      33.128  35.723  29.749  1.00  0.00     0.022 A 
BRANCH  69  72
ATOM     72  S   UNL A   1      32.983  35.501  32.460  1.00  0.00     0.127 S 
ATOM     73  O   UNL A   1      34.034  36.216  33.187  1.00  0.00    -0.237 OA
ATOM     74  O   UNL A   1      31.838  36.326  32.082  1.00  0.00    -0.237 OA
ATOM     75  O   UNL A   1      32.664  34.190  33.012  1.00  0.00    -0.744 OA
ENDBRANCH  69  72
ENDBRANCH  51  65
BRANCH  52  76
ATOM     76  C   UNL A   1      43.849  28.943  30.067  1.00  0.00     0.023 A 
ATOM     77  C   UNL A   1      43.764  27.641  30.637  1.00  0.00     0.012 A 
ATOM     78  C   UNL A   1      44.060  29.030  28.678  1.00  0.00     0.148 A 
ATOM     79  C   UNL A   1      43.734  26.491  29.837  1.00  0.00     0.002 A 
ATOM     80  C   UNL A   1      44.029  27.877  27.888  1.00  0.00     0.091 A 
ATOM     81  F   UNL A   1      44.198  30.234  28.110  1.00  0.00    -0.205 F 
ATOM     82  C   UNL A   1      43.833  26.612  28.456  1.00  0.00     0.022 A 
BRANCH  80  83
ATOM     83  S   UNL A   1      44.077  28.037  26.096  1.00  0.00     0.127 S 
ATOM     84  O   UNL A   1      42.924  28.888  25.804  1.00  0.00    -0.237 OA
ATOM     85  O   UNL A   1      45.361  28.679  25.842  1.00  0.00    -0.237 OA
ATOM     86  O   UNL A   1      43.939  26.650  25.667  1.00  0.00    -0.744 OA
ENDBRANCH  80  83
ENDBRANCH  52  76
BRANCH  64  87
ATOM     87  C   UNL A   1      42.174  35.718  28.805  1.00  0.00     0.023 A 
ATOM     88  C   UNL A   1      41.685  35.882  27.496  1.00  0.00     0.012 A 
ATOM     89  C   UNL A   1      42.926  36.771  29.369  1.00  0.00     0.148 A 
ATOM     90  C   UNL A   1      42.016  37.006  26.738  1.00  0.00     0.002 A 
ATOM     91  C   UNL A   1      43.165  37.932  28.646  1.00  0.00     0.091 A 
ATOM     92  F   UNL A   1      43.433  36.637  30.604  1.00  0.00    -0.205 F 
ATOM     93  C   UNL A   1      42.745  38.039  27.317  1.00  0.00     0.022 A 
BRANCH  91  94
ATOM     94  S   UNL A   1      43.900  39.363  29.443  1.00  0.00     0.127 S 
ATOM     95  O   UNL A   1      42.908  39.685  30.466  1.00  0.00    -0.237 OA
ATOM     96  O   UNL A   1      45.159  38.825  29.962  1.00  0.00    -0.237 OA
ATOM     97  O   UNL A   1      44.067  40.339  28.374  1.00  0.00    -0.744 OA
ENDBRANCH  91  94
ENDBRANCH  64  87
ENDBRANCH  38  39
ENDBRANCH  31  33
ENDBRANCH  30  31
ENDBRANCH  29  30
ENDBRANCH   1  29
TORSDOF 17
ENDMDL
MODEL 3
REMARK VINA RESULT:     -12.6      1.527      2.089
REMARK SMILES Cc1cccc(CC(=O)N2CCC3(CCC(=O)N([C@H](C)C(=O)OCCOC(=O)c4ccc(-c5c6nc(c(-c7cccc(S(=O)(=O)[O-])c7F)c7ccc([nH]7)c(-c7cccc(S(=O)(=O)[O-])c7F)c7nc(c(-c8cccc(S(=O)(=O)[O-])c8F)c8ccc5[nH]8)C=C7)C=C6)cc4)C3)CC2)c1
REMARK SMILES IDX 24 1 23 2 21 3 22 4 19 5 20 6 18 7 8 8 9 9 10 10 11 11 94 12
REMARK SMILES IDX 12 13 93 14 13 15 14 16 92 17 15 18 16 19 17 20 7 21 6 22
REMARK SMILES IDX 1 23 2 24 3 25 95 26 4 27 5 28 25 29 26 30 27 31 28 32 29 33
REMARK SMILES IDX 30 34 91 35 31 36 90 37 32 38 33 39 34 40 84 41 35 42 89 43
REMARK SMILES IDX 83 44 85 45 36 46 88 47 82 48 81 49 37 51 69 52 49 53 68 54
REMARK SMILES IDX 50 55 53 56 67 57 86 58 51 59 52 60 66 62 87 63 54 64 38 65
REMARK SMILES IDX 39 66 47 67 40 68 42 69 48 70 41 71 43 72 44 73 45 74 46 75
REMARK SMILES IDX 70 76 71 77 79 78 72 79 74 80 80 81 73 82 75 83 76 84 77 85
REMARK SMILES IDX 78 86 55 87 56 88 64 89 57 90 59 91 65 92 58 93 60 94 61 95
REMARK SMILES IDX 62 96 63 97
REMARK H PARENT 85 50 53 61
REMARK Flexibility Score: inf
ROOT
ATOM      1  C   UNL A   1      34.176  28.752  26.558  1.00  0.00     0.274 C 
ENDROOT
BRANCH   1   2
ATOM      2  O   UNL A   1      34.108  28.862  25.133  1.00  0.00    -0.461 OA
BRANCH   2   3
ATOM      3  C   UNL A   1      32.889  29.245  24.671  1.00  0.00     0.328 C 
ATOM      4  O   UNL A   1      32.057  29.804  25.384  1.00  0.00    -0.250 OA
BRANCH   3   5
ATOM      5  C   UNL A   1      32.592  28.677  23.260  1.00  0.00     0.192 C 
ATOM      6  C   UNL A   1      33.926  28.427  22.562  1.00  0.00     0.044 C 
BRANCH   5   7
ATOM      7  N   UNL A   1      31.673  27.526  23.090  1.00  0.00    -0.329 N 
ATOM      8  C   UNL A   1      32.876  22.333  26.984  1.00  0.00     0.226 C 
ATOM      9  O   UNL A   1      32.740  22.629  28.178  1.00  0.00    -0.275 OA
ATOM     10  N   UNL A   1      32.360  23.139  25.971  1.00  0.00    -0.342 N 
ATOM     11  C   UNL A   1      31.838  24.442  26.348  1.00  0.00     0.120 C 
ATOM     12  C   UNL A   1      31.972  22.684  24.633  1.00  0.00     0.120 C 
ATOM     13  C   UNL A   1      32.186  25.490  25.300  1.00  0.00     0.030 C 
ATOM     14  C   UNL A   1      32.244  23.724  23.538  1.00  0.00     0.030 C 
ATOM     15  C   UNL A   1      31.696  25.133  23.879  1.00  0.00    -0.008 C 
ATOM     16  C   UNL A   1      30.164  25.151  23.728  1.00  0.00     0.019 C 
ATOM     17  C   UNL A   1      32.229  26.180  22.875  1.00  0.00     0.127 C 
ATOM     18  C   UNL A   1      29.566  26.530  23.959  1.00  0.00     0.101 C 
ATOM     19  C   UNL A   1      30.339  27.716  23.408  1.00  0.00     0.223 C 
ATOM     20  O   UNL A   1      29.830  28.838  23.400  1.00  0.00    -0.275 OA
BRANCH   8  21
ATOM     21  C   UNL A   1      33.781  21.161  26.628  1.00  0.00     0.135 C 
BRANCH  21  22
ATOM     22  C   UNL A   1      35.127  21.487  26.040  1.00  0.00    -0.038 A 
ATOM     23  C   UNL A   1      37.629  24.349  26.288  1.00  0.00     0.044 C 
ATOM     24  C   UNL A   1      36.992  23.051  25.890  1.00  0.00    -0.051 A 
ATOM     25  C   UNL A   1      37.539  22.276  24.862  1.00  0.00     0.003 A 
ATOM     26  C   UNL A   1      35.806  22.630  26.494  1.00  0.00     0.007 A 
ATOM     27  C   UNL A   1      36.905  21.102  24.446  1.00  0.00     0.001 A 
ATOM     28  C   UNL A   1      35.702  20.707  25.031  1.00  0.00     0.004 A 
ENDBRANCH  21  22
ENDBRANCH   8  21
ENDBRANCH   5   7
ENDBRANCH   3   5
ENDBRANCH   2   3
ENDBRANCH   1   2
BRANCH   1  29
ATOM     29  C   UNL A   1      34.768  29.970  27.314  1.00  0.00     0.275 C 
BRANCH  29  30
ATOM     30  O   UNL A   1      35.386  29.790  28.626  1.00  0.00    -0.458 OA
BRANCH  30  31
ATOM     31  C   UNL A   1      36.633  30.129  29.072  1.00  0.00     0.338 C 
ATOM     32  O   UNL A   1      36.802  31.029  29.886  1.00  0.00    -0.246 OA
BRANCH  31  33
ATOM     33  C   UNL A   1      37.732  29.236  28.677  1.00  0.00     0.060 A 
ATOM     34  C   UNL A   1      38.512  29.498  27.540  1.00  0.00     0.016 A 
ATOM     35  C   UNL A   1      38.123  28.278  29.582  1.00  0.00     0.016 A 
ATOM     36  C   UNL A   1      39.808  28.972  27.454  1.00  0.00     0.010 A 
ATOM     37  C   UNL A   1      39.455  27.965  29.621  1.00  0.00     0.010 A 
ATOM     38  C   UNL A   1      40.317  28.290  28.556  1.00  0.00    -0.014 A 
BRANCH  38  39
ATOM     39  C   UNL A   1      41.585  27.564  28.622  1.00  0.00     0.031 A 
ATOM     40  C   UNL A   1      41.877  26.240  28.061  1.00  0.00     0.074 A 
ATOM     41  C   UNL A   1      42.588  28.337  29.088  1.00  0.00     0.049 A 
ATOM     42  N   UNL A   1      42.645  25.389  28.660  1.00  0.00    -0.248 NA
ATOM     43  C   UNL A   1      41.392  25.783  26.762  1.00  0.00     0.031 C 
ATOM     44  C   UNL A   1      44.022  28.213  28.988  1.00  0.00     0.029 A 
ATOM     45  N   UNL A   1      42.396  29.501  29.829  1.00  0.00    -0.354 N 
ATOM     46  C   UNL A   1      42.987  24.438  27.721  1.00  0.00     0.074 A 
ATOM     47  C   UNL A   1      42.076  24.638  26.613  1.00  0.00     0.031 C 
ATOM     48  C   UNL A   1      44.581  29.121  29.815  1.00  0.00     0.029 A 
ATOM     49  C   UNL A   1      43.518  29.759  30.591  1.00  0.00     0.049 A 
ATOM     50  H   UNL A   1      41.583  30.056  29.811  1.00  0.00     0.167 HD
ATOM     51  C   UNL A   1      44.157  23.744  27.829  1.00  0.00     0.034 A 
ATOM     52  C   UNL A   1      43.383  29.901  31.942  1.00  0.00     0.034 A 
ATOM     53  C   UNL A   1      45.007  24.323  28.879  1.00  0.00     0.049 A 
ATOM     54  C   UNL A   1      43.998  28.692  32.621  1.00  0.00     0.074 A 
ATOM     55  C   UNL A   1      46.027  25.260  28.802  1.00  0.00     0.029 A 
ATOM     56  N   UNL A   1      44.657  24.245  30.223  1.00  0.00    -0.354 N 
ATOM     57  N   UNL A   1      44.582  27.715  31.981  1.00  0.00    -0.248 NA
ATOM     58  C   UNL A   1      43.928  28.444  34.058  1.00  0.00     0.031 C 
ATOM     59  C   UNL A   1      46.208  25.827  30.088  1.00  0.00     0.029 A 
ATOM     60  C   UNL A   1      45.321  25.222  30.959  1.00  0.00     0.049 A 
ATOM     61  H   UNL A   1      44.029  23.588  30.601  1.00  0.00     0.167 HD
ATOM     62  C   UNL A   1      44.746  26.657  32.826  1.00  0.00     0.074 A 
ATOM     63  C   UNL A   1      44.421  27.197  34.135  1.00  0.00     0.031 C 
ATOM     64  C   UNL A   1      45.041  25.399  32.381  1.00  0.00     0.034 A 
BRANCH  51  65
ATOM     65  C   UNL A   1      44.696  22.849  26.725  1.00  0.00     0.023 A 
ATOM     66  C   UNL A   1      45.758  23.332  25.925  1.00  0.00     0.012 A 
ATOM     67  C   UNL A   1      44.225  21.548  26.426  1.00  0.00     0.148 A 
ATOM     68  C   UNL A   1      46.269  22.619  24.837  1.00  0.00     0.002 A 
ATOM     69  C   UNL A   1      44.717  20.844  25.317  1.00  0.00     0.091 A 
ATOM     70  F   UNL A   1      43.318  20.985  27.238  1.00  0.00    -0.205 F 
ATOM     71  C   UNL A   1      45.732  21.383  24.518  1.00  0.00     0.022 A 
BRANCH  69  72
ATOM     72  S   UNL A   1      44.052  19.255  24.786  1.00  0.00     0.127 S 
ATOM     73  O   UNL A   1      42.614  19.438  24.990  1.00  0.00    -0.237 OA
ATOM     74  O   UNL A   1      44.463  19.199  23.384  1.00  0.00    -0.237 OA
ATOM     75  O   UNL A   1      44.657  18.261  25.662  1.00  0.00    -0.744 OA
ENDBRANCH  69  72
ENDBRANCH  51  65
BRANCH  52  76
ATOM     76  C   UNL A   1      42.061  30.545  32.328  1.00  0.00     0.023 A 
ATOM     77  C   UNL A   1      40.974  29.671  32.609  1.00  0.00     0.012 A 
ATOM     78  C   UNL A   1      41.982  31.859  32.827  1.00  0.00     0.148 A 
ATOM     79  C   UNL A   1      39.938  30.044  33.475  1.00  0.00     0.002 A 
ATOM     80  C   UNL A   1      40.943  32.223  33.690  1.00  0.00     0.091 A 
ATOM     81  F   UNL A   1      42.958  32.730  32.542  1.00  0.00    -0.205 F 
ATOM     82  C   UNL A   1      39.940  31.312  34.043  1.00  0.00     0.022 A 
BRANCH  80  83
ATOM     83  S   UNL A   1      40.987  33.835  34.489  1.00  0.00     0.127 S 
ATOM     84  O   UNL A   1      40.168  33.640  35.685  1.00  0.00    -0.237 OA
ATOM     85  O   UNL A   1      42.402  34.041  34.772  1.00  0.00    -0.237 OA
ATOM     86  O   UNL A   1      40.389  34.690  33.470  1.00  0.00    -0.744 OA
ENDBRANCH  80  83
ENDBRANCH  52  76
BRANCH  64  87
ATOM     87  C   UNL A   1      45.106  24.214  33.296  1.00  0.00     0.023 A 
ATOM     88  C   UNL A   1      44.040  23.304  33.416  1.00  0.00     0.012 A 
ATOM     89  C   UNL A   1      46.303  23.928  33.987  1.00  0.00     0.148 A 
ATOM     90  C   UNL A   1      44.122  22.205  34.274  1.00  0.00     0.002 A 
ATOM     91  C   UNL A   1      46.416  22.778  34.757  1.00  0.00     0.091 A 
ATOM     92  F   UNL A   1      47.331  24.788  33.918  1.00  0.00    -0.205 F 
ATOM     93  C   UNL A   1      45.315  21.933  34.935  1.00  0.00     0.022 A 
BRANCH  91  94
ATOM     94  S   UNL A   1      48.005  22.287  35.430  1.00  0.00     0.127 S 
ATOM     95  O   UNL A   1      48.751  21.933  34.224  1.00  0.00    -0.237 OA
ATOM     96  O   UNL A   1      48.462  23.510  36.092  1.00  0.00    -0.237 OA
ATOM     97  O   UNL A   1      47.700  21.195  36.346  1.00  0.00    -0.744 OA
ENDBRANCH  91  94
ENDBRANCH  64  87
ENDBRANCH  38  39
ENDBRANCH  31  33
ENDBRANCH  30  31
ENDBRANCH  29  30
ENDBRANCH   1  29
TORSDOF 17
ENDMDL
