MODEL 1
REMARK VINA RESULT:     -11.3      0.000      0.000
REMARK SMILES Cc1cc(CNC(=O)C[C@H](C)CC(=O)OCCOC(=O)c2ccc(-c3c4nc(c(-c5cccc(S(=O)(=O)[O-])c5F)c5ccc([nH]5)c(-c5cccc(S(=O)(=O)[O-])c5F)c5nc(c(-c6cccc(S(=O)(=O)[O-])c6F)c6ccc3[nH]6)C=C5)C=C4)cc2)cc(C)c1F
REMARK SMILES IDX 16 1 15 2 13 3 14 4 12 5 10 6 11 7 9 8 7 9 6 10 8 12 5 13
REMARK SMILES IDX 4 14 1 15 2 16 3 17 87 18 85 19 88 20 84 21 86 22 17 23
REMARK SMILES IDX 18 24 19 25 20 26 21 27 22 28 83 29 23 30 82 31 24 32 25 33
REMARK SMILES IDX 26 34 76 35 27 36 81 37 75 38 77 39 28 40 80 41 74 42 73 43
REMARK SMILES IDX 29 45 61 46 41 47 60 48 42 49 45 50 59 51 78 52 43 53 44 54
REMARK SMILES IDX 58 56 79 57 46 58 30 59 31 60 39 61 32 62 34 63 40 64 33 65
REMARK SMILES IDX 35 66 36 67 37 68 38 69 62 70 63 71 71 72 64 73 66 74 72 75
REMARK SMILES IDX 65 76 67 77 68 78 69 79 70 80 47 81 48 82 56 83 49 84 51 85
REMARK SMILES IDX 57 86 50 87 52 88 53 89 54 90 55 91
REMARK H PARENT 6 11 77 44 45 55
REMARK Flexibility Score: inf
ROOT
ATOM      1  C   UNL A   1      35.723  20.741  25.023  1.00  0.00     0.274 C 
ENDROOT
BRANCH   1   2
ATOM      2  O   UNL A   1      35.314  21.855  24.205  1.00  0.00    -0.462 OA
BRANCH   2   3
ATOM      3  C   UNL A   1      34.437  22.736  24.747  1.00  0.00     0.306 C 
ATOM      4  O   UNL A   1      34.533  23.954  24.670  1.00  0.00    -0.252 OA
BRANCH   3   5
ATOM      5  C   UNL A   1      33.264  22.066  25.444  1.00  0.00     0.126 C 
BRANCH   5   6
ATOM      6  C   UNL A   1      32.980  22.507  26.890  1.00  0.00     0.006 C 
ATOM      7  C   UNL A   1      34.300  22.588  27.668  1.00  0.00     0.009 C 
BRANCH   6   8
ATOM      8  C   UNL A   1      32.194  23.834  26.900  1.00  0.00     0.104 C 
BRANCH   8   9
ATOM      9  C   UNL A   1      30.717  23.692  26.581  1.00  0.00     0.220 C 
ATOM     10  N   UNL A   1      30.225  24.032  25.361  1.00  0.00    -0.352 N 
ATOM     11  H   UNL A   1      29.277  23.803  25.219  1.00  0.00     0.163 HD
ATOM     12  O   UNL A   1      29.938  23.231  27.419  1.00  0.00    -0.275 OA
BRANCH  10  13
ATOM     13  C   UNL A   1      30.871  24.676  24.234  1.00  0.00     0.151 C 
BRANCH  13  14
ATOM     14  C   UNL A   1      30.729  26.181  24.286  1.00  0.00    -0.028 A 
ATOM     15  C   UNL A   1      28.490  28.816  22.697  1.00  0.00     0.047 C 
ATOM     16  C   UNL A   1      29.580  28.206  23.525  1.00  0.00    -0.015 A 
ATOM     17  C   UNL A   1      29.691  26.815  23.589  1.00  0.00     0.012 A 
ATOM     18  C   UNL A   1      30.523  28.979  24.196  1.00  0.00     0.129 A 
ATOM     19  C   UNL A   1      31.561  28.386  24.922  1.00  0.00    -0.015 A 
ATOM     20  F   UNL A   1      30.436  30.317  24.136  1.00  0.00    -0.206 F 
ATOM     21  C   UNL A   1      31.658  26.983  24.961  1.00  0.00     0.012 A 
ATOM     22  C   UNL A   1      32.568  29.230  25.645  1.00  0.00     0.047 C 
ENDBRANCH  13  14
ENDBRANCH  10  13
ENDBRANCH   8   9
ENDBRANCH   6   8
ENDBRANCH   5   6
ENDBRANCH   3   5
ENDBRANCH   2   3
ENDBRANCH   1   2
BRANCH   1  23
ATOM     23  C   UNL A   1      37.248  20.616  25.017  1.00  0.00     0.275 C 
BRANCH  23  24
ATOM     24  O   UNL A   1      37.852  21.689  25.759  1.00  0.00    -0.458 OA
BRANCH  24  25
ATOM     25  C   UNL A   1      39.119  21.465  26.173  1.00  0.00     0.338 C 
ATOM     26  O   UNL A   1      39.784  20.452  26.041  1.00  0.00    -0.246 OA
BRANCH  25  27
ATOM     27  C   UNL A   1      39.664  22.717  26.708  1.00  0.00     0.060 A 
ATOM     28  C   UNL A   1      39.201  23.917  26.169  1.00  0.00     0.016 A 
ATOM     29  C   UNL A   1      40.673  22.704  27.670  1.00  0.00     0.016 A 
ATOM     30  C   UNL A   1      39.772  25.121  26.559  1.00  0.00     0.010 A 
ATOM     31  C   UNL A   1      41.230  23.916  28.083  1.00  0.00     0.010 A 
ATOM     32  C   UNL A   1      40.797  25.126  27.511  1.00  0.00    -0.014 A 
BRANCH  32  33
ATOM     33  C   UNL A   1      41.439  26.405  27.877  1.00  0.00     0.031 A 
ATOM     34  C   UNL A   1      40.648  27.456  28.596  1.00  0.00     0.074 A 
ATOM     35  C   UNL A   1      42.736  26.601  27.583  1.00  0.00     0.049 A 
ATOM     36  N   UNL A   1      41.021  28.651  28.969  1.00  0.00    -0.248 NA
ATOM     37  C   UNL A   1      39.259  27.117  28.948  1.00  0.00     0.031 C 
ATOM     38  C   UNL A   1      43.603  25.630  26.914  1.00  0.00     0.029 A 
ATOM     39  N   UNL A   1      43.548  27.683  27.802  1.00  0.00    -0.354 N 
ATOM     40  C   UNL A   1      39.910  29.218  29.578  1.00  0.00     0.074 A 
ATOM     41  C   UNL A   1      38.845  28.240  29.517  1.00  0.00     0.031 C 
ATOM     42  C   UNL A   1      44.826  26.162  26.773  1.00  0.00     0.029 A 
ATOM     43  C   UNL A   1      44.819  27.521  27.309  1.00  0.00     0.049 A 
ATOM     44  H   UNL A   1      43.248  28.497  28.268  1.00  0.00     0.167 HD
ATOM     45  C   UNL A   1      39.796  30.437  30.152  1.00  0.00     0.034 A 
ATOM     46  C   UNL A   1      45.857  28.377  27.279  1.00  0.00     0.034 A 
ATOM     47  C   UNL A   1      40.865  31.394  30.225  1.00  0.00     0.049 A 
ATOM     48  C   UNL A   1      45.696  29.743  27.881  1.00  0.00     0.074 A 
ATOM     49  C   UNL A   1      40.851  32.654  30.794  1.00  0.00     0.029 A 
ATOM     50  N   UNL A   1      42.138  31.196  29.712  1.00  0.00    -0.354 N 
ATOM     51  N   UNL A   1      44.653  30.250  28.493  1.00  0.00    -0.248 NA
ATOM     52  C   UNL A   1      46.851  30.648  27.806  1.00  0.00     0.031 C 
ATOM     53  C   UNL A   1      42.117  33.223  30.619  1.00  0.00     0.029 A 
ATOM     54  C   UNL A   1      42.921  32.312  29.949  1.00  0.00     0.049 A 
ATOM     55  H   UNL A   1      42.441  30.382  29.248  1.00  0.00     0.167 HD
ATOM     56  C   UNL A   1      45.027  31.527  28.892  1.00  0.00     0.074 A 
ATOM     57  C   UNL A   1      46.400  31.712  28.462  1.00  0.00     0.031 C 
ATOM     58  C   UNL A   1      44.297  32.462  29.546  1.00  0.00     0.034 A 
BRANCH  45  59
ATOM     59  C   UNL A   1      38.478  30.785  30.782  1.00  0.00     0.023 A 
ATOM     60  C   UNL A   1      38.239  30.416  32.121  1.00  0.00     0.012 A 
ATOM     61  C   UNL A   1      37.501  31.510  30.075  1.00  0.00     0.148 A 
ATOM     62  C   UNL A   1      37.035  30.746  32.743  1.00  0.00     0.002 A 
ATOM     63  C   UNL A   1      36.316  31.861  30.710  1.00  0.00     0.091 A 
ATOM     64  F   UNL A   1      37.744  31.829  28.796  1.00  0.00    -0.205 F 
ATOM     65  C   UNL A   1      36.078  31.475  32.040  1.00  0.00     0.022 A 
BRANCH  63  66
ATOM     66  S   UNL A   1      35.037  32.835  29.908  1.00  0.00     0.127 S 
ATOM     67  O   UNL A   1      35.809  33.966  29.394  1.00  0.00    -0.237 OA
ATOM     68  O   UNL A   1      34.546  31.916  28.882  1.00  0.00    -0.237 OA
ATOM     69  O   UNL A   1      34.071  33.162  30.947  1.00  0.00    -0.744 OA
ENDBRANCH  63  66
ENDBRANCH  45  59
BRANCH  46  70
ATOM     70  C   UNL A   1      47.145  27.920  26.695  1.00  0.00     0.023 A 
ATOM     71  C   UNL A   1      48.107  27.331  27.536  1.00  0.00     0.012 A 
ATOM     72  C   UNL A   1      47.364  27.949  25.303  1.00  0.00     0.148 A 
ATOM     73  C   UNL A   1      49.267  26.772  27.000  1.00  0.00     0.002 A 
ATOM     74  C   UNL A   1      48.504  27.357  24.773  1.00  0.00     0.091 A 
ATOM     75  F   UNL A   1      46.425  28.509  24.528  1.00  0.00    -0.205 F 
ATOM     76  C   UNL A   1      49.461  26.775  25.620  1.00  0.00     0.022 A 
BRANCH  74  77
ATOM     77  S   UNL A   1      48.793  27.216  23.006  1.00  0.00     0.127 S 
ATOM     78  O   UNL A   1      50.248  27.345  22.929  1.00  0.00    -0.237 OA
ATOM     79  O   UNL A   1      48.278  25.875  22.729  1.00  0.00    -0.237 OA
ATOM     80  O   UNL A   1      48.042  28.300  22.390  1.00  0.00    -0.744 OA
ENDBRANCH  74  77
ENDBRANCH  46  70
BRANCH  58  81
ATOM     81  C   UNL A   1      44.949  33.782  29.851  1.00  0.00     0.023 A 
ATOM     82  C   UNL A   1      45.718  33.914  31.022  1.00  0.00     0.012 A 
ATOM     83  C   UNL A   1      44.916  34.833  28.914  1.00  0.00     0.148 A 
ATOM     84  C   UNL A   1      46.446  35.078  31.260  1.00  0.00     0.002 A 
ATOM     85  C   UNL A   1      45.671  35.977  29.142  1.00  0.00     0.091 A 
ATOM     86  F   UNL A   1      44.170  34.681  27.811  1.00  0.00    -0.205 F 
ATOM     87  C   UNL A   1      46.433  36.103  30.316  1.00  0.00     0.022 A 
BRANCH  85  88
ATOM     88  S   UNL A   1      45.781  37.318  27.952  1.00  0.00     0.127 S 
ATOM     89  O   UNL A   1      46.404  38.374  28.750  1.00  0.00    -0.237 OA
ATOM     90  O   UNL A   1      46.644  36.744  26.920  1.00  0.00    -0.237 OA
ATOM     91  O   UNL A   1      44.417  37.593  27.522  1.00  0.00    -0.744 OA
ENDBRANCH  85  88
ENDBRANCH  58  81
ENDBRANCH  32  33
ENDBRANCH  25  27
ENDBRANCH  24  25
ENDBRANCH  23  24
ENDBRANCH   1  23
TORSDOF 19
ENDMDL
MODEL 2
REMARK VINA RESULT:     -11.3      5.459     10.246
REMARK SMILES Cc1cc(CNC(=O)C[C@H](C)CC(=O)OCCOC(=O)c2ccc(-c3c4nc(c(-c5cccc(S(=O)(=O)[O-])c5F)c5ccc([nH]5)c(-c5cccc(S(=O)(=O)[O-])c5F)c5nc(c(-c6cccc(S(=O)(=O)[O-])c6F)c6ccc3[nH]6)C=C5)C=C4)cc2)cc(C)c1F
REMARK SMILES IDX 16 1 15 2 13 3 14 4 12 5 10 6 11 7 9 8 7 9 6 10 8 12 5 13
REMARK SMILES IDX 4 14 1 15 2 16 3 17 87 18 85 19 88 20 84 21 86 22 17 23
REMARK SMILES IDX 18 24 19 25 20 26 21 27 22 28 83 29 23 30 82 31 24 32 25 33
REMARK SMILES IDX 26 34 76 35 27 36 81 37 75 38 77 39 28 40 80 41 74 42 73 43
REMARK SMILES IDX 29 45 61 46 41 47 60 48 42 49 45 50 59 51 78 52 43 53 44 54
REMARK SMILES IDX 58 56 79 57 46 58 30 59 31 60 39 61 32 62 34 63 40 64 33 65
REMARK SMILES IDX 35 66 36 67 37 68 38 69 62 70 63 71 71 72 64 73 66 74 72 75
REMARK SMILES IDX 65 76 67 77 68 78 69 79 70 80 47 81 48 82 56 83 49 84 51 85
REMARK SMILES IDX 57 86 50 87 52 88 53 89 54 90 55 91
REMARK H PARENT 6 11 77 44 45 55
REMARK Flexibility Score: inf
ROOT
ATOM      1  C   UNL A   1      31.119  30.210  24.698  1.00  0.00     0.274 C 
ENDROOT
BRANCH   1   2
ATOM      2  O   UNL A   1      30.558  29.000  24.152  1.00  0.00    -0.462 OA
BRANCH   2   3
ATOM      3  C   UNL A   1      30.839  28.715  22.857  1.00  0.00     0.306 C 
ATOM      4  O   UNL A   1      30.006  28.411  22.012  1.00  0.00    -0.252 OA
BRANCH   3   5
ATOM      5  C   UNL A   1      32.314  28.848  22.516  1.00  0.00     0.126 C 
BRANCH   5   6
ATOM      6  C   UNL A   1      33.200  27.623  22.801  1.00  0.00     0.006 C 
ATOM      7  C   UNL A   1      33.943  27.828  24.127  1.00  0.00     0.009 C 
BRANCH   6   8
ATOM      8  C   UNL A   1      32.354  26.335  22.779  1.00  0.00     0.104 C 
BRANCH   8   9
ATOM      9  C   UNL A   1      32.734  25.352  21.686  1.00  0.00     0.220 C 
ATOM     10  N   UNL A   1      32.452  24.027  21.802  1.00  0.00    -0.352 N 
ATOM     11  H   UNL A   1      32.643  23.493  20.996  1.00  0.00     0.163 HD
ATOM     12  O   UNL A   1      33.280  25.747  20.653  1.00  0.00    -0.275 OA
BRANCH  10  13
ATOM     13  C   UNL A   1      31.915  23.276  22.919  1.00  0.00     0.151 C 
BRANCH  13  14
ATOM     14  C   UNL A   1      32.986  22.480  23.632  1.00  0.00    -0.028 A 
ATOM     15  C   UNL A   1      36.737  22.762  24.212  1.00  0.00     0.047 C 
ATOM     16  C   UNL A   1      35.342  22.216  24.250  1.00  0.00    -0.015 A 
ATOM     17  C   UNL A   1      34.301  22.963  23.693  1.00  0.00     0.012 A 
ATOM     18  C   UNL A   1      35.050  20.962  24.779  1.00  0.00     0.129 A 
ATOM     19  C   UNL A   1      33.748  20.452  24.759  1.00  0.00    -0.015 A 
ATOM     20  F   UNL A   1      36.040  20.228  25.310  1.00  0.00    -0.206 F 
ATOM     21  C   UNL A   1      32.719  21.219  24.181  1.00  0.00     0.012 A 
ATOM     22  C   UNL A   1      33.446  19.101  25.336  1.00  0.00     0.047 C 
ENDBRANCH  13  14
ENDBRANCH  10  13
ENDBRANCH   8   9
ENDBRANCH   6   8
ENDBRANCH   5   6
ENDBRANCH   3   5
ENDBRANCH   2   3
ENDBRANCH   1   2
BRANCH   1  23
ATOM     23  C   UNL A   1      31.493  30.000  26.167  1.00  0.00     0.275 C 
BRANCH  23  24
ATOM     24  O   UNL A   1      32.912  30.133  26.357  1.00  0.00    -0.458 OA
BRANCH  24  25
ATOM     25  C   UNL A   1      33.305  31.237  27.032  1.00  0.00     0.338 C 
ATOM     26  O   UNL A   1      32.686  32.273  27.200  1.00  0.00    -0.246 OA
BRANCH  25  27
ATOM     27  C   UNL A   1      34.587  30.954  27.685  1.00  0.00     0.060 A 
ATOM     28  C   UNL A   1      34.923  29.621  27.919  1.00  0.00     0.016 A 
ATOM     29  C   UNL A   1      35.407  31.990  28.130  1.00  0.00     0.016 A 
ATOM     30  C   UNL A   1      36.068  29.309  28.639  1.00  0.00     0.010 A 
ATOM     31  C   UNL A   1      36.572  31.677  28.832  1.00  0.00     0.010 A 
ATOM     32  C   UNL A   1      36.894  30.336  29.108  1.00  0.00    -0.014 A 
BRANCH  32  33
ATOM     33  C   UNL A   1      38.078  29.998  29.924  1.00  0.00     0.031 A 
ATOM     34  C   UNL A   1      39.115  29.063  29.378  1.00  0.00     0.074 A 
ATOM     35  C   UNL A   1      38.225  30.555  31.138  1.00  0.00     0.049 A 
ATOM     36  N   UNL A   1      40.201  28.618  29.951  1.00  0.00    -0.248 NA
ATOM     37  C   UNL A   1      38.908  28.570  28.006  1.00  0.00     0.031 C 
ATOM     38  C   UNL A   1      37.290  31.501  31.749  1.00  0.00     0.029 A 
ATOM     39  N   UNL A   1      39.210  30.401  32.078  1.00  0.00    -0.354 N 
ATOM     40  C   UNL A   1      40.797  27.774  29.024  1.00  0.00     0.074 A 
ATOM     41  C   UNL A   1      39.947  27.762  27.853  1.00  0.00     0.031 C 
ATOM     42  C   UNL A   1      37.744  31.841  32.964  1.00  0.00     0.029 A 
ATOM     43  C   UNL A   1      38.981  31.111  33.231  1.00  0.00     0.049 A 
ATOM     44  H   UNL A   1      40.004  29.835  31.940  1.00  0.00     0.167 HD
ATOM     45  C   UNL A   1      41.957  27.089  29.135  1.00  0.00     0.034 A 
ATOM     46  C   UNL A   1      39.681  31.156  34.380  1.00  0.00     0.034 A 
ATOM     47  C   UNL A   1      42.804  27.123  30.295  1.00  0.00     0.049 A 
ATOM     48  C   UNL A   1      40.943  30.351  34.499  1.00  0.00     0.074 A 
ATOM     49  C   UNL A   1      44.004  26.470  30.500  1.00  0.00     0.029 A 
ATOM     50  N   UNL A   1      42.538  27.852  31.444  1.00  0.00    -0.354 N 
ATOM     51  N   UNL A   1      41.518  29.591  33.598  1.00  0.00    -0.248 NA
ATOM     52  C   UNL A   1      41.661  30.418  35.779  1.00  0.00     0.031 C 
ATOM     53  C   UNL A   1      44.464  26.797  31.780  1.00  0.00     0.029 A 
ATOM     54  C   UNL A   1      43.552  27.663  32.367  1.00  0.00     0.049 A 
ATOM     55  H   UNL A   1      41.746  28.419  31.584  1.00  0.00     0.167 HD
ATOM     56  C   UNL A   1      42.674  29.102  34.192  1.00  0.00     0.074 A 
ATOM     57  C   UNL A   1      42.724  29.660  35.529  1.00  0.00     0.031 C 
ATOM     58  C   UNL A   1      43.602  28.258  33.679  1.00  0.00     0.034 A 
BRANCH  45  59
ATOM     59  C   UNL A   1      42.396  26.275  27.951  1.00  0.00     0.023 A 
ATOM     60  C   UNL A   1      43.289  26.842  27.021  1.00  0.00     0.012 A 
ATOM     61  C   UNL A   1      41.966  24.946  27.781  1.00  0.00     0.148 A 
ATOM     62  C   UNL A   1      43.735  26.104  25.926  1.00  0.00     0.002 A 
ATOM     63  C   UNL A   1      42.436  24.206  26.702  1.00  0.00     0.091 A 
ATOM     64  F   UNL A   1      41.097  24.437  28.666  1.00  0.00    -0.205 F 
ATOM     65  C   UNL A   1      43.315  24.785  25.771  1.00  0.00     0.022 A 
BRANCH  63  66
ATOM     66  S   UNL A   1      41.990  22.487  26.436  1.00  0.00     0.127 S 
ATOM     67  O   UNL A   1      42.673  22.198  25.175  1.00  0.00    -0.237 OA
ATOM     68  O   UNL A   1      42.573  21.832  27.608  1.00  0.00    -0.237 OA
ATOM     69  O   UNL A   1      40.536  22.453  26.379  1.00  0.00    -0.744 OA
ENDBRANCH  63  66
ENDBRANCH  45  59
BRANCH  46  70
ATOM     70  C   UNL A   1      39.206  32.044  35.472  1.00  0.00     0.023 A 
ATOM     71  C   UNL A   1      38.391  31.507  36.486  1.00  0.00     0.012 A 
ATOM     72  C   UNL A   1      39.660  33.374  35.577  1.00  0.00     0.148 A 
ATOM     73  C   UNL A   1      38.039  32.280  37.593  1.00  0.00     0.002 A 
ATOM     74  C   UNL A   1      39.336  34.125  36.701  1.00  0.00     0.091 A 
ATOM     75  F   UNL A   1      40.441  33.854  34.600  1.00  0.00    -0.205 F 
ATOM     76  C   UNL A   1      38.519  33.583  37.706  1.00  0.00     0.022 A 
BRANCH  74  77
ATOM     77  S   UNL A   1      39.989  35.773  36.990  1.00  0.00     0.127 S 
ATOM     78  O   UNL A   1      41.413  35.502  37.182  1.00  0.00    -0.237 OA
ATOM     79  O   UNL A   1      39.655  36.447  35.735  1.00  0.00    -0.237 OA
ATOM     80  O   UNL A   1      39.291  36.280  38.162  1.00  0.00    -0.744 OA
ENDBRANCH  74  77
ENDBRANCH  46  70
BRANCH  58  81
ATOM     81  C   UNL A   1      44.766  27.875  34.549  1.00  0.00     0.023 A 
ATOM     82  C   UNL A   1      45.892  28.718  34.601  1.00  0.00     0.012 A 
ATOM     83  C   UNL A   1      44.683  26.766  35.414  1.00  0.00     0.148 A 
ATOM     84  C   UNL A   1      46.924  28.461  35.502  1.00  0.00     0.002 A 
ATOM     85  C   UNL A   1      45.700  26.536  36.332  1.00  0.00     0.091 A 
ATOM     86  F   UNL A   1      43.600  25.978  35.337  1.00  0.00    -0.205 F 
ATOM     87  C   UNL A   1      46.823  27.379  36.375  1.00  0.00     0.022 A 
BRANCH  85  88
ATOM     88  S   UNL A   1      45.626  25.217  37.550  1.00  0.00     0.127 S 
ATOM     89  O   UNL A   1      44.410  25.561  38.287  1.00  0.00    -0.237 OA
ATOM     90  O   UNL A   1      45.513  24.027  36.708  1.00  0.00    -0.237 OA
ATOM     91  O   UNL A   1      46.860  25.305  38.319  1.00  0.00    -0.744 OA
ENDBRANCH  85  88
ENDBRANCH  58  81
ENDBRANCH  32  33
ENDBRANCH  25  27
ENDBRANCH  24  25
ENDBRANCH  23  24
ENDBRANCH   1  23
TORSDOF 19
ENDMDL
MODEL 3
REMARK VINA RESULT:     -11.2      5.387      7.852
REMARK SMILES Cc1cc(CNC(=O)C[C@H](C)CC(=O)OCCOC(=O)c2ccc(-c3c4nc(c(-c5cccc(S(=O)(=O)[O-])c5F)c5ccc([nH]5)c(-c5cccc(S(=O)(=O)[O-])c5F)c5nc(c(-c6cccc(S(=O)(=O)[O-])c6F)c6ccc3[nH]6)C=C5)C=C4)cc2)cc(C)c1F
REMARK SMILES IDX 16 1 15 2 13 3 14 4 12 5 10 6 11 7 9 8 7 9 6 10 8 12 5 13
REMARK SMILES IDX 4 14 1 15 2 16 3 17 87 18 85 19 88 20 84 21 86 22 17 23
REMARK SMILES IDX 18 24 19 25 20 26 21 27 22 28 83 29 23 30 82 31 24 32 25 33
REMARK SMILES IDX 26 34 76 35 27 36 81 37 75 38 77 39 28 40 80 41 74 42 73 43
REMARK SMILES IDX 29 45 61 46 41 47 60 48 42 49 45 50 59 51 78 52 43 53 44 54
REMARK SMILES IDX 58 56 79 57 46 58 30 59 31 60 39 61 32 62 34 63 40 64 33 65
REMARK SMILES IDX 35 66 36 67 37 68 38 69 62 70 63 71 71 72 64 73 66 74 72 75
REMARK SMILES IDX 65 76 67 77 68 78 69 79 70 80 47 81 48 82 56 83 49 84 51 85
REMARK SMILES IDX 57 86 50 87 52 88 53 89 54 90 55 91
REMARK H PARENT 6 11 77 44 45 55
REMARK Flexibility Score: inf
ROOT
ATOM      1  C   UNL A   1      31.723  29.303  24.773  1.00  0.00     0.274 C 
ENDROOT
BRANCH   1   2
ATOM      2  O   UNL A   1      32.732  28.395  25.258  1.00  0.00    -0.462 OA
BRANCH   2   3
ATOM      3  C   UNL A   1      32.453  27.070  25.206  1.00  0.00     0.306 C 
ATOM      4  O   UNL A   1      33.043  26.258  24.503  1.00  0.00    -0.252 OA
BRANCH   3   5
ATOM      5  C   UNL A   1      31.341  26.650  26.154  1.00  0.00     0.126 C 
BRANCH   5   6
ATOM      6  C   UNL A   1      30.248  25.737  25.572  1.00  0.00     0.006 C 
ATOM      7  C   UNL A   1      29.685  26.367  24.292  1.00  0.00     0.009 C 
BRANCH   6   8
ATOM      8  C   UNL A   1      30.802  24.316  25.349  1.00  0.00     0.104 C 
BRANCH   8   9
ATOM      9  C   UNL A   1      30.686  23.400  26.554  1.00  0.00     0.220 C 
ATOM     10  N   UNL A   1      31.705  22.574  26.911  1.00  0.00    -0.352 N 
ATOM     11  H   UNL A   1      31.573  22.101  27.765  1.00  0.00     0.163 HD
ATOM     12  O   UNL A   1      29.670  23.413  27.253  1.00  0.00    -0.275 OA
BRANCH  10  13
ATOM     13  C   UNL A   1      32.954  22.280  26.237  1.00  0.00     0.151 C 
BRANCH  13  14
ATOM     14  C   UNL A   1      32.814  21.131  25.264  1.00  0.00    -0.028 A 
ATOM     15  C   UNL A   1      31.780  20.676  21.630  1.00  0.00     0.047 C 
ATOM     16  C   UNL A   1      32.226  20.341  23.020  1.00  0.00    -0.015 A 
ATOM     17  C   UNL A   1      32.465  21.376  23.928  1.00  0.00     0.012 A 
ATOM     18  C   UNL A   1      32.363  19.028  23.460  1.00  0.00     0.129 A 
ATOM     19  C   UNL A   1      32.733  18.739  24.778  1.00  0.00    -0.015 A 
ATOM     20  F   UNL A   1      32.128  18.022  22.603  1.00  0.00    -0.206 F 
ATOM     21  C   UNL A   1      32.956  19.799  25.676  1.00  0.00     0.012 A 
ATOM     22  C   UNL A   1      32.881  17.320  25.238  1.00  0.00     0.047 C 
ENDBRANCH  13  14
ENDBRANCH  10  13
ENDBRANCH   8   9
ENDBRANCH   6   8
ENDBRANCH   5   6
ENDBRANCH   3   5
ENDBRANCH   2   3
ENDBRANCH   1   2
BRANCH   1  23
ATOM     23  C   UNL A   1      31.567  30.480  25.738  1.00  0.00     0.275 C 
BRANCH  23  24
ATOM     24  O   UNL A   1      32.448  30.338  26.864  1.00  0.00    -0.458 OA
BRANCH  24  25
ATOM     25  C   UNL A   1      33.112  31.459  27.226  1.00  0.00     0.338 C 
ATOM     26  O   UNL A   1      32.692  32.603  27.253  1.00  0.00    -0.246 OA
BRANCH  25  27
ATOM     27  C   UNL A   1      34.432  31.077  27.739  1.00  0.00     0.060 A 
ATOM     28  C   UNL A   1      34.641  29.741  28.079  1.00  0.00     0.016 A 
ATOM     29  C   UNL A   1      35.420  32.037  27.956  1.00  0.00     0.016 A 
ATOM     30  C   UNL A   1      35.832  29.355  28.679  1.00  0.00     0.010 A 
ATOM     31  C   UNL A   1      36.627  31.645  28.535  1.00  0.00     0.010 A 
ATOM     32  C   UNL A   1      36.827  30.307  28.920  1.00  0.00    -0.014 A 
BRANCH  32  33
ATOM     33  C   UNL A   1      38.067  29.899  29.611  1.00  0.00     0.031 A 
ATOM     34  C   UNL A   1      38.385  30.461  30.964  1.00  0.00     0.074 A 
ATOM     35  C   UNL A   1      38.885  29.004  29.030  1.00  0.00     0.049 A 
ATOM     36  N   UNL A   1      39.435  30.256  31.712  1.00  0.00    -0.248 NA
ATOM     37  C   UNL A   1      37.388  31.370  31.556  1.00  0.00     0.031 C 
ATOM     38  C   UNL A   1      38.652  28.372  27.731  1.00  0.00     0.029 A 
ATOM     39  N   UNL A   1      40.077  28.478  29.452  1.00  0.00    -0.354 N 
ATOM     40  C   UNL A   1      39.241  31.024  32.852  1.00  0.00     0.074 A 
ATOM     41  C   UNL A   1      37.977  31.708  32.694  1.00  0.00     0.031 C 
ATOM     42  C   UNL A   1      39.672  27.546  27.458  1.00  0.00     0.029 A 
ATOM     43  C   UNL A   1      40.645  27.617  28.546  1.00  0.00     0.049 A 
ATOM     44  H   UNL A   1      40.487  28.698  30.319  1.00  0.00     0.167 HD
ATOM     45  C   UNL A   1      40.039  31.132  33.939  1.00  0.00     0.034 A 
ATOM     46  C   UNL A   1      41.825  26.969  28.581  1.00  0.00     0.034 A 
ATOM     47  C   UNL A   1      41.284  30.432  34.096  1.00  0.00     0.049 A 
ATOM     48  C   UNL A   1      42.717  27.138  29.776  1.00  0.00     0.074 A 
ATOM     49  C   UNL A   1      42.160  30.469  35.164  1.00  0.00     0.029 A 
ATOM     50  N   UNL A   1      41.827  29.570  33.156  1.00  0.00    -0.354 N 
ATOM     51  N   UNL A   1      42.501  27.834  30.867  1.00  0.00    -0.248 NA
ATOM     52  C   UNL A   1      44.002  26.426  29.759  1.00  0.00     0.031 C 
ATOM     53  C   UNL A   1      43.241  29.632  34.868  1.00  0.00     0.029 A 
ATOM     54  C   UNL A   1      43.031  29.067  33.618  1.00  0.00     0.049 A 
ATOM     55  H   UNL A   1      41.419  29.348  32.289  1.00  0.00     0.167 HD
ATOM     56  C   UNL A   1      43.613  27.633  31.675  1.00  0.00     0.074 A 
ATOM     57  C   UNL A   1      44.497  26.739  30.952  1.00  0.00     0.031 C 
ATOM     58  C   UNL A   1      43.879  28.150  32.899  1.00  0.00     0.034 A 
BRANCH  45  59
ATOM     59  C   UNL A   1      39.564  32.010  35.061  1.00  0.00     0.023 A 
ATOM     60  C   UNL A   1      39.822  33.394  35.006  1.00  0.00     0.012 A 
ATOM     61  C   UNL A   1      38.831  31.482  36.140  1.00  0.00     0.148 A 
ATOM     62  C   UNL A   1      39.373  34.239  36.019  1.00  0.00     0.002 A 
ATOM     63  C   UNL A   1      38.362  32.334  37.132  1.00  0.00     0.091 A 
ATOM     64  F   UNL A   1      38.619  30.159  36.181  1.00  0.00    -0.205 F 
ATOM     65  C   UNL A   1      38.637  33.711  37.077  1.00  0.00     0.022 A 
BRANCH  63  66
ATOM     66  S   UNL A   1      37.367  31.761  38.514  1.00  0.00     0.127 S 
ATOM     67  O   UNL A   1      38.285  31.955  39.636  1.00  0.00    -0.237 OA
ATOM     68  O   UNL A   1      36.236  32.687  38.485  1.00  0.00    -0.237 OA
ATOM     69  O   UNL A   1      37.029  30.376  38.219  1.00  0.00    -0.744 OA
ENDBRANCH  63  66
ENDBRANCH  45  59
BRANCH  46  70
ATOM     70  C   UNL A   1      42.179  26.067  27.454  1.00  0.00     0.023 A 
ATOM     71  C   UNL A   1      43.008  26.548  26.425  1.00  0.00     0.012 A 
ATOM     72  C   UNL A   1      41.804  24.708  27.466  1.00  0.00     0.148 A 
ATOM     73  C   UNL A   1      43.465  25.690  25.425  1.00  0.00     0.002 A 
ATOM     74  C   UNL A   1      42.295  23.851  26.488  1.00  0.00     0.091 A 
ATOM     75  F   UNL A   1      41.022  24.277  28.464  1.00  0.00    -0.205 F 
ATOM     76  C   UNL A   1      43.118  24.341  25.462  1.00  0.00     0.022 A 
BRANCH  74  77
ATOM     77  S   UNL A   1      41.992  22.080  26.507  1.00  0.00     0.127 S 
ATOM     78  O   UNL A   1      42.824  21.621  25.395  1.00  0.00    -0.237 OA
ATOM     79  O   UNL A   1      42.483  21.712  27.835  1.00  0.00    -0.237 OA
ATOM     80  O   UNL A   1      40.559  21.917  26.317  1.00  0.00    -0.744 OA
ENDBRANCH  74  77
ENDBRANCH  46  70
BRANCH  58  81
ATOM     81  C   UNL A   1      45.177  27.773  33.557  1.00  0.00     0.023 A 
ATOM     82  C   UNL A   1      46.289  28.625  33.422  1.00  0.00     0.012 A 
ATOM     83  C   UNL A   1      45.250  26.659  34.417  1.00  0.00     0.148 A 
ATOM     84  C   UNL A   1      47.461  28.373  34.134  1.00  0.00     0.002 A 
ATOM     85  C   UNL A   1      46.409  26.434  35.148  1.00  0.00     0.091 A 
ATOM     86  F   UNL A   1      44.176  25.862  34.519  1.00  0.00    -0.205 F 
ATOM     87  C   UNL A   1      47.517  27.286  35.005  1.00  0.00     0.022 A 
BRANCH  85  88
ATOM     88  S   UNL A   1      46.553  25.109  36.352  1.00  0.00     0.127 S 
ATOM     89  O   UNL A   1      47.955  25.222  36.754  1.00  0.00    -0.237 OA
ATOM     90  O   UNL A   1      45.590  25.516  37.375  1.00  0.00    -0.237 OA
ATOM     91  O   UNL A   1      46.211  23.880  35.647  1.00  0.00    -0.744 OA
ENDBRANCH  85  88
ENDBRANCH  58  81
ENDBRANCH  32  33
ENDBRANCH  25  27
ENDBRANCH  24  25
ENDBRANCH  23  24
ENDBRANCH   1  23
TORSDOF 19
ENDMDL
