MODEL 1
REMARK VINA RESULT:     -13.2      0.000      0.000
REMARK SMILES Cc1ccc(-c2cc(C(=O)OCCOC(=O)c3ccc(-c4c5nc(c(-c6cccc(S(=O)(=O)[O-])c6F)c6ccc([nH]6)c(-c6cccc(S(=O)(=O)[O-])c6F)c6nc(c(-c7cccc(S(=O)(=O)[O-])c7F)c7ccc4[nH]7)C=C6)C=C5)cc3)c3cc(C)ccc3n2)c(C)c1
REMARK SMILES IDX 13 1 12 2 11 3 9 4 10 5 8 6 6 7 7 8 87 9 86 10 80 11 85 12
REMARK SMILES IDX 81 13 84 14 82 15 83 16 5 17 1 18 2 19 3 20 90 21 4 22 88 23
REMARK SMILES IDX 89 24 14 25 15 26 16 27 17 28 18 29 79 30 19 31 78 32 20 33
REMARK SMILES IDX 21 34 22 35 72 36 23 37 77 38 71 39 73 40 24 41 76 42 70 43
REMARK SMILES IDX 69 44 25 46 57 47 37 48 56 49 38 50 41 51 55 52 74 53 39 54
REMARK SMILES IDX 40 55 54 57 75 58 42 59 26 60 27 61 35 62 28 63 30 64 36 65
REMARK SMILES IDX 29 66 31 67 32 68 33 69 34 70 58 71 59 72 67 73 60 74 62 75
REMARK SMILES IDX 68 76 61 77 63 78 64 79 65 80 66 81 43 82 44 83 52 84 45 85
REMARK SMILES IDX 47 86 53 87 46 88 48 89 49 90 50 91 51 92
REMARK H PARENT 73 45 41 56
REMARK Flexibility Score: inf
ROOT
ATOM      1  C   UNL A   1      36.323  21.097  25.418  1.00  0.00     0.275 C 
ENDROOT
BRANCH   1   2
ATOM      2  C   UNL A   1      35.482  22.089  26.220  1.00  0.00     0.275 C 
BRANCH   2   3
ATOM      3  O   UNL A   1      34.442  21.405  26.951  1.00  0.00    -0.458 OA
BRANCH   3   4
ATOM      4  C   UNL A   1      33.247  22.038  27.052  1.00  0.00     0.339 C 
ATOM      5  O   UNL A   1      32.685  22.364  28.081  1.00  0.00    -0.246 OA
BRANCH   4   6
ATOM      6  C   UNL A   1      32.724  22.398  25.712  1.00  0.00     0.071 A 
ATOM      7  C   UNL A   1      31.796  24.118  24.323  1.00  0.00     0.072 A 
ATOM      8  C   UNL A   1      32.267  23.706  25.553  1.00  0.00     0.045 A 
ATOM      9  N   UNL A   1      31.675  23.263  23.285  1.00  0.00    -0.248 NA
ATOM     10  C   UNL A   1      32.038  21.977  23.457  1.00  0.00     0.072 A 
ATOM     11  C   UNL A   1      32.593  21.478  24.655  1.00  0.00     0.015 A 
ATOM     12  C   UNL A   1      31.827  21.091  22.411  1.00  0.00     0.029 A 
ATOM     13  C   UNL A   1      32.928  20.103  24.740  1.00  0.00     0.014 A 
ATOM     14  C   UNL A   1      32.152  19.732  22.504  1.00  0.00     0.005 A 
ATOM     15  C   UNL A   1      32.713  19.229  23.673  1.00  0.00    -0.050 A 
ATOM     16  C   UNL A   1      33.108  17.789  23.807  1.00  0.00     0.044 C 
BRANCH   7  17
ATOM     17  C   UNL A   1      31.359  25.509  24.126  1.00  0.00     0.003 A 
ATOM     18  C   UNL A   1      29.952  29.518  23.227  1.00  0.00     0.044 C 
ATOM     19  C   UNL A   1      30.423  28.128  23.550  1.00  0.00    -0.051 A 
ATOM     20  C   UNL A   1      29.518  27.081  23.727  1.00  0.00     0.004 A 
ATOM     21  C   UNL A   1      31.793  27.865  23.673  1.00  0.00     0.007 A 
ATOM     22  C   UNL A   1      29.981  25.792  24.015  1.00  0.00     0.011 A 
ATOM     23  C   UNL A   1      32.272  26.567  23.944  1.00  0.00    -0.041 A 
ATOM     24  C   UNL A   1      33.763  26.379  24.027  1.00  0.00     0.045 C 
ENDBRANCH   7  17
ENDBRANCH   4   6
ENDBRANCH   3   4
ENDBRANCH   2   3
ENDBRANCH   1   2
BRANCH   1  25
ATOM     25  O   UNL A   1      37.572  21.702  25.041  1.00  0.00    -0.458 OA
BRANCH  25  26
ATOM     26  C   UNL A   1      38.637  21.291  25.763  1.00  0.00     0.338 C 
ATOM     27  O   UNL A   1      39.161  20.188  25.758  1.00  0.00    -0.246 OA
BRANCH  26  28
ATOM     28  C   UNL A   1      39.208  22.426  26.493  1.00  0.00     0.060 A 
ATOM     29  C   UNL A   1      38.739  23.692  26.168  1.00  0.00     0.016 A 
ATOM     30  C   UNL A   1      40.305  22.279  27.332  1.00  0.00     0.016 A 
ATOM     31  C   UNL A   1      39.453  24.823  26.543  1.00  0.00     0.010 A 
ATOM     32  C   UNL A   1      40.938  23.425  27.829  1.00  0.00     0.010 A 
ATOM     33  C   UNL A   1      40.555  24.712  27.399  1.00  0.00    -0.014 A 
BRANCH  33  34
ATOM     34  C   UNL A   1      41.310  25.927  27.826  1.00  0.00     0.031 A 
ATOM     35  C   UNL A   1      40.628  26.995  28.649  1.00  0.00     0.074 A 
ATOM     36  C   UNL A   1      42.603  26.090  27.471  1.00  0.00     0.049 A 
ATOM     37  N   UNL A   1      41.032  28.206  28.932  1.00  0.00    -0.248 NA
ATOM     38  C   UNL A   1      39.305  26.664  29.211  1.00  0.00     0.031 C 
ATOM     39  C   UNL A   1      43.403  25.132  26.702  1.00  0.00     0.029 A 
ATOM     40  N   UNL A   1      43.472  27.132  27.692  1.00  0.00    -0.354 N 
ATOM     41  C   UNL A   1      39.991  28.804  29.636  1.00  0.00     0.074 A 
ATOM     42  C   UNL A   1      38.934  27.822  29.738  1.00  0.00     0.031 C 
ATOM     43  C   UNL A   1      44.641  25.617  26.534  1.00  0.00     0.029 A 
ATOM     44  C   UNL A   1      44.698  26.962  27.089  1.00  0.00     0.049 A 
ATOM     45  H   UNL A   1      43.241  27.923  28.231  1.00  0.00     0.167 HD
ATOM     46  C   UNL A   1      39.925  30.054  30.157  1.00  0.00     0.034 A 
ATOM     47  C   UNL A   1      45.735  27.809  26.939  1.00  0.00     0.034 A 
ATOM     48  C   UNL A   1      41.005  31.004  30.107  1.00  0.00     0.049 A 
ATOM     49  C   UNL A   1      45.623  29.196  27.506  1.00  0.00     0.074 A 
ATOM     50  C   UNL A   1      41.047  32.287  30.624  1.00  0.00     0.029 A 
ATOM     51  N   UNL A   1      42.239  30.771  29.520  1.00  0.00    -0.354 N 
ATOM     52  N   UNL A   1      44.641  29.733  28.188  1.00  0.00    -0.248 NA
ATOM     53  C   UNL A   1      46.769  30.093  27.294  1.00  0.00     0.031 C 
ATOM     54  C   UNL A   1      42.300  32.836  30.334  1.00  0.00     0.029 A 
ATOM     55  C   UNL A   1      43.050  31.882  29.666  1.00  0.00     0.049 A 
ATOM     56  H   UNL A   1      42.500  29.937  29.065  1.00  0.00     0.167 HD
ATOM     57  C   UNL A   1      45.068  31.013  28.521  1.00  0.00     0.074 A 
ATOM     58  C   UNL A   1      46.406  31.161  27.988  1.00  0.00     0.031 C 
ATOM     59  C   UNL A   1      44.405  31.987  29.190  1.00  0.00     0.034 A 
BRANCH  46  60
ATOM     60  C   UNL A   1      38.657  30.468  30.861  1.00  0.00     0.023 A 
ATOM     61  C   UNL A   1      38.530  30.271  32.250  1.00  0.00     0.012 A 
ATOM     62  C   UNL A   1      37.628  31.133  30.162  1.00  0.00     0.148 A 
ATOM     63  C   UNL A   1      37.390  30.704  32.928  1.00  0.00     0.002 A 
ATOM     64  C   UNL A   1      36.516  31.603  30.853  1.00  0.00     0.091 A 
ATOM     65  F   UNL A   1      37.760  31.301  28.838  1.00  0.00    -0.205 F 
ATOM     66  C   UNL A   1      36.391  31.380  32.233  1.00  0.00     0.022 A 
BRANCH  64  67
ATOM     67  S   UNL A   1      35.211  32.556  30.067  1.00  0.00     0.127 S 
ATOM     68  O   UNL A   1      34.263  32.723  31.169  1.00  0.00    -0.237 OA
ATOM     69  O   UNL A   1      35.916  33.779  29.680  1.00  0.00    -0.237 OA
ATOM     70  O   UNL A   1      34.731  31.748  28.955  1.00  0.00    -0.744 OA
ENDBRANCH  64  67
ENDBRANCH  46  60
BRANCH  47  71
ATOM     71  C   UNL A   1      46.965  27.384  26.207  1.00  0.00     0.023 A 
ATOM     72  C   UNL A   1      47.081  27.654  24.830  1.00  0.00     0.012 A 
ATOM     73  C   UNL A   1      48.010  26.701  26.860  1.00  0.00     0.148 A 
ATOM     74  C   UNL A   1      48.191  27.212  24.109  1.00  0.00     0.002 A 
ATOM     75  C   UNL A   1      49.142  26.322  26.149  1.00  0.00     0.091 A 
ATOM     76  F   UNL A   1      47.877  26.431  28.166  1.00  0.00    -0.205 F 
ATOM     77  C   UNL A   1      49.226  26.556  24.769  1.00  0.00     0.022 A 
BRANCH  75  78
ATOM     78  S   UNL A   1      50.577  25.598  26.953  1.00  0.00     0.127 S 
ATOM     79  O   UNL A   1      50.012  24.385  27.535  1.00  0.00    -0.237 OA
ATOM     80  O   UNL A   1      51.481  25.377  25.823  1.00  0.00    -0.237 OA
ATOM     81  O   UNL A   1      51.041  26.604  27.899  1.00  0.00    -0.744 OA
ENDBRANCH  75  78
ENDBRANCH  47  71
BRANCH  59  82
ATOM     82  C   UNL A   1      45.141  33.274  29.450  1.00  0.00     0.023 A 
ATOM     83  C   UNL A   1      45.926  33.418  30.611  1.00  0.00     0.012 A 
ATOM     84  C   UNL A   1      45.095  34.321  28.508  1.00  0.00     0.148 A 
ATOM     85  C   UNL A   1      46.623  34.601  30.850  1.00  0.00     0.002 A 
ATOM     86  C   UNL A   1      45.835  35.475  28.727  1.00  0.00     0.091 A 
ATOM     87  F   UNL A   1      44.327  34.168  27.420  1.00  0.00    -0.205 F 
ATOM     88  C   UNL A   1      46.587  35.624  29.904  1.00  0.00     0.022 A 
BRANCH  86  89
ATOM     89  S   UNL A   1      45.929  36.802  27.521  1.00  0.00     0.127 S 
ATOM     90  O   UNL A   1      44.518  37.134  27.333  1.00  0.00    -0.237 OA
ATOM     91  O   UNL A   1      46.705  37.814  28.237  1.00  0.00    -0.237 OA
ATOM     92  O   UNL A   1      46.598  36.239  26.355  1.00  0.00    -0.744 OA
ENDBRANCH  86  89
ENDBRANCH  59  82
ENDBRANCH  33  34
ENDBRANCH  26  28
ENDBRANCH  25  26
ENDBRANCH   1  25
TORSDOF 15
ENDMDL
MODEL 2
REMARK VINA RESULT:     -13.1      4.792     10.039
REMARK SMILES Cc1ccc(-c2cc(C(=O)OCCOC(=O)c3ccc(-c4c5nc(c(-c6cccc(S(=O)(=O)[O-])c6F)c6ccc([nH]6)c(-c6cccc(S(=O)(=O)[O-])c6F)c6nc(c(-c7cccc(S(=O)(=O)[O-])c7F)c7ccc4[nH]7)C=C6)C=C5)cc3)c3cc(C)ccc3n2)c(C)c1
REMARK SMILES IDX 13 1 12 2 11 3 9 4 10 5 8 6 6 7 7 8 87 9 86 10 80 11 85 12
REMARK SMILES IDX 81 13 84 14 82 15 83 16 5 17 1 18 2 19 3 20 90 21 4 22 88 23
REMARK SMILES IDX 89 24 14 25 15 26 16 27 17 28 18 29 79 30 19 31 78 32 20 33
REMARK SMILES IDX 21 34 22 35 72 36 23 37 77 38 71 39 73 40 24 41 76 42 70 43
REMARK SMILES IDX 69 44 25 46 57 47 37 48 56 49 38 50 41 51 55 52 74 53 39 54
REMARK SMILES IDX 40 55 54 57 75 58 42 59 26 60 27 61 35 62 28 63 30 64 36 65
REMARK SMILES IDX 29 66 31 67 32 68 33 69 34 70 58 71 59 72 67 73 60 74 62 75
REMARK SMILES IDX 68 76 61 77 63 78 64 79 65 80 66 81 43 82 44 83 52 84 45 85
REMARK SMILES IDX 47 86 53 87 46 88 48 89 49 90 50 91 51 92
REMARK H PARENT 73 45 41 56
REMARK Flexibility Score: inf
ROOT
ATOM      1  C   UNL A   1      32.097  30.077  25.496  1.00  0.00     0.275 C 
ENDROOT
BRANCH   1   2
ATOM      2  C   UNL A   1      33.212  29.326  24.768  1.00  0.00     0.275 C 
BRANCH   2   3
ATOM      3  O   UNL A   1      33.043  29.420  23.338  1.00  0.00    -0.458 OA
BRANCH   3   4
ATOM      4  C   UNL A   1      33.289  28.297  22.618  1.00  0.00     0.339 C 
ATOM      5  O   UNL A   1      34.000  28.209  21.635  1.00  0.00    -0.246 OA
BRANCH   4   6
ATOM      6  C   UNL A   1      32.648  27.116  23.245  1.00  0.00     0.071 A 
ATOM      7  C   UNL A   1      32.957  24.914  24.143  1.00  0.00     0.072 A 
ATOM      8  C   UNL A   1      33.481  26.035  23.529  1.00  0.00     0.045 A 
ATOM      9  N   UNL A   1      31.636  24.793  24.393  1.00  0.00    -0.248 NA
ATOM     10  C   UNL A   1      30.813  25.801  24.043  1.00  0.00     0.072 A 
ATOM     11  C   UNL A   1      31.263  27.012  23.475  1.00  0.00     0.015 A 
ATOM     12  C   UNL A   1      29.449  25.628  24.226  1.00  0.00     0.029 A 
ATOM     13  C   UNL A   1      30.314  28.007  23.129  1.00  0.00     0.014 A 
ATOM     14  C   UNL A   1      28.516  26.611  23.874  1.00  0.00     0.005 A 
ATOM     15  C   UNL A   1      28.946  27.814  23.326  1.00  0.00    -0.050 A 
ATOM     16  C   UNL A   1      27.987  28.908  22.965  1.00  0.00     0.044 C 
BRANCH   7  17
ATOM     17  C   UNL A   1      33.833  23.786  24.496  1.00  0.00     0.003 A 
ATOM     18  C   UNL A   1      36.681  20.629  25.377  1.00  0.00     0.044 C 
ATOM     19  C   UNL A   1      35.697  21.728  25.092  1.00  0.00    -0.051 A 
ATOM     20  C   UNL A   1      35.820  22.982  25.690  1.00  0.00     0.004 A 
ATOM     21  C   UNL A   1      34.636  21.503  24.205  1.00  0.00     0.007 A 
ATOM     22  C   UNL A   1      34.898  23.994  25.399  1.00  0.00     0.011 A 
ATOM     23  C   UNL A   1      33.712  22.520  23.889  1.00  0.00    -0.041 A 
ATOM     24  C   UNL A   1      32.624  22.190  22.903  1.00  0.00     0.045 C 
ENDBRANCH   7  17
ENDBRANCH   4   6
ENDBRANCH   3   4
ENDBRANCH   2   3
ENDBRANCH   1   2
BRANCH   1  25
ATOM     25  O   UNL A   1      32.431  30.226  26.887  1.00  0.00    -0.458 OA
BRANCH  25  26
ATOM     26  C   UNL A   1      33.037  31.392  27.199  1.00  0.00     0.338 C 
ATOM     27  O   UNL A   1      32.534  32.503  27.253  1.00  0.00    -0.246 OA
BRANCH  26  28
ATOM     28  C   UNL A   1      34.417  31.135  27.622  1.00  0.00     0.060 A 
ATOM     29  C   UNL A   1      34.754  29.823  27.926  1.00  0.00     0.016 A 
ATOM     30  C   UNL A   1      35.301  32.169  27.899  1.00  0.00     0.016 A 
ATOM     31  C   UNL A   1      35.904  29.545  28.654  1.00  0.00     0.010 A 
ATOM     32  C   UNL A   1      36.528  31.868  28.503  1.00  0.00     0.010 A 
ATOM     33  C   UNL A   1      36.824  30.561  28.938  1.00  0.00    -0.014 A 
BRANCH  33  34
ATOM     34  C   UNL A   1      38.075  30.262  29.698  1.00  0.00     0.031 A 
ATOM     35  C   UNL A   1      39.122  29.349  29.107  1.00  0.00     0.074 A 
ATOM     36  C   UNL A   1      38.274  30.793  30.924  1.00  0.00     0.049 A 
ATOM     37  N   UNL A   1      40.159  28.796  29.682  1.00  0.00    -0.248 NA
ATOM     38  C   UNL A   1      38.973  28.992  27.684  1.00  0.00     0.031 C 
ATOM     39  C   UNL A   1      37.365  31.714  31.613  1.00  0.00     0.029 A 
ATOM     40  N   UNL A   1      39.300  30.621  31.822  1.00  0.00    -0.354 N 
ATOM     41  C   UNL A   1      40.739  27.974  28.722  1.00  0.00     0.074 A 
ATOM     42  C   UNL A   1      39.940  28.099  27.523  1.00  0.00     0.031 C 
ATOM     43  C   UNL A   1      37.879  32.040  32.807  1.00  0.00     0.029 A 
ATOM     44  C   UNL A   1      39.098  31.273  33.018  1.00  0.00     0.049 A 
ATOM     45  H   UNL A   1      40.103  30.084  31.630  1.00  0.00     0.167 HD
ATOM     46  C   UNL A   1      41.843  27.194  28.825  1.00  0.00     0.034 A 
ATOM     47  C   UNL A   1      39.778  31.220  34.181  1.00  0.00     0.034 A 
ATOM     48  C   UNL A   1      42.670  27.123  30.001  1.00  0.00     0.049 A 
ATOM     49  C   UNL A   1      40.982  30.327  34.273  1.00  0.00     0.074 A 
ATOM     50  C   UNL A   1      43.821  26.381  30.200  1.00  0.00     0.029 A 
ATOM     51  N   UNL A   1      42.447  27.832  31.171  1.00  0.00    -0.354 N 
ATOM     52  N   UNL A   1      41.528  29.577  33.347  1.00  0.00    -0.248 NA
ATOM     53  C   UNL A   1      41.675  30.281  35.569  1.00  0.00     0.031 C 
ATOM     54  C   UNL A   1      44.283  26.628  31.496  1.00  0.00     0.029 A 
ATOM     55  C   UNL A   1      43.440  27.550  32.093  1.00  0.00     0.049 A 
ATOM     56  H   UNL A   1      41.692  28.447  31.324  1.00  0.00     0.167 HD
ATOM     57  C   UNL A   1      42.649  29.004  33.936  1.00  0.00     0.074 A 
ATOM     58  C   UNL A   1      42.718  29.514  35.289  1.00  0.00     0.031 C 
ATOM     59  C   UNL A   1      43.531  28.120  33.411  1.00  0.00     0.034 A 
BRANCH  46  60
ATOM     60  C   UNL A   1      42.251  26.371  27.629  1.00  0.00     0.023 A 
ATOM     61  C   UNL A   1      43.087  26.933  26.643  1.00  0.00     0.012 A 
ATOM     62  C   UNL A   1      41.879  25.014  27.526  1.00  0.00     0.148 A 
ATOM     63  C   UNL A   1      43.524  26.168  25.562  1.00  0.00     0.002 A 
ATOM     64  C   UNL A   1      42.358  24.246  26.470  1.00  0.00     0.091 A 
ATOM     65  F   UNL A   1      41.073  24.499  28.466  1.00  0.00    -0.205 F 
ATOM     66  C   UNL A   1      43.171  24.824  25.482  1.00  0.00     0.022 A 
BRANCH  64  67
ATOM     67  S   UNL A   1      42.028  22.486  26.316  1.00  0.00     0.127 S 
ATOM     68  O   UNL A   1      40.566  22.458  26.314  1.00  0.00    -0.237 OA
ATOM     69  O   UNL A   1      42.646  22.170  25.028  1.00  0.00    -0.237 OA
ATOM     70  O   UNL A   1      42.657  21.853  27.467  1.00  0.00    -0.744 OA
ENDBRANCH  64  67
ENDBRANCH  46  60
BRANCH  47  71
ATOM     71  C   UNL A   1      39.331  32.018  35.360  1.00  0.00     0.023 A 
ATOM     72  C   UNL A   1      38.434  31.449  36.285  1.00  0.00     0.012 A 
ATOM     73  C   UNL A   1      39.773  33.341  35.563  1.00  0.00     0.148 A 
ATOM     74  C   UNL A   1      37.952  32.195  37.361  1.00  0.00     0.002 A 
ATOM     75  C   UNL A   1      39.340  34.055  36.674  1.00  0.00     0.091 A 
ATOM     76  F   UNL A   1      40.610  33.878  34.664  1.00  0.00    -0.205 F 
ATOM     77  C   UNL A   1      38.412  33.494  37.561  1.00  0.00     0.022 A 
BRANCH  75  78
ATOM     78  S   UNL A   1      39.993  35.680  37.079  1.00  0.00     0.127 S 
ATOM     79  O   UNL A   1      41.416  35.397  37.242  1.00  0.00    -0.237 OA
ATOM     80  O   UNL A   1      39.651  36.452  35.883  1.00  0.00    -0.237 OA
ATOM     81  O   UNL A   1      39.282  36.095  38.280  1.00  0.00    -0.744 OA
ENDBRANCH  75  78
ENDBRANCH  47  71
BRANCH  59  82
ATOM     82  C   UNL A   1      44.691  27.702  34.276  1.00  0.00     0.023 A 
ATOM     83  C   UNL A   1      45.881  28.455  34.275  1.00  0.00     0.012 A 
ATOM     84  C   UNL A   1      44.573  26.589  35.131  1.00  0.00     0.148 A 
ATOM     85  C   UNL A   1      46.953  28.083  35.085  1.00  0.00     0.002 A 
ATOM     86  C   UNL A   1      45.625  26.257  35.974  1.00  0.00     0.091 A 
ATOM     87  F   UNL A   1      43.438  25.876  35.101  1.00  0.00    -0.205 F 
ATOM     88  C   UNL A   1      46.821  26.992  35.942  1.00  0.00     0.022 A 
BRANCH  86  89
ATOM     89  S   UNL A   1      45.510  24.931  37.181  1.00  0.00     0.127 S 
ATOM     90  O   UNL A   1      44.451  25.421  38.061  1.00  0.00    -0.237 OA
ATOM     91  O   UNL A   1      45.133  23.789  36.348  1.00  0.00    -0.237 OA
ATOM     92  O   UNL A   1      46.829  24.827  37.790  1.00  0.00    -0.744 OA
ENDBRANCH  86  89
ENDBRANCH  59  82
ENDBRANCH  33  34
ENDBRANCH  26  28
ENDBRANCH  25  26
ENDBRANCH   1  25
TORSDOF 15
ENDMDL
MODEL 3
REMARK VINA RESULT:     -13.0      5.087      9.989
REMARK SMILES Cc1ccc(-c2cc(C(=O)OCCOC(=O)c3ccc(-c4c5nc(c(-c6cccc(S(=O)(=O)[O-])c6F)c6ccc([nH]6)c(-c6cccc(S(=O)(=O)[O-])c6F)c6nc(c(-c7cccc(S(=O)(=O)[O-])c7F)c7ccc4[nH]7)C=C6)C=C5)cc3)c3cc(C)ccc3n2)c(C)c1
REMARK SMILES IDX 13 1 12 2 11 3 9 4 10 5 8 6 6 7 7 8 87 9 86 10 80 11 85 12
REMARK SMILES IDX 81 13 84 14 82 15 83 16 5 17 1 18 2 19 3 20 90 21 4 22 88 23
REMARK SMILES IDX 89 24 14 25 15 26 16 27 17 28 18 29 79 30 19 31 78 32 20 33
REMARK SMILES IDX 21 34 22 35 72 36 23 37 77 38 71 39 73 40 24 41 76 42 70 43
REMARK SMILES IDX 69 44 25 46 57 47 37 48 56 49 38 50 41 51 55 52 74 53 39 54
REMARK SMILES IDX 40 55 54 57 75 58 42 59 26 60 27 61 35 62 28 63 30 64 36 65
REMARK SMILES IDX 29 66 31 67 32 68 33 69 34 70 58 71 59 72 67 73 60 74 62 75
REMARK SMILES IDX 68 76 61 77 63 78 64 79 65 80 66 81 43 82 44 83 52 84 45 85
REMARK SMILES IDX 47 86 53 87 46 88 48 89 49 90 50 91 51 92
REMARK H PARENT 73 45 41 56
REMARK Flexibility Score: inf
ROOT
ATOM      1  C   UNL A   1      31.886  29.873  26.734  1.00  0.00     0.275 C 
ENDROOT
BRANCH   1   2
ATOM      2  C   UNL A   1      32.024  28.567  27.515  1.00  0.00     0.275 C 
BRANCH   2   3
ATOM      3  O   UNL A   1      32.724  27.575  26.735  1.00  0.00    -0.458 OA
BRANCH   3   4
ATOM      4  C   UNL A   1      32.099  26.385  26.554  1.00  0.00     0.339 C 
ATOM      5  O   UNL A   1      31.182  25.941  27.219  1.00  0.00    -0.246 OA
BRANCH   4   6
ATOM      6  C   UNL A   1      32.609  25.698  25.343  1.00  0.00     0.071 A 
ATOM      7  C   UNL A   1      34.066  24.007  24.466  1.00  0.00     0.072 A 
ATOM      8  C   UNL A   1      33.571  24.709  25.547  1.00  0.00     0.045 A 
ATOM      9  N   UNL A   1      33.715  24.314  23.199  1.00  0.00    -0.248 NA
ATOM     10  C   UNL A   1      32.850  25.325  22.990  1.00  0.00     0.072 A 
ATOM     11  C   UNL A   1      32.238  26.054  24.033  1.00  0.00     0.015 A 
ATOM     12  C   UNL A   1      32.566  25.686  21.681  1.00  0.00     0.029 A 
ATOM     13  C   UNL A   1      31.351  27.110  23.707  1.00  0.00     0.014 A 
ATOM     14  C   UNL A   1      31.695  26.735  21.366  1.00  0.00     0.005 A 
ATOM     15  C   UNL A   1      31.075  27.454  22.383  1.00  0.00    -0.050 A 
ATOM     16  C   UNL A   1      30.110  28.564  22.093  1.00  0.00     0.044 C 
BRANCH   7  17
ATOM     17  C   UNL A   1      35.042  22.926  24.671  1.00  0.00     0.003 A 
ATOM     18  C   UNL A   1      38.023  19.780  24.939  1.00  0.00     0.044 C 
ATOM     19  C   UNL A   1      37.004  20.880  24.857  1.00  0.00    -0.051 A 
ATOM     20  C   UNL A   1      37.389  22.212  24.704  1.00  0.00     0.004 A 
ATOM     21  C   UNL A   1      35.639  20.576  24.927  1.00  0.00     0.007 A 
ATOM     22  C   UNL A   1      36.421  23.220  24.616  1.00  0.00     0.011 A 
ATOM     23  C   UNL A   1      34.654  21.579  24.822  1.00  0.00    -0.041 A 
ATOM     24  C   UNL A   1      33.213  21.149  24.879  1.00  0.00     0.045 C 
ENDBRANCH   7  17
ENDBRANCH   4   6
ENDBRANCH   3   4
ENDBRANCH   2   3
ENDBRANCH   1   2
BRANCH   1  25
ATOM     25  O   UNL A   1      33.186  30.394  26.412  1.00  0.00    -0.458 OA
BRANCH  25  26
ATOM     26  C   UNL A   1      33.625  31.367  27.241  1.00  0.00     0.338 C 
ATOM     27  O   UNL A   1      32.981  32.290  27.713  1.00  0.00    -0.246 OA
BRANCH  26  28
ATOM     28  C   UNL A   1      35.008  31.091  27.639  1.00  0.00     0.060 A 
ATOM     29  C   UNL A   1      35.354  29.765  27.861  1.00  0.00     0.016 A 
ATOM     30  C   UNL A   1      35.889  32.111  27.972  1.00  0.00     0.016 A 
ATOM     31  C   UNL A   1      36.510  29.449  28.564  1.00  0.00     0.010 A 
ATOM     32  C   UNL A   1      37.122  31.781  28.550  1.00  0.00     0.010 A 
ATOM     33  C   UNL A   1      37.427  30.451  28.902  1.00  0.00    -0.014 A 
BRANCH  33  34
ATOM     34  C   UNL A   1      38.684  30.114  29.635  1.00  0.00     0.031 A 
ATOM     35  C   UNL A   1      39.672  29.140  29.038  1.00  0.00     0.074 A 
ATOM     36  C   UNL A   1      38.942  30.664  30.842  1.00  0.00     0.049 A 
ATOM     37  N   UNL A   1      40.699  28.554  29.598  1.00  0.00    -0.248 NA
ATOM     38  C   UNL A   1      39.467  28.757  27.629  1.00  0.00     0.031 C 
ATOM     39  C   UNL A   1      38.095  31.642  31.532  1.00  0.00     0.029 A 
ATOM     40  N   UNL A   1      39.985  30.467  31.716  1.00  0.00    -0.354 N 
ATOM     41  C   UNL A   1      41.214  27.684  28.643  1.00  0.00     0.074 A 
ATOM     42  C   UNL A   1      40.387  27.817  27.464  1.00  0.00     0.031 C 
ATOM     43  C   UNL A   1      38.657  31.971  32.703  1.00  0.00     0.029 A 
ATOM     44  C   UNL A   1      39.847  31.155  32.900  1.00  0.00     0.049 A 
ATOM     45  H   UNL A   1      40.756  29.888  31.515  1.00  0.00     0.167 HD
ATOM     46  C   UNL A   1      42.284  26.857  28.736  1.00  0.00     0.034 A 
ATOM     47  C   UNL A   1      40.556  31.098  34.045  1.00  0.00     0.034 A 
ATOM     48  C   UNL A   1      43.141  26.776  29.890  1.00  0.00     0.049 A 
ATOM     49  C   UNL A   1      41.721  30.153  34.126  1.00  0.00     0.074 A 
ATOM     50  C   UNL A   1      44.262  25.987  30.075  1.00  0.00     0.029 A 
ATOM     51  N   UNL A   1      42.983  27.522  31.048  1.00  0.00    -0.354 N 
ATOM     52  N   UNL A   1      42.206  29.358  33.204  1.00  0.00    -0.248 NA
ATOM     53  C   UNL A   1      42.448  30.106  35.403  1.00  0.00     0.031 C 
ATOM     54  C   UNL A   1      44.772  26.243  31.352  1.00  0.00     0.029 A 
ATOM     55  C   UNL A   1      43.988  27.216  31.948  1.00  0.00     0.049 A 
ATOM     56  H   UNL A   1      42.261  28.174  31.206  1.00  0.00     0.167 HD
ATOM     57  C   UNL A   1      43.316  28.748  33.776  1.00  0.00     0.074 A 
ATOM     58  C   UNL A   1      43.447  29.286  35.114  1.00  0.00     0.031 C 
ATOM     59  C   UNL A   1      44.143  27.812  33.249  1.00  0.00     0.034 A 
BRANCH  46  60
ATOM     60  C   UNL A   1      42.620  25.988  27.549  1.00  0.00     0.023 A 
ATOM     61  C   UNL A   1      43.501  26.466  26.558  1.00  0.00     0.012 A 
ATOM     62  C   UNL A   1      42.134  24.667  27.462  1.00  0.00     0.148 A 
ATOM     63  C   UNL A   1      43.872  25.654  25.486  1.00  0.00     0.002 A 
ATOM     64  C   UNL A   1      42.546  23.848  26.415  1.00  0.00     0.091 A 
ATOM     65  F   UNL A   1      41.288  24.234  28.407  1.00  0.00    -0.205 F 
ATOM     66  C   UNL A   1      43.405  24.344  25.421  1.00  0.00     0.022 A 
BRANCH  64  67
ATOM     67  S   UNL A   1      42.067  22.121  26.282  1.00  0.00     0.127 S 
ATOM     68  O   UNL A   1      42.827  21.694  25.108  1.00  0.00    -0.237 OA
ATOM     69  O   UNL A   1      42.547  21.573  27.551  1.00  0.00    -0.237 OA
ATOM     70  O   UNL A   1      40.621  22.112  26.119  1.00  0.00    -0.744 OA
ENDBRANCH  64  67
ENDBRANCH  46  60
BRANCH  47  71
ATOM     71  C   UNL A   1      40.179  31.943  35.216  1.00  0.00     0.023 A 
ATOM     72  C   UNL A   1      40.822  33.180  35.414  1.00  0.00     0.012 A 
ATOM     73  C   UNL A   1      39.203  31.523  36.142  1.00  0.00     0.148 A 
ATOM     74  C   UNL A   1      40.534  33.961  36.535  1.00  0.00     0.002 A 
ATOM     75  C   UNL A   1      38.874  32.337  37.219  1.00  0.00     0.091 A 
ATOM     76  F   UNL A   1      38.615  30.334  35.953  1.00  0.00    -0.205 F 
ATOM     77  C   UNL A   1      39.553  33.544  37.432  1.00  0.00     0.022 A 
BRANCH  75  78
ATOM     78  S   UNL A   1      37.527  31.939  38.340  1.00  0.00     0.127 S 
ATOM     79  O   UNL A   1      37.246  30.550  37.988  1.00  0.00    -0.237 OA
ATOM     80  O   UNL A   1      38.153  32.129  39.649  1.00  0.00    -0.237 OA
ATOM     81  O   UNL A   1      36.474  32.899  38.038  1.00  0.00    -0.744 OA
ENDBRANCH  75  78
ENDBRANCH  47  71
BRANCH  59  82
ATOM     82  C   UNL A   1      45.306  27.363  34.092  1.00  0.00     0.023 A 
ATOM     83  C   UNL A   1      46.520  28.077  34.061  1.00  0.00     0.012 A 
ATOM     84  C   UNL A   1      45.171  26.259  34.956  1.00  0.00     0.148 A 
ATOM     85  C   UNL A   1      47.596  27.675  34.850  1.00  0.00     0.002 A 
ATOM     86  C   UNL A   1      46.230  25.897  35.780  1.00  0.00     0.091 A 
ATOM     87  F   UNL A   1      44.014  25.582  34.954  1.00  0.00    -0.205 F 
ATOM     88  C   UNL A   1      47.448  26.594  35.717  1.00  0.00     0.022 A 
BRANCH  86  89
ATOM     89  S   UNL A   1      46.098  24.583  36.996  1.00  0.00     0.127 S 
ATOM     90  O   UNL A   1      45.830  23.421  36.151  1.00  0.00    -0.237 OA
ATOM     91  O   UNL A   1      47.426  24.598  37.610  1.00  0.00    -0.237 OA
ATOM     92  O   UNL A   1      45.013  24.968  37.889  1.00  0.00    -0.744 OA
ENDBRANCH  86  89
ENDBRANCH  59  82
ENDBRANCH  33  34
ENDBRANCH  26  28
ENDBRANCH  25  26
ENDBRANCH   1  25
TORSDOF 15
ENDMDL
