MODEL 1
REMARK VINA RESULT:     -11.1      0.000      0.000
REMARK SMILES CC[C@@](C)([NH2+][C@H]1CC[C@H](C)[C@H](C)C1)C(=O)OCCOC(=O)c1ccc(-c2c3nc(c(-c4cccc(S(=O)(=O)[O-])c4F)c4ccc([nH]4)c(-c4cccc(S(=O)(=O)[O-])c4F)c4nc(c(-c5cccc(S(=O)(=O)[O-])c5F)c5ccc2[nH]5)C=C4)C=C3)cc1
REMARK SMILES IDX 18 1 17 2 16 3 14 4 15 5 3 6 4 7 2 8 1 9 5 10 6 13 7 14
REMARK SMILES IDX 13 15 8 16 11 17 9 18 12 19 10 20 19 21 20 22 21 23 22 24
REMARK SMILES IDX 23 25 84 26 24 27 83 28 25 29 26 30 27 31 77 32 28 33 82 34
REMARK SMILES IDX 76 35 78 36 29 37 81 38 75 39 74 40 30 42 62 43 42 44 61 45
REMARK SMILES IDX 43 46 46 47 60 48 79 49 44 50 45 51 59 53 80 54 47 55 31 56
REMARK SMILES IDX 32 57 40 58 33 59 35 60 41 61 34 62 36 63 37 64 38 65 39 66
REMARK SMILES IDX 63 67 64 68 72 69 65 70 67 71 73 72 66 73 68 74 69 75 70 76
REMARK SMILES IDX 71 77 48 78 49 79 57 80 50 81 52 82 58 83 51 84 53 85 54 86
REMARK SMILES IDX 55 87 56 88
REMARK H PARENT 5 11 5 12 78 41 46 52
REMARK Flexibility Score: inf
ROOT
ATOM      1  C   UNL A   1      31.635  29.632  26.087  1.00  0.00     0.275 C 
ENDROOT
BRANCH   1   2
ATOM      2  C   UNL A   1      31.673  28.495  27.101  1.00  0.00     0.274 C 
BRANCH   2   3
ATOM      3  O   UNL A   1      32.098  27.281  26.447  1.00  0.00    -0.457 OA
BRANCH   3   4
ATOM      4  C   UNL A   1      31.121  26.506  25.903  1.00  0.00     0.367 C 
ATOM      5  O   UNL A   1      30.189  26.044  26.557  1.00  0.00    -0.245 OA
BRANCH   4   6
ATOM      6  C   UNL A   1      31.312  26.206  24.386  1.00  0.00     0.191 C 
ATOM      7  C   UNL A   1      30.448  24.978  24.030  1.00  0.00     0.092 C 
BRANCH   6   8
ATOM      8  C   UNL A   1      30.836  27.404  23.507  1.00  0.00     0.077 C 
ATOM      9  C   UNL A   1      29.330  27.585  23.342  1.00  0.00     0.011 C 
ENDBRANCH   6   8
BRANCH   6  10
ATOM     10  N   UNL A   1      32.730  26.015  23.954  1.00  0.00    -0.330 N 
ATOM     11  H   UNL A   1      33.255  26.791  24.359  1.00  0.00     0.347 HD
ATOM     12  H   UNL A   1      32.629  25.944  22.942  1.00  0.00     0.347 HD
BRANCH  10  13
ATOM     13  C   UNL A   1      33.501  24.805  24.259  1.00  0.00     0.183 C 
ATOM     14  C   UNL A   1      34.058  24.075  23.034  1.00  0.00     0.065 C 
ATOM     15  C   UNL A   1      34.635  25.220  25.226  1.00  0.00     0.068 C 
ATOM     16  C   UNL A   1      35.032  22.954  23.378  1.00  0.00     0.010 C 
ATOM     17  C   UNL A   1      35.611  24.080  25.576  1.00  0.00    -0.006 C 
ATOM     18  C   UNL A   1      36.164  23.460  24.274  1.00  0.00    -0.011 C 
ATOM     19  C   UNL A   1      34.962  23.067  26.528  1.00  0.00     0.008 C 
ATOM     20  C   UNL A   1      37.191  22.356  24.513  1.00  0.00     0.008 C 
ENDBRANCH  10  13
ENDBRANCH   6  10
ENDBRANCH   4   6
ENDBRANCH   3   4
ENDBRANCH   2   3
ENDBRANCH   1   2
BRANCH   1  21
ATOM     21  O   UNL A   1      32.948  30.206  26.048  1.00  0.00    -0.458 OA
BRANCH  21  22
ATOM     22  C   UNL A   1      33.178  31.226  26.898  1.00  0.00     0.338 C 
ATOM     23  O   UNL A   1      32.415  32.130  27.215  1.00  0.00    -0.246 OA
BRANCH  22  24
ATOM     24  C   UNL A   1      34.497  31.008  27.498  1.00  0.00     0.060 A 
ATOM     25  C   UNL A   1      34.882  29.694  27.766  1.00  0.00     0.016 A 
ATOM     26  C   UNL A   1      35.318  32.072  27.848  1.00  0.00     0.016 A 
ATOM     27  C   UNL A   1      36.066  29.435  28.448  1.00  0.00     0.010 A 
ATOM     28  C   UNL A   1      36.543  31.807  28.471  1.00  0.00     0.010 A 
ATOM     29  C   UNL A   1      36.913  30.489  28.807  1.00  0.00    -0.014 A 
BRANCH  29  30
ATOM     30  C   UNL A   1      38.149  30.228  29.594  1.00  0.00     0.031 A 
ATOM     31  C   UNL A   1      39.214  29.333  29.020  1.00  0.00     0.074 A 
ATOM     32  C   UNL A   1      38.323  30.774  30.813  1.00  0.00     0.049 A 
ATOM     33  N   UNL A   1      40.269  28.825  29.601  1.00  0.00    -0.248 NA
ATOM     34  C   UNL A   1      39.066  28.953  27.605  1.00  0.00     0.031 C 
ATOM     35  C   UNL A   1      37.393  31.691  31.473  1.00  0.00     0.029 A 
ATOM     36  N   UNL A   1      39.339  30.619  31.725  1.00  0.00    -0.354 N 
ATOM     37  C   UNL A   1      40.864  28.003  28.652  1.00  0.00     0.074 A 
ATOM     38  C   UNL A   1      40.065  28.096  27.449  1.00  0.00     0.031 C 
ATOM     39  C   UNL A   1      37.878  32.014  32.683  1.00  0.00     0.029 A 
ATOM     40  C   UNL A   1      39.117  31.277  32.913  1.00  0.00     0.049 A 
ATOM     41  H   UNL A   1      40.148  30.088  31.546  1.00  0.00     0.167 HD
ATOM     42  C   UNL A   1      41.980  27.246  28.768  1.00  0.00     0.034 A 
ATOM     43  C   UNL A   1      39.806  31.256  34.071  1.00  0.00     0.034 A 
ATOM     44  C   UNL A   1      42.817  27.213  29.936  1.00  0.00     0.049 A 
ATOM     45  C   UNL A   1      41.048  30.411  34.173  1.00  0.00     0.074 A 
ATOM     46  C   UNL A   1      43.986  26.500  30.136  1.00  0.00     0.029 A 
ATOM     47  N   UNL A   1      42.584  27.934  31.096  1.00  0.00    -0.354 N 
ATOM     48  N   UNL A   1      41.620  29.672  33.253  1.00  0.00    -0.248 NA
ATOM     49  C   UNL A   1      41.744  30.404  35.468  1.00  0.00     0.031 C 
ATOM     50  C   UNL A   1      44.458  26.787  31.422  1.00  0.00     0.029 A 
ATOM     51  C   UNL A   1      43.587  27.686  32.017  1.00  0.00     0.049 A 
ATOM     52  H   UNL A   1      41.817  28.534  31.244  1.00  0.00     0.167 HD
ATOM     53  C   UNL A   1      42.752  29.128  33.852  1.00  0.00     0.074 A 
ATOM     54  C   UNL A   1      42.801  29.646  35.204  1.00  0.00     0.031 C 
ATOM     55  C   UNL A   1      43.654  28.257  33.337  1.00  0.00     0.034 A 
BRANCH  42  56
ATOM     56  C   UNL A   1      42.375  26.401  27.588  1.00  0.00     0.023 A 
ATOM     57  C   UNL A   1      43.180  26.951  26.572  1.00  0.00     0.012 A 
ATOM     58  C   UNL A   1      41.987  25.048  27.512  1.00  0.00     0.148 A 
ATOM     59  C   UNL A   1      43.574  26.173  25.483  1.00  0.00     0.002 A 
ATOM     60  C   UNL A   1      42.415  24.270  26.443  1.00  0.00     0.091 A 
ATOM     61  F   UNL A   1      41.198  24.554  28.476  1.00  0.00    -0.205 F 
ATOM     62  C   UNL A   1      43.201  24.832  25.424  1.00  0.00     0.022 A 
BRANCH  60  63
ATOM     63  S   UNL A   1      42.042  22.517  26.320  1.00  0.00     0.127 S 
ATOM     64  O   UNL A   1      42.546  22.018  27.599  1.00  0.00    -0.237 OA
ATOM     65  O   UNL A   1      40.583  22.518  26.199  1.00  0.00    -0.237 OA
ATOM     66  O   UNL A   1      42.744  22.041  25.137  1.00  0.00    -0.744 OA
ENDBRANCH  60  63
ENDBRANCH  42  56
BRANCH  43  67
ATOM     67  C   UNL A   1      39.340  32.073  35.228  1.00  0.00     0.023 A 
ATOM     68  C   UNL A   1      38.466  31.502  36.172  1.00  0.00     0.012 A 
ATOM     69  C   UNL A   1      39.781  33.398  35.416  1.00  0.00     0.148 A 
ATOM     70  C   UNL A   1      38.026  32.239  37.272  1.00  0.00     0.002 A 
ATOM     71  C   UNL A   1      39.385  34.108  36.545  1.00  0.00     0.091 A 
ATOM     72  F   UNL A   1      40.588  33.938  34.493  1.00  0.00    -0.205 F 
ATOM     73  C   UNL A   1      38.496  33.535  37.466  1.00  0.00     0.022 A 
BRANCH  71  74
ATOM     74  S   UNL A   1      40.058  35.726  36.937  1.00  0.00     0.127 S 
ATOM     75  O   UNL A   1      41.488  35.447  37.014  1.00  0.00    -0.237 OA
ATOM     76  O   UNL A   1      39.646  36.520  35.778  1.00  0.00    -0.237 OA
ATOM     77  O   UNL A   1      39.416  36.119  38.186  1.00  0.00    -0.744 OA
ENDBRANCH  71  74
ENDBRANCH  43  67
BRANCH  55  78
ATOM     78  C   UNL A   1      44.789  27.821  34.225  1.00  0.00     0.023 A 
ATOM     79  C   UNL A   1      45.974  28.582  34.257  1.00  0.00     0.012 A 
ATOM     80  C   UNL A   1      44.652  26.714  35.084  1.00  0.00     0.148 A 
ATOM     81  C   UNL A   1      47.016  28.233  35.115  1.00  0.00     0.002 A 
ATOM     82  C   UNL A   1      45.678  26.397  35.966  1.00  0.00     0.091 A 
ATOM     83  F   UNL A   1      43.525  25.990  35.023  1.00  0.00    -0.205 F 
ATOM     84  C   UNL A   1      46.865  27.148  35.977  1.00  0.00     0.022 A 
BRANCH  82  85
ATOM     85  S   UNL A   1      45.527  25.071  37.170  1.00  0.00     0.127 S 
ATOM     86  O   UNL A   1      45.411  23.896  36.308  1.00  0.00    -0.237 OA
ATOM     87  O   UNL A   1      46.790  25.165  37.904  1.00  0.00    -0.237 OA
ATOM     88  O   UNL A   1      44.348  25.391  37.963  1.00  0.00    -0.744 OA
ENDBRANCH  82  85
ENDBRANCH  55  78
ENDBRANCH  29  30
ENDBRANCH  22  24
ENDBRANCH  21  22
ENDBRANCH   1  21
TORSDOF 17
ENDMDL
MODEL 2
REMARK VINA RESULT:     -11.0      4.889      9.994
REMARK SMILES CC[C@@](C)([NH2+][C@H]1CC[C@H](C)[C@H](C)C1)C(=O)OCCOC(=O)c1ccc(-c2c3nc(c(-c4cccc(S(=O)(=O)[O-])c4F)c4ccc([nH]4)c(-c4cccc(S(=O)(=O)[O-])c4F)c4nc(c(-c5cccc(S(=O)(=O)[O-])c5F)c5ccc2[nH]5)C=C4)C=C3)cc1
REMARK SMILES IDX 18 1 17 2 16 3 14 4 15 5 3 6 4 7 2 8 1 9 5 10 6 13 7 14
REMARK SMILES IDX 13 15 8 16 11 17 9 18 12 19 10 20 19 21 20 22 21 23 22 24
REMARK SMILES IDX 23 25 84 26 24 27 83 28 25 29 26 30 27 31 77 32 28 33 82 34
REMARK SMILES IDX 76 35 78 36 29 37 81 38 75 39 74 40 30 42 62 43 42 44 61 45
REMARK SMILES IDX 43 46 46 47 60 48 79 49 44 50 45 51 59 53 80 54 47 55 31 56
REMARK SMILES IDX 32 57 40 58 33 59 35 60 41 61 34 62 36 63 37 64 38 65 39 66
REMARK SMILES IDX 63 67 64 68 72 69 65 70 67 71 73 72 66 73 68 74 69 75 70 76
REMARK SMILES IDX 71 77 48 78 49 79 57 80 50 81 52 82 58 83 51 84 53 85 54 86
REMARK SMILES IDX 55 87 56 88
REMARK H PARENT 5 11 5 12 78 41 46 52
REMARK Flexibility Score: inf
ROOT
ATOM      1  C   UNL A   1      36.622  20.526  24.965  1.00  0.00     0.275 C 
ENDROOT
BRANCH   1   2
ATOM      2  C   UNL A   1      35.177  21.008  25.023  1.00  0.00     0.274 C 
BRANCH   2   3
ATOM      3  O   UNL A   1      35.147  22.448  24.920  1.00  0.00    -0.457 OA
BRANCH   3   4
ATOM      4  C   UNL A   1      34.812  22.967  23.707  1.00  0.00     0.367 C 
ATOM      5  O   UNL A   1      35.583  22.987  22.751  1.00  0.00    -0.245 OA
BRANCH   4   6
ATOM      6  C   UNL A   1      33.384  23.585  23.649  1.00  0.00     0.191 C 
ATOM      7  C   UNL A   1      33.360  24.622  22.506  1.00  0.00     0.092 C 
BRANCH   6   8
ATOM      8  C   UNL A   1      32.308  22.499  23.340  1.00  0.00     0.077 C 
ATOM      9  C   UNL A   1      31.578  21.889  24.533  1.00  0.00     0.011 C 
ENDBRANCH   6   8
BRANCH   6  10
ATOM     10  N   UNL A   1      32.900  24.181  24.932  1.00  0.00    -0.330 N 
ATOM     11  H   UNL A   1      33.620  23.977  25.626  1.00  0.00     0.347 HD
ATOM     12  H   UNL A   1      31.976  23.758  25.019  1.00  0.00     0.347 HD
BRANCH  10  13
ATOM     13  C   UNL A   1      32.588  25.606  25.081  1.00  0.00     0.183 C 
ATOM     14  C   UNL A   1      31.371  25.906  25.960  1.00  0.00     0.065 C 
ATOM     15  C   UNL A   1      33.860  26.294  25.634  1.00  0.00     0.068 C 
ATOM     16  C   UNL A   1      31.195  27.385  26.281  1.00  0.00     0.010 C 
ATOM     17  C   UNL A   1      33.677  27.791  25.948  1.00  0.00    -0.006 C 
ATOM     18  C   UNL A   1      32.468  27.974  26.892  1.00  0.00    -0.011 C 
ATOM     19  C   UNL A   1      33.600  28.623  24.661  1.00  0.00     0.008 C 
ATOM     20  C   UNL A   1      32.239  29.423  27.314  1.00  0.00     0.008 C 
ENDBRANCH  10  13
ENDBRANCH   6  10
ENDBRANCH   4   6
ENDBRANCH   3   4
ENDBRANCH   2   3
ENDBRANCH   1   2
BRANCH   1  21
ATOM     21  O   UNL A   1      37.425  21.522  25.614  1.00  0.00    -0.458 OA
BRANCH  21  22
ATOM     22  C   UNL A   1      38.693  21.168  25.904  1.00  0.00     0.338 C 
ATOM     23  O   UNL A   1      39.257  20.110  25.656  1.00  0.00    -0.246 OA
BRANCH  22  24
ATOM     24  C   UNL A   1      39.353  22.344  26.480  1.00  0.00     0.060 A 
ATOM     25  C   UNL A   1      38.887  23.603  26.104  1.00  0.00     0.016 A 
ATOM     26  C   UNL A   1      40.449  22.217  27.324  1.00  0.00     0.016 A 
ATOM     27  C   UNL A   1      39.553  24.751  26.520  1.00  0.00     0.010 A 
ATOM     28  C   UNL A   1      41.076  23.374  27.799  1.00  0.00     0.010 A 
ATOM     29  C   UNL A   1      40.656  24.650  27.375  1.00  0.00    -0.014 A 
BRANCH  29  30
ATOM     30  C   UNL A   1      41.415  25.867  27.772  1.00  0.00     0.031 A 
ATOM     31  C   UNL A   1      40.732  26.930  28.589  1.00  0.00     0.074 A 
ATOM     32  C   UNL A   1      42.701  26.033  27.403  1.00  0.00     0.049 A 
ATOM     33  N   UNL A   1      41.138  28.138  28.880  1.00  0.00    -0.248 NA
ATOM     34  C   UNL A   1      39.411  26.590  29.143  1.00  0.00     0.031 C 
ATOM     35  C   UNL A   1      43.499  25.067  26.647  1.00  0.00     0.029 A 
ATOM     36  N   UNL A   1      43.558  27.089  27.601  1.00  0.00    -0.354 N 
ATOM     37  C   UNL A   1      40.093  28.729  29.581  1.00  0.00     0.074 A 
ATOM     38  C   UNL A   1      39.042  27.741  29.688  1.00  0.00     0.031 C 
ATOM     39  C   UNL A   1      44.724  25.575  26.441  1.00  0.00     0.029 A 
ATOM     40  C   UNL A   1      44.780  26.926  26.990  1.00  0.00     0.049 A 
ATOM     41  H   UNL A   1      43.320  27.885  28.128  1.00  0.00     0.167 HD
ATOM     42  C   UNL A   1      40.019  29.979  30.095  1.00  0.00     0.034 A 
ATOM     43  C   UNL A   1      45.813  27.781  26.849  1.00  0.00     0.034 A 
ATOM     44  C   UNL A   1      41.091  30.935  30.054  1.00  0.00     0.049 A 
ATOM     45  C   UNL A   1      45.707  29.164  27.436  1.00  0.00     0.074 A 
ATOM     46  C   UNL A   1      41.120  32.216  30.577  1.00  0.00     0.029 A 
ATOM     47  N   UNL A   1      42.329  30.710  29.473  1.00  0.00    -0.354 N 
ATOM     48  N   UNL A   1      44.729  29.693  28.130  1.00  0.00    -0.248 NA
ATOM     49  C   UNL A   1      46.852  30.064  27.228  1.00  0.00     0.031 C 
ATOM     50  C   UNL A   1      42.377  32.769  30.306  1.00  0.00     0.029 A 
ATOM     51  C   UNL A   1      43.132  31.828  29.624  1.00  0.00     0.049 A 
ATOM     52  H   UNL A   1      42.597  29.879  29.019  1.00  0.00     0.167 HD
ATOM     53  C   UNL A   1      45.147  30.979  28.458  1.00  0.00     0.074 A 
ATOM     54  C   UNL A   1      46.479  31.138  27.911  1.00  0.00     0.031 C 
ATOM     55  C   UNL A   1      44.478  31.949  29.127  1.00  0.00     0.034 A 
BRANCH  42  56
ATOM     56  C   UNL A   1      38.734  30.381  30.765  1.00  0.00     0.023 A 
ATOM     57  C   UNL A   1      38.544  30.106  32.134  1.00  0.00     0.012 A 
ATOM     58  C   UNL A   1      37.737  31.074  30.051  1.00  0.00     0.148 A 
ATOM     59  C   UNL A   1      37.368  30.494  32.776  1.00  0.00     0.002 A 
ATOM     60  C   UNL A   1      36.584  31.490  30.707  1.00  0.00     0.091 A 
ATOM     61  F   UNL A   1      37.927  31.300  28.744  1.00  0.00    -0.205 F 
ATOM     62  C   UNL A   1      36.395  31.193  32.067  1.00  0.00     0.022 A 
BRANCH  60  63
ATOM     63  S   UNL A   1      35.309  32.457  29.891  1.00  0.00     0.127 S 
ATOM     64  O   UNL A   1      36.067  33.622  29.438  1.00  0.00    -0.237 OA
ATOM     65  O   UNL A   1      34.876  31.558  28.820  1.00  0.00    -0.237 OA
ATOM     66  O   UNL A   1      34.297  32.718  30.905  1.00  0.00    -0.744 OA
ENDBRANCH  60  63
ENDBRANCH  42  56
BRANCH  43  67
ATOM     67  C   UNL A   1      47.043  27.348  26.128  1.00  0.00     0.023 A 
ATOM     68  C   UNL A   1      47.207  27.688  24.771  1.00  0.00     0.012 A 
ATOM     69  C   UNL A   1      48.064  26.631  26.783  1.00  0.00     0.148 A 
ATOM     70  C   UNL A   1      48.356  27.308  24.076  1.00  0.00     0.002 A 
ATOM     71  C   UNL A   1      49.232  26.306  26.100  1.00  0.00     0.091 A 
ATOM     72  F   UNL A   1      47.880  26.288  28.065  1.00  0.00    -0.205 F 
ATOM     73  C   UNL A   1      49.373  26.630  24.743  1.00  0.00     0.022 A 
BRANCH  71  74
ATOM     74  S   UNL A   1      50.642  25.561  26.926  1.00  0.00     0.127 S 
ATOM     75  O   UNL A   1      51.542  25.299  25.807  1.00  0.00    -0.237 OA
ATOM     76  O   UNL A   1      51.073  26.632  27.825  1.00  0.00    -0.237 OA
ATOM     77  O   UNL A   1      50.113  24.387  27.609  1.00  0.00    -0.744 OA
ENDBRANCH  71  74
ENDBRANCH  43  67
BRANCH  55  78
ATOM     78  C   UNL A   1      45.177  33.266  29.331  1.00  0.00     0.023 A 
ATOM     79  C   UNL A   1      46.009  33.442  30.454  1.00  0.00     0.012 A 
ATOM     80  C   UNL A   1      45.077  34.294  28.374  1.00  0.00     0.148 A 
ATOM     81  C   UNL A   1      46.714  34.631  30.633  1.00  0.00     0.002 A 
ATOM     82  C   UNL A   1      45.815  35.462  28.538  1.00  0.00     0.091 A 
ATOM     83  F   UNL A   1      44.263  34.117  27.323  1.00  0.00    -0.205 F 
ATOM     84  C   UNL A   1      46.626  35.636  29.671  1.00  0.00     0.022 A 
BRANCH  82  85
ATOM     85  S   UNL A   1      45.827  36.765  27.302  1.00  0.00     0.127 S 
ATOM     86  O   UNL A   1      46.655  37.782  27.949  1.00  0.00    -0.237 OA
ATOM     87  O   UNL A   1      46.456  36.107  26.156  1.00  0.00    -0.237 OA
ATOM     88  O   UNL A   1      44.432  37.126  27.095  1.00  0.00    -0.744 OA
ENDBRANCH  82  85
ENDBRANCH  55  78
ENDBRANCH  29  30
ENDBRANCH  22  24
ENDBRANCH  21  22
ENDBRANCH   1  21
TORSDOF 17
ENDMDL
MODEL 3
REMARK VINA RESULT:     -11.0      5.271     10.075
REMARK SMILES CC[C@@](C)([NH2+][C@H]1CC[C@H](C)[C@H](C)C1)C(=O)OCCOC(=O)c1ccc(-c2c3nc(c(-c4cccc(S(=O)(=O)[O-])c4F)c4ccc([nH]4)c(-c4cccc(S(=O)(=O)[O-])c4F)c4nc(c(-c5cccc(S(=O)(=O)[O-])c5F)c5ccc2[nH]5)C=C4)C=C3)cc1
REMARK SMILES IDX 18 1 17 2 16 3 14 4 15 5 3 6 4 7 2 8 1 9 5 10 6 13 7 14
REMARK SMILES IDX 13 15 8 16 11 17 9 18 12 19 10 20 19 21 20 22 21 23 22 24
REMARK SMILES IDX 23 25 84 26 24 27 83 28 25 29 26 30 27 31 77 32 28 33 82 34
REMARK SMILES IDX 76 35 78 36 29 37 81 38 75 39 74 40 30 42 62 43 42 44 61 45
REMARK SMILES IDX 43 46 46 47 60 48 79 49 44 50 45 51 59 53 80 54 47 55 31 56
REMARK SMILES IDX 32 57 40 58 33 59 35 60 41 61 34 62 36 63 37 64 38 65 39 66
REMARK SMILES IDX 63 67 64 68 72 69 65 70 67 71 73 72 66 73 68 74 69 75 70 76
REMARK SMILES IDX 71 77 48 78 49 79 57 80 50 81 52 82 58 83 51 84 53 85 54 86
REMARK SMILES IDX 55 87 56 88
REMARK H PARENT 5 11 5 12 78 41 46 52
REMARK Flexibility Score: inf
ROOT
ATOM      1  C   UNL A   1      36.648  20.581  24.717  1.00  0.00     0.275 C 
ENDROOT
BRANCH   1   2
ATOM      2  C   UNL A   1      35.203  20.622  25.199  1.00  0.00     0.274 C 
BRANCH   2   3
ATOM      3  O   UNL A   1      34.966  21.861  25.902  1.00  0.00    -0.457 OA
BRANCH   3   4
ATOM      4  C   UNL A   1      33.817  22.525  25.599  1.00  0.00     0.367 C 
ATOM      5  O   UNL A   1      32.701  22.097  25.880  1.00  0.00    -0.245 OA
BRANCH   4   6
ATOM      6  C   UNL A   1      34.035  23.852  24.813  1.00  0.00     0.191 C 
ATOM      7  C   UNL A   1      35.318  24.520  25.352  1.00  0.00     0.092 C 
BRANCH   6   8
ATOM      8  C   UNL A   1      34.233  23.584  23.290  1.00  0.00     0.077 C 
ATOM      9  C   UNL A   1      33.059  22.961  22.538  1.00  0.00     0.011 C 
ENDBRANCH   6   8
BRANCH   6  10
ATOM     10  N   UNL A   1      32.879  24.799  24.840  1.00  0.00    -0.330 N 
ATOM     11  H   UNL A   1      32.231  24.433  25.539  1.00  0.00     0.347 HD
ATOM     12  H   UNL A   1      32.607  24.819  23.857  1.00  0.00     0.347 HD
BRANCH  10  13
ATOM     13  C   UNL A   1      33.025  26.229  25.134  1.00  0.00     0.183 C 
ATOM     14  C   UNL A   1      32.796  27.155  23.938  1.00  0.00     0.065 C 
ATOM     15  C   UNL A   1      32.049  26.555  26.290  1.00  0.00     0.068 C 
ATOM     16  C   UNL A   1      32.735  28.632  24.309  1.00  0.00     0.010 C 
ATOM     17  C   UNL A   1      31.998  28.049  26.665  1.00  0.00    -0.006 C 
ATOM     18  C   UNL A   1      31.696  28.886  25.403  1.00  0.00    -0.011 C 
ATOM     19  C   UNL A   1      33.269  28.477  27.412  1.00  0.00     0.008 C 
ATOM     20  C   UNL A   1      31.564  30.382  25.680  1.00  0.00     0.008 C 
ENDBRANCH  10  13
ENDBRANCH   6  10
ENDBRANCH   4   6
ENDBRANCH   3   4
ENDBRANCH   2   3
ENDBRANCH   1   2
BRANCH   1  21
ATOM     21  O   UNL A   1      37.389  21.505  25.526  1.00  0.00    -0.458 OA
BRANCH  21  22
ATOM     22  C   UNL A   1      38.644  21.138  25.851  1.00  0.00     0.338 C 
ATOM     23  O   UNL A   1      39.203  20.073  25.622  1.00  0.00    -0.246 OA
BRANCH  22  24
ATOM     24  C   UNL A   1      39.301  22.307  26.443  1.00  0.00     0.060 A 
ATOM     25  C   UNL A   1      38.820  23.570  26.098  1.00  0.00     0.016 A 
ATOM     26  C   UNL A   1      40.408  22.174  27.271  1.00  0.00     0.016 A 
ATOM     27  C   UNL A   1      39.482  24.715  26.528  1.00  0.00     0.010 A 
ATOM     28  C   UNL A   1      41.032  23.326  27.761  1.00  0.00     0.010 A 
ATOM     29  C   UNL A   1      40.596  24.607  27.367  1.00  0.00    -0.014 A 
BRANCH  29  30
ATOM     30  C   UNL A   1      41.350  25.822  27.779  1.00  0.00     0.031 A 
ATOM     31  C   UNL A   1      40.659  26.877  28.600  1.00  0.00     0.074 A 
ATOM     32  C   UNL A   1      42.637  25.994  27.421  1.00  0.00     0.049 A 
ATOM     33  N   UNL A   1      41.060  28.084  28.905  1.00  0.00    -0.248 NA
ATOM     34  C   UNL A   1      39.334  26.530  29.143  1.00  0.00     0.031 C 
ATOM     35  C   UNL A   1      43.442  25.036  26.663  1.00  0.00     0.029 A 
ATOM     36  N   UNL A   1      43.491  27.050  27.633  1.00  0.00    -0.354 N 
ATOM     37  C   UNL A   1      40.009  28.666  29.602  1.00  0.00     0.074 A 
ATOM     38  C   UNL A   1      38.959  27.675  29.695  1.00  0.00     0.031 C 
ATOM     39  C   UNL A   1      44.668  25.548  26.469  1.00  0.00     0.029 A 
ATOM     40  C   UNL A   1      44.717  26.895  27.029  1.00  0.00     0.049 A 
ATOM     41  H   UNL A   1      43.247  27.841  28.165  1.00  0.00     0.167 HD
ATOM     42  C   UNL A   1      39.928  29.912  30.126  1.00  0.00     0.034 A 
ATOM     43  C   UNL A   1      45.749  27.753  26.902  1.00  0.00     0.034 A 
ATOM     44  C   UNL A   1      40.998  30.870  30.101  1.00  0.00     0.049 A 
ATOM     45  C   UNL A   1      45.636  29.131  27.500  1.00  0.00     0.074 A 
ATOM     46  C   UNL A   1      41.021  32.147  30.634  1.00  0.00     0.029 A 
ATOM     47  N   UNL A   1      42.241  30.653  29.526  1.00  0.00    -0.354 N 
ATOM     48  N   UNL A   1      44.653  29.652  28.191  1.00  0.00    -0.248 NA
ATOM     49  C   UNL A   1      46.780  30.036  27.306  1.00  0.00     0.031 C 
ATOM     50  C   UNL A   1      42.278  32.705  30.376  1.00  0.00     0.029 A 
ATOM     51  C   UNL A   1      43.040  31.771  29.692  1.00  0.00     0.049 A 
ATOM     52  H   UNL A   1      42.514  29.826  29.068  1.00  0.00     0.167 HD
ATOM     53  C   UNL A   1      45.066  30.936  28.532  1.00  0.00     0.074 A 
ATOM     54  C   UNL A   1      46.401  31.103  27.996  1.00  0.00     0.031 C 
ATOM     55  C   UNL A   1      44.389  31.900  29.205  1.00  0.00     0.034 A 
BRANCH  42  56
ATOM     56  C   UNL A   1      38.638  30.306  30.791  1.00  0.00     0.023 A 
ATOM     57  C   UNL A   1      38.423  29.984  32.146  1.00  0.00     0.012 A 
ATOM     58  C   UNL A   1      37.660  31.036  30.087  1.00  0.00     0.148 A 
ATOM     59  C   UNL A   1      37.242  30.363  32.784  1.00  0.00     0.002 A 
ATOM     60  C   UNL A   1      36.503  31.442  30.741  1.00  0.00     0.091 A 
ATOM     61  F   UNL A   1      37.874  31.307  28.792  1.00  0.00    -0.205 F 
ATOM     62  C   UNL A   1      36.288  31.100  32.085  1.00  0.00     0.022 A 
BRANCH  60  63
ATOM     63  S   UNL A   1      35.252  32.454  29.941  1.00  0.00     0.127 S 
ATOM     64  O   UNL A   1      36.034  33.620  29.531  1.00  0.00    -0.237 OA
ATOM     65  O   UNL A   1      34.816  31.595  28.839  1.00  0.00    -0.237 OA
ATOM     66  O   UNL A   1      34.234  32.702  30.951  1.00  0.00    -0.744 OA
ENDBRANCH  60  63
ENDBRANCH  42  56
BRANCH  43  67
ATOM     67  C   UNL A   1      46.985  27.329  26.186  1.00  0.00     0.023 A 
ATOM     68  C   UNL A   1      47.921  26.508  26.846  1.00  0.00     0.012 A 
ATOM     69  C   UNL A   1      47.225  27.704  24.850  1.00  0.00     0.148 A 
ATOM     70  C   UNL A   1      49.080  26.084  26.195  1.00  0.00     0.002 A 
ATOM     71  C   UNL A   1      48.353  27.229  24.188  1.00  0.00     0.091 A 
ATOM     72  F   UNL A   1      46.342  28.510  24.246  1.00  0.00    -0.205 F 
ATOM     73  C   UNL A   1      49.289  26.432  24.863  1.00  0.00     0.022 A 
BRANCH  71  74
ATOM     74  S   UNL A   1      48.620  27.517  22.435  1.00  0.00     0.127 S 
ATOM     75  O   UNL A   1      47.431  28.280  22.071  1.00  0.00    -0.237 OA
ATOM     76  O   UNL A   1      49.868  28.283  22.435  1.00  0.00    -0.237 OA
ATOM     77  O   UNL A   1      48.736  26.192  21.839  1.00  0.00    -0.744 OA
ENDBRANCH  71  74
ENDBRANCH  43  67
BRANCH  55  78
ATOM     78  C   UNL A   1      45.084  33.217  29.424  1.00  0.00     0.023 A 
ATOM     79  C   UNL A   1      45.934  33.374  30.536  1.00  0.00     0.012 A 
ATOM     80  C   UNL A   1      44.962  34.264  28.491  1.00  0.00     0.148 A 
ATOM     81  C   UNL A   1      46.635  34.564  30.729  1.00  0.00     0.002 A 
ATOM     82  C   UNL A   1      45.696  35.432  28.667  1.00  0.00     0.091 A 
ATOM     83  F   UNL A   1      44.131  34.103  27.450  1.00  0.00    -0.205 F 
ATOM     84  C   UNL A   1      46.525  35.588  29.789  1.00  0.00     0.022 A 
BRANCH  82  85
ATOM     85  S   UNL A   1      45.679  36.761  27.458  1.00  0.00     0.127 S 
ATOM     86  O   UNL A   1      44.340  37.316  27.642  1.00  0.00    -0.237 OA
ATOM     87  O   UNL A   1      46.766  37.624  27.923  1.00  0.00    -0.237 OA
ATOM     88  O   UNL A   1      45.927  36.127  26.170  1.00  0.00    -0.744 OA
ENDBRANCH  82  85
ENDBRANCH  55  78
ENDBRANCH  29  30
ENDBRANCH  22  24
ENDBRANCH  21  22
ENDBRANCH   1  21
TORSDOF 17
ENDMDL
