MODEL 1
REMARK VINA RESULT:     -11.8      0.000      0.000
REMARK SMILES O=Cc1cc(Cl)c(OCc2ccc(C(=O)OCCOC(=O)c3ccc(-c4c5nc(c(-c6cccc(S(=O)(=O)[O-])c6F)c6ccc([nH]6)c(-c6cccc(S(=O)(=O)[O-])c6F)c6nc(c(-c7cccc(S(=O)(=O)[O-])c7F)c7ccc4[nH]7)C=C6)C=C5)cc3)cc2)c(Cl)c1
REMARK SMILES IDX 17 1 16 2 14 3 15 4 13 5 10 6 11 7 86 8 12 9 85 10 9 11 8 12
REMARK SMILES IDX 7 13 3 14 4 15 89 16 5 17 87 18 6 19 88 20 2 21 1 22 18 23
REMARK SMILES IDX 19 24 20 25 21 26 22 27 23 28 84 29 24 30 83 31 25 32 26 33
REMARK SMILES IDX 27 34 77 35 28 36 82 37 76 38 78 39 29 40 81 41 75 42 74 43
REMARK SMILES IDX 30 45 62 46 42 47 61 48 43 49 46 50 60 51 79 52 44 53 45 54
REMARK SMILES IDX 59 56 80 57 47 58 31 59 32 60 40 61 33 62 35 63 41 64 34 65
REMARK SMILES IDX 36 66 37 67 38 68 39 69 63 70 64 71 72 72 65 73 67 74 73 75
REMARK SMILES IDX 66 76 68 77 69 78 70 79 71 80 48 81 49 82 57 83 50 84 52 85
REMARK SMILES IDX 58 86 51 87 53 88 54 89 55 90 56 91
REMARK H PARENT 78 44 46 55
REMARK Flexibility Score: inf
ROOT
ATOM      1  C   UNL A   1      35.137  20.619  25.108  1.00  0.00     0.275 C 
ENDROOT
BRANCH   1   2
ATOM      2  O   UNL A   1      34.303  19.574  24.562  1.00  0.00    -0.458 OA
BRANCH   2   3
ATOM      3  C   UNL A   1      33.013  19.605  24.979  1.00  0.00     0.338 C 
ATOM      4  O   UNL A   1      32.456  18.746  25.650  1.00  0.00    -0.246 OA
BRANCH   3   5
ATOM      5  C   UNL A   1      32.329  20.866  24.606  1.00  0.00     0.060 A 
ATOM      6  C   UNL A   1      31.177  23.289  23.714  1.00  0.00    -0.011 A 
ATOM      7  C   UNL A   1      31.775  22.405  22.811  1.00  0.00     0.008 A 
ATOM      8  C   UNL A   1      31.144  22.932  25.075  1.00  0.00     0.008 A 
ATOM      9  C   UNL A   1      32.364  21.225  23.255  1.00  0.00     0.016 A 
ATOM     10  C   UNL A   1      31.713  21.724  25.521  1.00  0.00     0.016 A 
BRANCH   6  11
ATOM     11  C   UNL A   1      30.702  24.644  23.221  1.00  0.00     0.265 C 
BRANCH  11  12
ATOM     12  O   UNL A   1      31.677  25.666  23.000  1.00  0.00    -0.486 OA
BRANCH  12  13
ATOM     13  C   UNL A   1      31.997  26.546  23.999  1.00  0.00     0.157 A 
ATOM     14  C   UNL A   1      32.884  28.178  26.108  1.00  0.00     0.017 A 
ATOM     15  C   UNL A   1      31.712  28.503  25.430  1.00  0.00     0.036 A 
ATOM     16  C   UNL A   1      33.663  27.099  25.702  1.00  0.00     0.036 A 
ATOM     17  C   UNL A   1      31.285  27.702  24.357  1.00  0.00     0.085 A 
ATOM     18  C   UNL A   1      33.225  26.299  24.646  1.00  0.00     0.085 A 
ATOM     19  Cl  UNL A   1      29.942  28.310  23.455  1.00  0.00    -0.080 Cl
ATOM     20  Cl  UNL A   1      34.263  25.009  24.135  1.00  0.00    -0.080 Cl
BRANCH  14  21
ATOM     21  C   UNL A   1      33.318  28.982  27.258  1.00  0.00     0.260 C 
ATOM     22  O   UNL A   1      34.490  28.954  27.611  1.00  0.00    -0.298 OA
ENDBRANCH  14  21
ENDBRANCH  12  13
ENDBRANCH  11  12
ENDBRANCH   6  11
ENDBRANCH   3   5
ENDBRANCH   2   3
ENDBRANCH   1   2
BRANCH   1  23
ATOM     23  C   UNL A   1      36.620  20.267  24.996  1.00  0.00     0.275 C 
BRANCH  23  24
ATOM     24  O   UNL A   1      37.444  21.414  25.275  1.00  0.00    -0.458 OA
BRANCH  24  25
ATOM     25  C   UNL A   1      38.664  21.138  25.794  1.00  0.00     0.338 C 
ATOM     26  O   UNL A   1      39.262  20.076  25.747  1.00  0.00    -0.246 OA
BRANCH  25  27
ATOM     27  C   UNL A   1      39.229  22.335  26.438  1.00  0.00     0.060 A 
ATOM     28  C   UNL A   1      38.698  23.582  26.125  1.00  0.00     0.016 A 
ATOM     29  C   UNL A   1      40.381  22.242  27.215  1.00  0.00     0.016 A 
ATOM     30  C   UNL A   1      39.371  24.745  26.500  1.00  0.00     0.010 A 
ATOM     31  C   UNL A   1      41.001  23.413  27.675  1.00  0.00     0.010 A 
ATOM     32  C   UNL A   1      40.535  24.682  27.283  1.00  0.00    -0.014 A 
BRANCH  32  33
ATOM     33  C   UNL A   1      41.277  25.929  27.654  1.00  0.00     0.031 A 
ATOM     34  C   UNL A   1      40.606  27.013  28.470  1.00  0.00     0.074 A 
ATOM     35  C   UNL A   1      42.556  26.108  27.263  1.00  0.00     0.049 A 
ATOM     36  N   UNL A   1      41.055  28.201  28.793  1.00  0.00    -0.248 NA
ATOM     37  C   UNL A   1      39.258  26.729  28.983  1.00  0.00     0.031 C 
ATOM     38  C   UNL A   1      43.340  25.161  26.471  1.00  0.00     0.029 A 
ATOM     39  N   UNL A   1      43.422  27.159  27.469  1.00  0.00    -0.354 N 
ATOM     40  C   UNL A   1      40.023  28.826  29.486  1.00  0.00     0.074 A 
ATOM     41  C   UNL A   1      38.924  27.887  29.536  1.00  0.00     0.031 C 
ATOM     42  C   UNL A   1      44.570  25.658  26.272  1.00  0.00     0.029 A 
ATOM     43  C   UNL A   1      44.644  26.994  26.856  1.00  0.00     0.049 A 
ATOM     44  H   UNL A   1      43.190  27.951  28.004  1.00  0.00     0.167 HD
ATOM     45  C   UNL A   1      39.994  30.056  30.057  1.00  0.00     0.034 A 
ATOM     46  C   UNL A   1      45.696  27.829  26.736  1.00  0.00     0.034 A 
ATOM     47  C   UNL A   1      41.106  30.969  30.082  1.00  0.00     0.049 A 
ATOM     48  C   UNL A   1      45.633  29.196  27.358  1.00  0.00     0.074 A 
ATOM     49  C   UNL A   1      41.186  32.206  30.699  1.00  0.00     0.029 A 
ATOM     50  N   UNL A   1      42.327  30.750  29.468  1.00  0.00    -0.354 N 
ATOM     51  N   UNL A   1      44.682  29.726  28.086  1.00  0.00    -0.248 NA
ATOM     52  C   UNL A   1      46.794  30.075  27.151  1.00  0.00     0.031 C 
ATOM     53  C   UNL A   1      42.454  32.740  30.446  1.00  0.00     0.029 A 
ATOM     54  C   UNL A   1      43.166  31.830  29.682  1.00  0.00     0.049 A 
ATOM     55  H   UNL A   1      42.565  29.944  28.955  1.00  0.00     0.167 HD
ATOM     56  C   UNL A   1      45.137  30.991  28.443  1.00  0.00     0.074 A 
ATOM     57  C   UNL A   1      46.459  31.138  27.872  1.00  0.00     0.031 C 
ATOM     58  C   UNL A   1      44.503  31.951  29.159  1.00  0.00     0.034 A 
BRANCH  45  59
ATOM     59  C   UNL A   1      38.725  30.476  30.754  1.00  0.00     0.023 A 
ATOM     60  C   UNL A   1      38.550  30.171  32.118  1.00  0.00     0.012 A 
ATOM     61  C   UNL A   1      37.739  31.225  30.080  1.00  0.00     0.148 A 
ATOM     62  C   UNL A   1      37.402  30.582  32.796  1.00  0.00     0.002 A 
ATOM     63  C   UNL A   1      36.613  31.660  30.772  1.00  0.00     0.091 A 
ATOM     64  F   UNL A   1      37.915  31.490  28.777  1.00  0.00    -0.205 F 
ATOM     65  C   UNL A   1      36.440  31.332  32.126  1.00  0.00     0.022 A 
BRANCH  63  66
ATOM     66  S   UNL A   1      35.350  32.691  30.015  1.00  0.00     0.127 S 
ATOM     67  O   UNL A   1      36.111  33.893  29.678  1.00  0.00    -0.237 OA
ATOM     68  O   UNL A   1      34.943  31.886  28.863  1.00  0.00    -0.237 OA
ATOM     69  O   UNL A   1      34.317  32.865  31.026  1.00  0.00    -0.744 OA
ENDBRANCH  63  66
ENDBRANCH  45  59
BRANCH  46  70
ATOM     70  C   UNL A   1      46.912  27.381  25.997  1.00  0.00     0.023 A 
ATOM     71  C   UNL A   1      47.060  27.713  24.637  1.00  0.00     0.012 A 
ATOM     72  C   UNL A   1      47.943  26.672  26.645  1.00  0.00     0.148 A 
ATOM     73  C   UNL A   1      48.205  27.335  23.934  1.00  0.00     0.002 A 
ATOM     74  C   UNL A   1      49.107  26.354  25.957  1.00  0.00     0.091 A 
ATOM     75  F   UNL A   1      47.772  26.337  27.933  1.00  0.00    -0.205 F 
ATOM     76  C   UNL A   1      49.235  26.671  24.597  1.00  0.00     0.022 A 
BRANCH  74  77
ATOM     77  S   UNL A   1      50.534  25.637  26.780  1.00  0.00     0.127 S 
ATOM     78  O   UNL A   1      50.920  26.706  27.696  1.00  0.00    -0.237 OA
ATOM     79  O   UNL A   1      49.954  24.455  27.422  1.00  0.00    -0.237 OA
ATOM     80  O   UNL A   1      51.480  25.332  25.716  1.00  0.00    -0.744 OA
ENDBRANCH  74  77
ENDBRANCH  46  70
BRANCH  58  81
ATOM     81  C   UNL A   1      45.234  33.246  29.397  1.00  0.00     0.023 A 
ATOM     82  C   UNL A   1      46.070  33.375  30.523  1.00  0.00     0.012 A 
ATOM     83  C   UNL A   1      45.158  34.301  28.467  1.00  0.00     0.148 A 
ATOM     84  C   UNL A   1      46.801  34.545  30.733  1.00  0.00     0.002 A 
ATOM     85  C   UNL A   1      45.922  35.446  28.660  1.00  0.00     0.091 A 
ATOM     86  F   UNL A   1      44.340  34.166  27.413  1.00  0.00    -0.205 F 
ATOM     87  C   UNL A   1      46.737  35.574  29.797  1.00  0.00     0.022 A 
BRANCH  85  88
ATOM     88  S   UNL A   1      45.970  36.781  27.458  1.00  0.00     0.127 S 
ATOM     89  O   UNL A   1      47.050  37.616  27.981  1.00  0.00    -0.237 OA
ATOM     90  O   UNL A   1      46.290  36.075  26.217  1.00  0.00    -0.237 OA
ATOM     91  O   UNL A   1      44.644  37.385  27.481  1.00  0.00    -0.744 OA
ENDBRANCH  85  88
ENDBRANCH  58  81
ENDBRANCH  32  33
ENDBRANCH  25  27
ENDBRANCH  24  25
ENDBRANCH  23  24
ENDBRANCH   1  23
TORSDOF 18
ENDMDL
MODEL 2
REMARK VINA RESULT:     -11.7      4.756     10.190
REMARK SMILES O=Cc1cc(Cl)c(OCc2ccc(C(=O)OCCOC(=O)c3ccc(-c4c5nc(c(-c6cccc(S(=O)(=O)[O-])c6F)c6ccc([nH]6)c(-c6cccc(S(=O)(=O)[O-])c6F)c6nc(c(-c7cccc(S(=O)(=O)[O-])c7F)c7ccc4[nH]7)C=C6)C=C5)cc3)cc2)c(Cl)c1
REMARK SMILES IDX 17 1 16 2 14 3 15 4 13 5 10 6 11 7 86 8 12 9 85 10 9 11 8 12
REMARK SMILES IDX 7 13 3 14 4 15 89 16 5 17 87 18 6 19 88 20 2 21 1 22 18 23
REMARK SMILES IDX 19 24 20 25 21 26 22 27 23 28 84 29 24 30 83 31 25 32 26 33
REMARK SMILES IDX 27 34 77 35 28 36 82 37 76 38 78 39 29 40 81 41 75 42 74 43
REMARK SMILES IDX 30 45 62 46 42 47 61 48 43 49 46 50 60 51 79 52 44 53 45 54
REMARK SMILES IDX 59 56 80 57 47 58 31 59 32 60 40 61 33 62 35 63 41 64 34 65
REMARK SMILES IDX 36 66 37 67 38 68 39 69 63 70 64 71 72 72 65 73 67 74 73 75
REMARK SMILES IDX 66 76 68 77 69 78 70 79 71 80 48 81 49 82 57 83 50 84 52 85
REMARK SMILES IDX 58 86 51 87 53 88 54 89 55 90 56 91
REMARK H PARENT 78 44 46 55
REMARK Flexibility Score: inf
ROOT
ATOM      1  C   UNL A   1      30.948  30.027  24.649  1.00  0.00     0.275 C 
ENDROOT
BRANCH   1   2
ATOM      2  O   UNL A   1      30.791  28.593  24.584  1.00  0.00    -0.458 OA
BRANCH   2   3
ATOM      3  C   UNL A   1      31.476  27.994  23.578  1.00  0.00     0.338 C 
ATOM      4  O   UNL A   1      31.326  28.207  22.382  1.00  0.00    -0.246 OA
BRANCH   3   5
ATOM      5  C   UNL A   1      32.530  27.080  24.080  1.00  0.00     0.060 A 
ATOM      6  C   UNL A   1      34.460  25.177  24.883  1.00  0.00    -0.011 A 
ATOM      7  C   UNL A   1      33.974  25.195  23.572  1.00  0.00     0.008 A 
ATOM      8  C   UNL A   1      33.981  26.143  25.786  1.00  0.00     0.008 A 
ATOM      9  C   UNL A   1      33.005  26.116  23.186  1.00  0.00     0.016 A 
ATOM     10  C   UNL A   1      33.023  27.096  25.387  1.00  0.00     0.016 A 
BRANCH   6  11
ATOM     11  C   UNL A   1      35.382  24.051  25.316  1.00  0.00     0.265 C 
BRANCH  11  12
ATOM     12  O   UNL A   1      34.864  23.049  26.193  1.00  0.00    -0.486 OA
BRANCH  12  13
ATOM     13  C   UNL A   1      34.393  21.865  25.692  1.00  0.00     0.157 A 
ATOM     14  C   UNL A   1      33.157  19.532  24.729  1.00  0.00     0.017 A 
ATOM     15  C   UNL A   1      34.546  19.635  24.711  1.00  0.00     0.036 A 
ATOM     16  C   UNL A   1      32.371  20.603  25.144  1.00  0.00     0.036 A 
ATOM     17  C   UNL A   1      35.161  20.813  25.166  1.00  0.00     0.085 A 
ATOM     18  C   UNL A   1      32.990  21.764  25.610  1.00  0.00     0.085 A 
ATOM     19  Cl  UNL A   1      36.866  20.919  24.905  1.00  0.00    -0.080 Cl
ATOM     20  Cl  UNL A   1      31.968  23.092  26.051  1.00  0.00    -0.080 Cl
BRANCH  14  21
ATOM     21  C   UNL A   1      32.504  18.290  24.296  1.00  0.00     0.260 C 
ATOM     22  O   UNL A   1      31.893  17.609  25.111  1.00  0.00    -0.298 OA
ENDBRANCH  14  21
ENDBRANCH  12  13
ENDBRANCH  11  12
ENDBRANCH   6  11
ENDBRANCH   3   5
ENDBRANCH   2   3
ENDBRANCH   1   2
BRANCH   1  23
ATOM     23  C   UNL A   1      31.353  30.482  26.051  1.00  0.00     0.275 C 
BRANCH  23  24
ATOM     24  O   UNL A   1      32.782  30.620  26.155  1.00  0.00    -0.458 OA
BRANCH  24  25
ATOM     25  C   UNL A   1      33.211  31.543  27.048  1.00  0.00     0.338 C 
ATOM     26  O   UNL A   1      32.608  32.531  27.435  1.00  0.00    -0.246 OA
BRANCH  25  27
ATOM     27  C   UNL A   1      34.551  31.191  27.544  1.00  0.00     0.060 A 
ATOM     28  C   UNL A   1      34.821  29.865  27.869  1.00  0.00     0.016 A 
ATOM     29  C   UNL A   1      35.479  32.186  27.844  1.00  0.00     0.016 A 
ATOM     30  C   UNL A   1      35.973  29.540  28.586  1.00  0.00     0.010 A 
ATOM     31  C   UNL A   1      36.681  31.842  28.478  1.00  0.00     0.010 A 
ATOM     32  C   UNL A   1      36.926  30.522  28.904  1.00  0.00    -0.014 A 
BRANCH  32  33
ATOM     33  C   UNL A   1      38.143  30.179  29.705  1.00  0.00     0.031 A 
ATOM     34  C   UNL A   1      39.191  29.239  29.152  1.00  0.00     0.074 A 
ATOM     35  C   UNL A   1      38.323  30.701  30.937  1.00  0.00     0.049 A 
ATOM     36  N   UNL A   1      40.252  28.745  29.742  1.00  0.00    -0.248 NA
ATOM     37  C   UNL A   1      39.024  28.790  27.762  1.00  0.00     0.031 C 
ATOM     38  C   UNL A   1      37.403  31.618  31.611  1.00  0.00     0.029 A 
ATOM     39  N   UNL A   1      39.338  30.524  31.850  1.00  0.00    -0.354 N 
ATOM     40  C   UNL A   1      40.838  27.881  28.822  1.00  0.00     0.074 A 
ATOM     41  C   UNL A   1      40.013  27.916  27.633  1.00  0.00     0.031 C 
ATOM     42  C   UNL A   1      37.899  31.937  32.816  1.00  0.00     0.029 A 
ATOM     43  C   UNL A   1      39.134  31.191  33.037  1.00  0.00     0.049 A 
ATOM     44  H   UNL A   1      40.134  29.973  31.672  1.00  0.00     0.167 HD
ATOM     45  C   UNL A   1      41.971  27.146  28.935  1.00  0.00     0.034 A 
ATOM     46  C   UNL A   1      39.830  31.182  34.192  1.00  0.00     0.034 A 
ATOM     47  C   UNL A   1      42.841  27.161  30.081  1.00  0.00     0.049 A 
ATOM     48  C   UNL A   1      41.072  30.342  34.302  1.00  0.00     0.074 A 
ATOM     49  C   UNL A   1      44.047  26.502  30.251  1.00  0.00     0.029 A 
ATOM     50  N   UNL A   1      42.605  27.868  31.248  1.00  0.00    -0.354 N 
ATOM     51  N   UNL A   1      41.653  29.608  33.385  1.00  0.00    -0.248 NA
ATOM     52  C   UNL A   1      41.760  30.338  35.601  1.00  0.00     0.031 C 
ATOM     53  C   UNL A   1      44.533  26.800  31.529  1.00  0.00     0.029 A 
ATOM     54  C   UNL A   1      43.636  27.656  32.148  1.00  0.00     0.049 A 
ATOM     55  H   UNL A   1      41.820  28.439  31.413  1.00  0.00     0.167 HD
ATOM     56  C   UNL A   1      42.786  29.072  33.990  1.00  0.00     0.074 A 
ATOM     57  C   UNL A   1      42.823  29.587  35.343  1.00  0.00     0.031 C 
ATOM     58  C   UNL A   1      43.699  28.213  33.474  1.00  0.00     0.034 A 
BRANCH  45  59
ATOM     59  C   UNL A   1      42.372  26.289  27.761  1.00  0.00     0.023 A 
ATOM     60  C   UNL A   1      43.237  26.817  26.782  1.00  0.00     0.012 A 
ATOM     61  C   UNL A   1      41.948  24.949  27.660  1.00  0.00     0.148 A 
ATOM     62  C   UNL A   1      43.654  26.033  25.705  1.00  0.00     0.002 A 
ATOM     63  C   UNL A   1      42.396  24.164  26.602  1.00  0.00     0.091 A 
ATOM     64  F   UNL A   1      41.111  24.470  28.592  1.00  0.00    -0.205 F 
ATOM     65  C   UNL A   1      43.240  24.706  25.621  1.00  0.00     0.022 A 
BRANCH  63  66
ATOM     66  S   UNL A   1      41.974  22.423  26.443  1.00  0.00     0.127 S 
ATOM     67  O   UNL A   1      40.516  22.479  26.352  1.00  0.00    -0.237 OA
ATOM     68  O   UNL A   1      42.648  22.054  25.197  1.00  0.00    -0.237 OA
ATOM     69  O   UNL A   1      42.505  21.773  27.632  1.00  0.00    -0.744 OA
ENDBRANCH  63  66
ENDBRANCH  45  59
BRANCH  46  70
ATOM     70  C   UNL A   1      39.366  32.013  35.340  1.00  0.00     0.023 A 
ATOM     71  C   UNL A   1      38.545  31.436  36.328  1.00  0.00     0.012 A 
ATOM     72  C   UNL A   1      39.772  33.354  35.483  1.00  0.00     0.148 A 
ATOM     73  C   UNL A   1      38.127  32.184  37.430  1.00  0.00     0.002 A 
ATOM     74  C   UNL A   1      39.404  34.074  36.613  1.00  0.00     0.091 A 
ATOM     75  F   UNL A   1      40.527  33.898  34.517  1.00  0.00    -0.205 F 
ATOM     76  C   UNL A   1      38.569  33.497  37.581  1.00  0.00     0.022 A 
BRANCH  74  77
ATOM     77  S   UNL A   1      40.057  35.713  36.952  1.00  0.00     0.127 S 
ATOM     78  O   UNL A   1      39.645  36.452  35.761  1.00  0.00    -0.237 OA
ATOM     79  O   UNL A   1      39.346  36.077  38.179  1.00  0.00    -0.237 OA
ATOM     80  O   UNL A   1      41.491  35.529  37.128  1.00  0.00    -0.744 OA
ENDBRANCH  74  77
ENDBRANCH  46  70
BRANCH  58  81
ATOM     81  C   UNL A   1      44.838  27.786  34.361  1.00  0.00     0.023 A 
ATOM     82  C   UNL A   1      46.016  28.558  34.398  1.00  0.00     0.012 A 
ATOM     83  C   UNL A   1      44.713  26.673  35.214  1.00  0.00     0.148 A 
ATOM     84  C   UNL A   1      47.062  28.213  35.254  1.00  0.00     0.002 A 
ATOM     85  C   UNL A   1      45.743  26.360  36.095  1.00  0.00     0.091 A 
ATOM     86  F   UNL A   1      43.593  25.938  35.147  1.00  0.00    -0.205 F 
ATOM     87  C   UNL A   1      46.922  27.123  36.109  1.00  0.00     0.022 A 
BRANCH  85  88
ATOM     88  S   UNL A   1      45.608  25.030  37.295  1.00  0.00     0.127 S 
ATOM     89  O   UNL A   1      45.573  23.850  36.431  1.00  0.00    -0.237 OA
ATOM     90  O   UNL A   1      46.839  25.182  38.072  1.00  0.00    -0.237 OA
ATOM     91  O   UNL A   1      44.387  25.292  38.045  1.00  0.00    -0.744 OA
ENDBRANCH  85  88
ENDBRANCH  58  81
ENDBRANCH  32  33
ENDBRANCH  25  27
ENDBRANCH  24  25
ENDBRANCH  23  24
ENDBRANCH   1  23
TORSDOF 18
ENDMDL
MODEL 3
REMARK VINA RESULT:     -11.5      1.298      2.135
REMARK SMILES O=Cc1cc(Cl)c(OCc2ccc(C(=O)OCCOC(=O)c3ccc(-c4c5nc(c(-c6cccc(S(=O)(=O)[O-])c6F)c6ccc([nH]6)c(-c6cccc(S(=O)(=O)[O-])c6F)c6nc(c(-c7cccc(S(=O)(=O)[O-])c7F)c7ccc4[nH]7)C=C6)C=C5)cc3)cc2)c(Cl)c1
REMARK SMILES IDX 17 1 16 2 14 3 15 4 13 5 10 6 11 7 86 8 12 9 85 10 9 11 8 12
REMARK SMILES IDX 7 13 3 14 4 15 89 16 5 17 87 18 6 19 88 20 2 21 1 22 18 23
REMARK SMILES IDX 19 24 20 25 21 26 22 27 23 28 84 29 24 30 83 31 25 32 26 33
REMARK SMILES IDX 27 34 77 35 28 36 82 37 76 38 78 39 29 40 81 41 75 42 74 43
REMARK SMILES IDX 30 45 62 46 42 47 61 48 43 49 46 50 60 51 79 52 44 53 45 54
REMARK SMILES IDX 59 56 80 57 47 58 31 59 32 60 40 61 33 62 35 63 41 64 34 65
REMARK SMILES IDX 36 66 37 67 38 68 39 69 63 70 64 71 72 72 65 73 67 74 73 75
REMARK SMILES IDX 66 76 68 77 69 78 70 79 71 80 48 81 49 82 57 83 50 84 52 85
REMARK SMILES IDX 58 86 51 87 53 88 54 89 55 90 56 91
REMARK H PARENT 78 44 46 55
REMARK Flexibility Score: inf
ROOT
ATOM      1  C   UNL A   1      35.619  19.872  24.985  1.00  0.00     0.275 C 
ENDROOT
BRANCH   1   2
ATOM      2  O   UNL A   1      34.870  20.818  25.778  1.00  0.00    -0.458 OA
BRANCH   2   3
ATOM      3  C   UNL A   1      33.771  21.324  25.165  1.00  0.00     0.338 C 
ATOM      4  O   UNL A   1      32.994  20.700  24.455  1.00  0.00    -0.246 OA
BRANCH   3   5
ATOM      5  C   UNL A   1      33.536  22.746  25.514  1.00  0.00     0.060 A 
ATOM      6  C   UNL A   1      32.860  25.423  26.122  1.00  0.00    -0.011 A 
ATOM      7  C   UNL A   1      31.926  24.395  26.279  1.00  0.00     0.008 A 
ATOM      8  C   UNL A   1      34.151  25.089  25.675  1.00  0.00     0.008 A 
ATOM      9  C   UNL A   1      32.252  23.082  25.955  1.00  0.00     0.016 A 
ATOM     10  C   UNL A   1      34.492  23.755  25.375  1.00  0.00     0.016 A 
BRANCH   6  11
ATOM     11  C   UNL A   1      32.418  26.862  26.316  1.00  0.00     0.265 C 
BRANCH  11  12
ATOM     12  O   UNL A   1      32.608  27.782  25.239  1.00  0.00    -0.486 OA
BRANCH  12  13
ATOM     13  C   UNL A   1      31.549  28.168  24.462  1.00  0.00     0.157 A 
ATOM     14  C   UNL A   1      29.368  29.204  23.025  1.00  0.00     0.017 A 
ATOM     15  C   UNL A   1      29.854  27.936  22.720  1.00  0.00     0.036 A 
ATOM     16  C   UNL A   1      29.999  29.997  23.979  1.00  0.00     0.036 A 
ATOM     17  C   UNL A   1      30.963  27.431  23.419  1.00  0.00     0.085 A 
ATOM     18  C   UNL A   1      31.089  29.482  24.680  1.00  0.00     0.085 A 
ATOM     19  Cl  UNL A   1      31.614  25.945  22.823  1.00  0.00    -0.080 Cl
ATOM     20  Cl  UNL A   1      31.883  30.532  25.809  1.00  0.00    -0.080 Cl
BRANCH  14  21
ATOM     21  C   UNL A   1      28.184  29.727  22.330  1.00  0.00     0.260 C 
ATOM     22  O   UNL A   1      27.082  29.636  22.857  1.00  0.00    -0.298 OA
ENDBRANCH  14  21
ENDBRANCH  12  13
ENDBRANCH  11  12
ENDBRANCH   6  11
ENDBRANCH   3   5
ENDBRANCH   2   3
ENDBRANCH   1   2
BRANCH   1  23
ATOM     23  C   UNL A   1      36.981  20.436  24.581  1.00  0.00     0.275 C 
BRANCH  23  24
ATOM     24  O   UNL A   1      37.472  21.358  25.571  1.00  0.00    -0.458 OA
BRANCH  24  25
ATOM     25  C   UNL A   1      38.750  21.153  25.969  1.00  0.00     0.338 C 
ATOM     26  O   UNL A   1      39.410  20.136  25.836  1.00  0.00    -0.246 OA
BRANCH  25  27
ATOM     27  C   UNL A   1      39.292  22.370  26.594  1.00  0.00     0.060 A 
ATOM     28  C   UNL A   1      38.803  23.609  26.192  1.00  0.00     0.016 A 
ATOM     29  C   UNL A   1      40.391  22.297  27.448  1.00  0.00     0.016 A 
ATOM     30  C   UNL A   1      39.470  24.779  26.558  1.00  0.00     0.010 A 
ATOM     31  C   UNL A   1      41.000  23.480  27.894  1.00  0.00     0.010 A 
ATOM     32  C   UNL A   1      40.581  24.736  27.417  1.00  0.00    -0.014 A 
BRANCH  32  33
ATOM     33  C   UNL A   1      41.317  25.988  27.779  1.00  0.00     0.031 A 
ATOM     34  C   UNL A   1      40.642  27.076  28.585  1.00  0.00     0.074 A 
ATOM     35  C   UNL A   1      42.596  26.169  27.388  1.00  0.00     0.049 A 
ATOM     36  N   UNL A   1      41.086  28.268  28.900  1.00  0.00    -0.248 NA
ATOM     37  C   UNL A   1      39.294  26.791  29.099  1.00  0.00     0.031 C 
ATOM     38  C   UNL A   1      43.385  25.218  26.604  1.00  0.00     0.029 A 
ATOM     39  N   UNL A   1      43.458  27.224  27.587  1.00  0.00    -0.354 N 
ATOM     40  C   UNL A   1      40.051  28.895  29.587  1.00  0.00     0.074 A 
ATOM     41  C   UNL A   1      38.955  27.952  29.642  1.00  0.00     0.031 C 
ATOM     42  C   UNL A   1      44.613  25.718  26.403  1.00  0.00     0.029 A 
ATOM     43  C   UNL A   1      44.682  27.059  26.977  1.00  0.00     0.049 A 
ATOM     44  H   UNL A   1      43.223  28.020  28.116  1.00  0.00     0.167 HD
ATOM     45  C   UNL A   1      40.017  30.129  30.148  1.00  0.00     0.034 A 
ATOM     46  C   UNL A   1      45.731  27.896  26.851  1.00  0.00     0.034 A 
ATOM     47  C   UNL A   1      41.125  31.046  30.167  1.00  0.00     0.049 A 
ATOM     48  C   UNL A   1      45.663  29.268  27.463  1.00  0.00     0.074 A 
ATOM     49  C   UNL A   1      41.201  32.288  30.775  1.00  0.00     0.029 A 
ATOM     50  N   UNL A   1      42.348  30.826  29.556  1.00  0.00    -0.354 N 
ATOM     51  N   UNL A   1      44.708  29.800  28.186  1.00  0.00    -0.248 NA
ATOM     52  C   UNL A   1      46.820  30.149  27.251  1.00  0.00     0.031 C 
ATOM     53  C   UNL A   1      42.467  32.825  30.519  1.00  0.00     0.029 A 
ATOM     54  C   UNL A   1      43.184  31.912  29.764  1.00  0.00     0.049 A 
ATOM     55  H   UNL A   1      42.589  30.017  29.050  1.00  0.00     0.167 HD
ATOM     56  C   UNL A   1      45.158  31.069  28.533  1.00  0.00     0.074 A 
ATOM     57  C   UNL A   1      46.481  31.216  27.963  1.00  0.00     0.031 C 
ATOM     58  C   UNL A   1      44.521  32.033  29.242  1.00  0.00     0.034 A 
BRANCH  45  59
ATOM     59  C   UNL A   1      38.746  30.550  30.840  1.00  0.00     0.023 A 
ATOM     60  C   UNL A   1      38.608  30.338  32.226  1.00  0.00     0.012 A 
ATOM     61  C   UNL A   1      37.719  31.211  30.136  1.00  0.00     0.148 A 
ATOM     62  C   UNL A   1      37.458  30.753  32.898  1.00  0.00     0.002 A 
ATOM     63  C   UNL A   1      36.589  31.652  30.819  1.00  0.00     0.091 A 
ATOM     64  F   UNL A   1      37.860  31.388  28.814  1.00  0.00    -0.205 F 
ATOM     65  C   UNL A   1      36.455  31.416  32.196  1.00  0.00     0.022 A 
BRANCH  63  66
ATOM     66  S   UNL A   1      35.273  32.577  30.017  1.00  0.00     0.127 S 
ATOM     67  O   UNL A   1      35.992  33.753  29.529  1.00  0.00    -0.237 OA
ATOM     68  O   UNL A   1      34.838  31.652  28.969  1.00  0.00    -0.237 OA
ATOM     69  O   UNL A   1      34.278  32.832  31.049  1.00  0.00    -0.744 OA
ENDBRANCH  63  66
ENDBRANCH  45  59
BRANCH  46  70
ATOM     70  C   UNL A   1      46.950  27.447  26.117  1.00  0.00     0.023 A 
ATOM     71  C   UNL A   1      47.122  27.810  24.768  1.00  0.00     0.012 A 
ATOM     72  C   UNL A   1      47.959  26.705  26.761  1.00  0.00     0.148 A 
ATOM     73  C   UNL A   1      48.269  27.431  24.071  1.00  0.00     0.002 A 
ATOM     74  C   UNL A   1      49.127  26.385  26.081  1.00  0.00     0.091 A 
ATOM     75  F   UNL A   1      47.766  26.340  28.038  1.00  0.00    -0.205 F 
ATOM     76  C   UNL A   1      49.279  26.734  24.730  1.00  0.00     0.022 A 
BRANCH  74  77
ATOM     77  S   UNL A   1      50.531  25.624  26.904  1.00  0.00     0.127 S 
ATOM     78  O   UNL A   1      51.480  25.476  25.803  1.00  0.00    -0.237 OA
ATOM     79  O   UNL A   1      50.891  26.639  27.895  1.00  0.00    -0.237 OA
ATOM     80  O   UNL A   1      50.018  24.388  27.478  1.00  0.00    -0.744 OA
ENDBRANCH  74  77
ENDBRANCH  46  70
BRANCH  58  81
ATOM     81  C   UNL A   1      45.247  33.332  29.470  1.00  0.00     0.023 A 
ATOM     82  C   UNL A   1      46.029  33.496  30.630  1.00  0.00     0.012 A 
ATOM     83  C   UNL A   1      45.221  34.355  28.503  1.00  0.00     0.148 A 
ATOM     84  C   UNL A   1      46.755  34.669  30.835  1.00  0.00     0.002 A 
ATOM     85  C   UNL A   1      45.982  35.503  28.693  1.00  0.00     0.091 A 
ATOM     86  F   UNL A   1      44.453  34.188  27.416  1.00  0.00    -0.205 F 
ATOM     87  C   UNL A   1      46.742  35.666  29.863  1.00  0.00     0.022 A 
BRANCH  85  88
ATOM     88  S   UNL A   1      46.094  36.796  27.451  1.00  0.00     0.127 S 
ATOM     89  O   UNL A   1      46.260  36.019  26.224  1.00  0.00    -0.237 OA
ATOM     90  O   UNL A   1      44.799  37.467  27.578  1.00  0.00    -0.237 OA
ATOM     91  O   UNL A   1      47.236  37.617  27.832  1.00  0.00    -0.744 OA
ENDBRANCH  85  88
ENDBRANCH  58  81
ENDBRANCH  32  33
ENDBRANCH  25  27
ENDBRANCH  24  25
ENDBRANCH  23  24
ENDBRANCH   1  23
TORSDOF 18
ENDMDL
