MODEL 1
REMARK VINA RESULT:     -11.9      0.000      0.000
REMARK SMILES CCNC(=O)c1ccc(N[C@@H]2COC[C@@]2(C)C(=O)OCCOC(=O)c2ccc(-c3c4nc(c(-c5cccc(S(=O)(=O)[O-])c5F)c5ccc([nH]5)c(-c5cccc(S(=O)(=O)[O-])c5F)c5nc(c(-c6cccc(S(=O)(=O)[O-])c6F)c6ccc3[nH]6)C=C5)C=C4)cc2)nn1
REMARK SMILES IDX 20 1 19 2 17 3 18 4 15 5 11 6 12 7 13 8 14 9 16 10 10 11
REMARK SMILES IDX 9 13 6 14 7 15 89 16 8 17 88 18 4 19 3 20 5 22 2 23 1 24
REMARK SMILES IDX 21 25 22 26 23 27 24 28 25 29 26 30 87 31 27 32 86 33 28 34
REMARK SMILES IDX 29 35 30 36 80 37 31 38 85 39 79 40 81 41 32 42 84 43 78 44
REMARK SMILES IDX 77 45 33 47 65 48 45 49 64 50 46 51 49 52 63 53 82 54 47 55
REMARK SMILES IDX 48 56 62 58 83 59 50 60 34 61 35 62 43 63 36 64 38 65 44 66
REMARK SMILES IDX 37 67 39 68 40 69 41 70 42 71 66 72 67 73 75 74 68 75 70 76
REMARK SMILES IDX 76 77 69 78 71 79 72 80 73 81 74 82 51 83 52 84 60 85 53 86
REMARK SMILES IDX 55 87 61 88 54 89 56 90 57 91 58 92 59 93
REMARK H PARENT 10 12 3 21 81 46 49 57
REMARK Flexibility Score: inf
ROOT
ATOM      1  C   UNL A   1      31.667  28.735  26.622  1.00  0.00     0.274 C 
ENDROOT
BRANCH   1   2
ATOM      2  O   UNL A   1      32.317  27.689  25.867  1.00  0.00    -0.462 OA
BRANCH   2   3
ATOM      3  C   UNL A   1      31.693  27.302  24.721  1.00  0.00     0.316 C 
ATOM      4  O   UNL A   1      30.484  27.395  24.542  1.00  0.00    -0.251 OA
BRANCH   3   5
ATOM      5  C   UNL A   1      32.635  26.671  23.709  1.00  0.00     0.111 C 
ATOM      6  C   UNL A   1      31.870  26.009  22.560  1.00  0.00     0.126 C 
ATOM      7  C   UNL A   1      32.915  25.883  21.466  1.00  0.00     0.186 C 
ATOM      8  O   UNL A   1      33.808  27.003  21.647  1.00  0.00    -0.378 OA
ATOM      9  C   UNL A   1      33.436  27.672  22.871  1.00  0.00     0.181 C 
ATOM     10  C   UNL A   1      33.620  25.789  24.488  1.00  0.00     0.028 C 
BRANCH   6  11
ATOM     11  N   UNL A   1      31.058  24.833  22.807  1.00  0.00    -0.362 N 
ATOM     12  H   UNL A   1      30.134  24.867  22.468  1.00  0.00     0.162 HD
BRANCH  11  13
ATOM     13  C   UNL A   1      31.420  23.677  23.455  1.00  0.00     0.149 A 
ATOM     14  C   UNL A   1      32.129  21.421  24.818  1.00  0.00     0.150 A 
ATOM     15  C   UNL A   1      31.291  22.322  25.444  1.00  0.00     0.040 A 
ATOM     16  N   UNL A   1      32.619  21.634  23.578  1.00  0.00    -0.143 NA
ATOM     17  C   UNL A   1      30.919  23.457  24.735  1.00  0.00     0.051 A 
ATOM     18  N   UNL A   1      32.255  22.779  22.896  1.00  0.00    -0.132 NA
BRANCH  14  19
ATOM     19  C   UNL A   1      32.582  20.197  25.518  1.00  0.00     0.271 C 
ATOM     20  N   UNL A   1      33.506  20.289  26.535  1.00  0.00    -0.351 N 
ATOM     21  H   UNL A   1      33.900  19.437  26.830  1.00  0.00     0.163 HD
ATOM     22  O   UNL A   1      32.157  19.095  25.180  1.00  0.00    -0.267 OA
BRANCH  20  23
ATOM     23  C   UNL A   1      33.981  21.473  27.235  1.00  0.00     0.113 C 
ATOM     24  C   UNL A   1      35.114  22.133  26.473  1.00  0.00     0.027 C 
ENDBRANCH  20  23
ENDBRANCH  14  19
ENDBRANCH  11  13
ENDBRANCH   6  11
ENDBRANCH   3   5
ENDBRANCH   2   3
ENDBRANCH   1   2
BRANCH   1  25
ATOM     25  C   UNL A   1      31.932  30.110  26.015  1.00  0.00     0.275 C 
BRANCH  25  26
ATOM     26  O   UNL A   1      33.323  30.448  26.151  1.00  0.00    -0.458 OA
BRANCH  26  27
ATOM     27  C   UNL A   1      33.629  31.325  27.133  1.00  0.00     0.338 C 
ATOM     28  O   UNL A   1      32.930  32.215  27.582  1.00  0.00    -0.246 OA
BRANCH  27  29
ATOM     29  C   UNL A   1      34.957  30.995  27.674  1.00  0.00     0.060 A 
ATOM     30  C   UNL A   1      35.215  29.674  28.021  1.00  0.00     0.016 A 
ATOM     31  C   UNL A   1      35.896  31.988  27.947  1.00  0.00     0.016 A 
ATOM     32  C   UNL A   1      36.374  29.349  28.718  1.00  0.00     0.010 A 
ATOM     33  C   UNL A   1      37.107  31.640  28.564  1.00  0.00     0.010 A 
ATOM     34  C   UNL A   1      37.345  30.320  28.984  1.00  0.00    -0.014 A 
BRANCH  34  35
ATOM     35  C   UNL A   1      38.580  29.927  29.719  1.00  0.00     0.031 A 
ATOM     36  C   UNL A   1      39.589  29.008  29.083  1.00  0.00     0.074 A 
ATOM     37  C   UNL A   1      38.830  30.443  30.942  1.00  0.00     0.049 A 
ATOM     38  N   UNL A   1      40.671  28.488  29.604  1.00  0.00    -0.248 NA
ATOM     39  C   UNL A   1      39.356  28.623  27.682  1.00  0.00     0.031 C 
ATOM     40  C   UNL A   1      37.956  31.375  31.660  1.00  0.00     0.029 A 
ATOM     41  N   UNL A   1      39.894  30.268  31.793  1.00  0.00    -0.354 N 
ATOM     42  C   UNL A   1      41.204  27.659  28.626  1.00  0.00     0.074 A 
ATOM     43  C   UNL A   1      40.344  27.765  27.467  1.00  0.00     0.031 C 
ATOM     44  C   UNL A   1      38.540  31.725  32.816  1.00  0.00     0.029 A 
ATOM     45  C   UNL A   1      39.783  30.977  32.968  1.00  0.00     0.049 A 
ATOM     46  H   UNL A   1      40.663  29.691  31.583  1.00  0.00     0.167 HD
ATOM     47  C   UNL A   1      42.312  26.883  28.686  1.00  0.00     0.034 A 
ATOM     48  C   UNL A   1      40.570  30.999  34.063  1.00  0.00     0.034 A 
ATOM     49  C   UNL A   1      43.208  26.830  29.808  1.00  0.00     0.049 A 
ATOM     50  C   UNL A   1      41.787  30.117  34.103  1.00  0.00     0.074 A 
ATOM     51  C   UNL A   1      44.366  26.084  29.949  1.00  0.00     0.029 A 
ATOM     52  N   UNL A   1      43.059  27.560  30.976  1.00  0.00    -0.354 N 
ATOM     53  N   UNL A   1      42.288  29.361  33.158  1.00  0.00    -0.248 NA
ATOM     54  C   UNL A   1      42.543  30.087  35.364  1.00  0.00     0.031 C 
ATOM     55  C   UNL A   1      44.914  26.359  31.206  1.00  0.00     0.029 A 
ATOM     56  C   UNL A   1      44.099  27.279  31.845  1.00  0.00     0.049 A 
ATOM     57  H   UNL A   1      42.322  28.186  31.160  1.00  0.00     0.167 HD
ATOM     58  C   UNL A   1      43.415  28.762  33.708  1.00  0.00     0.074 A 
ATOM     59  C   UNL A   1      43.550  29.281  35.054  1.00  0.00     0.031 C 
ATOM     60  C   UNL A   1      44.243  27.839  33.163  1.00  0.00     0.034 A 
BRANCH  47  61
ATOM     61  C   UNL A   1      42.629  26.026  27.492  1.00  0.00     0.023 A 
ATOM     62  C   UNL A   1      43.451  26.533  26.466  1.00  0.00     0.012 A 
ATOM     63  C   UNL A   1      42.168  24.697  27.421  1.00  0.00     0.148 A 
ATOM     64  C   UNL A   1      43.798  25.732  25.379  1.00  0.00     0.002 A 
ATOM     65  C   UNL A   1      42.545  23.895  26.351  1.00  0.00     0.091 A 
ATOM     66  F   UNL A   1      41.365  24.247  28.396  1.00  0.00    -0.205 F 
ATOM     67  C   UNL A   1      43.355  24.411  25.327  1.00  0.00     0.022 A 
BRANCH  65  68
ATOM     68  S   UNL A   1      42.069  22.166  26.232  1.00  0.00     0.127 S 
ATOM     69  O   UNL A   1      42.805  21.740  25.043  1.00  0.00    -0.237 OA
ATOM     70  O   UNL A   1      42.574  21.617  27.491  1.00  0.00    -0.237 OA
ATOM     71  O   UNL A   1      40.618  22.161  26.109  1.00  0.00    -0.744 OA
ENDBRANCH  65  68
ENDBRANCH  47  61
BRANCH  48  72
ATOM     72  C   UNL A   1      40.229  31.884  35.212  1.00  0.00     0.023 A 
ATOM     73  C   UNL A   1      40.829  33.154  35.310  1.00  0.00     0.012 A 
ATOM     74  C   UNL A   1      39.288  31.497  36.183  1.00  0.00     0.148 A 
ATOM     75  C   UNL A   1      40.504  34.015  36.361  1.00  0.00     0.002 A 
ATOM     76  C   UNL A   1      38.917  32.386  37.187  1.00  0.00     0.091 A 
ATOM     77  F   UNL A   1      38.753  30.270  36.105  1.00  0.00    -0.205 F 
ATOM     78  C   UNL A   1      39.535  33.639  37.288  1.00  0.00     0.022 A 
BRANCH  76  79
ATOM     79  S   UNL A   1      37.551  32.013  38.292  1.00  0.00     0.127 S 
ATOM     80  O   UNL A   1      38.133  32.293  39.600  1.00  0.00    -0.237 OA
ATOM     81  O   UNL A   1      36.525  32.962  37.855  1.00  0.00    -0.237 OA
ATOM     82  O   UNL A   1      37.222  30.620  38.010  1.00  0.00    -0.744 OA
ENDBRANCH  76  79
ENDBRANCH  48  72
BRANCH  60  83
ATOM     83  C   UNL A   1      45.363  27.321  34.023  1.00  0.00     0.023 A 
ATOM     84  C   UNL A   1      46.569  28.047  34.088  1.00  0.00     0.012 A 
ATOM     85  C   UNL A   1      45.205  26.166  34.811  1.00  0.00     0.148 A 
ATOM     86  C   UNL A   1      47.609  27.619  34.911  1.00  0.00     0.002 A 
ATOM     87  C   UNL A   1      46.232  25.765  35.657  1.00  0.00     0.091 A 
ATOM     88  F   UNL A   1      44.059  25.476  34.714  1.00  0.00    -0.205 F 
ATOM     89  C   UNL A   1      47.438  26.485  35.703  1.00  0.00     0.022 A 
BRANCH  87  90
ATOM     90  S   UNL A   1      46.058  24.363  36.766  1.00  0.00     0.127 S 
ATOM     91  O   UNL A   1      44.961  24.797  37.627  1.00  0.00    -0.237 OA
ATOM     92  O   UNL A   1      45.722  23.273  35.849  1.00  0.00    -0.237 OA
ATOM     93  O   UNL A   1      47.354  24.218  37.418  1.00  0.00    -0.744 OA
ENDBRANCH  87  90
ENDBRANCH  60  83
ENDBRANCH  34  35
ENDBRANCH  27  29
ENDBRANCH  26  27
ENDBRANCH  25  26
ENDBRANCH   1  25
TORSDOF 18
ENDMDL
MODEL 2
REMARK VINA RESULT:     -11.6      1.372      7.677
REMARK SMILES CCNC(=O)c1ccc(N[C@@H]2COC[C@@]2(C)C(=O)OCCOC(=O)c2ccc(-c3c4nc(c(-c5cccc(S(=O)(=O)[O-])c5F)c5ccc([nH]5)c(-c5cccc(S(=O)(=O)[O-])c5F)c5nc(c(-c6cccc(S(=O)(=O)[O-])c6F)c6ccc3[nH]6)C=C5)C=C4)cc2)nn1
REMARK SMILES IDX 20 1 19 2 17 3 18 4 15 5 11 6 12 7 13 8 14 9 16 10 10 11
REMARK SMILES IDX 9 13 6 14 7 15 89 16 8 17 88 18 4 19 3 20 5 22 2 23 1 24
REMARK SMILES IDX 21 25 22 26 23 27 24 28 25 29 26 30 87 31 27 32 86 33 28 34
REMARK SMILES IDX 29 35 30 36 80 37 31 38 85 39 79 40 81 41 32 42 84 43 78 44
REMARK SMILES IDX 77 45 33 47 65 48 45 49 64 50 46 51 49 52 63 53 82 54 47 55
REMARK SMILES IDX 48 56 62 58 83 59 50 60 34 61 35 62 43 63 36 64 38 65 44 66
REMARK SMILES IDX 37 67 39 68 40 69 41 70 42 71 66 72 67 73 75 74 68 75 70 76
REMARK SMILES IDX 76 77 69 78 71 79 72 80 73 81 74 82 51 83 52 84 60 85 53 86
REMARK SMILES IDX 55 87 61 88 54 89 56 90 57 91 58 92 59 93
REMARK H PARENT 10 12 3 21 81 46 49 57
REMARK Flexibility Score: inf
ROOT
ATOM      1  C   UNL A   1      32.323  29.650  24.751  1.00  0.00     0.274 C 
ENDROOT
BRANCH   1   2
ATOM      2  O   UNL A   1      32.311  28.246  25.095  1.00  0.00    -0.462 OA
BRANCH   2   3
ATOM      3  C   UNL A   1      31.639  27.427  24.242  1.00  0.00     0.316 C 
ATOM      4  O   UNL A   1      30.417  27.331  24.216  1.00  0.00    -0.251 OA
BRANCH   3   5
ATOM      5  C   UNL A   1      32.555  26.581  23.374  1.00  0.00     0.111 C 
ATOM      6  C   UNL A   1      31.762  25.661  22.443  1.00  0.00     0.126 C 
ATOM      7  C   UNL A   1      32.772  25.287  21.372  1.00  0.00     0.186 C 
ATOM      8  O   UNL A   1      33.653  26.424  21.251  1.00  0.00    -0.378 OA
ATOM      9  C   UNL A   1      33.312  27.361  22.295  1.00  0.00     0.181 C 
ATOM     10  C   UNL A   1      33.580  25.915  24.304  1.00  0.00     0.028 C 
BRANCH   6  11
ATOM     11  N   UNL A   1      30.977  24.571  22.990  1.00  0.00    -0.362 N 
ATOM     12  H   UNL A   1      30.002  24.699  22.992  1.00  0.00     0.162 HD
BRANCH  11  13
ATOM     13  C   UNL A   1      31.430  23.379  23.505  1.00  0.00     0.149 A 
ATOM     14  C   UNL A   1      32.346  21.054  24.603  1.00  0.00     0.150 A 
ATOM     15  C   UNL A   1      31.844  22.021  25.451  1.00  0.00     0.040 A 
ATOM     16  N   UNL A   1      32.416  21.236  23.266  1.00  0.00    -0.143 NA
ATOM     17  C   UNL A   1      31.361  23.192  24.882  1.00  0.00     0.051 A 
ATOM     18  N   UNL A   1      31.951  22.416  22.721  1.00  0.00    -0.132 NA
BRANCH  14  19
ATOM     19  C   UNL A   1      32.894  19.788  25.138  1.00  0.00     0.271 C 
ATOM     20  N   UNL A   1      34.246  19.669  25.376  1.00  0.00    -0.351 N 
ATOM     21  H   UNL A   1      34.568  18.756  25.552  1.00  0.00     0.163 HD
ATOM     22  O   UNL A   1      32.153  18.830  25.349  1.00  0.00    -0.267 OA
BRANCH  20  23
ATOM     23  C   UNL A   1      35.264  20.709  25.403  1.00  0.00     0.113 C 
ATOM     24  C   UNL A   1      36.616  20.151  25.002  1.00  0.00     0.027 C 
ENDBRANCH  20  23
ENDBRANCH  14  19
ENDBRANCH  11  13
ENDBRANCH   6  11
ENDBRANCH   3   5
ENDBRANCH   2   3
ENDBRANCH   1   2
BRANCH   1  25
ATOM     25  C   UNL A   1      31.524  30.478  25.753  1.00  0.00     0.275 C 
BRANCH  25  26
ATOM     26  O   UNL A   1      32.234  30.561  27.001  1.00  0.00    -0.458 OA
BRANCH  26  27
ATOM     27  C   UNL A   1      32.974  31.677  27.191  1.00  0.00     0.338 C 
ATOM     28  O   UNL A   1      32.629  32.835  27.036  1.00  0.00    -0.246 OA
BRANCH  27  29
ATOM     29  C   UNL A   1      34.294  31.293  27.714  1.00  0.00     0.060 A 
ATOM     30  C   UNL A   1      34.530  29.950  27.980  1.00  0.00     0.016 A 
ATOM     31  C   UNL A   1      35.247  32.252  28.052  1.00  0.00     0.016 A 
ATOM     32  C   UNL A   1      35.680  29.563  28.659  1.00  0.00     0.010 A 
ATOM     33  C   UNL A   1      36.450  31.848  28.650  1.00  0.00     0.010 A 
ATOM     34  C   UNL A   1      36.666  30.501  28.988  1.00  0.00    -0.014 A 
BRANCH  34  35
ATOM     35  C   UNL A   1      37.891  30.044  29.702  1.00  0.00     0.031 A 
ATOM     36  C   UNL A   1      38.153  30.474  31.121  1.00  0.00     0.074 A 
ATOM     37  C   UNL A   1      38.746  29.191  29.098  1.00  0.00     0.049 A 
ATOM     38  N   UNL A   1      39.205  30.251  31.866  1.00  0.00    -0.248 NA
ATOM     39  C   UNL A   1      37.099  31.253  31.792  1.00  0.00     0.031 C 
ATOM     40  C   UNL A   1      38.594  28.664  27.739  1.00  0.00     0.029 A 
ATOM     41  N   UNL A   1      39.904  28.607  29.549  1.00  0.00    -0.354 N 
ATOM     42  C   UNL A   1      38.975  30.922  33.060  1.00  0.00     0.074 A 
ATOM     43  C   UNL A   1      37.670  31.539  32.953  1.00  0.00     0.031 C 
ATOM     44  C   UNL A   1      39.590  27.802  27.486  1.00  0.00     0.029 A 
ATOM     45  C   UNL A   1      40.502  27.781  28.624  1.00  0.00     0.049 A 
ATOM     46  H   UNL A   1      40.273  28.764  30.448  1.00  0.00     0.167 HD
ATOM     47  C   UNL A   1      39.776  31.014  34.148  1.00  0.00     0.034 A 
ATOM     48  C   UNL A   1      41.671  27.109  28.666  1.00  0.00     0.034 A 
ATOM     49  C   UNL A   1      41.040  30.344  34.286  1.00  0.00     0.049 A 
ATOM     50  C   UNL A   1      42.543  27.240  29.884  1.00  0.00     0.074 A 
ATOM     51  C   UNL A   1      41.912  30.367  35.362  1.00  0.00     0.029 A 
ATOM     52  N   UNL A   1      41.608  29.521  33.327  1.00  0.00    -0.354 N 
ATOM     53  N   UNL A   1      42.296  27.859  31.012  1.00  0.00    -0.248 NA
ATOM     54  C   UNL A   1      43.860  26.587  29.830  1.00  0.00     0.031 C 
ATOM     55  C   UNL A   1      43.011  29.560  35.050  1.00  0.00     0.029 A 
ATOM     56  C   UNL A   1      42.822  29.033  33.783  1.00  0.00     0.049 A 
ATOM     57  H   UNL A   1      41.209  29.314  32.453  1.00  0.00     0.167 HD
ATOM     58  C   UNL A   1      43.424  27.672  31.802  1.00  0.00     0.074 A 
ATOM     59  C   UNL A   1      44.336  26.843  31.041  1.00  0.00     0.031 C 
ATOM     60  C   UNL A   1      43.696  28.172  33.032  1.00  0.00     0.034 A 
BRANCH  47  61
ATOM     61  C   UNL A   1      39.304  31.867  35.293  1.00  0.00     0.023 A 
ATOM     62  C   UNL A   1      38.430  31.325  36.255  1.00  0.00     0.012 A 
ATOM     63  C   UNL A   1      39.781  33.183  35.449  1.00  0.00     0.148 A 
ATOM     64  C   UNL A   1      38.027  32.087  37.351  1.00  0.00     0.002 A 
ATOM     65  C   UNL A   1      39.400  33.925  36.560  1.00  0.00     0.091 A 
ATOM     66  F   UNL A   1      40.589  33.686  34.505  1.00  0.00    -0.205 F 
ATOM     67  C   UNL A   1      38.520  33.381  37.509  1.00  0.00     0.022 A 
BRANCH  65  68
ATOM     68  S   UNL A   1      40.031  35.577  36.875  1.00  0.00     0.127 S 
ATOM     69  O   UNL A   1      39.355  35.917  38.125  1.00  0.00    -0.237 OA
ATOM     70  O   UNL A   1      41.470  35.341  37.005  1.00  0.00    -0.237 OA
ATOM     71  O   UNL A   1      39.653  36.375  35.717  1.00  0.00    -0.744 OA
ENDBRANCH  65  68
ENDBRANCH  47  61
BRANCH  48  72
ATOM     72  C   UNL A   1      42.085  26.255  27.518  1.00  0.00     0.023 A 
ATOM     73  C   UNL A   1      42.881  26.806  26.495  1.00  0.00     0.012 A 
ATOM     74  C   UNL A   1      41.732  24.894  27.450  1.00  0.00     0.148 A 
ATOM     75  C   UNL A   1      43.306  26.019  25.423  1.00  0.00     0.002 A 
ATOM     76  C   UNL A   1      42.217  24.100  26.416  1.00  0.00     0.091 A 
ATOM     77  F   UNL A   1      40.939  24.389  28.406  1.00  0.00    -0.205 F 
ATOM     78  C   UNL A   1      42.991  24.662  25.393  1.00  0.00     0.022 A 
BRANCH  76  79
ATOM     79  S   UNL A   1      41.984  22.319  26.434  1.00  0.00     0.127 S 
ATOM     80  O   UNL A   1      40.545  22.199  26.231  1.00  0.00    -0.237 OA
ATOM     81  O   UNL A   1      42.807  21.882  25.304  1.00  0.00    -0.237 OA
ATOM     82  O   UNL A   1      42.495  21.897  27.733  1.00  0.00    -0.744 OA
ENDBRANCH  76  79
ENDBRANCH  48  72
BRANCH  60  83
ATOM     83  C   UNL A   1      45.038  27.846  33.629  1.00  0.00     0.023 A 
ATOM     84  C   UNL A   1      46.121  28.717  33.396  1.00  0.00     0.012 A 
ATOM     85  C   UNL A   1      45.212  26.729  34.467  1.00  0.00     0.148 A 
ATOM     86  C   UNL A   1      47.365  28.468  33.973  1.00  0.00     0.002 A 
ATOM     87  C   UNL A   1      46.445  26.507  35.068  1.00  0.00     0.091 A 
ATOM     88  F   UNL A   1      44.175  25.899  34.654  1.00  0.00    -0.205 F 
ATOM     89  C   UNL A   1      47.525  27.371  34.817  1.00  0.00     0.022 A 
BRANCH  87  90
ATOM     90  S   UNL A   1      46.709  25.163  36.229  1.00  0.00     0.127 S 
ATOM     91  O   UNL A   1      46.513  23.991  35.379  1.00  0.00    -0.237 OA
ATOM     92  O   UNL A   1      48.091  25.382  36.660  1.00  0.00    -0.237 OA
ATOM     93  O   UNL A   1      45.718  25.354  37.280  1.00  0.00    -0.744 OA
ENDBRANCH  87  90
ENDBRANCH  60  83
ENDBRANCH  34  35
ENDBRANCH  27  29
ENDBRANCH  26  27
ENDBRANCH  25  26
ENDBRANCH   1  25
TORSDOF 18
ENDMDL
MODEL 3
REMARK VINA RESULT:     -11.5      2.379      4.112
REMARK SMILES CCNC(=O)c1ccc(N[C@@H]2COC[C@@]2(C)C(=O)OCCOC(=O)c2ccc(-c3c4nc(c(-c5cccc(S(=O)(=O)[O-])c5F)c5ccc([nH]5)c(-c5cccc(S(=O)(=O)[O-])c5F)c5nc(c(-c6cccc(S(=O)(=O)[O-])c6F)c6ccc3[nH]6)C=C5)C=C4)cc2)nn1
REMARK SMILES IDX 20 1 19 2 17 3 18 4 15 5 11 6 12 7 13 8 14 9 16 10 10 11
REMARK SMILES IDX 9 13 6 14 7 15 89 16 8 17 88 18 4 19 3 20 5 22 2 23 1 24
REMARK SMILES IDX 21 25 22 26 23 27 24 28 25 29 26 30 87 31 27 32 86 33 28 34
REMARK SMILES IDX 29 35 30 36 80 37 31 38 85 39 79 40 81 41 32 42 84 43 78 44
REMARK SMILES IDX 77 45 33 47 65 48 45 49 64 50 46 51 49 52 63 53 82 54 47 55
REMARK SMILES IDX 48 56 62 58 83 59 50 60 34 61 35 62 43 63 36 64 38 65 44 66
REMARK SMILES IDX 37 67 39 68 40 69 41 70 42 71 66 72 67 73 75 74 68 75 70 76
REMARK SMILES IDX 76 77 69 78 71 79 72 80 73 81 74 82 51 83 52 84 60 85 53 86
REMARK SMILES IDX 55 87 61 88 54 89 56 90 57 91 58 92 59 93
REMARK H PARENT 10 12 3 21 81 46 49 57
REMARK Flexibility Score: inf
ROOT
ATOM      1  C   UNL A   1      31.808  28.033  27.039  1.00  0.00     0.274 C 
ENDROOT
BRANCH   1   2
ATOM      2  O   UNL A   1      31.731  27.143  25.904  1.00  0.00    -0.462 OA
BRANCH   2   3
ATOM      3  C   UNL A   1      32.919  26.770  25.355  1.00  0.00     0.316 C 
ATOM      4  O   UNL A   1      34.002  27.224  25.708  1.00  0.00    -0.251 OA
BRANCH   3   5
ATOM      5  C   UNL A   1      32.767  25.790  24.203  1.00  0.00     0.111 C 
ATOM      6  C   UNL A   1      31.879  26.356  23.092  1.00  0.00     0.126 C 
ATOM      7  C   UNL A   1      32.232  25.500  21.888  1.00  0.00     0.186 C 
ATOM      8  O   UNL A   1      33.617  25.131  22.063  1.00  0.00    -0.378 OA
ATOM      9  C   UNL A   1      34.035  25.585  23.368  1.00  0.00     0.181 C 
ATOM     10  C   UNL A   1      32.355  24.438  24.803  1.00  0.00     0.028 C 
BRANCH   6  11
ATOM     11  N   UNL A   1      30.465  26.574  23.329  1.00  0.00    -0.362 N 
ATOM     12  H   UNL A   1      29.930  25.770  23.520  1.00  0.00     0.162 HD
BRANCH  11  13
ATOM     13  C   UNL A   1      29.781  27.766  23.319  1.00  0.00     0.149 A 
ATOM     14  C   UNL A   1      28.361  30.096  23.251  1.00  0.00     0.150 A 
ATOM     15  C   UNL A   1      27.669  28.908  23.123  1.00  0.00     0.040 A 
ATOM     16  N   UNL A   1      29.705  30.135  23.383  1.00  0.00    -0.143 NA
ATOM     17  C   UNL A   1      28.397  27.727  23.180  1.00  0.00     0.051 A 
ATOM     18  N   UNL A   1      30.414  28.951  23.416  1.00  0.00    -0.132 NA
BRANCH  14  19
ATOM     19  C   UNL A   1      27.654  31.395  23.184  1.00  0.00     0.271 C 
ATOM     20  N   UNL A   1      27.858  32.233  22.109  1.00  0.00    -0.351 N 
ATOM     21  H   UNL A   1      27.509  33.148  22.212  1.00  0.00     0.163 HD
ATOM     22  O   UNL A   1      26.906  31.743  24.094  1.00  0.00    -0.267 OA
BRANCH  20  23
ATOM     23  C   UNL A   1      28.516  31.953  20.843  1.00  0.00     0.113 C 
ATOM     24  C   UNL A   1      27.657  32.402  19.676  1.00  0.00     0.027 C 
ENDBRANCH  20  23
ENDBRANCH  14  19
ENDBRANCH  11  13
ENDBRANCH   6  11
ENDBRANCH   3   5
ENDBRANCH   2   3
ENDBRANCH   1   2
BRANCH   1  25
ATOM     25  C   UNL A   1      31.528  29.478  26.636  1.00  0.00     0.275 C 
BRANCH  25  26
ATOM     26  O   UNL A   1      32.752  30.129  26.255  1.00  0.00    -0.458 OA
BRANCH  26  27
ATOM     27  C   UNL A   1      33.125  31.185  27.012  1.00  0.00     0.338 C 
ATOM     28  O   UNL A   1      32.485  32.193  27.251  1.00  0.00    -0.246 OA
BRANCH  27  29
ATOM     29  C   UNL A   1      34.442  30.908  27.606  1.00  0.00     0.060 A 
ATOM     30  C   UNL A   1      34.731  29.602  27.984  1.00  0.00     0.016 A 
ATOM     31  C   UNL A   1      35.337  31.936  27.898  1.00  0.00     0.016 A 
ATOM     32  C   UNL A   1      35.872  29.326  28.727  1.00  0.00     0.010 A 
ATOM     33  C   UNL A   1      36.535  31.638  28.564  1.00  0.00     0.010 A 
ATOM     34  C   UNL A   1      36.801  30.333  29.013  1.00  0.00    -0.014 A 
BRANCH  34  35
ATOM     35  C   UNL A   1      38.020  29.993  29.800  1.00  0.00     0.031 A 
ATOM     36  C   UNL A   1      39.101  29.135  29.200  1.00  0.00     0.074 A 
ATOM     37  C   UNL A   1      38.187  30.503  31.039  1.00  0.00     0.049 A 
ATOM     38  N   UNL A   1      40.184  28.663  29.764  1.00  0.00    -0.248 NA
ATOM     39  C   UNL A   1      38.952  28.758  27.784  1.00  0.00     0.031 C 
ATOM     40  C   UNL A   1      37.235  31.379  31.727  1.00  0.00     0.029 A 
ATOM     41  N   UNL A   1      39.219  30.371  31.935  1.00  0.00    -0.354 N 
ATOM     42  C   UNL A   1      40.803  27.876  28.801  1.00  0.00     0.074 A 
ATOM     43  C   UNL A   1      39.991  27.955  27.606  1.00  0.00     0.031 C 
ATOM     44  C   UNL A   1      37.747  31.743  32.913  1.00  0.00     0.029 A 
ATOM     45  C   UNL A   1      39.020  31.056  33.112  1.00  0.00     0.049 A 
ATOM     46  H   UNL A   1      40.026  29.836  31.754  1.00  0.00     0.167 HD
ATOM     47  C   UNL A   1      41.945  27.156  28.902  1.00  0.00     0.034 A 
ATOM     48  C   UNL A   1      39.754  31.102  34.242  1.00  0.00     0.034 A 
ATOM     49  C   UNL A   1      42.791  27.132  30.064  1.00  0.00     0.049 A 
ATOM     50  C   UNL A   1      41.011  30.283  34.328  1.00  0.00     0.074 A 
ATOM     51  C   UNL A   1      43.978  26.444  30.248  1.00  0.00     0.029 A 
ATOM     52  N   UNL A   1      42.552  27.838  31.232  1.00  0.00    -0.354 N 
ATOM     53  N   UNL A   1      41.593  29.566  33.397  1.00  0.00    -0.248 NA
ATOM     54  C   UNL A   1      41.710  30.273  35.622  1.00  0.00     0.031 C 
ATOM     55  C   UNL A   1      44.454  26.729  31.533  1.00  0.00     0.029 A 
ATOM     56  C   UNL A   1      43.565  27.597  32.145  1.00  0.00     0.049 A 
ATOM     57  H   UNL A   1      41.777  28.422  31.389  1.00  0.00     0.167 HD
ATOM     58  C   UNL A   1      42.723  29.018  33.992  1.00  0.00     0.074 A 
ATOM     59  C   UNL A   1      42.770  29.523  35.349  1.00  0.00     0.031 C 
ATOM     60  C   UNL A   1      43.621  28.145  33.474  1.00  0.00     0.034 A 
BRANCH  47  61
ATOM     61  C   UNL A   1      42.359  26.333  27.714  1.00  0.00     0.023 A 
ATOM     62  C   UNL A   1      43.218  26.887  26.745  1.00  0.00     0.012 A 
ATOM     63  C   UNL A   1      41.951  24.991  27.595  1.00  0.00     0.148 A 
ATOM     64  C   UNL A   1      43.655  26.120  25.666  1.00  0.00     0.002 A 
ATOM     65  C   UNL A   1      42.415  24.222  26.535  1.00  0.00     0.091 A 
ATOM     66  F   UNL A   1      41.111  24.495  28.515  1.00  0.00    -0.205 F 
ATOM     67  C   UNL A   1      43.262  24.786  25.567  1.00  0.00     0.022 A 
BRANCH  65  68
ATOM     68  S   UNL A   1      42.009  22.481  26.359  1.00  0.00     0.127 S 
ATOM     69  O   UNL A   1      40.555  22.530  26.226  1.00  0.00    -0.237 OA
ATOM     70  O   UNL A   1      42.722  22.117  25.134  1.00  0.00    -0.237 OA
ATOM     71  O   UNL A   1      42.509  21.833  27.564  1.00  0.00    -0.744 OA
ENDBRANCH  65  68
ENDBRANCH  47  61
BRANCH  48  72
ATOM     72  C   UNL A   1      39.316  31.953  35.385  1.00  0.00     0.023 A 
ATOM     73  C   UNL A   1      38.494  31.400  36.386  1.00  0.00     0.012 A 
ATOM     74  C   UNL A   1      39.739  33.289  35.510  1.00  0.00     0.148 A 
ATOM     75  C   UNL A   1      38.095  32.167  37.482  1.00  0.00     0.002 A 
ATOM     76  C   UNL A   1      39.395  34.025  36.639  1.00  0.00     0.091 A 
ATOM     77  F   UNL A   1      40.487  33.820  34.532  1.00  0.00    -0.205 F 
ATOM     78  C   UNL A   1      38.560  33.473  37.619  1.00  0.00     0.022 A 
BRANCH  76  79
ATOM     79  S   UNL A   1      40.116  35.643  36.940  1.00  0.00     0.127 S 
ATOM     80  O   UNL A   1      39.580  35.973  38.256  1.00  0.00    -0.237 OA
ATOM     81  O   UNL A   1      41.552  35.359  36.910  1.00  0.00    -0.237 OA
ATOM     82  O   UNL A   1      39.655  36.462  35.826  1.00  0.00    -0.744 OA
ENDBRANCH  76  79
ENDBRANCH  48  72
BRANCH  60  83
ATOM     83  C   UNL A   1      44.726  27.672  34.378  1.00  0.00     0.023 A 
ATOM     84  C   UNL A   1      45.941  28.386  34.407  1.00  0.00     0.012 A 
ATOM     85  C   UNL A   1      44.545  26.575  35.241  1.00  0.00     0.148 A 
ATOM     86  C   UNL A   1      46.967  28.001  35.267  1.00  0.00     0.002 A 
ATOM     87  C   UNL A   1      45.559  26.219  36.122  1.00  0.00     0.091 A 
ATOM     88  F   UNL A   1      43.391  25.894  35.179  1.00  0.00    -0.205 F 
ATOM     89  C   UNL A   1      46.774  26.926  36.131  1.00  0.00     0.022 A 
BRANCH  87  90
ATOM     90  S   UNL A   1      45.357  24.898  37.321  1.00  0.00     0.127 S 
ATOM     91  O   UNL A   1      46.333  25.268  38.342  1.00  0.00    -0.237 OA
ATOM     92  O   UNL A   1      43.959  25.050  37.728  1.00  0.00    -0.237 OA
ATOM     93  O   UNL A   1      45.638  23.666  36.595  1.00  0.00    -0.744 OA
ENDBRANCH  87  90
ENDBRANCH  60  83
ENDBRANCH  34  35
ENDBRANCH  27  29
ENDBRANCH  26  27
ENDBRANCH  25  26
ENDBRANCH   1  25
TORSDOF 18
ENDMDL
