MODEL 1
REMARK VINA RESULT:     -12.3      0.000      0.000
REMARK SMILES Cc1c(C)c2cc(Cl)c(O[C@@H](C)C(=O)OCCOC(=O)c3ccc(-c4c5nc(c(-c6cccc(S(=O)(=O)[O-])c6F)c6ccc([nH]6)c(-c6cccc(S(=O)(=O)[O-])c6F)c6nc(c(-c7cccc(S(=O)(=O)[O-])c7F)c7ccc4[nH]7)C=C6)C=C5)cc3)cc2oc1=O
REMARK SMILES IDX 17 1 16 2 15 3 13 4 14 5 11 6 12 7 10 8 9 9 1 10 2 11 3 12
REMARK SMILES IDX 87 13 4 14 5 15 86 16 88 17 6 18 85 19 7 20 84 21 8 22 18 23
REMARK SMILES IDX 19 24 20 25 21 26 22 27 83 28 23 29 82 30 24 31 25 32 26 33
REMARK SMILES IDX 76 34 27 35 81 36 75 37 77 38 28 39 80 40 74 41 73 42 29 44
REMARK SMILES IDX 61 45 41 46 60 47 42 48 45 49 59 50 78 51 43 52 44 53 58 55
REMARK SMILES IDX 79 56 46 57 30 58 31 59 39 60 32 61 34 62 40 63 33 64 35 65
REMARK SMILES IDX 36 66 37 67 38 68 62 69 63 70 71 71 64 72 66 73 72 74 65 75
REMARK SMILES IDX 67 76 68 77 69 78 70 79 47 80 48 81 56 82 49 83 51 84 57 85
REMARK SMILES IDX 50 86 52 87 53 88 54 89 55 90
REMARK H PARENT 77 43 45 54
REMARK Flexibility Score: inf
ROOT
ATOM      1  C   UNL A   1      37.270  20.064  24.907  1.00  0.00     0.275 C 
ENDROOT
BRANCH   1   2
ATOM      2  C   UNL A   1      35.744  20.104  25.002  1.00  0.00     0.274 C 
BRANCH   2   3
ATOM      3  O   UNL A   1      35.303  21.473  25.008  1.00  0.00    -0.459 OA
BRANCH   3   4
ATOM      4  C   UNL A   1      34.254  21.815  24.217  1.00  0.00     0.347 C 
ATOM      5  O   UNL A   1      34.322  22.620  23.296  1.00  0.00    -0.248 OA
BRANCH   4   6
ATOM      6  C   UNL A   1      32.946  21.073  24.599  1.00  0.00     0.279 C 
ATOM      7  C   UNL A   1      32.463  20.194  23.446  1.00  0.00     0.066 C 
BRANCH   6   8
ATOM      8  O   UNL A   1      31.831  21.660  25.255  1.00  0.00    -0.477 OA
BRANCH   8   9
ATOM      9  C   UNL A   1      31.624  23.005  25.302  1.00  0.00     0.142 A 
ATOM     10  C   UNL A   1      30.699  29.426  24.272  1.00  0.00     0.052 C 
ATOM     11  C   UNL A   1      30.861  27.939  24.444  1.00  0.00     0.038 A 
ATOM     12  C   UNL A   1      31.266  27.303  25.565  1.00  0.00    -0.030 A 
ATOM     13  C   UNL A   1      30.512  27.190  23.202  1.00  0.00     0.339 A 
ATOM     14  C   UNL A   1      31.605  27.987  26.863  1.00  0.00     0.046 C 
ATOM     15  C   UNL A   1      31.395  25.831  25.532  1.00  0.00     0.023 A 
ATOM     16  O   UNL A   1      30.445  25.815  23.288  1.00  0.00    -0.422 OA
ATOM     17  O   UNL A   1      30.253  27.770  22.152  1.00  0.00    -0.246 OA
ATOM     18  C   UNL A   1      31.946  25.070  26.568  1.00  0.00     0.036 A 
ATOM     19  C   UNL A   1      30.947  25.141  24.411  1.00  0.00     0.142 A 
ATOM     20  C   UNL A   1      32.065  23.676  26.452  1.00  0.00     0.083 A 
ATOM     21  C   UNL A   1      31.015  23.750  24.299  1.00  0.00     0.096 A 
ATOM     22  Cl  UNL A   1      32.789  22.822  27.772  1.00  0.00    -0.080 Cl
ENDBRANCH   8   9
ENDBRANCH   6   8
ENDBRANCH   4   6
ENDBRANCH   3   4
ENDBRANCH   2   3
ENDBRANCH   1   2
BRANCH   1  23
ATOM     23  O   UNL A   1      37.845  21.192  25.586  1.00  0.00    -0.458 OA
BRANCH  23  24
ATOM     24  C   UNL A   1      39.091  21.003  26.093  1.00  0.00     0.338 C 
ATOM     25  O   UNL A   1      39.758  19.990  26.047  1.00  0.00    -0.246 OA
BRANCH  24  26
ATOM     26  C   UNL A   1      39.593  22.311  26.551  1.00  0.00     0.060 A 
ATOM     27  C   UNL A   1      39.002  23.500  26.116  1.00  0.00     0.016 A 
ATOM     28  C   UNL A   1      40.706  22.334  27.396  1.00  0.00     0.016 A 
ATOM     29  C   UNL A   1      39.561  24.721  26.496  1.00  0.00     0.010 A 
ATOM     30  C   UNL A   1      41.266  23.554  27.769  1.00  0.00     0.010 A 
ATOM     31  C   UNL A   1      40.707  24.752  27.305  1.00  0.00    -0.014 A 
BRANCH  31  32
ATOM     32  C   UNL A   1      41.318  26.044  27.682  1.00  0.00     0.031 A 
ATOM     33  C   UNL A   1      42.733  26.358  27.292  1.00  0.00     0.074 A 
ATOM     34  C   UNL A   1      40.599  26.918  28.408  1.00  0.00     0.049 A 
ATOM     35  N   UNL A   1      43.416  27.453  27.501  1.00  0.00    -0.248 NA
ATOM     36  C   UNL A   1      43.481  25.307  26.583  1.00  0.00     0.031 C 
ATOM     37  C   UNL A   1      39.238  26.687  28.896  1.00  0.00     0.029 A 
ATOM     38  N   UNL A   1      40.917  28.166  28.876  1.00  0.00    -0.354 N 
ATOM     39  C   UNL A   1      44.676  27.223  26.964  1.00  0.00     0.074 A 
ATOM     40  C   UNL A   1      44.670  25.877  26.432  1.00  0.00     0.031 C 
ATOM     41  C   UNL A   1      38.838  27.760  29.597  1.00  0.00     0.029 A 
ATOM     42  C   UNL A   1      39.914  28.747  29.612  1.00  0.00     0.049 A 
ATOM     43  H   UNL A   1      41.783  28.604  28.701  1.00  0.00     0.167 HD
ATOM     44  C   UNL A   1      45.730  28.069  26.900  1.00  0.00     0.034 A 
ATOM     45  C   UNL A   1      39.867  29.945  30.226  1.00  0.00     0.034 A 
ATOM     46  C   UNL A   1      45.717  29.416  27.401  1.00  0.00     0.049 A 
ATOM     47  C   UNL A   1      41.040  30.875  30.113  1.00  0.00     0.074 A 
ATOM     48  C   UNL A   1      46.707  30.379  27.303  1.00  0.00     0.029 A 
ATOM     49  N   UNL A   1      44.668  29.989  28.103  1.00  0.00    -0.354 N 
ATOM     50  N   UNL A   1      42.167  30.700  29.467  1.00  0.00    -0.248 NA
ATOM     51  C   UNL A   1      40.927  32.175  30.788  1.00  0.00     0.031 C 
ATOM     52  C   UNL A   1      46.258  31.534  27.952  1.00  0.00     0.029 A 
ATOM     53  C   UNL A   1      44.989  31.289  28.453  1.00  0.00     0.049 A 
ATOM     54  H   UNL A   1      43.821  29.538  28.319  1.00  0.00     0.167 HD
ATOM     55  C   UNL A   1      42.896  31.868  29.651  1.00  0.00     0.074 A 
ATOM     56  C   UNL A   1      42.071  32.756  30.446  1.00  0.00     0.031 C 
ATOM     57  C   UNL A   1      44.145  32.169  29.219  1.00  0.00     0.034 A 
BRANCH  44  58
ATOM     58  C   UNL A   1      46.971  27.595  26.197  1.00  0.00     0.023 A 
ATOM     59  C   UNL A   1      47.880  26.780  26.900  1.00  0.00     0.012 A 
ATOM     60  C   UNL A   1      47.189  27.865  24.832  1.00  0.00     0.148 A 
ATOM     61  C   UNL A   1      48.996  26.246  26.258  1.00  0.00     0.002 A 
ATOM     62  C   UNL A   1      48.290  27.309  24.192  1.00  0.00     0.091 A 
ATOM     63  F   UNL A   1      46.314  28.651  24.189  1.00  0.00    -0.205 F 
ATOM     64  C   UNL A   1      49.196  26.503  24.903  1.00  0.00     0.022 A 
BRANCH  62  65
ATOM     65  S   UNL A   1      48.621  27.535  22.441  1.00  0.00     0.127 S 
ATOM     66  O   UNL A   1      49.896  28.253  22.472  1.00  0.00    -0.237 OA
ATOM     67  O   UNL A   1      48.711  26.155  21.966  1.00  0.00    -0.237 OA
ATOM     68  O   UNL A   1      47.498  28.295  21.911  1.00  0.00    -0.744 OA
ENDBRANCH  62  65
ENDBRANCH  44  58
BRANCH  45  69
ATOM     69  C   UNL A   1      38.624  30.349  30.934  1.00  0.00     0.023 A 
ATOM     70  C   UNL A   1      38.497  30.070  32.307  1.00  0.00     0.012 A 
ATOM     71  C   UNL A   1      37.610  31.070  30.275  1.00  0.00     0.148 A 
ATOM     72  C   UNL A   1      37.374  30.496  33.015  1.00  0.00     0.002 A 
ATOM     73  C   UNL A   1      36.511  31.524  30.995  1.00  0.00     0.091 A 
ATOM     74  F   UNL A   1      37.756  31.317  28.966  1.00  0.00    -0.205 F 
ATOM     75  C   UNL A   1      36.387  31.230  32.362  1.00  0.00     0.022 A 
BRANCH  73  76
ATOM     76  S   UNL A   1      35.238  32.562  30.269  1.00  0.00     0.127 S 
ATOM     77  O   UNL A   1      34.300  32.705  31.380  1.00  0.00    -0.237 OA
ATOM     78  O   UNL A   1      35.992  33.772  29.941  1.00  0.00    -0.237 OA
ATOM     79  O   UNL A   1      34.736  31.830  29.116  1.00  0.00    -0.744 OA
ENDBRANCH  73  76
ENDBRANCH  45  69
BRANCH  57  80
ATOM     80  C   UNL A   1      44.716  33.502  29.613  1.00  0.00     0.023 A 
ATOM     81  C   UNL A   1      45.464  33.598  30.803  1.00  0.00     0.012 A 
ATOM     82  C   UNL A   1      44.597  34.626  28.774  1.00  0.00     0.148 A 
ATOM     83  C   UNL A   1      46.077  34.798  31.158  1.00  0.00     0.002 A 
ATOM     84  C   UNL A   1      45.237  35.811  29.118  1.00  0.00     0.091 A 
ATOM     85  F   UNL A   1      43.865  34.514  27.655  1.00  0.00    -0.205 F 
ATOM     86  C   UNL A   1      45.972  35.900  30.312  1.00  0.00     0.022 A 
BRANCH  84  87
ATOM     87  S   UNL A   1      45.219  37.259  28.056  1.00  0.00     0.127 S 
ATOM     88  O   UNL A   1      45.861  36.749  26.846  1.00  0.00    -0.237 OA
ATOM     89  O   UNL A   1      43.788  37.530  27.920  1.00  0.00    -0.237 OA
ATOM     90  O   UNL A   1      45.962  38.289  28.771  1.00  0.00    -0.744 OA
ENDBRANCH  84  87
ENDBRANCH  57  80
ENDBRANCH  31  32
ENDBRANCH  24  26
ENDBRANCH  23  24
ENDBRANCH   1  23
TORSDOF 16
ENDMDL
MODEL 2
REMARK VINA RESULT:     -12.2      1.199      1.511
REMARK SMILES Cc1c(C)c2cc(Cl)c(O[C@@H](C)C(=O)OCCOC(=O)c3ccc(-c4c5nc(c(-c6cccc(S(=O)(=O)[O-])c6F)c6ccc([nH]6)c(-c6cccc(S(=O)(=O)[O-])c6F)c6nc(c(-c7cccc(S(=O)(=O)[O-])c7F)c7ccc4[nH]7)C=C6)C=C5)cc3)cc2oc1=O
REMARK SMILES IDX 17 1 16 2 15 3 13 4 14 5 11 6 12 7 10 8 9 9 1 10 2 11 3 12
REMARK SMILES IDX 87 13 4 14 5 15 86 16 88 17 6 18 85 19 7 20 84 21 8 22 18 23
REMARK SMILES IDX 19 24 20 25 21 26 22 27 83 28 23 29 82 30 24 31 25 32 26 33
REMARK SMILES IDX 76 34 27 35 81 36 75 37 77 38 28 39 80 40 74 41 73 42 29 44
REMARK SMILES IDX 61 45 41 46 60 47 42 48 45 49 59 50 78 51 43 52 44 53 58 55
REMARK SMILES IDX 79 56 46 57 30 58 31 59 39 60 32 61 34 62 40 63 33 64 35 65
REMARK SMILES IDX 36 66 37 67 38 68 62 69 63 70 71 71 64 72 66 73 72 74 65 75
REMARK SMILES IDX 67 76 68 77 69 78 70 79 47 80 48 81 56 82 49 83 51 84 57 85
REMARK SMILES IDX 50 86 52 87 53 88 54 89 55 90
REMARK H PARENT 77 43 45 54
REMARK Flexibility Score: inf
ROOT
ATOM      1  C   UNL A   1      37.306  21.596  24.481  1.00  0.00     0.275 C 
ENDROOT
BRANCH   1   2
ATOM      2  C   UNL A   1      35.800  21.808  24.315  1.00  0.00     0.274 C 
BRANCH   2   3
ATOM      3  O   UNL A   1      35.093  20.754  24.991  1.00  0.00    -0.459 OA
BRANCH   3   4
ATOM      4  C   UNL A   1      34.043  21.088  25.783  1.00  0.00     0.347 C 
ATOM      5  O   UNL A   1      34.153  21.495  26.933  1.00  0.00    -0.248 OA
BRANCH   4   6
ATOM      6  C   UNL A   1      32.674  20.903  25.076  1.00  0.00     0.279 C 
ATOM      7  C   UNL A   1      32.654  19.611  24.260  1.00  0.00     0.066 C 
BRANCH   6   8
ATOM      8  O   UNL A   1      31.963  21.919  24.384  1.00  0.00    -0.477 OA
BRANCH   8   9
ATOM      9  C   UNL A   1      32.213  23.246  24.558  1.00  0.00     0.142 A 
ATOM     10  C   UNL A   1      32.423  29.609  26.177  1.00  0.00     0.052 C 
ATOM     11  C   UNL A   1      32.360  28.134  25.885  1.00  0.00     0.038 A 
ATOM     12  C   UNL A   1      32.892  27.505  24.814  1.00  0.00    -0.030 A 
ATOM     13  C   UNL A   1      31.619  27.385  26.942  1.00  0.00     0.339 A 
ATOM     14  C   UNL A   1      33.677  28.188  23.724  1.00  0.00     0.046 C 
ATOM     15  C   UNL A   1      32.698  26.047  24.683  1.00  0.00     0.023 A 
ATOM     16  O   UNL A   1      31.649  26.006  26.883  1.00  0.00    -0.422 OA
ATOM     17  O   UNL A   1      31.040  27.965  27.855  1.00  0.00    -0.246 OA
ATOM     18  C   UNL A   1      33.064  25.305  23.555  1.00  0.00     0.036 A 
ATOM     19  C   UNL A   1      32.118  25.348  25.736  1.00  0.00     0.142 A 
ATOM     20  C   UNL A   1      32.819  23.925  23.490  1.00  0.00     0.083 A 
ATOM     21  C   UNL A   1      31.909  23.967  25.707  1.00  0.00     0.096 A 
ATOM     22  Cl  UNL A   1      33.276  23.098  22.040  1.00  0.00    -0.080 Cl
ENDBRANCH   8   9
ENDBRANCH   6   8
ENDBRANCH   4   6
ENDBRANCH   3   4
ENDBRANCH   2   3
ENDBRANCH   1   2
BRANCH   1  23
ATOM     23  O   UNL A   1      37.621  21.285  25.847  1.00  0.00    -0.458 OA
BRANCH  23  24
ATOM     24  C   UNL A   1      38.941  21.117  26.124  1.00  0.00     0.338 C 
ATOM     25  O   UNL A   1      39.617  20.131  25.912  1.00  0.00    -0.246 OA
BRANCH  24  26
ATOM     26  C   UNL A   1      39.478  22.419  26.558  1.00  0.00     0.060 A 
ATOM     27  C   UNL A   1      38.888  23.615  26.141  1.00  0.00     0.016 A 
ATOM     28  C   UNL A   1      40.624  22.429  27.359  1.00  0.00     0.016 A 
ATOM     29  C   UNL A   1      39.478  24.828  26.495  1.00  0.00     0.010 A 
ATOM     30  C   UNL A   1      41.215  23.641  27.706  1.00  0.00     0.010 A 
ATOM     31  C   UNL A   1      40.655  24.846  27.260  1.00  0.00    -0.014 A 
BRANCH  31  32
ATOM     32  C   UNL A   1      41.299  26.130  27.609  1.00  0.00     0.031 A 
ATOM     33  C   UNL A   1      42.710  26.414  27.182  1.00  0.00     0.074 A 
ATOM     34  C   UNL A   1      40.613  27.025  28.342  1.00  0.00     0.049 A 
ATOM     35  N   UNL A   1      43.417  27.498  27.363  1.00  0.00    -0.248 NA
ATOM     36  C   UNL A   1      43.421  25.342  26.466  1.00  0.00     0.031 C 
ATOM     37  C   UNL A   1      39.260  26.824  28.864  1.00  0.00     0.029 A 
ATOM     38  N   UNL A   1      40.965  28.271  28.789  1.00  0.00    -0.354 N 
ATOM     39  C   UNL A   1      44.659  27.239  26.799  1.00  0.00     0.074 A 
ATOM     40  C   UNL A   1      44.617  25.888  26.282  1.00  0.00     0.031 C 
ATOM     41  C   UNL A   1      38.896  27.911  29.563  1.00  0.00     0.029 A 
ATOM     42  C   UNL A   1      39.991  28.878  29.542  1.00  0.00     0.049 A 
ATOM     43  H   UNL A   1      41.834  28.691  28.589  1.00  0.00     0.167 HD
ATOM     44  C   UNL A   1      45.728  28.064  26.701  1.00  0.00     0.034 A 
ATOM     45  C   UNL A   1      39.980  30.083  30.144  1.00  0.00     0.034 A 
ATOM     46  C   UNL A   1      45.750  29.417  27.188  1.00  0.00     0.049 A 
ATOM     47  C   UNL A   1      41.167  30.990  29.993  1.00  0.00     0.074 A 
ATOM     48  C   UNL A   1      46.755  30.360  27.056  1.00  0.00     0.029 A 
ATOM     49  N   UNL A   1      44.730  30.016  27.908  1.00  0.00    -0.354 N 
ATOM     50  N   UNL A   1      42.275  30.788  29.322  1.00  0.00    -0.248 NA
ATOM     51  C   UNL A   1      41.094  32.299  30.657  1.00  0.00     0.031 C 
ATOM     52  C   UNL A   1      46.343  31.530  27.703  1.00  0.00     0.029 A 
ATOM     53  C   UNL A   1      45.082  31.314  28.236  1.00  0.00     0.049 A 
ATOM     54  H   UNL A   1      43.879  29.583  28.149  1.00  0.00     0.167 HD
ATOM     55  C   UNL A   1      43.029  31.944  29.477  1.00  0.00     0.074 A 
ATOM     56  C   UNL A   1      42.239  32.855  30.281  1.00  0.00     0.031 C 
ATOM     57  C   UNL A   1      44.273  32.217  29.012  1.00  0.00     0.034 A 
BRANCH  44  58
ATOM     58  C   UNL A   1      46.942  27.560  25.974  1.00  0.00     0.023 A 
ATOM     59  C   UNL A   1      47.846  26.726  26.660  1.00  0.00     0.012 A 
ATOM     60  C   UNL A   1      47.139  27.822  24.605  1.00  0.00     0.148 A 
ATOM     61  C   UNL A   1      48.936  26.164  25.997  1.00  0.00     0.002 A 
ATOM     62  C   UNL A   1      48.214  27.240  23.944  1.00  0.00     0.091 A 
ATOM     63  F   UNL A   1      46.270  28.628  23.978  1.00  0.00    -0.205 F 
ATOM     64  C   UNL A   1      49.114  26.414  24.639  1.00  0.00     0.022 A 
BRANCH  62  65
ATOM     65  S   UNL A   1      48.514  27.454  22.185  1.00  0.00     0.127 S 
ATOM     66  O   UNL A   1      49.762  28.220  22.191  1.00  0.00    -0.237 OA
ATOM     67  O   UNL A   1      48.650  26.073  21.728  1.00  0.00    -0.237 OA
ATOM     68  O   UNL A   1      47.357  28.165  21.661  1.00  0.00    -0.744 OA
ENDBRANCH  62  65
ENDBRANCH  44  58
BRANCH  45  69
ATOM     69  C   UNL A   1      38.762  30.517  30.876  1.00  0.00     0.023 A 
ATOM     70  C   UNL A   1      38.703  30.342  32.271  1.00  0.00     0.012 A 
ATOM     71  C   UNL A   1      37.703  31.167  30.213  1.00  0.00     0.148 A 
ATOM     72  C   UNL A   1      37.604  30.801  32.996  1.00  0.00     0.002 A 
ATOM     73  C   UNL A   1      36.628  31.655  30.947  1.00  0.00     0.091 A 
ATOM     74  F   UNL A   1      37.785  31.316  28.884  1.00  0.00    -0.205 F 
ATOM     75  C   UNL A   1      36.573  31.464  32.337  1.00  0.00     0.022 A 
BRANCH  73  76
ATOM     76  S   UNL A   1      35.302  32.611  30.205  1.00  0.00     0.127 S 
ATOM     77  O   UNL A   1      34.399  32.799  31.338  1.00  0.00    -0.237 OA
ATOM     78  O   UNL A   1      36.009  33.818  29.774  1.00  0.00    -0.237 OA
ATOM     79  O   UNL A   1      34.782  31.794  29.118  1.00  0.00    -0.744 OA
ENDBRANCH  73  76
ENDBRANCH  45  69
BRANCH  57  80
ATOM     80  C   UNL A   1      44.877  33.543  29.378  1.00  0.00     0.023 A 
ATOM     81  C   UNL A   1      45.688  33.628  30.528  1.00  0.00     0.012 A 
ATOM     82  C   UNL A   1      44.726  34.670  28.549  1.00  0.00     0.148 A 
ATOM     83  C   UNL A   1      46.331  34.821  30.853  1.00  0.00     0.002 A 
ATOM     84  C   UNL A   1      45.395  35.847  28.862  1.00  0.00     0.091 A 
ATOM     85  F   UNL A   1      43.935  34.569  27.471  1.00  0.00    -0.205 F 
ATOM     86  C   UNL A   1      46.193  35.926  30.015  1.00  0.00     0.022 A 
BRANCH  84  87
ATOM     87  S   UNL A   1      45.337  37.299  27.805  1.00  0.00     0.127 S 
ATOM     88  O   UNL A   1      46.180  38.238  28.541  1.00  0.00    -0.237 OA
ATOM     89  O   UNL A   1      45.921  36.802  26.559  1.00  0.00    -0.237 OA
ATOM     90  O   UNL A   1      43.930  37.665  27.706  1.00  0.00    -0.744 OA
ENDBRANCH  84  87
ENDBRANCH  57  80
ENDBRANCH  31  32
ENDBRANCH  24  26
ENDBRANCH  23  24
ENDBRANCH   1  23
TORSDOF 16
ENDMDL
MODEL 3
REMARK VINA RESULT:     -12.2      5.078     10.171
REMARK SMILES Cc1c(C)c2cc(Cl)c(O[C@@H](C)C(=O)OCCOC(=O)c3ccc(-c4c5nc(c(-c6cccc(S(=O)(=O)[O-])c6F)c6ccc([nH]6)c(-c6cccc(S(=O)(=O)[O-])c6F)c6nc(c(-c7cccc(S(=O)(=O)[O-])c7F)c7ccc4[nH]7)C=C6)C=C5)cc3)cc2oc1=O
REMARK SMILES IDX 17 1 16 2 15 3 13 4 14 5 11 6 12 7 10 8 9 9 1 10 2 11 3 12
REMARK SMILES IDX 87 13 4 14 5 15 86 16 88 17 6 18 85 19 7 20 84 21 8 22 18 23
REMARK SMILES IDX 19 24 20 25 21 26 22 27 83 28 23 29 82 30 24 31 25 32 26 33
REMARK SMILES IDX 76 34 27 35 81 36 75 37 77 38 28 39 80 40 74 41 73 42 29 44
REMARK SMILES IDX 61 45 41 46 60 47 42 48 45 49 59 50 78 51 43 52 44 53 58 55
REMARK SMILES IDX 79 56 46 57 30 58 31 59 39 60 32 61 34 62 40 63 33 64 35 65
REMARK SMILES IDX 36 66 37 67 38 68 62 69 63 70 71 71 64 72 66 73 72 74 65 75
REMARK SMILES IDX 67 76 68 77 69 78 70 79 47 80 48 81 56 82 49 83 51 84 57 85
REMARK SMILES IDX 50 86 52 87 53 88 54 89 55 90
REMARK H PARENT 77 43 45 54
REMARK Flexibility Score: inf
ROOT
ATOM      1  C   UNL A   1      31.392  30.817  25.751  1.00  0.00     0.275 C 
ENDROOT
BRANCH   1   2
ATOM      2  C   UNL A   1      31.091  29.756  24.691  1.00  0.00     0.274 C 
BRANCH   2   3
ATOM      3  O   UNL A   1      31.665  28.501  25.096  1.00  0.00    -0.459 OA
BRANCH   3   4
ATOM      4  C   UNL A   1      30.866  27.404  25.116  1.00  0.00     0.347 C 
ATOM      5  O   UNL A   1      30.653  26.727  26.115  1.00  0.00    -0.248 OA
BRANCH   4   6
ATOM      6  C   UNL A   1      30.239  27.091  23.731  1.00  0.00     0.279 C 
ATOM      7  C   UNL A   1      28.768  26.703  23.876  1.00  0.00     0.066 C 
BRANCH   6   8
ATOM      8  O   UNL A   1      30.845  26.307  22.714  1.00  0.00    -0.477 OA
BRANCH   8   9
ATOM      9  C   UNL A   1      31.699  25.281  22.981  1.00  0.00     0.142 A 
ATOM     10  C   UNL A   1      34.888  19.905  25.001  1.00  0.00     0.052 C 
ATOM     11  C   UNL A   1      34.090  21.092  24.531  1.00  0.00     0.038 A 
ATOM     12  C   UNL A   1      34.585  22.233  24.004  1.00  0.00    -0.030 A 
ATOM     13  C   UNL A   1      32.622  20.882  24.703  1.00  0.00     0.339 A 
ATOM     14  C   UNL A   1      36.049  22.503  23.771  1.00  0.00     0.046 C 
ATOM     15  C   UNL A   1      33.640  23.304  23.627  1.00  0.00     0.023 A 
ATOM     16  O   UNL A   1      31.778  21.819  24.143  1.00  0.00    -0.422 OA
ATOM     17  O   UNL A   1      32.176  19.897  25.282  1.00  0.00    -0.246 OA
ATOM     18  C   UNL A   1      34.029  24.584  23.217  1.00  0.00     0.036 A 
ATOM     19  C   UNL A   1      32.275  23.045  23.676  1.00  0.00     0.142 A 
ATOM     20  C   UNL A   1      33.072  25.561  22.905  1.00  0.00     0.083 A 
ATOM     21  C   UNL A   1      31.310  23.992  23.324  1.00  0.00     0.096 A 
ATOM     22  Cl  UNL A   1      33.648  27.125  22.438  1.00  0.00    -0.080 Cl
ENDBRANCH   8   9
ENDBRANCH   6   8
ENDBRANCH   4   6
ENDBRANCH   3   4
ENDBRANCH   2   3
ENDBRANCH   1   2
BRANCH   1  23
ATOM     23  O   UNL A   1      32.689  30.595  26.328  1.00  0.00    -0.458 OA
BRANCH  23  24
ATOM     24  C   UNL A   1      33.204  31.633  27.038  1.00  0.00     0.338 C 
ATOM     25  O   UNL A   1      32.675  32.700  27.270  1.00  0.00    -0.246 OA
BRANCH  24  26
ATOM     26  C   UNL A   1      34.459  31.173  27.659  1.00  0.00     0.060 A 
ATOM     27  C   UNL A   1      34.668  29.821  27.942  1.00  0.00     0.016 A 
ATOM     28  C   UNL A   1      35.419  32.130  28.000  1.00  0.00     0.016 A 
ATOM     29  C   UNL A   1      35.828  29.434  28.614  1.00  0.00     0.010 A 
ATOM     30  C   UNL A   1      36.573  31.742  28.676  1.00  0.00     0.010 A 
ATOM     31  C   UNL A   1      36.774  30.394  29.002  1.00  0.00    -0.014 A 
BRANCH  31  32
ATOM     32  C   UNL A   1      37.988  29.989  29.742  1.00  0.00     0.031 A 
ATOM     33  C   UNL A   1      38.250  30.519  31.122  1.00  0.00     0.074 A 
ATOM     34  C   UNL A   1      38.870  29.167  29.146  1.00  0.00     0.049 A 
ATOM     35  N   UNL A   1      39.237  30.241  31.931  1.00  0.00    -0.248 NA
ATOM     36  C   UNL A   1      37.283  31.490  31.661  1.00  0.00     0.031 C 
ATOM     37  C   UNL A   1      38.746  28.646  27.784  1.00  0.00     0.029 A 
ATOM     38  N   UNL A   1      40.050  28.641  29.602  1.00  0.00    -0.354 N 
ATOM     39  C   UNL A   1      39.024  31.009  33.069  1.00  0.00     0.074 A 
ATOM     40  C   UNL A   1      37.820  31.777  32.841  1.00  0.00     0.031 C 
ATOM     41  C   UNL A   1      39.811  27.874  27.514  1.00  0.00     0.029 A 
ATOM     42  C   UNL A   1      40.691  27.852  28.679  1.00  0.00     0.049 A 
ATOM     43  H   UNL A   1      40.404  28.813  30.506  1.00  0.00     0.167 HD
ATOM     44  C   UNL A   1      39.754  31.047  34.208  1.00  0.00     0.034 A 
ATOM     45  C   UNL A   1      41.856  27.182  28.766  1.00  0.00     0.034 A 
ATOM     46  C   UNL A   1      40.931  30.254  34.439  1.00  0.00     0.049 A 
ATOM     47  C   UNL A   1      42.630  27.219  30.051  1.00  0.00     0.074 A 
ATOM     48  C   UNL A   1      41.688  30.159  35.594  1.00  0.00     0.029 A 
ATOM     49  N   UNL A   1      41.530  29.432  33.499  1.00  0.00    -0.354 N 
ATOM     50  N   UNL A   1      42.331  27.828  31.173  1.00  0.00    -0.248 NA
ATOM     51  C   UNL A   1      43.886  26.457  30.095  1.00  0.00     0.031 C 
ATOM     52  C   UNL A   1      42.749  29.280  35.349  1.00  0.00     0.029 A 
ATOM     53  C   UNL A   1      42.652  28.830  34.042  1.00  0.00     0.049 A 
ATOM     54  H   UNL A   1      41.204  29.295  32.580  1.00  0.00     0.167 HD
ATOM     55  C   UNL A   1      43.356  27.519  32.058  1.00  0.00     0.074 A 
ATOM     56  C   UNL A   1      44.270  26.644  31.352  1.00  0.00     0.031 C 
ATOM     57  C   UNL A   1      43.534  27.940  33.334  1.00  0.00     0.034 A 
BRANCH  44  58
ATOM     58  C   UNL A   1      39.264  31.919  35.329  1.00  0.00     0.023 A 
ATOM     59  C   UNL A   1      38.333  31.389  36.243  1.00  0.00     0.012 A 
ATOM     60  C   UNL A   1      39.789  33.208  35.538  1.00  0.00     0.148 A 
ATOM     61  C   UNL A   1      37.922  32.133  37.348  1.00  0.00     0.002 A 
ATOM     62  C   UNL A   1      39.394  33.935  36.655  1.00  0.00     0.091 A 
ATOM     63  F   UNL A   1      40.666  33.693  34.648  1.00  0.00    -0.205 F 
ATOM     64  C   UNL A   1      38.458  33.401  37.558  1.00  0.00     0.022 A 
BRANCH  62  65
ATOM     65  S   UNL A   1      40.054  35.559  37.051  1.00  0.00     0.127 S 
ATOM     66  O   UNL A   1      39.653  36.335  35.876  1.00  0.00    -0.237 OA
ATOM     67  O   UNL A   1      39.331  35.892  38.277  1.00  0.00    -0.237 OA
ATOM     68  O   UNL A   1      41.490  35.383  37.212  1.00  0.00    -0.744 OA
ENDBRANCH  62  65
ENDBRANCH  44  58
BRANCH  45  69
ATOM     69  C   UNL A   1      42.307  26.360  27.613  1.00  0.00     0.023 A 
ATOM     70  C   UNL A   1      43.204  26.918  26.683  1.00  0.00     0.012 A 
ATOM     71  C   UNL A   1      41.916  25.014  27.478  1.00  0.00     0.148 A 
ATOM     72  C   UNL A   1      43.700  26.151  25.630  1.00  0.00     0.002 A 
ATOM     73  C   UNL A   1      42.443  24.245  26.447  1.00  0.00     0.091 A 
ATOM     74  F   UNL A   1      41.058  24.511  28.376  1.00  0.00    -0.205 F 
ATOM     75  C   UNL A   1      43.327  24.815  25.517  1.00  0.00     0.022 A 
BRANCH  73  76
ATOM     76  S   UNL A   1      42.105  22.490  26.277  1.00  0.00     0.127 S 
ATOM     77  O   UNL A   1      40.647  22.475  26.172  1.00  0.00    -0.237 OA
ATOM     78  O   UNL A   1      42.815  22.168  25.039  1.00  0.00    -0.237 OA
ATOM     79  O   UNL A   1      42.653  21.862  27.471  1.00  0.00    -0.744 OA
ENDBRANCH  73  76
ENDBRANCH  45  69
BRANCH  57  80
ATOM     80  C   UNL A   1      44.775  27.486  34.051  1.00  0.00     0.023 A 
ATOM     81  C   UNL A   1      45.912  28.319  34.038  1.00  0.00     0.012 A 
ATOM     82  C   UNL A   1      44.791  26.299  34.806  1.00  0.00     0.148 A 
ATOM     83  C   UNL A   1      47.052  27.969  34.758  1.00  0.00     0.002 A 
ATOM     84  C   UNL A   1      45.920  25.972  35.547  1.00  0.00     0.091 A 
ATOM     85  F   UNL A   1      43.703  25.514  34.787  1.00  0.00    -0.205 F 
ATOM     86  C   UNL A   1      47.053  26.803  35.521  1.00  0.00     0.022 A 
BRANCH  84  87
ATOM     87  S   UNL A   1      45.987  24.529  36.615  1.00  0.00     0.127 S 
ATOM     88  O   UNL A   1      47.337  24.627  37.165  1.00  0.00    -0.237 OA
ATOM     89  O   UNL A   1      44.916  24.799  37.574  1.00  0.00    -0.237 OA
ATOM     90  O   UNL A   1      45.746  23.380  35.751  1.00  0.00    -0.744 OA
ENDBRANCH  84  87
ENDBRANCH  57  80
ENDBRANCH  31  32
ENDBRANCH  24  26
ENDBRANCH  23  24
ENDBRANCH   1  23
TORSDOF 16
ENDMDL
