MODEL 1
REMARK VINA RESULT:     -11.3      0.000      0.000
REMARK SMILES CCC(C)(C)[C@@H]1CCc2c(sc(=O)n2CCCC(=O)OCCOC(=O)c2ccc(-c3c4nc(c(-c5cccc(S(=O)(=O)[O-])c5F)c5ccc([nH]5)c(-c5cccc(S(=O)(=O)[O-])c5F)c5nc(c(-c6cccc(S(=O)(=O)[O-])c6F)c6ccc3[nH]6)C=C5)C=C4)cc2)C1
REMARK SMILES IDX 21 1 20 2 18 3 19 4 17 5 16 6 15 7 14 8 6 9 7 10 89 11 8 12
REMARK SMILES IDX 10 13 9 14 11 15 12 16 13 17 3 18 4 19 5 20 2 21 1 22 22 23
REMARK SMILES IDX 23 24 24 25 25 26 26 27 27 28 88 29 28 30 87 31 29 32 30 33
REMARK SMILES IDX 31 34 81 35 32 36 86 37 80 38 82 39 33 40 85 41 79 42 78 43
REMARK SMILES IDX 34 45 66 46 46 47 65 48 47 49 50 50 64 51 83 52 48 53 49 54
REMARK SMILES IDX 63 56 84 57 51 58 35 59 36 60 44 61 37 62 39 63 45 64 38 65
REMARK SMILES IDX 40 66 41 67 42 68 43 69 67 70 68 71 76 72 69 73 71 74 77 75
REMARK SMILES IDX 70 76 72 77 73 78 74 79 75 80 52 81 53 82 61 83 54 84 56 85
REMARK SMILES IDX 62 86 55 87 57 88 58 89 59 90 60 91
REMARK H PARENT 82 44 50 55
REMARK Flexibility Score: inf
ROOT
ATOM      1  C   UNL A   1      36.120  21.226  25.336  1.00  0.00     0.274 C 
ENDROOT
BRANCH   1   2
ATOM      2  O   UNL A   1      34.948  20.508  24.919  1.00  0.00    -0.462 OA
BRANCH   2   3
ATOM      3  C   UNL A   1      33.726  21.043  25.144  1.00  0.00     0.305 C 
ATOM      4  O   UNL A   1      33.358  21.513  26.215  1.00  0.00    -0.252 OA
BRANCH   3   5
ATOM      5  C   UNL A   1      32.819  20.988  23.923  1.00  0.00     0.124 C 
BRANCH   5   6
ATOM      6  C   UNL A   1      32.960  22.049  22.828  1.00  0.00     0.034 C 
BRANCH   6   7
ATOM      7  C   UNL A   1      33.498  23.426  23.215  1.00  0.00     0.127 C 
BRANCH   7   8
ATOM      8  N   UNL A   1      32.571  24.518  22.933  1.00  0.00    -0.303 N 
ATOM      9  C   UNL A   1      30.648  26.816  25.839  1.00  0.00     0.000 C 
ATOM     10  C   UNL A   1      30.676  25.298  26.164  1.00  0.00     0.011 C 
ATOM     11  C   UNL A   1      30.191  26.948  24.360  1.00  0.00     0.053 C 
ATOM     12  C   UNL A   1      31.640  24.497  25.288  1.00  0.00     0.055 C 
ATOM     13  C   UNL A   1      30.984  26.066  23.461  1.00  0.00     0.030 A 
ATOM     14  C   UNL A   1      31.679  24.998  23.877  1.00  0.00     0.035 A 
ATOM     15  S   UNL A   1      31.350  26.499  21.830  1.00  0.00    -0.079 S 
ATOM     16  C   UNL A   1      32.621  25.273  21.764  1.00  0.00     0.307 A 
ATOM     17  O   UNL A   1      33.378  25.202  20.808  1.00  0.00    -0.257 OA
BRANCH   9  18
ATOM     18  C   UNL A   1      31.947  27.651  26.239  1.00  0.00    -0.032 C 
ATOM     19  C   UNL A   1      33.274  26.859  26.234  1.00  0.00     0.011 C 
ATOM     20  C   UNL A   1      31.807  28.258  27.659  1.00  0.00     0.011 C 
BRANCH  18  21
ATOM     21  C   UNL A   1      32.108  28.880  25.282  1.00  0.00     0.003 C 
ATOM     22  C   UNL A   1      31.734  30.249  25.832  1.00  0.00     0.004 C 
ENDBRANCH  18  21
ENDBRANCH   9  18
ENDBRANCH   7   8
ENDBRANCH   6   7
ENDBRANCH   5   6
ENDBRANCH   3   5
ENDBRANCH   2   3
ENDBRANCH   1   2
BRANCH   1  23
ATOM     23  C   UNL A   1      37.360  20.487  24.867  1.00  0.00     0.275 C 
BRANCH  23  24
ATOM     24  O   UNL A   1      38.500  21.062  25.490  1.00  0.00    -0.458 OA
BRANCH  24  25
ATOM     25  C   UNL A   1      39.547  20.225  25.651  1.00  0.00     0.338 C 
ATOM     26  O   UNL A   1      39.578  19.025  25.434  1.00  0.00    -0.246 OA
BRANCH  25  27
ATOM     27  C   UNL A   1      40.635  20.956  26.292  1.00  0.00     0.060 A 
ATOM     28  C   UNL A   1      40.816  20.773  27.666  1.00  0.00     0.016 A 
ATOM     29  C   UNL A   1      41.181  22.038  25.593  1.00  0.00     0.016 A 
ATOM     30  C   UNL A   1      41.334  21.823  28.385  1.00  0.00     0.010 A 
ATOM     31  C   UNL A   1      41.680  23.086  26.309  1.00  0.00     0.010 A 
ATOM     32  C   UNL A   1      41.644  23.001  27.696  1.00  0.00    -0.014 A 
BRANCH  32  33
ATOM     33  C   UNL A   1      42.004  24.174  28.449  1.00  0.00     0.031 A 
ATOM     34  C   UNL A   1      40.993  25.240  28.318  1.00  0.00     0.074 A 
ATOM     35  C   UNL A   1      43.068  24.182  29.273  1.00  0.00     0.049 A 
ATOM     36  N   UNL A   1      41.109  26.340  27.654  1.00  0.00    -0.248 NA
ATOM     37  C   UNL A   1      39.625  24.951  28.775  1.00  0.00     0.031 C 
ATOM     38  C   UNL A   1      43.925  23.059  29.673  1.00  0.00     0.029 A 
ATOM     39  N   UNL A   1      43.516  25.193  30.055  1.00  0.00    -0.354 N 
ATOM     40  C   UNL A   1      39.901  26.999  27.847  1.00  0.00     0.074 A 
ATOM     41  C   UNL A   1      38.964  26.010  28.305  1.00  0.00     0.031 C 
ATOM     42  C   UNL A   1      44.588  23.393  30.807  1.00  0.00     0.029 A 
ATOM     43  C   UNL A   1      44.305  24.782  31.124  1.00  0.00     0.049 A 
ATOM     44  H   UNL A   1      43.301  26.139  29.883  1.00  0.00     0.167 HD
ATOM     45  C   UNL A   1      39.854  28.356  27.918  1.00  0.00     0.034 A 
ATOM     46  C   UNL A   1      44.596  25.521  32.225  1.00  0.00     0.034 A 
ATOM     47  C   UNL A   1      41.076  28.948  27.434  1.00  0.00     0.049 A 
ATOM     48  C   UNL A   1      44.344  26.942  31.874  1.00  0.00     0.074 A 
ATOM     49  C   UNL A   1      41.766  28.923  26.237  1.00  0.00     0.029 A 
ATOM     50  N   UNL A   1      41.978  29.356  28.387  1.00  0.00    -0.354 N 
ATOM     51  N   UNL A   1      45.038  27.590  30.981  1.00  0.00    -0.248 NA
ATOM     52  C   UNL A   1      43.021  27.482  32.154  1.00  0.00     0.031 C 
ATOM     53  C   UNL A   1      43.141  28.859  26.611  1.00  0.00     0.029 A 
ATOM     54  C   UNL A   1      43.219  28.922  28.003  1.00  0.00     0.049 A 
ATOM     55  H   UNL A   1      41.769  29.869  29.202  1.00  0.00     0.167 HD
ATOM     56  C   UNL A   1      44.088  28.304  30.260  1.00  0.00     0.074 A 
ATOM     57  C   UNL A   1      42.882  28.278  31.087  1.00  0.00     0.031 C 
ATOM     58  C   UNL A   1      44.271  28.578  28.934  1.00  0.00     0.034 A 
BRANCH  45  59
ATOM     59  C   UNL A   1      38.904  29.131  28.795  1.00  0.00     0.023 A 
ATOM     60  C   UNL A   1      38.270  30.250  28.213  1.00  0.00     0.012 A 
ATOM     61  C   UNL A   1      38.823  29.004  30.201  1.00  0.00     0.148 A 
ATOM     62  C   UNL A   1      37.644  31.223  28.995  1.00  0.00     0.002 A 
ATOM     63  C   UNL A   1      38.132  29.932  30.968  1.00  0.00     0.091 A 
ATOM     64  F   UNL A   1      39.528  28.064  30.836  1.00  0.00    -0.205 F 
ATOM     65  C   UNL A   1      37.570  31.062  30.373  1.00  0.00     0.022 A 
BRANCH  63  66
ATOM     66  S   UNL A   1      37.977  29.757  32.750  1.00  0.00     0.127 S 
ATOM     67  O   UNL A   1      37.089  30.869  33.075  1.00  0.00    -0.237 OA
ATOM     68  O   UNL A   1      37.377  28.428  32.866  1.00  0.00    -0.237 OA
ATOM     69  O   UNL A   1      39.334  29.847  33.274  1.00  0.00    -0.744 OA
ENDBRANCH  63  66
ENDBRANCH  45  59
BRANCH  46  70
ATOM     70  C   UNL A   1      44.744  25.084  33.636  1.00  0.00     0.023 A 
ATOM     71  C   UNL A   1      43.660  24.472  34.298  1.00  0.00     0.012 A 
ATOM     72  C   UNL A   1      46.021  24.998  34.234  1.00  0.00     0.148 A 
ATOM     73  C   UNL A   1      43.847  23.774  35.500  1.00  0.00     0.002 A 
ATOM     74  C   UNL A   1      46.202  24.307  35.429  1.00  0.00     0.091 A 
ATOM     75  F   UNL A   1      47.073  25.513  33.583  1.00  0.00    -0.205 F 
ATOM     76  C   UNL A   1      45.119  23.685  36.060  1.00  0.00     0.022 A 
BRANCH  74  77
ATOM     77  S   UNL A   1      47.819  24.119  36.194  1.00  0.00     0.127 S 
ATOM     78  O   UNL A   1      47.476  23.501  37.476  1.00  0.00    -0.237 OA
ATOM     79  O   UNL A   1      48.499  23.234  35.251  1.00  0.00    -0.237 OA
ATOM     80  O   UNL A   1      48.368  25.464  36.305  1.00  0.00    -0.744 OA
ENDBRANCH  74  77
ENDBRANCH  46  70
BRANCH  58  81
ATOM     81  C   UNL A   1      45.623  28.286  28.331  1.00  0.00     0.023 A 
ATOM     82  C   UNL A   1      46.726  29.156  28.472  1.00  0.00     0.012 A 
ATOM     83  C   UNL A   1      45.825  27.020  27.761  1.00  0.00     0.148 A 
ATOM     84  C   UNL A   1      47.998  28.775  28.030  1.00  0.00     0.002 A 
ATOM     85  C   UNL A   1      47.097  26.629  27.366  1.00  0.00     0.091 A 
ATOM     86  F   UNL A   1      44.766  26.204  27.644  1.00  0.00    -0.205 F 
ATOM     87  C   UNL A   1      48.185  27.506  27.489  1.00  0.00     0.022 A 
BRANCH  85  88
ATOM     88  S   UNL A   1      47.420  24.967  26.778  1.00  0.00     0.127 S 
ATOM     89  O   UNL A   1      46.934  25.030  25.402  1.00  0.00    -0.237 OA
ATOM     90  O   UNL A   1      48.875  24.865  26.910  1.00  0.00    -0.237 OA
ATOM     91  O   UNL A   1      46.681  24.075  27.664  1.00  0.00    -0.744 OA
ENDBRANCH  85  88
ENDBRANCH  58  81
ENDBRANCH  32  33
ENDBRANCH  25  27
ENDBRANCH  24  25
ENDBRANCH  23  24
ENDBRANCH   1  23
TORSDOF 19
ENDMDL
MODEL 2
REMARK VINA RESULT:     -10.9      3.158      7.672
REMARK SMILES CCC(C)(C)[C@@H]1CCc2c(sc(=O)n2CCCC(=O)OCCOC(=O)c2ccc(-c3c4nc(c(-c5cccc(S(=O)(=O)[O-])c5F)c5ccc([nH]5)c(-c5cccc(S(=O)(=O)[O-])c5F)c5nc(c(-c6cccc(S(=O)(=O)[O-])c6F)c6ccc3[nH]6)C=C5)C=C4)cc2)C1
REMARK SMILES IDX 21 1 20 2 18 3 19 4 17 5 16 6 15 7 14 8 6 9 7 10 89 11 8 12
REMARK SMILES IDX 10 13 9 14 11 15 12 16 13 17 3 18 4 19 5 20 2 21 1 22 22 23
REMARK SMILES IDX 23 24 24 25 25 26 26 27 27 28 88 29 28 30 87 31 29 32 30 33
REMARK SMILES IDX 31 34 81 35 32 36 86 37 80 38 82 39 33 40 85 41 79 42 78 43
REMARK SMILES IDX 34 45 66 46 46 47 65 48 47 49 50 50 64 51 83 52 48 53 49 54
REMARK SMILES IDX 63 56 84 57 51 58 35 59 36 60 44 61 37 62 39 63 45 64 38 65
REMARK SMILES IDX 40 66 41 67 42 68 43 69 67 70 68 71 76 72 69 73 71 74 77 75
REMARK SMILES IDX 70 76 72 77 73 78 74 79 75 80 52 81 53 82 61 83 54 84 56 85
REMARK SMILES IDX 62 86 55 87 57 88 58 89 59 90 60 91
REMARK H PARENT 82 44 50 55
REMARK Flexibility Score: inf
ROOT
ATOM      1  C   UNL A   1      33.608  30.557  27.566  1.00  0.00     0.274 C 
ENDROOT
BRANCH   1   2
ATOM      2  O   UNL A   1      32.988  30.653  26.273  1.00  0.00    -0.462 OA
BRANCH   2   3
ATOM      3  C   UNL A   1      31.985  29.802  25.953  1.00  0.00     0.305 C 
ATOM      4  O   UNL A   1      31.184  29.982  25.043  1.00  0.00    -0.252 OA
BRANCH   3   5
ATOM      5  C   UNL A   1      31.928  28.583  26.861  1.00  0.00     0.124 C 
BRANCH   5   6
ATOM      6  C   UNL A   1      32.584  27.274  26.413  1.00  0.00     0.034 C 
BRANCH   6   7
ATOM      7  C   UNL A   1      33.760  27.347  25.439  1.00  0.00     0.127 C 
BRANCH   7   8
ATOM      8  N   UNL A   1      33.616  26.472  24.279  1.00  0.00    -0.303 N 
ATOM      9  C   UNL A   1      34.168  22.335  24.336  1.00  0.00     0.000 C 
ATOM     10  C   UNL A   1      35.238  23.116  25.144  1.00  0.00     0.011 C 
ATOM     11  C   UNL A   1      34.033  23.051  22.964  1.00  0.00     0.053 C 
ATOM     12  C   UNL A   1      34.873  24.581  25.398  1.00  0.00     0.055 C 
ATOM     13  C   UNL A   1      33.836  24.517  23.128  1.00  0.00     0.030 A 
ATOM     14  C   UNL A   1      34.161  25.200  24.235  1.00  0.00     0.035 A 
ATOM     15  S   UNL A   1      32.884  25.451  22.031  1.00  0.00    -0.079 S 
ATOM     16  C   UNL A   1      32.787  26.772  23.200  1.00  0.00     0.307 A 
ATOM     17  O   UNL A   1      32.063  27.735  23.003  1.00  0.00    -0.257 OA
BRANCH   9  18
ATOM     18  C   UNL A   1      32.798  22.022  25.090  1.00  0.00    -0.032 C 
ATOM     19  C   UNL A   1      32.760  22.408  26.587  1.00  0.00     0.011 C 
ATOM     20  C   UNL A   1      32.454  20.511  25.022  1.00  0.00     0.011 C 
BRANCH  18  21
ATOM     21  C   UNL A   1      31.612  22.746  24.368  1.00  0.00     0.003 C 
ATOM     22  C   UNL A   1      30.793  23.732  25.186  1.00  0.00     0.004 C 
ENDBRANCH  18  21
ENDBRANCH   9  18
ENDBRANCH   7   8
ENDBRANCH   6   7
ENDBRANCH   5   6
ENDBRANCH   3   5
ENDBRANCH   2   3
ENDBRANCH   1   2
BRANCH   1  23
ATOM     23  C   UNL A   1      34.391  31.826  27.846  1.00  0.00     0.275 C 
BRANCH  23  24
ATOM     24  O   UNL A   1      35.780  31.531  27.790  1.00  0.00    -0.458 OA
BRANCH  24  25
ATOM     25  C   UNL A   1      36.573  32.373  28.487  1.00  0.00     0.338 C 
ATOM     26  O   UNL A   1      36.666  33.582  28.358  1.00  0.00    -0.246 OA
BRANCH  25  27
ATOM     27  C   UNL A   1      37.450  31.584  29.344  1.00  0.00     0.060 A 
ATOM     28  C   UNL A   1      38.610  32.200  29.825  1.00  0.00     0.016 A 
ATOM     29  C   UNL A   1      37.277  30.195  29.337  1.00  0.00     0.016 A 
ATOM     30  C   UNL A   1      39.703  31.402  30.062  1.00  0.00     0.010 A 
ATOM     31  C   UNL A   1      38.367  29.406  29.557  1.00  0.00     0.010 A 
ATOM     32  C   UNL A   1      39.583  30.031  29.807  1.00  0.00    -0.014 A 
BRANCH  32  33
ATOM     33  C   UNL A   1      40.762  29.207  29.861  1.00  0.00     0.031 A 
ATOM     34  C   UNL A   1      41.135  28.875  31.249  1.00  0.00     0.074 A 
ATOM     35  C   UNL A   1      41.324  28.708  28.743  1.00  0.00     0.049 A 
ATOM     36  N   UNL A   1      42.135  29.342  31.915  1.00  0.00    -0.248 NA
ATOM     37  C   UNL A   1      40.162  28.128  32.062  1.00  0.00     0.031 C 
ATOM     38  C   UNL A   1      40.820  28.755  27.366  1.00  0.00     0.029 A 
ATOM     39  N   UNL A   1      42.412  27.909  28.637  1.00  0.00    -0.354 N 
ATOM     40  C   UNL A   1      42.056  28.721  33.156  1.00  0.00     0.074 A 
ATOM     41  C   UNL A   1      40.716  28.211  33.272  1.00  0.00     0.031 C 
ATOM     42  C   UNL A   1      41.443  27.798  26.636  1.00  0.00     0.029 A 
ATOM     43  C   UNL A   1      42.470  27.178  27.456  1.00  0.00     0.049 A 
ATOM     44  H   UNL A   1      43.103  27.849  29.336  1.00  0.00     0.167 HD
ATOM     45  C   UNL A   1      43.182  28.403  33.847  1.00  0.00     0.034 A 
ATOM     46  C   UNL A   1      43.242  26.082  27.237  1.00  0.00     0.034 A 
ATOM     47  C   UNL A   1      44.334  29.083  33.311  1.00  0.00     0.049 A 
ATOM     48  C   UNL A   1      44.318  26.098  28.261  1.00  0.00     0.074 A 
ATOM     49  C   UNL A   1      44.688  30.405  33.124  1.00  0.00     0.029 A 
ATOM     50  N   UNL A   1      45.149  28.348  32.483  1.00  0.00    -0.354 N 
ATOM     51  N   UNL A   1      45.243  27.015  28.309  1.00  0.00    -0.248 NA
ATOM     52  C   UNL A   1      44.075  25.386  29.507  1.00  0.00     0.031 C 
ATOM     53  C   UNL A   1      45.357  30.429  31.865  1.00  0.00     0.029 A 
ATOM     54  C   UNL A   1      45.439  29.119  31.389  1.00  0.00     0.049 A 
ATOM     55  H   UNL A   1      45.467  27.430  32.648  1.00  0.00     0.167 HD
ATOM     56  C   UNL A   1      45.354  27.320  29.660  1.00  0.00     0.074 A 
ATOM     57  C   UNL A   1      44.687  26.219  30.356  1.00  0.00     0.031 C 
ATOM     58  C   UNL A   1      45.695  28.577  30.073  1.00  0.00     0.034 A 
BRANCH  45  59
ATOM     59  C   UNL A   1      43.330  27.182  34.720  1.00  0.00     0.023 A 
ATOM     60  C   UNL A   1      43.493  27.406  36.103  1.00  0.00     0.012 A 
ATOM     61  C   UNL A   1      43.605  25.880  34.240  1.00  0.00     0.148 A 
ATOM     62  C   UNL A   1      43.966  26.403  36.954  1.00  0.00     0.002 A 
ATOM     63  C   UNL A   1      43.999  24.866  35.102  1.00  0.00     0.091 A 
ATOM     64  F   UNL A   1      43.627  25.635  32.928  1.00  0.00    -0.205 F 
ATOM     65  C   UNL A   1      44.214  25.130  36.455  1.00  0.00     0.022 A 
BRANCH  63  66
ATOM     66  S   UNL A   1      44.301  23.194  34.516  1.00  0.00     0.127 S 
ATOM     67  O   UNL A   1      43.028  22.875  33.877  1.00  0.00    -0.237 OA
ATOM     68  O   UNL A   1      45.423  23.398  33.601  1.00  0.00    -0.237 OA
ATOM     69  O   UNL A   1      44.634  22.416  35.703  1.00  0.00    -0.744 OA
ENDBRANCH  63  66
ENDBRANCH  45  59
BRANCH  46  70
ATOM     70  C   UNL A   1      42.936  24.862  26.450  1.00  0.00     0.023 A 
ATOM     71  C   UNL A   1      43.853  24.402  25.484  1.00  0.00     0.012 A 
ATOM     72  C   UNL A   1      41.895  23.992  26.845  1.00  0.00     0.148 A 
ATOM     73  C   UNL A   1      43.755  23.109  24.951  1.00  0.00     0.002 A 
ATOM     74  C   UNL A   1      41.799  22.709  26.311  1.00  0.00     0.091 A 
ATOM     75  F   UNL A   1      41.058  24.387  27.813  1.00  0.00    -0.205 F 
ATOM     76  C   UNL A   1      42.733  22.260  25.371  1.00  0.00     0.022 A 
BRANCH  74  77
ATOM     77  S   UNL A   1      40.529  21.546  26.831  1.00  0.00     0.127 S 
ATOM     78  O   UNL A   1      40.870  20.358  26.045  1.00  0.00    -0.237 OA
ATOM     79  O   UNL A   1      40.794  21.428  28.262  1.00  0.00    -0.237 OA
ATOM     80  O   UNL A   1      39.256  22.156  26.473  1.00  0.00    -0.744 OA
ENDBRANCH  74  77
ENDBRANCH  46  70
BRANCH  58  81
ATOM     81  C   UNL A   1      46.166  29.560  29.030  1.00  0.00     0.023 A 
ATOM     82  C   UNL A   1      47.488  29.573  28.534  1.00  0.00     0.012 A 
ATOM     83  C   UNL A   1      45.203  30.372  28.413  1.00  0.00     0.148 A 
ATOM     84  C   UNL A   1      47.842  30.396  27.459  1.00  0.00     0.002 A 
ATOM     85  C   UNL A   1      45.547  31.153  27.318  1.00  0.00     0.091 A 
ATOM     86  F   UNL A   1      43.950  30.339  28.892  1.00  0.00    -0.205 F 
ATOM     87  C   UNL A   1      46.867  31.176  26.844  1.00  0.00     0.022 A 
BRANCH  85  88
ATOM     88  S   UNL A   1      44.312  32.081  26.410  1.00  0.00     0.127 S 
ATOM     89  O   UNL A   1      45.082  32.584  25.274  1.00  0.00    -0.237 OA
ATOM     90  O   UNL A   1      43.327  31.050  26.075  1.00  0.00    -0.237 OA
ATOM     91  O   UNL A   1      43.815  33.099  27.329  1.00  0.00    -0.744 OA
ENDBRANCH  85  88
ENDBRANCH  58  81
ENDBRANCH  32  33
ENDBRANCH  25  27
ENDBRANCH  24  25
ENDBRANCH  23  24
ENDBRANCH   1  23
TORSDOF 19
ENDMDL
MODEL 3
REMARK VINA RESULT:     -10.9      3.326      7.376
REMARK SMILES CCC(C)(C)[C@@H]1CCc2c(sc(=O)n2CCCC(=O)OCCOC(=O)c2ccc(-c3c4nc(c(-c5cccc(S(=O)(=O)[O-])c5F)c5ccc([nH]5)c(-c5cccc(S(=O)(=O)[O-])c5F)c5nc(c(-c6cccc(S(=O)(=O)[O-])c6F)c6ccc3[nH]6)C=C5)C=C4)cc2)C1
REMARK SMILES IDX 21 1 20 2 18 3 19 4 17 5 16 6 15 7 14 8 6 9 7 10 89 11 8 12
REMARK SMILES IDX 10 13 9 14 11 15 12 16 13 17 3 18 4 19 5 20 2 21 1 22 22 23
REMARK SMILES IDX 23 24 24 25 25 26 26 27 27 28 88 29 28 30 87 31 29 32 30 33
REMARK SMILES IDX 31 34 81 35 32 36 86 37 80 38 82 39 33 40 85 41 79 42 78 43
REMARK SMILES IDX 34 45 66 46 46 47 65 48 47 49 50 50 64 51 83 52 48 53 49 54
REMARK SMILES IDX 63 56 84 57 51 58 35 59 36 60 44 61 37 62 39 63 45 64 38 65
REMARK SMILES IDX 40 66 41 67 42 68 43 69 67 70 68 71 76 72 69 73 71 74 77 75
REMARK SMILES IDX 70 76 72 77 73 78 74 79 75 80 52 81 53 82 61 83 54 84 56 85
REMARK SMILES IDX 62 86 55 87 57 88 58 89 59 90 60 91
REMARK H PARENT 82 44 50 55
REMARK Flexibility Score: inf
ROOT
ATOM      1  C   UNL A   1      32.233  29.609  26.772  1.00  0.00     0.274 C 
ENDROOT
BRANCH   1   2
ATOM      2  O   UNL A   1      31.789  28.695  25.757  1.00  0.00    -0.462 OA
BRANCH   2   3
ATOM      3  C   UNL A   1      31.199  29.179  24.639  1.00  0.00     0.305 C 
ATOM      4  O   UNL A   1      30.630  30.263  24.566  1.00  0.00    -0.252 OA
BRANCH   3   5
ATOM      5  C   UNL A   1      31.289  28.224  23.458  1.00  0.00     0.124 C 
BRANCH   5   6
ATOM      6  C   UNL A   1      31.678  26.762  23.695  1.00  0.00     0.034 C 
BRANCH   6   7
ATOM      7  C   UNL A   1      30.597  25.691  23.552  1.00  0.00     0.127 C 
BRANCH   7   8
ATOM      8  N   UNL A   1      30.696  24.622  24.542  1.00  0.00    -0.303 N 
ATOM      9  C   UNL A   1      33.170  21.279  24.194  1.00  0.00     0.000 C 
ATOM     10  C   UNL A   1      32.440  21.652  22.876  1.00  0.00     0.011 C 
ATOM     11  C   UNL A   1      32.100  21.301  25.320  1.00  0.00     0.053 C 
ATOM     12  C   UNL A   1      31.794  23.038  22.900  1.00  0.00     0.055 C 
ATOM     13  C   UNL A   1      31.314  22.565  25.303  1.00  0.00     0.030 A 
ATOM     14  C   UNL A   1      31.216  23.375  24.240  1.00  0.00     0.035 A 
ATOM     15  S   UNL A   1      30.693  23.287  26.744  1.00  0.00    -0.079 S 
ATOM     16  C   UNL A   1      30.437  24.816  25.897  1.00  0.00     0.307 A 
ATOM     17  O   UNL A   1      30.107  25.824  26.503  1.00  0.00    -0.257 OA
BRANCH   9  18
ATOM     18  C   UNL A   1      34.520  22.071  24.507  1.00  0.00    -0.032 C 
ATOM     19  C   UNL A   1      35.030  22.988  23.372  1.00  0.00     0.011 C 
ATOM     20  C   UNL A   1      35.680  21.094  24.832  1.00  0.00     0.011 C 
BRANCH  18  21
ATOM     21  C   UNL A   1      34.342  22.941  25.797  1.00  0.00     0.003 C 
ATOM     22  C   UNL A   1      34.526  24.444  25.656  1.00  0.00     0.004 C 
ENDBRANCH  18  21
ENDBRANCH   9  18
ENDBRANCH   7   8
ENDBRANCH   6   7
ENDBRANCH   5   6
ENDBRANCH   3   5
ENDBRANCH   2   3
ENDBRANCH   1   2
BRANCH   1  23
ATOM     23  C   UNL A   1      33.671  30.011  26.496  1.00  0.00     0.275 C 
BRANCH  23  24
ATOM     24  O   UNL A   1      34.387  30.025  27.722  1.00  0.00    -0.458 OA
BRANCH  24  25
ATOM     25  C   UNL A   1      35.110  31.143  27.951  1.00  0.00     0.338 C 
ATOM     26  O   UNL A   1      35.010  32.219  27.386  1.00  0.00    -0.246 OA
BRANCH  25  27
ATOM     27  C   UNL A   1      36.172  30.825  28.899  1.00  0.00     0.060 A 
ATOM     28  C   UNL A   1      37.221  31.741  29.025  1.00  0.00     0.016 A 
ATOM     29  C   UNL A   1      36.265  29.501  29.340  1.00  0.00     0.016 A 
ATOM     30  C   UNL A   1      38.458  31.249  29.364  1.00  0.00     0.010 A 
ATOM     31  C   UNL A   1      37.496  29.010  29.661  1.00  0.00     0.010 A 
ATOM     32  C   UNL A   1      38.584  29.869  29.559  1.00  0.00    -0.014 A 
BRANCH  32  33
ATOM     33  C   UNL A   1      39.900  29.307  29.724  1.00  0.00     0.031 A 
ATOM     34  C   UNL A   1      40.347  29.362  31.129  1.00  0.00     0.074 A 
ATOM     35  C   UNL A   1      40.531  28.686  28.710  1.00  0.00     0.049 A 
ATOM     36  N   UNL A   1      41.249  30.138  31.625  1.00  0.00    -0.248 NA
ATOM     37  C   UNL A   1      39.544  28.647  32.134  1.00  0.00     0.031 C 
ATOM     38  C   UNL A   1      40.010  28.335  27.384  1.00  0.00     0.029 A 
ATOM     39  N   UNL A   1      41.750  28.095  28.718  1.00  0.00    -0.354 N 
ATOM     40  C   UNL A   1      41.305  29.802  32.972  1.00  0.00     0.074 A 
ATOM     41  C   UNL A   1      40.089  29.094  33.266  1.00  0.00     0.031 C 
ATOM     42  C   UNL A   1      40.794  27.372  26.842  1.00  0.00     0.029 A 
ATOM     43  C   UNL A   1      41.931  27.146  27.718  1.00  0.00     0.049 A 
ATOM     44  H   UNL A   1      42.449  28.318  29.375  1.00  0.00     0.167 HD
ATOM     45  C   UNL A   1      42.480  29.855  33.653  1.00  0.00     0.034 A 
ATOM     46  C   UNL A   1      42.894  26.189  27.697  1.00  0.00     0.034 A 
ATOM     47  C   UNL A   1      43.475  30.599  32.922  1.00  0.00     0.049 A 
ATOM     48  C   UNL A   1      43.961  26.626  28.634  1.00  0.00     0.074 A 
ATOM     49  C   UNL A   1      43.569  31.890  32.439  1.00  0.00     0.029 A 
ATOM     50  N   UNL A   1      44.404  29.862  32.227  1.00  0.00    -0.354 N 
ATOM     51  N   UNL A   1      44.695  27.685  28.435  1.00  0.00    -0.248 NA
ATOM     52  C   UNL A   1      43.874  26.173  30.015  1.00  0.00     0.031 C 
ATOM     53  C   UNL A   1      44.204  31.758  31.169  1.00  0.00     0.029 A 
ATOM     54  C   UNL A   1      44.528  30.413  30.980  1.00  0.00     0.049 A 
ATOM     55  H   UNL A   1      44.893  29.077  32.566  1.00  0.00     0.167 HD
ATOM     56  C   UNL A   1      44.763  28.294  29.682  1.00  0.00     0.074 A 
ATOM     57  C   UNL A   1      44.327  27.270  30.632  1.00  0.00     0.031 C 
ATOM     58  C   UNL A   1      44.864  29.651  29.797  1.00  0.00     0.034 A 
BRANCH  45  59
ATOM     59  C   UNL A   1      42.869  28.904  34.756  1.00  0.00     0.023 A 
ATOM     60  C   UNL A   1      43.454  29.472  35.908  1.00  0.00     0.012 A 
ATOM     61  C   UNL A   1      42.962  27.500  34.612  1.00  0.00     0.148 A 
ATOM     62  C   UNL A   1      44.149  28.691  36.835  1.00  0.00     0.002 A 
ATOM     63  C   UNL A   1      43.585  26.718  35.575  1.00  0.00     0.091 A 
ATOM     64  F   UNL A   1      42.574  26.911  33.478  1.00  0.00    -0.205 F 
ATOM     65  C   UNL A   1      44.210  27.312  36.672  1.00  0.00     0.022 A 
BRANCH  63  66
ATOM     66  S   UNL A   1      43.664  24.929  35.432  1.00  0.00     0.127 S 
ATOM     67  O   UNL A   1      42.248  24.574  35.426  1.00  0.00    -0.237 OA
ATOM     68  O   UNL A   1      44.353  24.764  34.152  1.00  0.00    -0.237 OA
ATOM     69  O   UNL A   1      44.433  24.476  36.586  1.00  0.00    -0.744 OA
ENDBRANCH  63  66
ENDBRANCH  45  59
BRANCH  46  70
ATOM     70  C   UNL A   1      42.815  24.791  27.207  1.00  0.00     0.023 A 
ATOM     71  C   UNL A   1      41.579  24.114  27.211  1.00  0.00     0.012 A 
ATOM     72  C   UNL A   1      43.879  24.225  26.469  1.00  0.00     0.148 A 
ATOM     73  C   UNL A   1      41.400  22.929  26.482  1.00  0.00     0.002 A 
ATOM     74  C   UNL A   1      43.698  23.047  25.749  1.00  0.00     0.091 A 
ATOM     75  F   UNL A   1      45.039  24.891  26.397  1.00  0.00    -0.205 F 
ATOM     76  C   UNL A   1      42.456  22.401  25.745  1.00  0.00     0.022 A 
BRANCH  74  77
ATOM     77  S   UNL A   1      45.005  22.324  24.746  1.00  0.00     0.127 S 
ATOM     78  O   UNL A   1      46.032  22.041  25.749  1.00  0.00    -0.237 OA
ATOM     79  O   UNL A   1      44.346  21.143  24.195  1.00  0.00    -0.237 OA
ATOM     80  O   UNL A   1      45.379  23.347  23.778  1.00  0.00    -0.744 OA
ENDBRANCH  74  77
ENDBRANCH  46  70
BRANCH  58  81
ATOM     81  C   UNL A   1      45.127  30.450  28.545  1.00  0.00     0.023 A 
ATOM     82  C   UNL A   1      44.091  30.946  27.723  1.00  0.00     0.012 A 
ATOM     83  C   UNL A   1      46.446  30.856  28.292  1.00  0.00     0.148 A 
ATOM     84  C   UNL A   1      44.372  31.810  26.659  1.00  0.00     0.002 A 
ATOM     85  C   UNL A   1      46.715  31.750  27.264  1.00  0.00     0.091 A 
ATOM     86  F   UNL A   1      47.415  30.382  29.089  1.00  0.00    -0.205 F 
ATOM     87  C   UNL A   1      45.683  32.222  26.439  1.00  0.00     0.022 A 
BRANCH  85  88
ATOM     88  S   UNL A   1      48.362  32.410  27.011  1.00  0.00     0.127 S 
ATOM     89  O   UNL A   1      48.163  33.295  25.865  1.00  0.00    -0.237 OA
ATOM     90  O   UNL A   1      48.623  33.097  28.277  1.00  0.00    -0.237 OA
ATOM     91  O   UNL A   1      49.225  31.260  26.771  1.00  0.00    -0.744 OA
ENDBRANCH  85  88
ENDBRANCH  58  81
ENDBRANCH  32  33
ENDBRANCH  25  27
ENDBRANCH  24  25
ENDBRANCH  23  24
ENDBRANCH   1  23
TORSDOF 19
ENDMDL
