MODEL 1
REMARK VINA RESULT:     -11.2      0.000      0.000
REMARK SMILES C[C@@H](CNc1cccc(F)c1C(=O)OCCOC(=O)c1ccc(-c2c3nc(c(-c4cccc(S(=O)(=O)[O-])c4F)c4ccc([nH]4)c(-c4cccc(S(=O)(=O)[O-])c4F)c4nc(c(-c5cccc(S(=O)(=O)[O-])c5F)c5ccc2[nH]5)C=C4)C=C3)cc1)[NH+]1CCCCC1
REMARK SMILES IDX 15 1 14 2 12 3 13 4 11 5 5 6 6 7 7 8 9 9 8 10 10 11 4 12
REMARK SMILES IDX 3 14 2 15 1 16 83 17 84 18 88 19 85 21 87 22 86 23 16 24
REMARK SMILES IDX 17 25 18 26 19 27 20 28 21 29 82 30 22 31 81 32 23 33 24 34
REMARK SMILES IDX 25 35 75 36 26 37 80 38 74 39 76 40 27 41 79 42 73 43 72 44
REMARK SMILES IDX 28 46 60 47 40 48 59 49 41 50 44 51 58 52 77 53 42 54 43 55
REMARK SMILES IDX 57 57 78 58 45 59 29 60 30 61 38 62 31 63 33 64 39 65 32 66
REMARK SMILES IDX 34 67 35 68 36 69 37 70 61 71 62 72 70 73 63 74 65 75 71 76
REMARK SMILES IDX 64 77 66 78 67 79 68 80 69 81 46 82 47 83 55 84 48 85 50 86
REMARK SMILES IDX 56 87 49 88 51 89 52 90 53 91 54 92
REMARK H PARENT 4 13 83 20 76 45 44 56
REMARK Flexibility Score: inf
ROOT
ATOM      1  C   UNL A   1      38.342  21.246  25.330  1.00  0.00     0.275 C 
ENDROOT
BRANCH   1   2
ATOM      2  O   UNL A   1      36.931  21.323  25.620  1.00  0.00    -0.458 OA
BRANCH   2   3
ATOM      3  C   UNL A   1      36.193  21.773  24.568  1.00  0.00     0.343 C 
ATOM      4  O   UNL A   1      36.672  22.368  23.634  1.00  0.00    -0.246 OA
BRANCH   3   5
ATOM      5  C   UNL A   1      34.747  21.493  24.701  1.00  0.00     0.118 A 
ATOM      6  C   UNL A   1      33.807  22.542  24.829  1.00  0.00     0.052 A 
ATOM      7  C   UNL A   1      32.448  22.201  24.977  1.00  0.00     0.027 A 
ATOM      8  C   UNL A   1      32.027  20.869  25.006  1.00  0.00     0.005 A 
ATOM      9  C   UNL A   1      34.315  20.165  24.767  1.00  0.00     0.139 A 
ATOM     10  C   UNL A   1      32.965  19.850  24.903  1.00  0.00     0.040 A 
ATOM     11  F   UNL A   1      35.185  19.143  24.714  1.00  0.00    -0.206 F 
BRANCH   6  12
ATOM     12  N   UNL A   1      34.122  23.879  24.592  1.00  0.00    -0.378 N 
ATOM     13  H   UNL A   1      34.475  24.410  25.342  1.00  0.00     0.160 HD
BRANCH  12  14
ATOM     14  C   UNL A   1      33.960  24.542  23.296  1.00  0.00     0.177 C 
BRANCH  14  15
ATOM     15  C   UNL A   1      33.050  25.826  23.278  1.00  0.00     0.200 C 
ATOM     16  C   UNL A   1      33.489  26.910  22.271  1.00  0.00     0.077 C 
BRANCH  15  17
ATOM     17  N   UNL A   1      32.806  26.342  24.642  1.00  0.00    -0.331 N 
ATOM     18  C   UNL A   1      33.596  27.534  24.985  1.00  0.00     0.262 C 
ATOM     19  C   UNL A   1      31.381  26.590  24.881  1.00  0.00     0.262 C 
ATOM     20  H   UNL A   1      33.125  25.598  25.263  1.00  0.00     0.348 HD
ATOM     21  C   UNL A   1      33.465  27.829  26.473  1.00  0.00     0.062 C 
ATOM     22  C   UNL A   1      31.150  26.876  26.362  1.00  0.00     0.062 C 
ATOM     23  C   UNL A   1      32.007  28.042  26.847  1.00  0.00     0.012 C 
ENDBRANCH  15  17
ENDBRANCH  14  15
ENDBRANCH  12  14
ENDBRANCH   6  12
ENDBRANCH   3   5
ENDBRANCH   2   3
ENDBRANCH   1   2
BRANCH   1  24
ATOM     24  C   UNL A   1      38.853  19.805  25.416  1.00  0.00     0.275 C 
BRANCH  24  25
ATOM     25  O   UNL A   1      39.721  19.585  26.551  1.00  0.00    -0.458 OA
BRANCH  25  26
ATOM     26  C   UNL A   1      41.043  19.814  26.338  1.00  0.00     0.338 C 
ATOM     27  O   UNL A   1      41.832  19.059  25.791  1.00  0.00    -0.246 OA
BRANCH  26  28
ATOM     28  C   UNL A   1      41.413  21.199  26.719  1.00  0.00     0.060 A 
ATOM     29  C   UNL A   1      41.750  22.066  25.679  1.00  0.00     0.016 A 
ATOM     30  C   UNL A   1      41.481  21.658  28.036  1.00  0.00     0.016 A 
ATOM     31  C   UNL A   1      42.037  23.417  25.929  1.00  0.00     0.010 A 
ATOM     32  C   UNL A   1      41.804  23.010  28.290  1.00  0.00     0.010 A 
ATOM     33  C   UNL A   1      42.036  23.917  27.235  1.00  0.00    -0.014 A 
BRANCH  33  34
ATOM     34  C   UNL A   1      42.399  25.345  27.486  1.00  0.00     0.031 A 
ATOM     35  C   UNL A   1      43.783  25.787  27.133  1.00  0.00     0.074 A 
ATOM     36  C   UNL A   1      41.529  26.279  27.928  1.00  0.00     0.049 A 
ATOM     37  N   UNL A   1      44.322  26.965  27.283  1.00  0.00    -0.248 NA
ATOM     38  C   UNL A   1      44.643  24.801  26.459  1.00  0.00     0.031 C 
ATOM     39  C   UNL A   1      40.099  26.091  28.056  1.00  0.00     0.029 A 
ATOM     40  N   UNL A   1      41.695  27.581  28.350  1.00  0.00    -0.354 N 
ATOM     41  C   UNL A   1      45.583  26.868  26.723  1.00  0.00     0.074 A 
ATOM     42  C   UNL A   1      45.732  25.518  26.224  1.00  0.00     0.031 C 
ATOM     43  C   UNL A   1      39.519  27.155  28.623  1.00  0.00     0.029 A 
ATOM     44  C   UNL A   1      40.549  28.139  28.887  1.00  0.00     0.049 A 
ATOM     45  H   UNL A   1      42.548  28.067  28.275  1.00  0.00     0.167 HD
ATOM     46  C   UNL A   1      46.526  27.828  26.629  1.00  0.00     0.034 A 
ATOM     47  C   UNL A   1      40.327  29.309  29.519  1.00  0.00     0.034 A 
ATOM     48  C   UNL A   1      46.381  29.159  27.150  1.00  0.00     0.049 A 
ATOM     49  C   UNL A   1      41.450  30.297  29.561  1.00  0.00     0.074 A 
ATOM     50  C   UNL A   1      47.319  30.175  27.163  1.00  0.00     0.029 A 
ATOM     51  N   UNL A   1      45.242  29.656  27.767  1.00  0.00    -0.354 N 
ATOM     52  N   UNL A   1      42.641  30.188  29.026  1.00  0.00    -0.248 NA
ATOM     53  C   UNL A   1      41.196  31.585  30.218  1.00  0.00     0.031 C 
ATOM     54  C   UNL A   1      46.765  31.270  27.826  1.00  0.00     0.029 A 
ATOM     55  C   UNL A   1      45.463  30.957  28.184  1.00  0.00     0.049 A 
ATOM     56  H   UNL A   1      44.402  29.158  27.889  1.00  0.00     0.167 HD
ATOM     57  C   UNL A   1      43.261  31.410  29.231  1.00  0.00     0.074 A 
ATOM     58  C   UNL A   1      42.312  32.247  29.938  1.00  0.00     0.031 C 
ATOM     59  C   UNL A   1      44.503  31.795  28.858  1.00  0.00     0.034 A 
BRANCH  46  60
ATOM     60  C   UNL A   1      47.821  27.450  25.978  1.00  0.00     0.023 A 
ATOM     61  C   UNL A   1      48.863  26.895  26.746  1.00  0.00     0.012 A 
ATOM     62  C   UNL A   1      47.981  27.607  24.590  1.00  0.00     0.148 A 
ATOM     63  C   UNL A   1      50.056  26.510  26.137  1.00  0.00     0.002 A 
ATOM     64  C   UNL A   1      49.151  27.179  23.984  1.00  0.00     0.091 A 
ATOM     65  F   UNL A   1      46.983  28.172  23.894  1.00  0.00    -0.205 F 
ATOM     66  C   UNL A   1      50.195  26.640  24.755  1.00  0.00     0.022 A 
BRANCH  64  67
ATOM     67  S   UNL A   1      49.391  27.233  22.207  1.00  0.00     0.127 S 
ATOM     68  O   UNL A   1      50.820  26.939  22.094  1.00  0.00    -0.237 OA
ATOM     69  O   UNL A   1      48.507  26.163  21.749  1.00  0.00    -0.237 OA
ATOM     70  O   UNL A   1      49.004  28.572  21.786  1.00  0.00    -0.744 OA
ENDBRANCH  64  67
ENDBRANCH  46  60
BRANCH  47  71
ATOM     71  C   UNL A   1      38.981  29.626  30.089  1.00  0.00     0.023 A 
ATOM     72  C   UNL A   1      38.664  29.232  31.404  1.00  0.00     0.012 A 
ATOM     73  C   UNL A   1      38.018  30.335  29.339  1.00  0.00     0.148 A 
ATOM     74  C   UNL A   1      37.408  29.511  31.949  1.00  0.00     0.002 A 
ATOM     75  C   UNL A   1      36.785  30.648  29.904  1.00  0.00     0.091 A 
ATOM     76  F   UNL A   1      38.330  30.695  28.087  1.00  0.00    -0.205 F 
ATOM     77  C   UNL A   1      36.473  30.223  31.204  1.00  0.00     0.022 A 
BRANCH  75  78
ATOM     78  S   UNL A   1      35.553  31.650  29.061  1.00  0.00     0.127 S 
ATOM     79  O   UNL A   1      34.947  30.678  28.154  1.00  0.00    -0.237 OA
ATOM     80  O   UNL A   1      34.699  32.073  30.171  1.00  0.00    -0.237 OA
ATOM     81  O   UNL A   1      36.292  32.731  28.424  1.00  0.00    -0.744 OA
ENDBRANCH  75  78
ENDBRANCH  47  71
BRANCH  59  82
ATOM     82  C   UNL A   1      44.923  33.200  29.183  1.00  0.00     0.023 A 
ATOM     83  C   UNL A   1      45.602  33.469  30.386  1.00  0.00     0.012 A 
ATOM     84  C   UNL A   1      44.744  34.230  28.238  1.00  0.00     0.148 A 
ATOM     85  C   UNL A   1      46.080  34.749  30.654  1.00  0.00     0.002 A 
ATOM     86  C   UNL A   1      45.275  35.487  28.486  1.00  0.00     0.091 A 
ATOM     87  F   UNL A   1      44.074  33.952  27.110  1.00  0.00    -0.205 F 
ATOM     88  C   UNL A   1      45.932  35.752  29.698  1.00  0.00     0.022 A 
BRANCH  86  89
ATOM     89  S   UNL A   1      45.233  36.806  27.268  1.00  0.00     0.127 S 
ATOM     90  O   UNL A   1      45.776  37.930  28.030  1.00  0.00    -0.237 OA
ATOM     91  O   UNL A   1      46.119  36.289  26.226  1.00  0.00    -0.237 OA
ATOM     92  O   UNL A   1      43.839  36.943  26.867  1.00  0.00    -0.744 OA
ENDBRANCH  86  89
ENDBRANCH  59  82
ENDBRANCH  33  34
ENDBRANCH  26  28
ENDBRANCH  25  26
ENDBRANCH  24  25
ENDBRANCH   1  24
TORSDOF 18
ENDMDL
MODEL 2
REMARK VINA RESULT:     -11.0      6.903     12.609
REMARK SMILES C[C@@H](CNc1cccc(F)c1C(=O)OCCOC(=O)c1ccc(-c2c3nc(c(-c4cccc(S(=O)(=O)[O-])c4F)c4ccc([nH]4)c(-c4cccc(S(=O)(=O)[O-])c4F)c4nc(c(-c5cccc(S(=O)(=O)[O-])c5F)c5ccc2[nH]5)C=C4)C=C3)cc1)[NH+]1CCCCC1
REMARK SMILES IDX 15 1 14 2 12 3 13 4 11 5 5 6 6 7 7 8 9 9 8 10 10 11 4 12
REMARK SMILES IDX 3 14 2 15 1 16 83 17 84 18 88 19 85 21 87 22 86 23 16 24
REMARK SMILES IDX 17 25 18 26 19 27 20 28 21 29 82 30 22 31 81 32 23 33 24 34
REMARK SMILES IDX 25 35 75 36 26 37 80 38 74 39 76 40 27 41 79 42 73 43 72 44
REMARK SMILES IDX 28 46 60 47 40 48 59 49 41 50 44 51 58 52 77 53 42 54 43 55
REMARK SMILES IDX 57 57 78 58 45 59 29 60 30 61 38 62 31 63 33 64 39 65 32 66
REMARK SMILES IDX 34 67 35 68 36 69 37 70 61 71 62 72 70 73 63 74 65 75 71 76
REMARK SMILES IDX 64 77 66 78 67 79 68 80 69 81 46 82 47 83 55 84 48 85 50 86
REMARK SMILES IDX 56 87 49 88 51 89 52 90 53 91 54 92
REMARK H PARENT 4 13 83 20 76 45 44 56
REMARK Flexibility Score: inf
ROOT
ATOM      1  C   UNL A   1      33.082  34.522  28.908  1.00  0.00     0.275 C 
ENDROOT
BRANCH   1   2
ATOM      2  O   UNL A   1      34.232  33.705  29.210  1.00  0.00    -0.458 OA
BRANCH   2   3
ATOM      3  C   UNL A   1      35.026  33.479  28.127  1.00  0.00     0.343 C 
ATOM      4  O   UNL A   1      35.212  34.300  27.264  1.00  0.00    -0.246 OA
BRANCH   3   5
ATOM      5  C   UNL A   1      35.608  32.119  28.097  1.00  0.00     0.118 A 
ATOM      6  C   UNL A   1      34.798  30.981  27.873  1.00  0.00     0.052 A 
ATOM      7  C   UNL A   1      35.415  29.715  27.883  1.00  0.00     0.027 A 
ATOM      8  C   UNL A   1      36.786  29.571  28.113  1.00  0.00     0.005 A 
ATOM      9  C   UNL A   1      36.972  31.958  28.361  1.00  0.00     0.139 A 
ATOM     10  C   UNL A   1      37.564  30.696  28.355  1.00  0.00     0.040 A 
ATOM     11  F   UNL A   1      37.759  33.008  28.641  1.00  0.00    -0.206 F 
BRANCH   6  12
ATOM     12  N   UNL A   1      33.481  31.062  27.425  1.00  0.00    -0.378 N 
ATOM     13  H   UNL A   1      33.102  31.956  27.266  1.00  0.00     0.160 HD
BRANCH  12  14
ATOM     14  C   UNL A   1      32.627  29.899  27.175  1.00  0.00     0.177 C 
BRANCH  14  15
ATOM     15  C   UNL A   1      32.384  29.521  25.668  1.00  0.00     0.200 C 
ATOM     16  C   UNL A   1      31.130  30.162  25.038  1.00  0.00     0.077 C 
BRANCH  15  17
ATOM     17  N   UNL A   1      32.484  28.062  25.447  1.00  0.00    -0.331 N 
ATOM     18  C   UNL A   1      31.761  27.581  24.260  1.00  0.00     0.262 C 
ATOM     19  C   UNL A   1      33.879  27.613  25.409  1.00  0.00     0.262 C 
ATOM     20  H   UNL A   1      32.020  27.644  26.254  1.00  0.00     0.348 HD
ATOM     21  C   UNL A   1      31.713  26.060  24.266  1.00  0.00     0.062 C 
ATOM     22  C   UNL A   1      33.930  26.088  25.434  1.00  0.00     0.062 C 
ATOM     23  C   UNL A   1      33.119  25.483  24.291  1.00  0.00     0.012 C 
ENDBRANCH  15  17
ENDBRANCH  14  15
ENDBRANCH  12  14
ENDBRANCH   6  12
ENDBRANCH   3   5
ENDBRANCH   2   3
ENDBRANCH   1   2
BRANCH   1  24
ATOM     24  C   UNL A   1      33.053  35.787  29.768  1.00  0.00     0.275 C 
BRANCH  24  25
ATOM     25  O   UNL A   1      32.113  35.700  30.864  1.00  0.00    -0.458 OA
BRANCH  25  26
ATOM     26  C   UNL A   1      32.596  36.048  32.085  1.00  0.00     0.338 C 
ATOM     27  O   UNL A   1      32.135  36.896  32.834  1.00  0.00    -0.246 OA
BRANCH  26  28
ATOM     28  C   UNL A   1      33.701  35.148  32.499  1.00  0.00     0.060 A 
ATOM     29  C   UNL A   1      34.995  35.657  32.395  1.00  0.00     0.016 A 
ATOM     30  C   UNL A   1      33.519  33.835  32.938  1.00  0.00     0.016 A 
ATOM     31  C   UNL A   1      36.101  34.915  32.836  1.00  0.00     0.010 A 
ATOM     32  C   UNL A   1      34.636  33.074  33.350  1.00  0.00     0.010 A 
ATOM     33  C   UNL A   1      35.935  33.625  33.351  1.00  0.00    -0.014 A 
BRANCH  33  34
ATOM     34  C   UNL A   1      37.131  32.828  33.764  1.00  0.00     0.031 A 
ATOM     35  C   UNL A   1      37.838  33.227  35.018  1.00  0.00     0.074 A 
ATOM     36  C   UNL A   1      37.557  31.718  33.121  1.00  0.00     0.049 A 
ATOM     37  N   UNL A   1      38.904  32.699  35.553  1.00  0.00    -0.248 NA
ATOM     38  C   UNL A   1      37.228  34.309  35.808  1.00  0.00     0.031 C 
ATOM     39  C   UNL A   1      36.838  31.040  32.064  1.00  0.00     0.029 A 
ATOM     40  N   UNL A   1      38.691  30.945  33.252  1.00  0.00    -0.354 N 
ATOM     41  C   UNL A   1      39.096  33.378  36.743  1.00  0.00     0.074 A 
ATOM     42  C   UNL A   1      38.035  34.356  36.859  1.00  0.00     0.031 C 
ATOM     43  C   UNL A   1      37.561  30.039  31.551  1.00  0.00     0.029 A 
ATOM     44  C   UNL A   1      38.819  29.980  32.269  1.00  0.00     0.049 A 
ATOM     45  H   UNL A   1      39.346  31.068  33.975  1.00  0.00     0.167 HD
ATOM     46  C   UNL A   1      40.069  33.191  37.659  1.00  0.00     0.034 A 
ATOM     47  C   UNL A   1      39.819  29.130  31.964  1.00  0.00     0.034 A 
ATOM     48  C   UNL A   1      41.134  32.236  37.524  1.00  0.00     0.049 A 
ATOM     49  C   UNL A   1      40.983  29.066  32.904  1.00  0.00     0.074 A 
ATOM     50  C   UNL A   1      42.205  32.032  38.374  1.00  0.00     0.029 A 
ATOM     51  N   UNL A   1      41.278  31.343  36.473  1.00  0.00    -0.354 N 
ATOM     52  N   UNL A   1      41.149  29.718  34.027  1.00  0.00    -0.248 NA
ATOM     53  C   UNL A   1      42.056  28.114  32.590  1.00  0.00     0.031 C 
ATOM     54  C   UNL A   1      43.022  31.048  37.814  1.00  0.00     0.029 A 
ATOM     55  C   UNL A   1      42.435  30.601  36.641  1.00  0.00     0.049 A 
ATOM     56  H   UNL A   1      40.651  31.250  35.720  1.00  0.00     0.167 HD
ATOM     57  C   UNL A   1      42.315  29.220  34.585  1.00  0.00     0.074 A 
ATOM     58  C   UNL A   1      42.813  28.207  33.676  1.00  0.00     0.031 C 
ATOM     59  C   UNL A   1      42.907  29.572  35.749  1.00  0.00     0.034 A 
BRANCH  46  60
ATOM     60  C   UNL A   1      40.049  34.078  38.865  1.00  0.00     0.023 A 
ATOM     61  C   UNL A   1      40.882  35.213  38.922  1.00  0.00     0.012 A 
ATOM     62  C   UNL A   1      39.165  33.804  39.923  1.00  0.00     0.148 A 
ATOM     63  C   UNL A   1      40.840  36.060  40.028  1.00  0.00     0.002 A 
ATOM     64  C   UNL A   1      39.095  34.677  40.998  1.00  0.00     0.091 A 
ATOM     65  F   UNL A   1      38.412  32.697  39.853  1.00  0.00    -0.205 F 
ATOM     66  C   UNL A   1      39.938  35.799  41.059  1.00  0.00     0.022 A 
BRANCH  64  67
ATOM     67  S   UNL A   1      37.914  34.467  42.333  1.00  0.00     0.127 S 
ATOM     68  O   UNL A   1      37.994  35.765  43.003  1.00  0.00    -0.237 OA
ATOM     69  O   UNL A   1      36.670  34.232  41.602  1.00  0.00    -0.237 OA
ATOM     70  O   UNL A   1      38.388  33.337  43.119  1.00  0.00    -0.744 OA
ENDBRANCH  64  67
ENDBRANCH  46  60
BRANCH  47  71
ATOM     71  C   UNL A   1      39.726  28.237  30.768  1.00  0.00     0.023 A 
ATOM     72  C   UNL A   1      38.949  27.064  30.825  1.00  0.00     0.012 A 
ATOM     73  C   UNL A   1      40.390  28.558  29.564  1.00  0.00     0.148 A 
ATOM     74  C   UNL A   1      38.860  26.213  29.720  1.00  0.00     0.002 A 
ATOM     75  C   UNL A   1      40.260  27.729  28.454  1.00  0.00     0.091 A 
ATOM     76  F   UNL A   1      41.133  29.672  29.527  1.00  0.00    -0.205 F 
ATOM     77  C   UNL A   1      39.508  26.548  28.534  1.00  0.00     0.022 A 
BRANCH  75  78
ATOM     78  S   UNL A   1      40.973  28.127  26.851  1.00  0.00     0.127 S 
ATOM     79  O   UNL A   1      40.142  29.250  26.426  1.00  0.00    -0.237 OA
ATOM     80  O   UNL A   1      42.346  28.480  27.214  1.00  0.00    -0.237 OA
ATOM     81  O   UNL A   1      40.853  26.915  26.053  1.00  0.00    -0.744 OA
ENDBRANCH  75  78
ENDBRANCH  47  71
BRANCH  59  82
ATOM     82  C   UNL A   1      44.164  28.847  36.139  1.00  0.00     0.023 A 
ATOM     83  C   UNL A   1      45.416  29.355  35.749  1.00  0.00     0.012 A 
ATOM     84  C   UNL A   1      44.100  27.725  36.989  1.00  0.00     0.148 A 
ATOM     85  C   UNL A   1      46.591  28.746  36.184  1.00  0.00     0.002 A 
ATOM     86  C   UNL A   1      45.274  27.159  37.465  1.00  0.00     0.091 A 
ATOM     87  F   UNL A   1      42.894  27.247  37.326  1.00  0.00    -0.205 F 
ATOM     88  C   UNL A   1      46.519  27.661  37.055  1.00  0.00     0.022 A 
BRANCH  86  89
ATOM     89  S   UNL A   1      45.280  25.835  38.677  1.00  0.00     0.127 S 
ATOM     90  O   UNL A   1      44.387  26.369  39.705  1.00  0.00    -0.237 OA
ATOM     91  O   UNL A   1      44.729  24.716  37.911  1.00  0.00    -0.237 OA
ATOM     92  O   UNL A   1      46.668  25.666  39.086  1.00  0.00    -0.744 OA
ENDBRANCH  86  89
ENDBRANCH  59  82
ENDBRANCH  33  34
ENDBRANCH  26  28
ENDBRANCH  25  26
ENDBRANCH  24  25
ENDBRANCH   1  24
TORSDOF 18
ENDMDL
MODEL 3
REMARK VINA RESULT:     -11.0      1.751      8.298
REMARK SMILES C[C@@H](CNc1cccc(F)c1C(=O)OCCOC(=O)c1ccc(-c2c3nc(c(-c4cccc(S(=O)(=O)[O-])c4F)c4ccc([nH]4)c(-c4cccc(S(=O)(=O)[O-])c4F)c4nc(c(-c5cccc(S(=O)(=O)[O-])c5F)c5ccc2[nH]5)C=C4)C=C3)cc1)[NH+]1CCCCC1
REMARK SMILES IDX 15 1 14 2 12 3 13 4 11 5 5 6 6 7 7 8 9 9 8 10 10 11 4 12
REMARK SMILES IDX 3 14 2 15 1 16 83 17 84 18 88 19 85 21 87 22 86 23 16 24
REMARK SMILES IDX 17 25 18 26 19 27 20 28 21 29 82 30 22 31 81 32 23 33 24 34
REMARK SMILES IDX 25 35 75 36 26 37 80 38 74 39 76 40 27 41 79 42 73 43 72 44
REMARK SMILES IDX 28 46 60 47 40 48 59 49 41 50 44 51 58 52 77 53 42 54 43 55
REMARK SMILES IDX 57 57 78 58 45 59 29 60 30 61 38 62 31 63 33 64 39 65 32 66
REMARK SMILES IDX 34 67 35 68 36 69 37 70 61 71 62 72 70 73 63 74 65 75 71 76
REMARK SMILES IDX 64 77 66 78 67 79 68 80 69 81 46 82 47 83 55 84 48 85 50 86
REMARK SMILES IDX 56 87 49 88 51 89 52 90 53 91 54 92
REMARK H PARENT 4 13 83 20 76 45 44 56
REMARK Flexibility Score: inf
ROOT
ATOM      1  C   UNL A   1      36.561  22.942  23.795  1.00  0.00     0.275 C 
ENDROOT
BRANCH   1   2
ATOM      2  O   UNL A   1      35.614  23.845  24.401  1.00  0.00    -0.458 OA
BRANCH   2   3
ATOM      3  C   UNL A   1      34.478  24.001  23.667  1.00  0.00     0.343 C 
ATOM      4  O   UNL A   1      34.478  24.084  22.463  1.00  0.00    -0.246 OA
BRANCH   3   5
ATOM      5  C   UNL A   1      33.253  24.095  24.491  1.00  0.00     0.118 A 
ATOM      6  C   UNL A   1      32.134  23.268  24.236  1.00  0.00     0.052 A 
ATOM      7  C   UNL A   1      30.992  23.429  25.045  1.00  0.00     0.027 A 
ATOM      8  C   UNL A   1      30.949  24.380  26.068  1.00  0.00     0.005 A 
ATOM      9  C   UNL A   1      33.183  25.066  25.494  1.00  0.00     0.139 A 
ATOM     10  C   UNL A   1      32.047  25.201  26.290  1.00  0.00     0.040 A 
ATOM     11  F   UNL A   1      34.200  25.912  25.722  1.00  0.00    -0.206 F 
BRANCH   6  12
ATOM     12  N   UNL A   1      32.183  22.163  23.389  1.00  0.00    -0.378 N 
ATOM     13  H   UNL A   1      31.603  22.166  22.593  1.00  0.00     0.160 HD
BRANCH  12  14
ATOM     14  C   UNL A   1      33.043  20.998  23.609  1.00  0.00     0.177 C 
BRANCH  14  15
ATOM     15  C   UNL A   1      32.769  20.165  24.915  1.00  0.00     0.200 C 
ATOM     16  C   UNL A   1      33.475  20.700  26.178  1.00  0.00     0.077 C 
BRANCH  15  17
ATOM     17  N   UNL A   1      32.965  18.716  24.690  1.00  0.00    -0.331 N 
ATOM     18  C   UNL A   1      34.315  18.355  24.230  1.00  0.00     0.262 C 
ATOM     19  C   UNL A   1      32.605  17.930  25.874  1.00  0.00     0.262 C 
ATOM     20  H   UNL A   1      32.330  18.483  23.927  1.00  0.00     0.348 HD
ATOM     21  C   UNL A   1      34.337  16.899  23.790  1.00  0.00     0.062 C 
ATOM     22  C   UNL A   1      32.581  16.446  25.519  1.00  0.00     0.062 C 
ATOM     23  C   UNL A   1      33.914  15.990  24.933  1.00  0.00     0.012 C 
ENDBRANCH  15  17
ENDBRANCH  14  15
ENDBRANCH  12  14
ENDBRANCH   6  12
ENDBRANCH   3   5
ENDBRANCH   2   3
ENDBRANCH   1   2
BRANCH   1  24
ATOM     24  C   UNL A   1      36.730  21.668  24.625  1.00  0.00     0.275 C 
BRANCH  24  25
ATOM     25  O   UNL A   1      37.324  21.916  25.920  1.00  0.00    -0.458 OA
BRANCH  25  26
ATOM     26  C   UNL A   1      38.643  21.614  26.033  1.00  0.00     0.338 C 
ATOM     27  O   UNL A   1      39.184  20.579  25.675  1.00  0.00    -0.246 OA
BRANCH  26  28
ATOM     28  C   UNL A   1      39.419  22.781  26.519  1.00  0.00     0.060 A 
ATOM     29  C   UNL A   1      39.151  24.008  25.912  1.00  0.00     0.016 A 
ATOM     30  C   UNL A   1      40.410  22.709  27.500  1.00  0.00     0.016 A 
ATOM     31  C   UNL A   1      39.774  25.185  26.356  1.00  0.00     0.010 A 
ATOM     32  C   UNL A   1      41.064  23.889  27.922  1.00  0.00     0.010 A 
ATOM     33  C   UNL A   1      40.716  25.147  27.390  1.00  0.00    -0.014 A 
BRANCH  33  34
ATOM     34  C   UNL A   1      41.410  26.403  27.810  1.00  0.00     0.031 A 
ATOM     35  C   UNL A   1      40.616  27.425  28.558  1.00  0.00     0.074 A 
ATOM     36  C   UNL A   1      42.730  26.631  27.634  1.00  0.00     0.049 A 
ATOM     37  N   UNL A   1      41.001  28.590  28.998  1.00  0.00    -0.248 NA
ATOM     38  C   UNL A   1      39.236  27.059  28.918  1.00  0.00     0.031 C 
ATOM     39  C   UNL A   1      43.692  25.648  27.183  1.00  0.00     0.029 A 
ATOM     40  N   UNL A   1      43.513  27.750  27.814  1.00  0.00    -0.354 N 
ATOM     41  C   UNL A   1      39.918  29.101  29.690  1.00  0.00     0.074 A 
ATOM     42  C   UNL A   1      38.857  28.119  29.618  1.00  0.00     0.031 C 
ATOM     43  C   UNL A   1      44.897  26.197  27.001  1.00  0.00     0.029 A 
ATOM     44  C   UNL A   1      44.808  27.601  27.350  1.00  0.00     0.049 A 
ATOM     45  H   UNL A   1      43.183  28.578  28.233  1.00  0.00     0.167 HD
ATOM     46  C   UNL A   1      39.826  30.282  30.335  1.00  0.00     0.034 A 
ATOM     47  C   UNL A   1      45.825  28.475  27.217  1.00  0.00     0.034 A 
ATOM     48  C   UNL A   1      40.875  31.264  30.381  1.00  0.00     0.049 A 
ATOM     49  C   UNL A   1      45.637  29.847  27.784  1.00  0.00     0.074 A 
ATOM     50  C   UNL A   1      40.838  32.522  30.952  1.00  0.00     0.029 A 
ATOM     51  N   UNL A   1      42.135  31.111  29.822  1.00  0.00    -0.354 N 
ATOM     52  N   UNL A   1      44.601  30.316  28.436  1.00  0.00    -0.248 NA
ATOM     53  C   UNL A   1      46.758  30.789  27.671  1.00  0.00     0.031 C 
ATOM     54  C   UNL A   1      42.059  33.149  30.700  1.00  0.00     0.029 A 
ATOM     55  C   UNL A   1      42.877  32.264  30.016  1.00  0.00     0.049 A 
ATOM     56  H   UNL A   1      42.455  30.305  29.358  1.00  0.00     0.167 HD
ATOM     57  C   UNL A   1      44.963  31.584  28.859  1.00  0.00     0.074 A 
ATOM     58  C   UNL A   1      46.316  31.810  28.393  1.00  0.00     0.031 C 
ATOM     59  C   UNL A   1      44.235  32.470  29.576  1.00  0.00     0.034 A 
BRANCH  46  60
ATOM     60  C   UNL A   1      38.521  30.596  31.001  1.00  0.00     0.023 A 
ATOM     61  C   UNL A   1      38.309  30.238  32.346  1.00  0.00     0.012 A 
ATOM     62  C   UNL A   1      37.523  31.291  30.295  1.00  0.00     0.148 A 
ATOM     63  C   UNL A   1      37.109  30.560  32.978  1.00  0.00     0.002 A 
ATOM     64  C   UNL A   1      36.352  31.650  30.943  1.00  0.00     0.091 A 
ATOM     65  F   UNL A   1      37.743  31.586  29.006  1.00  0.00    -0.205 F 
ATOM     66  C   UNL A   1      36.137  31.277  32.281  1.00  0.00     0.022 A 
BRANCH  64  67
ATOM     67  S   UNL A   1      35.079  32.637  30.155  1.00  0.00     0.127 S 
ATOM     68  O   UNL A   1      34.120  32.807  31.247  1.00  0.00    -0.237 OA
ATOM     69  O   UNL A   1      35.815  33.847  29.793  1.00  0.00    -0.237 OA
ATOM     70  O   UNL A   1      34.596  31.851  29.028  1.00  0.00    -0.744 OA
ENDBRANCH  64  67
ENDBRANCH  46  60
BRANCH  47  71
ATOM     71  C   UNL A   1      47.116  28.056  26.589  1.00  0.00     0.023 A 
ATOM     72  C   UNL A   1      48.203  27.676  27.401  1.00  0.00     0.012 A 
ATOM     73  C   UNL A   1      47.266  28.012  25.186  1.00  0.00     0.148 A 
ATOM     74  C   UNL A   1      49.420  27.292  26.832  1.00  0.00     0.002 A 
ATOM     75  C   UNL A   1      48.466  27.586  24.625  1.00  0.00     0.091 A 
ATOM     76  F   UNL A   1      46.227  28.386  24.426  1.00  0.00    -0.205 F 
ATOM     77  C   UNL A   1      49.549  27.240  25.447  1.00  0.00     0.022 A 
BRANCH  75  78
ATOM     78  S   UNL A   1      48.697  27.387  22.853  1.00  0.00     0.127 S 
ATOM     79  O   UNL A   1      50.056  27.894  22.671  1.00  0.00    -0.237 OA
ATOM     80  O   UNL A   1      48.553  25.940  22.692  1.00  0.00    -0.237 OA
ATOM     81  O   UNL A   1      47.642  28.172  22.227  1.00  0.00    -0.744 OA
ENDBRANCH  75  78
ENDBRANCH  47  71
BRANCH  59  82
ATOM     82  C   UNL A   1      44.882  33.779  29.931  1.00  0.00     0.023 A 
ATOM     83  C   UNL A   1      45.652  33.885  31.104  1.00  0.00     0.012 A 
ATOM     84  C   UNL A   1      44.816  34.866  29.038  1.00  0.00     0.148 A 
ATOM     85  C   UNL A   1      46.334  35.064  31.394  1.00  0.00     0.002 A 
ATOM     86  C   UNL A   1      45.545  36.016  29.305  1.00  0.00     0.091 A 
ATOM     87  F   UNL A   1      44.057  34.747  27.940  1.00  0.00    -0.205 F 
ATOM     88  C   UNL A   1      46.295  36.121  30.488  1.00  0.00     0.022 A 
BRANCH  86  89
ATOM     89  S   UNL A   1      45.646  37.382  28.144  1.00  0.00     0.127 S 
ATOM     90  O   UNL A   1      44.261  37.850  28.115  1.00  0.00    -0.237 OA
ATOM     91  O   UNL A   1      46.582  38.284  28.813  1.00  0.00    -0.237 OA
ATOM     92  O   UNL A   1      46.137  36.815  26.895  1.00  0.00    -0.744 OA
ENDBRANCH  86  89
ENDBRANCH  59  82
ENDBRANCH  33  34
ENDBRANCH  26  28
ENDBRANCH  25  26
ENDBRANCH  24  25
ENDBRANCH   1  24
TORSDOF 18
ENDMDL
