MODEL 1
REMARK VINA RESULT:     -12.8      0.000      0.000
REMARK SMILES CC1CC[NH+]([C@H](c2ccc(F)cc2)c2ccc([C@@H](C)C(=O)OCCOC(=O)c3ccc(-c4c5nc(c(-c6cccc(S(=O)(=O)[O-])c6F)c6ccc([nH]6)c(-c6cccc(S(=O)(=O)[O-])c6F)c6nc(c(-c7cccc(S(=O)(=O)[O-])c7F)c7ccc4[nH]7)C=C6)C=C5)cc3)cc2-c2ccc(C(F)(F)F)cc2)CC1
REMARK SMILES IDX 23 1 22 2 20 3 21 4 18 5 19 6 17 7 14 8 15 9 92 10 16 11
REMARK SMILES IDX 91 12 6 13 5 14 1 15 2 16 3 17 104 18 4 19 103 20 7 22 8 23
REMARK SMILES IDX 13 24 9 25 12 26 10 27 11 28 93 29 94 30 102 31 95 32 101 33
REMARK SMILES IDX 96 34 97 35 98 36 99 37 100 38 24 39 25 40 26 41 27 42 28 43
REMARK SMILES IDX 29 44 90 45 30 46 89 47 31 48 32 49 33 50 83 51 34 52 88 53
REMARK SMILES IDX 82 54 84 55 35 56 87 57 81 58 80 59 36 61 68 62 48 63 67 64
REMARK SMILES IDX 49 65 52 66 66 67 85 68 50 69 51 70 65 72 86 73 53 74 37 75
REMARK SMILES IDX 38 76 46 77 39 78 41 79 47 80 40 81 42 82 43 83 44 84 45 85
REMARK SMILES IDX 69 86 70 87 78 88 71 89 73 90 79 91 72 92 74 93 75 94 76 95
REMARK SMILES IDX 77 96 54 97 55 98 63 99 56 100 58 101 64 102 57 103 59 104
REMARK SMILES IDX 60 105 61 106 62 107
REMARK H PARENT 5 21 84 60 52 71
REMARK Flexibility Score: inf
ROOT
ATOM      1  C   UNL A   1      42.371  21.093  26.071  1.00  0.00     0.274 C 
ENDROOT
BRANCH   1   2
ATOM      2  O   UNL A   1      41.093  21.690  25.790  1.00  0.00    -0.462 OA
BRANCH   2   3
ATOM      3  C   UNL A   1      40.354  22.133  26.842  1.00  0.00     0.313 C 
ATOM      4  O   UNL A   1      40.405  21.651  27.968  1.00  0.00    -0.252 OA
BRANCH   3   5
ATOM      5  C   UNL A   1      39.389  23.264  26.478  1.00  0.00     0.126 C 
ATOM      6  C   UNL A   1      39.347  24.285  27.614  1.00  0.00     0.025 C 
BRANCH   5   7
ATOM      7  C   UNL A   1      37.995  22.825  26.053  1.00  0.00    -0.033 A 
ATOM      8  C   UNL A   1      35.385  22.020  25.177  1.00  0.00     0.022 A 
ATOM      9  C   UNL A   1      36.510  21.174  25.098  1.00  0.00     0.011 A 
ATOM     10  C   UNL A   1      35.589  23.314  25.734  1.00  0.00    -0.009 A 
ATOM     11  C   UNL A   1      37.771  21.550  25.550  1.00  0.00     0.005 A 
ATOM     12  C   UNL A   1      36.894  23.690  26.149  1.00  0.00     0.013 A 
BRANCH   8  13
ATOM     13  C   UNL A   1      33.980  21.528  24.720  1.00  0.00     0.247 C 
BRANCH  13  14
ATOM     14  N   UNL A   1      33.854  20.120  24.209  1.00  0.00    -0.325 N 
ATOM     15  C   UNL A   1      33.082  15.816  24.667  1.00  0.00     0.008 C 
ATOM     16  C   UNL A   1      33.294  17.316  24.830  1.00  0.00    -0.003 C 
ATOM     17  C   UNL A   1      32.294  18.123  24.005  1.00  0.00     0.065 C 
ATOM     18  C   UNL A   1      34.689  17.732  24.378  1.00  0.00     0.065 C 
ATOM     19  C   UNL A   1      32.473  19.627  24.225  1.00  0.00     0.263 C 
ATOM     20  C   UNL A   1      34.928  19.219  24.637  1.00  0.00     0.263 C 
ATOM     21  H   UNL A   1      34.049  20.141  23.208  1.00  0.00     0.348 HD
ENDBRANCH  13  14
BRANCH  13  22
ATOM     22  C   UNL A   1      33.231  22.506  23.799  1.00  0.00     0.014 A 
ATOM     23  C   UNL A   1      31.900  22.894  24.045  1.00  0.00     0.013 A 
ATOM     24  C   UNL A   1      33.895  23.053  22.682  1.00  0.00     0.013 A 
ATOM     25  C   UNL A   1      31.259  23.807  23.205  1.00  0.00     0.040 A 
ATOM     26  C   UNL A   1      33.245  23.948  21.832  1.00  0.00     0.040 A 
ATOM     27  C   UNL A   1      31.936  24.323  22.106  1.00  0.00     0.123 A 
ATOM     28  F   UNL A   1      31.321  25.200  21.304  1.00  0.00    -0.207 F 
ENDBRANCH  13  22
ENDBRANCH   8  13
BRANCH  10  29
ATOM     29  C   UNL A   1      34.509  24.307  25.898  1.00  0.00    -0.018 A 
ATOM     30  C   UNL A   1      34.522  25.507  25.167  1.00  0.00     0.009 A 
ATOM     31  C   UNL A   1      33.443  24.084  26.782  1.00  0.00     0.009 A 
ATOM     32  C   UNL A   1      33.478  26.432  25.279  1.00  0.00     0.014 A 
ATOM     33  C   UNL A   1      32.393  25.003  26.891  1.00  0.00     0.014 A 
ATOM     34  C   UNL A   1      32.391  26.179  26.127  1.00  0.00     0.056 A 
BRANCH  34  35
ATOM     35  C   UNL A   1      31.250  27.164  26.216  1.00  0.00     0.416 C 
ATOM     36  F   UNL A   1      31.090  27.670  27.467  1.00  0.00    -0.166 F 
ATOM     37  F   UNL A   1      31.409  28.232  25.388  1.00  0.00    -0.166 F 
ATOM     38  F   UNL A   1      30.045  26.617  25.879  1.00  0.00    -0.166 F 
ENDBRANCH  34  35
ENDBRANCH  10  29
ENDBRANCH   5   7
ENDBRANCH   3   5
ENDBRANCH   2   3
ENDBRANCH   1   2
BRANCH   1  39
ATOM     39  C   UNL A   1      43.496  21.933  25.467  1.00  0.00     0.275 C 
BRANCH  39  40
ATOM     40  O   UNL A   1      43.016  23.248  25.137  1.00  0.00    -0.458 OA
BRANCH  40  41
ATOM     41  C   UNL A   1      43.930  24.243  25.216  1.00  0.00     0.338 C 
ATOM     42  O   UNL A   1      44.864  24.460  24.465  1.00  0.00    -0.246 OA
BRANCH  41  43
ATOM     43  C   UNL A   1      43.558  25.130  26.326  1.00  0.00     0.060 A 
ATOM     44  C   UNL A   1      42.953  24.568  27.451  1.00  0.00     0.016 A 
ATOM     45  C   UNL A   1      43.750  26.507  26.235  1.00  0.00     0.016 A 
ATOM     46  C   UNL A   1      42.525  25.382  28.496  1.00  0.00     0.010 A 
ATOM     47  C   UNL A   1      43.328  27.324  27.287  1.00  0.00     0.010 A 
ATOM     48  C   UNL A   1      42.702  26.768  28.417  1.00  0.00    -0.014 A 
BRANCH  48  49
ATOM     49  C   UNL A   1      42.189  27.642  29.499  1.00  0.00     0.031 A 
ATOM     50  C   UNL A   1      42.885  27.659  30.831  1.00  0.00     0.074 A 
ATOM     51  C   UNL A   1      41.109  28.417  29.283  1.00  0.00     0.049 A 
ATOM     52  N   UNL A   1      42.546  28.283  31.927  1.00  0.00    -0.248 NA
ATOM     53  C   UNL A   1      44.127  26.875  30.944  1.00  0.00     0.031 C 
ATOM     54  C   UNL A   1      40.375  28.507  28.019  1.00  0.00     0.029 A 
ATOM     55  N   UNL A   1      40.435  29.268  30.122  1.00  0.00    -0.354 N 
ATOM     56  C   UNL A   1      43.508  27.942  32.870  1.00  0.00     0.074 A 
ATOM     57  C   UNL A   1      44.448  27.056  32.218  1.00  0.00     0.031 C 
ATOM     58  C   UNL A   1      39.349  29.360  28.169  1.00  0.00     0.029 A 
ATOM     59  C   UNL A   1      39.328  29.847  29.546  1.00  0.00     0.049 A 
ATOM     60  H   UNL A   1      40.717  29.447  31.048  1.00  0.00     0.167 HD
ATOM     61  C   UNL A   1      43.606  28.348  34.157  1.00  0.00     0.034 A 
ATOM     62  C   UNL A   1      38.390  30.658  30.077  1.00  0.00     0.034 A 
ATOM     63  C   UNL A   1      42.691  29.259  34.788  1.00  0.00     0.049 A 
ATOM     64  C   UNL A   1      38.511  31.064  31.522  1.00  0.00     0.074 A 
ATOM     65  C   UNL A   1      42.711  29.730  36.089  1.00  0.00     0.029 A 
ATOM     66  N   UNL A   1      41.600  29.844  34.166  1.00  0.00    -0.354 N 
ATOM     67  N   UNL A   1      39.458  30.780  32.382  1.00  0.00    -0.248 NA
ATOM     68  C   UNL A   1      37.445  31.918  32.068  1.00  0.00     0.031 C 
ATOM     69  C   UNL A   1      41.627  30.598  36.254  1.00  0.00     0.029 A 
ATOM     70  C   UNL A   1      40.942  30.677  35.053  1.00  0.00     0.049 A 
ATOM     71  H   UNL A   1      41.333  29.691  33.230  1.00  0.00     0.167 HD
ATOM     72  C   UNL A   1      39.122  31.443  33.556  1.00  0.00     0.074 A 
ATOM     73  C   UNL A   1      37.893  32.162  33.292  1.00  0.00     0.031 C 
ATOM     74  C   UNL A   1      39.760  31.441  34.752  1.00  0.00     0.034 A 
BRANCH  61  75
ATOM     75  C   UNL A   1      44.768  27.852  34.973  1.00  0.00     0.023 A 
ATOM     76  C   UNL A   1      45.918  28.656  35.092  1.00  0.00     0.012 A 
ATOM     77  C   UNL A   1      44.675  26.658  35.715  1.00  0.00     0.148 A 
ATOM     78  C   UNL A   1      46.963  28.277  35.933  1.00  0.00     0.002 A 
ATOM     79  C   UNL A   1      45.704  26.304  36.579  1.00  0.00     0.091 A 
ATOM     80  F   UNL A   1      43.575  25.904  35.574  1.00  0.00    -0.205 F 
ATOM     81  C   UNL A   1      46.850  27.110  36.685  1.00  0.00     0.022 A 
BRANCH  79  82
ATOM     82  S   UNL A   1      45.627  24.863  37.648  1.00  0.00     0.127 S 
ATOM     83  O   UNL A   1      45.233  23.816  36.705  1.00  0.00    -0.237 OA
ATOM     84  O   UNL A   1      47.006  24.763  38.127  1.00  0.00    -0.237 OA
ATOM     85  O   UNL A   1      44.641  25.170  38.674  1.00  0.00    -0.744 OA
ENDBRANCH  79  82
ENDBRANCH  61  75
BRANCH  62  86
ATOM     86  C   UNL A   1      37.282  31.181  29.227  1.00  0.00     0.023 A 
ATOM     87  C   UNL A   1      37.273  32.542  28.868  1.00  0.00     0.012 A 
ATOM     88  C   UNL A   1      36.254  30.342  28.753  1.00  0.00     0.148 A 
ATOM     89  C   UNL A   1      36.249  33.065  28.077  1.00  0.00     0.002 A 
ATOM     90  C   UNL A   1      35.267  30.857  27.918  1.00  0.00     0.091 A 
ATOM     91  F   UNL A   1      36.258  29.054  29.126  1.00  0.00    -0.205 F 
ATOM     92  C   UNL A   1      35.254  32.221  27.591  1.00  0.00     0.022 A 
BRANCH  90  93
ATOM     93  S   UNL A   1      34.034  29.803  27.146  1.00  0.00     0.127 S 
ATOM     94  O   UNL A   1      34.770  29.264  26.006  1.00  0.00    -0.237 OA
ATOM     95  O   UNL A   1      33.744  28.836  28.205  1.00  0.00    -0.237 OA
ATOM     96  O   UNL A   1      32.920  30.688  26.829  1.00  0.00    -0.744 OA
ENDBRANCH  90  93
ENDBRANCH  62  86
BRANCH  74  97
ATOM     97  C   UNL A   1      39.173  32.260  35.870  1.00  0.00     0.023 A 
ATOM     98  C   UNL A   1      38.218  31.680  36.725  1.00  0.00     0.012 A 
ATOM     99  C   UNL A   1      39.659  33.554  36.145  1.00  0.00     0.148 A 
ATOM    100  C   UNL A   1      37.741  32.380  37.831  1.00  0.00     0.002 A 
ATOM    101  C   UNL A   1      39.210  34.230  37.273  1.00  0.00     0.091 A 
ATOM    102  F   UNL A   1      40.555  34.093  35.307  1.00  0.00    -0.205 F 
ATOM    103  C   UNL A   1      38.247  33.648  38.113  1.00  0.00     0.022 A 
BRANCH 101 104
ATOM    104  S   UNL A   1      39.876  35.824  37.768  1.00  0.00     0.127 S 
ATOM    105  O   UNL A   1      39.082  36.121  38.958  1.00  0.00    -0.237 OA
ATOM    106  O   UNL A   1      41.280  35.507  38.035  1.00  0.00    -0.237 OA
ATOM    107  O   UNL A   1      39.663  36.716  36.635  1.00  0.00    -0.744 OA
ENDBRANCH 101 104
ENDBRANCH  74  97
ENDBRANCH  48  49
ENDBRANCH  41  43
ENDBRANCH  40  41
ENDBRANCH  39  40
ENDBRANCH   1  39
TORSDOF 20
ENDMDL
MODEL 2
REMARK VINA RESULT:     -12.1      1.859      2.232
REMARK SMILES CC1CC[NH+]([C@H](c2ccc(F)cc2)c2ccc([C@@H](C)C(=O)OCCOC(=O)c3ccc(-c4c5nc(c(-c6cccc(S(=O)(=O)[O-])c6F)c6ccc([nH]6)c(-c6cccc(S(=O)(=O)[O-])c6F)c6nc(c(-c7cccc(S(=O)(=O)[O-])c7F)c7ccc4[nH]7)C=C6)C=C5)cc3)cc2-c2ccc(C(F)(F)F)cc2)CC1
REMARK SMILES IDX 23 1 22 2 20 3 21 4 18 5 19 6 17 7 14 8 15 9 92 10 16 11
REMARK SMILES IDX 91 12 6 13 5 14 1 15 2 16 3 17 104 18 4 19 103 20 7 22 8 23
REMARK SMILES IDX 13 24 9 25 12 26 10 27 11 28 93 29 94 30 102 31 95 32 101 33
REMARK SMILES IDX 96 34 97 35 98 36 99 37 100 38 24 39 25 40 26 41 27 42 28 43
REMARK SMILES IDX 29 44 90 45 30 46 89 47 31 48 32 49 33 50 83 51 34 52 88 53
REMARK SMILES IDX 82 54 84 55 35 56 87 57 81 58 80 59 36 61 68 62 48 63 67 64
REMARK SMILES IDX 49 65 52 66 66 67 85 68 50 69 51 70 65 72 86 73 53 74 37 75
REMARK SMILES IDX 38 76 46 77 39 78 41 79 47 80 40 81 42 82 43 83 44 84 45 85
REMARK SMILES IDX 69 86 70 87 78 88 71 89 73 90 79 91 72 92 74 93 75 94 76 95
REMARK SMILES IDX 77 96 54 97 55 98 63 99 56 100 58 101 64 102 57 103 59 104
REMARK SMILES IDX 60 105 61 106 62 107
REMARK H PARENT 5 21 84 60 52 71
REMARK Flexibility Score: inf
ROOT
ATOM      1  C   UNL A   1      42.460  20.989  26.131  1.00  0.00     0.274 C 
ENDROOT
BRANCH   1   2
ATOM      2  O   UNL A   1      41.194  21.601  25.827  1.00  0.00    -0.462 OA
BRANCH   2   3
ATOM      3  C   UNL A   1      40.443  22.054  26.867  1.00  0.00     0.313 C 
ATOM      4  O   UNL A   1      40.456  21.561  27.989  1.00  0.00    -0.252 OA
BRANCH   3   5
ATOM      5  C   UNL A   1      39.516  23.213  26.491  1.00  0.00     0.126 C 
ATOM      6  C   UNL A   1      39.506  24.244  27.618  1.00  0.00     0.025 C 
BRANCH   5   7
ATOM      7  C   UNL A   1      38.109  22.815  26.069  1.00  0.00    -0.033 A 
ATOM      8  C   UNL A   1      35.474  22.088  25.198  1.00  0.00     0.022 A 
ATOM      9  C   UNL A   1      36.571  21.205  25.127  1.00  0.00     0.011 A 
ATOM     10  C   UNL A   1      35.720  23.380  25.743  1.00  0.00    -0.009 A 
ATOM     11  C   UNL A   1      37.843  21.543  25.578  1.00  0.00     0.005 A 
ATOM     12  C   UNL A   1      37.036  23.717  26.156  1.00  0.00     0.013 A 
BRANCH   8  13
ATOM     13  C   UNL A   1      34.054  21.638  24.744  1.00  0.00     0.247 C 
BRANCH  13  14
ATOM     14  N   UNL A   1      33.883  20.231  24.242  1.00  0.00    -0.325 N 
ATOM     15  C   UNL A   1      33.010  15.950  24.736  1.00  0.00     0.008 C 
ATOM     16  C   UNL A   1      33.263  17.445  24.888  1.00  0.00    -0.003 C 
ATOM     17  C   UNL A   1      32.270  18.274  24.076  1.00  0.00     0.065 C 
ATOM     18  C   UNL A   1      34.660  17.824  24.409  1.00  0.00     0.065 C 
ATOM     19  C   UNL A   1      32.491  19.774  24.286  1.00  0.00     0.263 C 
ATOM     20  C   UNL A   1      34.941  19.305  24.656  1.00  0.00     0.263 C 
ATOM     21  H   UNL A   1      34.061  20.242  23.238  1.00  0.00     0.348 HD
ENDBRANCH  13  14
BRANCH  13  22
ATOM     22  C   UNL A   1      33.337  22.633  23.816  1.00  0.00     0.014 A 
ATOM     23  C   UNL A   1      33.951  23.158  22.663  1.00  0.00     0.013 A 
ATOM     24  C   UNL A   1      32.013  23.021  24.107  1.00  0.00     0.013 A 
ATOM     25  C   UNL A   1      33.260  24.036  21.826  1.00  0.00     0.040 A 
ATOM     26  C   UNL A   1      31.333  23.916  23.281  1.00  0.00     0.040 A 
ATOM     27  C   UNL A   1      31.959  24.408  22.144  1.00  0.00     0.123 A 
ATOM     28  F   UNL A   1      31.298  25.248  21.338  1.00  0.00    -0.207 F 
ENDBRANCH  13  22
ENDBRANCH   8  13
BRANCH  10  29
ATOM     29  C   UNL A   1      34.673  24.409  25.896  1.00  0.00    -0.018 A 
ATOM     30  C   UNL A   1      34.726  25.601  25.154  1.00  0.00     0.009 A 
ATOM     31  C   UNL A   1      33.599  24.229  26.781  1.00  0.00     0.009 A 
ATOM     32  C   UNL A   1      33.712  26.560  25.256  1.00  0.00     0.014 A 
ATOM     33  C   UNL A   1      32.580  25.183  26.880  1.00  0.00     0.014 A 
ATOM     34  C   UNL A   1      32.617  26.351  26.106  1.00  0.00     0.056 A 
BRANCH  34  35
ATOM     35  C   UNL A   1      31.509  27.374  26.185  1.00  0.00     0.416 C 
ATOM     36  F   UNL A   1      31.881  28.590  25.707  1.00  0.00    -0.166 F 
ATOM     37  F   UNL A   1      30.403  27.008  25.480  1.00  0.00    -0.166 F 
ATOM     38  F   UNL A   1      31.073  27.592  27.461  1.00  0.00    -0.166 F 
ENDBRANCH  34  35
ENDBRANCH  10  29
ENDBRANCH   5   7
ENDBRANCH   3   5
ENDBRANCH   2   3
ENDBRANCH   1   2
BRANCH   1  39
ATOM     39  C   UNL A   1      43.593  21.727  25.418  1.00  0.00     0.275 C 
BRANCH  39  40
ATOM     40  O   UNL A   1      43.158  23.035  25.010  1.00  0.00    -0.458 OA
BRANCH  40  41
ATOM     41  C   UNL A   1      44.094  24.011  25.074  1.00  0.00     0.338 C 
ATOM     42  O   UNL A   1      45.047  24.181  24.335  1.00  0.00    -0.246 OA
BRANCH  41  43
ATOM     43  C   UNL A   1      43.722  24.944  26.146  1.00  0.00     0.060 A 
ATOM     44  C   UNL A   1      43.185  24.421  27.324  1.00  0.00     0.016 A 
ATOM     45  C   UNL A   1      43.848  26.320  25.971  1.00  0.00     0.016 A 
ATOM     46  C   UNL A   1      42.758  25.275  28.336  1.00  0.00     0.010 A 
ATOM     47  C   UNL A   1      43.427  27.178  26.991  1.00  0.00     0.010 A 
ATOM     48  C   UNL A   1      42.869  26.661  28.174  1.00  0.00    -0.014 A 
BRANCH  48  49
ATOM     49  C   UNL A   1      42.355  27.572  29.223  1.00  0.00     0.031 A 
ATOM     50  C   UNL A   1      43.178  27.821  30.457  1.00  0.00     0.074 A 
ATOM     51  C   UNL A   1      41.161  28.175  29.067  1.00  0.00     0.049 A 
ATOM     52  N   UNL A   1      42.873  28.510  31.523  1.00  0.00    -0.248 NA
ATOM     53  C   UNL A   1      44.523  27.218  30.493  1.00  0.00     0.031 C 
ATOM     54  C   UNL A   1      40.293  28.034  27.896  1.00  0.00     0.029 A 
ATOM     55  N   UNL A   1      40.467  29.018  29.898  1.00  0.00    -0.354 N 
ATOM     56  C   UNL A   1      43.967  28.398  32.372  1.00  0.00     0.074 A 
ATOM     57  C   UNL A   1      44.947  27.575  31.698  1.00  0.00     0.031 C 
ATOM     58  C   UNL A   1      39.180  28.760  28.088  1.00  0.00     0.029 A 
ATOM     59  C   UNL A   1      39.236  29.385  29.407  1.00  0.00     0.049 A 
ATOM     60  H   UNL A   1      40.818  29.330  30.764  1.00  0.00     0.167 HD
ATOM     61  C   UNL A   1      44.143  28.949  33.596  1.00  0.00     0.034 A 
ATOM     62  C   UNL A   1      38.256  30.122  29.969  1.00  0.00     0.034 A 
ATOM     63  C   UNL A   1      43.181  29.797  34.245  1.00  0.00     0.049 A 
ATOM     64  C   UNL A   1      38.470  30.692  31.346  1.00  0.00     0.074 A 
ATOM     65  C   UNL A   1      43.271  30.403  35.485  1.00  0.00     0.029 A 
ATOM     66  N   UNL A   1      41.960  30.168  33.705  1.00  0.00    -0.354 N 
ATOM     67  N   UNL A   1      39.533  30.625  32.110  1.00  0.00    -0.248 NA
ATOM     68  C   UNL A   1      37.359  31.456  31.933  1.00  0.00     0.031 C 
ATOM     69  C   UNL A   1      42.101  31.138  35.697  1.00  0.00     0.029 A 
ATOM     70  C   UNL A   1      41.289  30.999  34.584  1.00  0.00     0.049 A 
ATOM     71  H   UNL A   1      41.620  29.882  32.826  1.00  0.00     0.167 HD
ATOM     72  C   UNL A   1      39.233  31.362  33.250  1.00  0.00     0.074 A 
ATOM     73  C   UNL A   1      37.895  31.885  33.068  1.00  0.00     0.031 C 
ATOM     74  C   UNL A   1      39.987  31.569  34.356  1.00  0.00     0.034 A 
BRANCH  61  75
ATOM     75  C   UNL A   1      45.442  28.695  34.310  1.00  0.00     0.023 A 
ATOM     76  C   UNL A   1      45.565  27.556  35.130  1.00  0.00     0.012 A 
ATOM     77  C   UNL A   1      46.568  29.509  34.076  1.00  0.00     0.148 A 
ATOM     78  C   UNL A   1      46.790  27.234  35.713  1.00  0.00     0.002 A 
ATOM     79  C   UNL A   1      47.794  29.161  34.630  1.00  0.00     0.091 A 
ATOM     80  F   UNL A   1      46.421  30.594  33.302  1.00  0.00    -0.205 F 
ATOM     81  C   UNL A   1      47.904  28.026  35.452  1.00  0.00     0.022 A 
BRANCH  79  82
ATOM     82  S   UNL A   1      49.306  30.070  34.299  1.00  0.00     0.127 S 
ATOM     83  O   UNL A   1      50.282  29.320  35.089  1.00  0.00    -0.237 OA
ATOM     84  O   UNL A   1      49.447  29.914  32.851  1.00  0.00    -0.237 OA
ATOM     85  O   UNL A   1      49.067  31.434  34.748  1.00  0.00    -0.744 OA
ENDBRANCH  79  82
ENDBRANCH  61  75
BRANCH  62  86
ATOM     86  C   UNL A   1      37.002  30.404  29.212  1.00  0.00     0.023 A 
ATOM     87  C   UNL A   1      36.249  29.328  28.703  1.00  0.00     0.012 A 
ATOM     88  C   UNL A   1      36.539  31.719  29.010  1.00  0.00     0.148 A 
ATOM     89  C   UNL A   1      35.073  29.556  27.987  1.00  0.00     0.002 A 
ATOM     90  C   UNL A   1      35.336  31.937  28.344  1.00  0.00     0.091 A 
ATOM     91  F   UNL A   1      37.281  32.735  29.474  1.00  0.00    -0.205 F 
ATOM     92  C   UNL A   1      34.610  30.859  27.819  1.00  0.00     0.022 A 
BRANCH  90  93
ATOM     93  S   UNL A   1      34.610  33.575  28.210  1.00  0.00     0.127 S 
ATOM     94  O   UNL A   1      35.491  34.215  27.237  1.00  0.00    -0.237 OA
ATOM     95  O   UNL A   1      33.263  33.278  27.720  1.00  0.00    -0.237 OA
ATOM     96  O   UNL A   1      34.643  34.120  29.561  1.00  0.00    -0.744 OA
ENDBRANCH  90  93
ENDBRANCH  62  86
BRANCH  74  97
ATOM     97  C   UNL A   1      39.413  32.422  35.456  1.00  0.00     0.023 A 
ATOM     98  C   UNL A   1      38.531  31.845  36.389  1.00  0.00     0.012 A 
ATOM     99  C   UNL A   1      39.844  33.751  35.635  1.00  0.00     0.148 A 
ATOM    100  C   UNL A   1      38.071  32.584  37.477  1.00  0.00     0.002 A 
ATOM    101  C   UNL A   1      39.415  34.468  36.745  1.00  0.00     0.091 A 
ATOM    102  F   UNL A   1      40.670  34.284  34.724  1.00  0.00    -0.205 F 
ATOM    103  C   UNL A   1      38.524  33.888  37.664  1.00  0.00     0.022 A 
BRANCH 101 104
ATOM    104  S   UNL A   1      40.020  36.118  37.119  1.00  0.00     0.127 S 
ATOM    105  O   UNL A   1      41.428  35.860  37.412  1.00  0.00    -0.237 OA
ATOM    106  O   UNL A   1      39.780  36.830  35.862  1.00  0.00    -0.237 OA
ATOM    107  O   UNL A   1      39.223  36.592  38.242  1.00  0.00    -0.744 OA
ENDBRANCH 101 104
ENDBRANCH  74  97
ENDBRANCH  48  49
ENDBRANCH  41  43
ENDBRANCH  40  41
ENDBRANCH  39  40
ENDBRANCH   1  39
TORSDOF 20
ENDMDL
MODEL 3
REMARK VINA RESULT:     -11.3      3.861      5.117
REMARK SMILES CC1CC[NH+]([C@H](c2ccc(F)cc2)c2ccc([C@@H](C)C(=O)OCCOC(=O)c3ccc(-c4c5nc(c(-c6cccc(S(=O)(=O)[O-])c6F)c6ccc([nH]6)c(-c6cccc(S(=O)(=O)[O-])c6F)c6nc(c(-c7cccc(S(=O)(=O)[O-])c7F)c7ccc4[nH]7)C=C6)C=C5)cc3)cc2-c2ccc(C(F)(F)F)cc2)CC1
REMARK SMILES IDX 23 1 22 2 20 3 21 4 18 5 19 6 17 7 14 8 15 9 92 10 16 11
REMARK SMILES IDX 91 12 6 13 5 14 1 15 2 16 3 17 104 18 4 19 103 20 7 22 8 23
REMARK SMILES IDX 13 24 9 25 12 26 10 27 11 28 93 29 94 30 102 31 95 32 101 33
REMARK SMILES IDX 96 34 97 35 98 36 99 37 100 38 24 39 25 40 26 41 27 42 28 43
REMARK SMILES IDX 29 44 90 45 30 46 89 47 31 48 32 49 33 50 83 51 34 52 88 53
REMARK SMILES IDX 82 54 84 55 35 56 87 57 81 58 80 59 36 61 68 62 48 63 67 64
REMARK SMILES IDX 49 65 52 66 66 67 85 68 50 69 51 70 65 72 86 73 53 74 37 75
REMARK SMILES IDX 38 76 46 77 39 78 41 79 47 80 40 81 42 82 43 83 44 84 45 85
REMARK SMILES IDX 69 86 70 87 78 88 71 89 73 90 79 91 72 92 74 93 75 94 76 95
REMARK SMILES IDX 77 96 54 97 55 98 63 99 56 100 58 101 64 102 57 103 59 104
REMARK SMILES IDX 60 105 61 106 62 107
REMARK H PARENT 5 21 84 60 52 71
REMARK Flexibility Score: inf
ROOT
ATOM      1  C   UNL A   1      42.132  20.870  26.246  1.00  0.00     0.274 C 
ENDROOT
BRANCH   1   2
ATOM      2  O   UNL A   1      41.121  21.842  25.925  1.00  0.00    -0.462 OA
BRANCH   2   3
ATOM      3  C   UNL A   1      40.333  22.295  26.935  1.00  0.00     0.313 C 
ATOM      4  O   UNL A   1      40.339  21.833  28.071  1.00  0.00    -0.252 OA
BRANCH   3   5
ATOM      5  C   UNL A   1      39.373  23.409  26.509  1.00  0.00     0.126 C 
ATOM      6  C   UNL A   1      39.319  24.480  27.598  1.00  0.00     0.025 C 
BRANCH   5   7
ATOM      7  C   UNL A   1      37.984  22.952  26.089  1.00  0.00    -0.033 A 
ATOM      8  C   UNL A   1      35.381  22.113  25.221  1.00  0.00     0.022 A 
ATOM      9  C   UNL A   1      36.517  21.283  25.137  1.00  0.00     0.011 A 
ATOM     10  C   UNL A   1      35.571  23.410  25.778  1.00  0.00    -0.009 A 
ATOM     11  C   UNL A   1      37.775  21.674  25.586  1.00  0.00     0.005 A 
ATOM     12  C   UNL A   1      36.871  23.803  26.188  1.00  0.00     0.013 A 
BRANCH   8  13
ATOM     13  C   UNL A   1      33.981  21.604  24.768  1.00  0.00     0.247 C 
BRANCH  13  14
ATOM     14  N   UNL A   1      33.874  20.198  24.244  1.00  0.00    -0.325 N 
ATOM     15  C   UNL A   1      33.176  15.878  24.669  1.00  0.00     0.008 C 
ATOM     16  C   UNL A   1      33.365  17.380  24.845  1.00  0.00    -0.003 C 
ATOM     17  C   UNL A   1      32.345  18.178  24.034  1.00  0.00     0.065 C 
ATOM     18  C   UNL A   1      34.749  17.823  24.386  1.00  0.00     0.065 C 
ATOM     19  C   UNL A   1      32.502  19.683  24.267  1.00  0.00     0.263 C 
ATOM     20  C   UNL A   1      34.966  19.311  24.656  1.00  0.00     0.263 C 
ATOM     21  H   UNL A   1      34.061  20.232  23.242  1.00  0.00     0.348 HD
ENDBRANCH  13  14
BRANCH  13  22
ATOM     22  C   UNL A   1      33.211  22.578  23.860  1.00  0.00     0.014 A 
ATOM     23  C   UNL A   1      31.888  22.972  24.137  1.00  0.00     0.013 A 
ATOM     24  C   UNL A   1      33.848  23.116  22.723  1.00  0.00     0.013 A 
ATOM     25  C   UNL A   1      31.228  23.881  23.308  1.00  0.00     0.040 A 
ATOM     26  C   UNL A   1      33.178  24.007  21.884  1.00  0.00     0.040 A 
ATOM     27  C   UNL A   1      31.878  24.388  22.189  1.00  0.00     0.123 A 
ATOM     28  F   UNL A   1      31.245  25.262  21.397  1.00  0.00    -0.207 F 
ENDBRANCH  13  22
ENDBRANCH   8  13
BRANCH  10  29
ATOM     29  C   UNL A   1      34.478  24.389  25.945  1.00  0.00    -0.018 A 
ATOM     30  C   UNL A   1      34.495  25.608  25.246  1.00  0.00     0.009 A 
ATOM     31  C   UNL A   1      33.396  24.133  26.801  1.00  0.00     0.009 A 
ATOM     32  C   UNL A   1      33.440  26.520  25.361  1.00  0.00     0.014 A 
ATOM     33  C   UNL A   1      32.336  25.039  26.913  1.00  0.00     0.014 A 
ATOM     34  C   UNL A   1      32.339  26.235  26.180  1.00  0.00     0.056 A 
BRANCH  34  35
ATOM     35  C   UNL A   1      31.187  27.208  26.272  1.00  0.00     0.416 C 
ATOM     36  F   UNL A   1      31.213  28.148  25.291  1.00  0.00    -0.166 F 
ATOM     37  F   UNL A   1      29.974  26.597  26.184  1.00  0.00    -0.166 F 
ATOM     38  F   UNL A   1      31.163  27.898  27.450  1.00  0.00    -0.166 F 
ENDBRANCH  34  35
ENDBRANCH  10  29
ENDBRANCH   5   7
ENDBRANCH   3   5
ENDBRANCH   2   3
ENDBRANCH   1   2
BRANCH   1  39
ATOM     39  C   UNL A   1      43.428  21.181  25.497  1.00  0.00     0.275 C 
BRANCH  39  40
ATOM     40  O   UNL A   1      43.244  22.314  24.631  1.00  0.00    -0.458 OA
BRANCH  40  41
ATOM     41  C   UNL A   1      44.352  23.053  24.389  1.00  0.00     0.338 C 
ATOM     42  O   UNL A   1      45.144  22.933  23.473  1.00  0.00    -0.246 OA
BRANCH  41  43
ATOM     43  C   UNL A   1      44.409  24.141  25.375  1.00  0.00     0.060 A 
ATOM     44  C   UNL A   1      45.651  24.491  25.906  1.00  0.00     0.016 A 
ATOM     45  C   UNL A   1      43.245  24.770  25.812  1.00  0.00     0.016 A 
ATOM     46  C   UNL A   1      45.740  25.470  26.890  1.00  0.00     0.010 A 
ATOM     47  C   UNL A   1      43.335  25.759  26.795  1.00  0.00     0.010 A 
ATOM     48  C   UNL A   1      44.580  26.107  27.348  1.00  0.00    -0.014 A 
BRANCH  48  49
ATOM     49  C   UNL A   1      44.665  27.103  28.442  1.00  0.00     0.031 A 
ATOM     50  C   UNL A   1      44.584  26.645  29.871  1.00  0.00     0.074 A 
ATOM     51  C   UNL A   1      44.820  28.409  28.152  1.00  0.00     0.049 A 
ATOM     52  N   UNL A   1      44.550  27.360  30.963  1.00  0.00    -0.248 NA
ATOM     53  C   UNL A   1      44.537  25.190  30.101  1.00  0.00     0.031 C 
ATOM     54  C   UNL A   1      44.945  28.965  26.803  1.00  0.00     0.029 A 
ATOM     55  N   UNL A   1      44.887  29.507  28.973  1.00  0.00    -0.354 N 
ATOM     56  C   UNL A   1      44.444  26.450  32.008  1.00  0.00     0.074 A 
ATOM     57  C   UNL A   1      44.419  25.128  31.422  1.00  0.00     0.031 C 
ATOM     58  C   UNL A   1      45.068  30.299  26.889  1.00  0.00     0.029 A 
ATOM     59  C   UNL A   1      44.989  30.698  28.292  1.00  0.00     0.049 A 
ATOM     60  H   UNL A   1      44.864  29.448  29.955  1.00  0.00     0.167 HD
ATOM     61  C   UNL A   1      44.391  26.698  33.337  1.00  0.00     0.034 A 
ATOM     62  C   UNL A   1      44.996  31.967  28.748  1.00  0.00     0.034 A 
ATOM     63  C   UNL A   1      44.455  28.012  33.917  1.00  0.00     0.049 A 
ATOM     64  C   UNL A   1      44.901  32.209  30.232  1.00  0.00     0.074 A 
ATOM     65  C   UNL A   1      44.410  28.362  35.254  1.00  0.00     0.029 A 
ATOM     66  N   UNL A   1      44.586  29.189  33.198  1.00  0.00    -0.354 N 
ATOM     67  N   UNL A   1      44.860  31.337  31.209  1.00  0.00    -0.248 NA
ATOM     68  C   UNL A   1      44.873  33.610  30.680  1.00  0.00     0.031 C 
ATOM     69  C   UNL A   1      44.510  29.753  35.344  1.00  0.00     0.029 A 
ATOM     70  C   UNL A   1      44.630  30.268  34.063  1.00  0.00     0.049 A 
ATOM     71  H   UNL A   1      44.641  29.249  32.216  1.00  0.00     0.167 HD
ATOM     72  C   UNL A   1      44.834  32.078  32.384  1.00  0.00     0.074 A 
ATOM     73  C   UNL A   1      44.885  33.473  31.999  1.00  0.00     0.031 C 
ATOM     74  C   UNL A   1      44.753  31.645  33.666  1.00  0.00     0.034 A 
BRANCH  61  75
ATOM     75  C   UNL A   1      44.301  25.527  34.277  1.00  0.00     0.023 A 
ATOM     76  C   UNL A   1      43.034  25.071  34.689  1.00  0.00     0.012 A 
ATOM     77  C   UNL A   1      45.454  24.808  34.650  1.00  0.00     0.148 A 
ATOM     78  C   UNL A   1      42.914  23.919  35.466  1.00  0.00     0.002 A 
ATOM     79  C   UNL A   1      45.325  23.641  35.392  1.00  0.00     0.091 A 
ATOM     80  F   UNL A   1      46.649  25.269  34.254  1.00  0.00    -0.205 F 
ATOM     81  C   UNL A   1      44.056  23.199  35.805  1.00  0.00     0.022 A 
BRANCH  79  82
ATOM     82  S   UNL A   1      46.723  22.598  35.820  1.00  0.00     0.127 S 
ATOM     83  O   UNL A   1      47.502  23.486  36.684  1.00  0.00    -0.237 OA
ATOM     84  O   UNL A   1      46.075  21.487  36.517  1.00  0.00    -0.237 OA
ATOM     85  O   UNL A   1      47.365  22.243  34.562  1.00  0.00    -0.744 OA
ENDBRANCH  79  82
ENDBRANCH  61  75
BRANCH  62  86
ATOM     86  C   UNL A   1      45.144  33.106  27.796  1.00  0.00     0.023 A 
ATOM     87  C   UNL A   1      43.991  33.757  27.318  1.00  0.00     0.012 A 
ATOM     88  C   UNL A   1      46.410  33.562  27.380  1.00  0.00     0.148 A 
ATOM     89  C   UNL A   1      44.093  34.823  26.423  1.00  0.00     0.002 A 
ATOM     90  C   UNL A   1      46.507  34.662  26.532  1.00  0.00     0.091 A 
ATOM     91  F   UNL A   1      47.499  32.915  27.820  1.00  0.00    -0.205 F 
ATOM     92  C   UNL A   1      45.350  35.284  26.040  1.00  0.00     0.022 A 
BRANCH  90  93
ATOM     93  S   UNL A   1      48.091  35.395  26.107  1.00  0.00     0.127 S 
ATOM     94  O   UNL A   1      48.564  34.499  25.056  1.00  0.00    -0.237 OA
ATOM     95  O   UNL A   1      47.703  36.730  25.650  1.00  0.00    -0.237 OA
ATOM     96  O   UNL A   1      48.859  35.392  27.345  1.00  0.00    -0.744 OA
ENDBRANCH  90  93
ENDBRANCH  62  86
BRANCH  74  97
ATOM     97  C   UNL A   1      44.746  32.676  34.763  1.00  0.00     0.023 A 
ATOM     98  C   UNL A   1      45.968  33.125  35.298  1.00  0.00     0.012 A 
ATOM     99  C   UNL A   1      43.542  33.284  35.171  1.00  0.00     0.148 A 
ATOM    100  C   UNL A   1      45.992  34.155  36.236  1.00  0.00     0.002 A 
ATOM    101  C   UNL A   1      43.577  34.339  36.074  1.00  0.00     0.091 A 
ATOM    102  F   UNL A   1      42.390  32.827  34.660  1.00  0.00    -0.205 F 
ATOM    103  C   UNL A   1      44.800  34.771  36.613  1.00  0.00     0.022 A 
BRANCH 101 104
ATOM    104  S   UNL A   1      42.104  35.255  36.543  1.00  0.00     0.127 S 
ATOM    105  O   UNL A   1      41.625  35.732  35.248  1.00  0.00    -0.237 OA
ATOM    106  O   UNL A   1      41.273  34.216  37.156  1.00  0.00    -0.237 OA
ATOM    107  O   UNL A   1      42.554  36.290  37.465  1.00  0.00    -0.744 OA
ENDBRANCH 101 104
ENDBRANCH  74  97
ENDBRANCH  48  49
ENDBRANCH  41  43
ENDBRANCH  40  41
ENDBRANCH  39  40
ENDBRANCH   1  39
TORSDOF 20
ENDMDL
