MODEL 1
REMARK VINA RESULT:     -11.9      0.000      0.000
REMARK SMILES CCSc1nc(CC(=O)N[C@@H](C(=O)OCCOC(=O)c2ccc(-c3c4nc(c(-c5cccc(S(=O)(=O)[O-])c5F)c5ccc([nH]5)c(-c5cccc(S(=O)(=O)[O-])c5F)c5nc(c(-c6cccc(S(=O)(=O)[O-])c6F)c6ccc3[nH]6)C=C5)C=C4)cc2)C2=C(C)N=N[C@@H]2C)cs1
REMARK SMILES IDX 15 1 14 2 12 3 13 4 11 5 10 6 8 7 9 8 7 10 6 11 4 12 5 13
REMARK SMILES IDX 91 14 90 15 3 16 2 17 1 18 83 19 84 20 88 21 85 22 86 23
REMARK SMILES IDX 87 24 89 25 16 26 17 27 18 28 19 29 20 30 21 31 82 32 22 33
REMARK SMILES IDX 81 34 23 35 24 36 25 37 75 38 26 39 80 40 74 41 76 42 27 43
REMARK SMILES IDX 79 44 73 45 72 46 28 48 60 49 40 50 59 51 41 52 44 53 58 54
REMARK SMILES IDX 77 55 42 56 43 57 57 59 78 60 45 61 29 62 30 63 38 64 31 65
REMARK SMILES IDX 33 66 39 67 32 68 34 69 35 70 36 71 37 72 61 73 62 74 70 75
REMARK SMILES IDX 63 76 65 77 71 78 64 79 66 80 67 81 68 82 69 83 46 84 47 85
REMARK SMILES IDX 55 86 48 87 50 88 56 89 49 90 51 91 52 92 53 93 54 94
REMARK H PARENT 10 9 76 47 44 58
REMARK Flexibility Score: inf
ROOT
ATOM      1  C   UNL A   1      32.344  28.656  24.945  1.00  0.00     0.274 C 
ENDROOT
BRANCH   1   2
ATOM      2  O   UNL A   1      31.420  27.554  24.809  1.00  0.00    -0.460 OA
BRANCH   2   3
ATOM      3  C   UNL A   1      31.266  26.735  25.893  1.00  0.00     0.333 C 
ATOM      4  O   UNL A   1      30.996  27.123  27.024  1.00  0.00    -0.249 OA
BRANCH   3   5
ATOM      5  C   UNL A   1      31.568  25.248  25.554  1.00  0.00     0.223 C 
BRANCH   5   6
ATOM      6  N   UNL A   1      32.028  24.462  26.692  1.00  0.00    -0.339 N 
ATOM      7  C   UNL A   1      31.891  23.116  26.869  1.00  0.00     0.226 C 
ATOM      8  O   UNL A   1      32.145  22.627  27.971  1.00  0.00    -0.275 OA
ATOM      9  H   UNL A   1      32.488  24.955  27.411  1.00  0.00     0.164 HD
BRANCH   7  10
ATOM     10  C   UNL A   1      31.456  22.241  25.707  1.00  0.00     0.157 C 
BRANCH  10  11
ATOM     11  C   UNL A   1      32.477  21.206  25.363  1.00  0.00     0.062 A 
ATOM     12  C   UNL A   1      33.078  19.187  24.668  1.00  0.00     0.150 A 
ATOM     13  N   UNL A   1      32.050  19.927  25.022  1.00  0.00    -0.234 NA
ATOM     14  S   UNL A   1      34.611  19.946  24.784  1.00  0.00    -0.116 S 
ATOM     15  C   UNL A   1      33.848  21.385  25.313  1.00  0.00     0.092 A 
BRANCH  12  16
ATOM     16  S   UNL A   1      32.890  17.570  24.024  1.00  0.00    -0.096 SA
BRANCH  16  17
ATOM     17  C   UNL A   1      33.404  16.548  25.434  1.00  0.00     0.074 C 
ATOM     18  C   UNL A   1      32.469  15.366  25.613  1.00  0.00     0.016 C 
ENDBRANCH  16  17
ENDBRANCH  12  16
ENDBRANCH  10  11
ENDBRANCH   7  10
ENDBRANCH   5   6
BRANCH   5  19
ATOM     19  C   UNL A   1      32.512  25.028  24.424  1.00  0.00     0.012 C 
ATOM     20  C   UNL A   1      33.852  25.043  24.417  1.00  0.00     0.064 C 
ATOM     21  C   UNL A   1      32.135  24.579  23.057  1.00  0.00     0.156 C 
ATOM     22  C   UNL A   1      34.794  25.364  25.522  1.00  0.00     0.069 C 
ATOM     23  N   UNL A   1      34.376  24.688  23.201  1.00  0.00    -0.160 NA
ATOM     24  N   UNL A   1      33.452  24.413  22.390  1.00  0.00    -0.181 NA
ATOM     25  C   UNL A   1      31.297  25.546  22.241  1.00  0.00     0.040 C 
ENDBRANCH   5  19
ENDBRANCH   3   5
ENDBRANCH   2   3
ENDBRANCH   1   2
BRANCH   1  26
ATOM     26  C   UNL A   1      31.691  29.900  25.531  1.00  0.00     0.275 C 
BRANCH  26  27
ATOM     27  O   UNL A   1      32.156  30.091  26.874  1.00  0.00    -0.458 OA
BRANCH  27  28
ATOM     28  C   UNL A   1      32.784  31.261  27.118  1.00  0.00     0.338 C 
ATOM     29  O   UNL A   1      32.277  32.375  27.119  1.00  0.00    -0.246 OA
BRANCH  28  30
ATOM     30  C   UNL A   1      34.194  31.024  27.482  1.00  0.00     0.060 A 
ATOM     31  C   UNL A   1      34.649  29.735  27.753  1.00  0.00     0.016 A 
ATOM     32  C   UNL A   1      35.023  32.116  27.728  1.00  0.00     0.016 A 
ATOM     33  C   UNL A   1      35.859  29.552  28.426  1.00  0.00     0.010 A 
ATOM     34  C   UNL A   1      36.292  31.914  28.276  1.00  0.00     0.010 A 
ATOM     35  C   UNL A   1      36.707  30.635  28.692  1.00  0.00    -0.014 A 
BRANCH  35  36
ATOM     36  C   UNL A   1      37.995  30.475  29.429  1.00  0.00     0.031 A 
ATOM     37  C   UNL A   1      39.087  29.616  28.842  1.00  0.00     0.074 A 
ATOM     38  C   UNL A   1      38.193  31.042  30.637  1.00  0.00     0.049 A 
ATOM     39  N   UNL A   1      40.078  29.010  29.443  1.00  0.00    -0.248 NA
ATOM     40  C   UNL A   1      39.038  29.381  27.388  1.00  0.00     0.031 C 
ATOM     41  C   UNL A   1      37.274  31.957  31.315  1.00  0.00     0.029 A 
ATOM     42  N   UNL A   1      39.232  30.901  31.529  1.00  0.00    -0.354 N 
ATOM     43  C   UNL A   1      40.697  28.236  28.469  1.00  0.00     0.074 A 
ATOM     44  C   UNL A   1      39.997  28.478  27.226  1.00  0.00     0.031 C 
ATOM     45  C   UNL A   1      37.790  32.308  32.499  1.00  0.00     0.029 A 
ATOM     46  C   UNL A   1      39.007  31.540  32.726  1.00  0.00     0.049 A 
ATOM     47  H   UNL A   1      40.052  30.395  31.329  1.00  0.00     0.167 HD
ATOM     48  C   UNL A   1      41.749  27.395  28.606  1.00  0.00     0.034 A 
ATOM     49  C   UNL A   1      39.644  31.455  33.911  1.00  0.00     0.034 A 
ATOM     50  C   UNL A   1      42.508  27.255  29.820  1.00  0.00     0.049 A 
ATOM     51  C   UNL A   1      40.813  30.526  34.046  1.00  0.00     0.074 A 
ATOM     52  C   UNL A   1      43.608  26.449  30.061  1.00  0.00     0.029 A 
ATOM     53  N   UNL A   1      42.269  27.965  30.986  1.00  0.00    -0.354 N 
ATOM     54  N   UNL A   1      41.357  29.752  33.139  1.00  0.00    -0.248 NA
ATOM     55  C   UNL A   1      41.454  30.449  35.366  1.00  0.00     0.031 C 
ATOM     56  C   UNL A   1      44.037  26.677  31.373  1.00  0.00     0.029 A 
ATOM     57  C   UNL A   1      43.208  27.629  31.945  1.00  0.00     0.049 A 
ATOM     58  H   UNL A   1      41.538  28.613  31.113  1.00  0.00     0.167 HD
ATOM     59  C   UNL A   1      42.412  29.108  33.771  1.00  0.00     0.074 A 
ATOM     60  C   UNL A   1      42.446  29.599  35.133  1.00  0.00     0.031 C 
ATOM     61  C   UNL A   1      43.263  28.176  33.275  1.00  0.00     0.034 A 
BRANCH  48  62
ATOM     62  C   UNL A   1      42.166  26.568  27.419  1.00  0.00     0.023 A 
ATOM     63  C   UNL A   1      42.972  27.135  26.413  1.00  0.00     0.012 A 
ATOM     64  C   UNL A   1      41.833  25.200  27.347  1.00  0.00     0.148 A 
ATOM     65  C   UNL A   1      43.427  26.357  25.347  1.00  0.00     0.002 A 
ATOM     66  C   UNL A   1      42.321  24.422  26.303  1.00  0.00     0.091 A 
ATOM     67  F   UNL A   1      41.042  24.683  28.299  1.00  0.00    -0.205 F 
ATOM     68  C   UNL A   1      43.113  25.000  25.299  1.00  0.00     0.022 A 
BRANCH  66  69
ATOM     69  S   UNL A   1      42.034  22.650  26.210  1.00  0.00     0.127 S 
ATOM     70  O   UNL A   1      42.686  22.310  24.946  1.00  0.00    -0.237 OA
ATOM     71  O   UNL A   1      42.724  22.157  27.403  1.00  0.00    -0.237 OA
ATOM     72  O   UNL A   1      40.587  22.481  26.240  1.00  0.00    -0.744 OA
ENDBRANCH  66  69
ENDBRANCH  48  62
BRANCH  49  73
ATOM     73  C   UNL A   1      39.149  32.264  35.062  1.00  0.00     0.023 A 
ATOM     74  C   UNL A   1      38.287  31.674  36.003  1.00  0.00     0.012 A 
ATOM     75  C   UNL A   1      39.615  33.576  35.287  1.00  0.00     0.148 A 
ATOM     76  C   UNL A   1      37.902  32.373  37.149  1.00  0.00     0.002 A 
ATOM     77  C   UNL A   1      39.288  34.237  36.465  1.00  0.00     0.091 A 
ATOM     78  F   UNL A   1      40.407  34.140  34.363  1.00  0.00    -0.205 F 
ATOM     79  C   UNL A   1      38.419  33.644  37.391  1.00  0.00     0.022 A 
BRANCH  77  80
ATOM     80  S   UNL A   1      40.084  35.782  36.923  1.00  0.00     0.127 S 
ATOM     81  O   UNL A   1      39.702  36.658  35.820  1.00  0.00    -0.237 OA
ATOM     82  O   UNL A   1      39.450  36.093  38.206  1.00  0.00    -0.237 OA
ATOM     83  O   UNL A   1      41.502  35.461  37.030  1.00  0.00    -0.744 OA
ENDBRANCH  77  80
ENDBRANCH  49  73
BRANCH  61  84
ATOM     84  C   UNL A   1      44.328  27.651  34.193  1.00  0.00     0.023 A 
ATOM     85  C   UNL A   1      45.564  28.321  34.276  1.00  0.00     0.012 A 
ATOM     86  C   UNL A   1      44.073  26.551  35.034  1.00  0.00     0.148 A 
ATOM     87  C   UNL A   1      46.541  27.891  35.172  1.00  0.00     0.002 A 
ATOM     88  C   UNL A   1      45.038  26.150  35.949  1.00  0.00     0.091 A 
ATOM     89  F   UNL A   1      42.896  25.919  34.921  1.00  0.00    -0.205 F 
ATOM     90  C   UNL A   1      46.274  26.814  36.017  1.00  0.00     0.022 A 
BRANCH  88  91
ATOM     91  S   UNL A   1      44.753  24.822  37.126  1.00  0.00     0.127 S 
ATOM     92  O   UNL A   1      43.463  25.203  37.698  1.00  0.00    -0.237 OA
ATOM     93  O   UNL A   1      44.713  23.642  36.262  1.00  0.00    -0.237 OA
ATOM     94  O   UNL A   1      45.881  24.856  38.049  1.00  0.00    -0.744 OA
ENDBRANCH  88  91
ENDBRANCH  61  84
ENDBRANCH  35  36
ENDBRANCH  28  30
ENDBRANCH  27  28
ENDBRANCH  26  27
ENDBRANCH   1  26
TORSDOF 20
ENDMDL
MODEL 2
REMARK VINA RESULT:     -11.8      1.739      2.412
REMARK SMILES CCSc1nc(CC(=O)N[C@@H](C(=O)OCCOC(=O)c2ccc(-c3c4nc(c(-c5cccc(S(=O)(=O)[O-])c5F)c5ccc([nH]5)c(-c5cccc(S(=O)(=O)[O-])c5F)c5nc(c(-c6cccc(S(=O)(=O)[O-])c6F)c6ccc3[nH]6)C=C5)C=C4)cc2)C2=C(C)N=N[C@@H]2C)cs1
REMARK SMILES IDX 15 1 14 2 12 3 13 4 11 5 10 6 8 7 9 8 7 10 6 11 4 12 5 13
REMARK SMILES IDX 91 14 90 15 3 16 2 17 1 18 83 19 84 20 88 21 85 22 86 23
REMARK SMILES IDX 87 24 89 25 16 26 17 27 18 28 19 29 20 30 21 31 82 32 22 33
REMARK SMILES IDX 81 34 23 35 24 36 25 37 75 38 26 39 80 40 74 41 76 42 27 43
REMARK SMILES IDX 79 44 73 45 72 46 28 48 60 49 40 50 59 51 41 52 44 53 58 54
REMARK SMILES IDX 77 55 42 56 43 57 57 59 78 60 45 61 29 62 30 63 38 64 31 65
REMARK SMILES IDX 33 66 39 67 32 68 34 69 35 70 36 71 37 72 61 73 62 74 70 75
REMARK SMILES IDX 63 76 65 77 71 78 64 79 66 80 67 81 68 82 69 83 46 84 47 85
REMARK SMILES IDX 55 86 48 87 50 88 56 89 49 90 51 91 52 92 53 93 54 94
REMARK H PARENT 10 9 76 47 44 58
REMARK Flexibility Score: inf
ROOT
ATOM      1  C   UNL A   1      32.792  29.679  24.957  1.00  0.00     0.274 C 
ENDROOT
BRANCH   1   2
ATOM      2  O   UNL A   1      33.281  28.321  25.012  1.00  0.00    -0.460 OA
BRANCH   2   3
ATOM      3  C   UNL A   1      32.875  27.473  24.019  1.00  0.00     0.333 C 
ATOM      4  O   UNL A   1      32.489  27.834  22.913  1.00  0.00    -0.249 OA
BRANCH   3   5
ATOM      5  C   UNL A   1      32.864  25.989  24.481  1.00  0.00     0.223 C 
BRANCH   5   6
ATOM      6  N   UNL A   1      33.048  25.030  23.399  1.00  0.00    -0.339 N 
ATOM      7  C   UNL A   1      34.103  24.182  23.226  1.00  0.00     0.226 C 
ATOM      8  O   UNL A   1      34.219  23.580  22.157  1.00  0.00    -0.275 OA
ATOM      9  H   UNL A   1      32.336  24.990  22.720  1.00  0.00     0.164 HD
BRANCH   7  10
ATOM     10  C   UNL A   1      35.098  23.972  24.353  1.00  0.00     0.157 C 
BRANCH  10  11
ATOM     11  C   UNL A   1      35.383  22.526  24.596  1.00  0.00     0.062 A 
ATOM     12  C   UNL A   1      34.768  20.404  24.800  1.00  0.00     0.150 A 
ATOM     13  N   UNL A   1      34.319  21.634  24.671  1.00  0.00    -0.234 NA
ATOM     14  S   UNL A   1      36.472  20.247  24.905  1.00  0.00    -0.116 S 
ATOM     15  C   UNL A   1      36.630  21.943  24.732  1.00  0.00     0.092 A 
BRANCH  12  16
ATOM     16  S   UNL A   1      33.708  19.011  24.763  1.00  0.00    -0.096 SA
BRANCH  16  17
ATOM     17  C   UNL A   1      34.854  17.687  24.286  1.00  0.00     0.074 C 
ATOM     18  C   UNL A   1      34.537  16.404  25.033  1.00  0.00     0.016 C 
ENDBRANCH  16  17
ENDBRANCH  12  16
ENDBRANCH  10  11
ENDBRANCH   7  10
ENDBRANCH   5   6
BRANCH   5  19
ATOM     19  C   UNL A   1      31.672  25.575  25.273  1.00  0.00     0.012 C 
ATOM     20  C   UNL A   1      31.572  24.665  26.251  1.00  0.00     0.064 C 
ATOM     21  C   UNL A   1      30.337  26.230  25.232  1.00  0.00     0.156 C 
ATOM     22  C   UNL A   1      32.607  23.739  26.782  1.00  0.00     0.069 C 
ATOM     23  N   UNL A   1      30.325  24.637  26.819  1.00  0.00    -0.160 NA
ATOM     24  N   UNL A   1      29.582  25.503  26.285  1.00  0.00    -0.181 NA
ATOM     25  C   UNL A   1      29.576  26.119  23.924  1.00  0.00     0.040 C 
ENDBRANCH   5  19
ENDBRANCH   3   5
ENDBRANCH   2   3
ENDBRANCH   1   2
BRANCH   1  26
ATOM     26  C   UNL A   1      31.998  30.069  26.196  1.00  0.00     0.275 C 
BRANCH  26  27
ATOM     27  O   UNL A   1      32.871  30.078  27.334  1.00  0.00    -0.458 OA
BRANCH  27  28
ATOM     28  C   UNL A   1      33.585  31.209  27.518  1.00  0.00     0.338 C 
ATOM     29  O   UNL A   1      33.149  32.353  27.533  1.00  0.00    -0.246 OA
BRANCH  28  30
ATOM     30  C   UNL A   1      34.999  30.889  27.793  1.00  0.00     0.060 A 
ATOM     31  C   UNL A   1      35.399  29.570  28.004  1.00  0.00     0.016 A 
ATOM     32  C   UNL A   1      35.897  31.929  28.020  1.00  0.00     0.016 A 
ATOM     33  C   UNL A   1      36.632  29.306  28.601  1.00  0.00     0.010 A 
ATOM     34  C   UNL A   1      37.182  31.646  28.489  1.00  0.00     0.010 A 
ATOM     35  C   UNL A   1      37.550  30.335  28.846  1.00  0.00    -0.014 A 
BRANCH  35  36
ATOM     36  C   UNL A   1      38.868  30.088  29.504  1.00  0.00     0.031 A 
ATOM     37  C   UNL A   1      39.837  29.112  28.885  1.00  0.00     0.074 A 
ATOM     38  C   UNL A   1      39.198  30.679  30.671  1.00  0.00     0.049 A 
ATOM     39  N   UNL A   1      40.810  28.442  29.445  1.00  0.00    -0.248 NA
ATOM     40  C   UNL A   1      39.667  28.828  27.449  1.00  0.00     0.031 C 
ATOM     41  C   UNL A   1      38.412  31.699  31.366  1.00  0.00     0.029 A 
ATOM     42  N   UNL A   1      40.280  30.479  31.498  1.00  0.00    -0.354 N 
ATOM     43  C   UNL A   1      41.290  27.578  28.467  1.00  0.00     0.074 A 
ATOM     44  C   UNL A   1      40.529  27.836  27.264  1.00  0.00     0.031 C 
ATOM     45  C   UNL A   1      39.037  32.046  32.497  1.00  0.00     0.029 A 
ATOM     46  C   UNL A   1      40.194  31.180  32.678  1.00  0.00     0.049 A 
ATOM     47  H   UNL A   1      41.037  29.893  31.267  1.00  0.00     0.167 HD
ATOM     48  C   UNL A   1      42.271  26.651  28.572  1.00  0.00     0.034 A 
ATOM     49  C   UNL A   1      40.902  31.082  33.822  1.00  0.00     0.034 A 
ATOM     50  C   UNL A   1      43.097  26.489  29.739  1.00  0.00     0.049 A 
ATOM     51  C   UNL A   1      41.992  30.057  33.920  1.00  0.00     0.074 A 
ATOM     52  C   UNL A   1      44.136  25.597  29.942  1.00  0.00     0.029 A 
ATOM     53  N   UNL A   1      43.002  27.261  30.886  1.00  0.00    -0.354 N 
ATOM     54  N   UNL A   1      42.401  29.203  33.013  1.00  0.00    -0.248 NA
ATOM     55  C   UNL A   1      42.713  29.973  35.197  1.00  0.00     0.031 C 
ATOM     56  C   UNL A   1      44.673  25.835  31.212  1.00  0.00     0.029 A 
ATOM     57  C   UNL A   1      43.972  26.878  31.796  1.00  0.00     0.049 A 
ATOM     58  H   UNL A   1      42.342  27.977  31.032  1.00  0.00     0.167 HD
ATOM     59  C   UNL A   1      43.437  28.491  33.603  1.00  0.00     0.074 A 
ATOM     60  C   UNL A   1      43.609  29.028  34.937  1.00  0.00     0.031 C 
ATOM     61  C   UNL A   1      44.167  27.468  33.093  1.00  0.00     0.034 A 
BRANCH  48  62
ATOM     62  C   UNL A   1      42.531  25.746  27.397  1.00  0.00     0.023 A 
ATOM     63  C   UNL A   1      43.352  26.182  26.340  1.00  0.00     0.012 A 
ATOM     64  C   UNL A   1      42.033  24.427  27.387  1.00  0.00     0.148 A 
ATOM     65  C   UNL A   1      43.661  25.324  25.283  1.00  0.00     0.002 A 
ATOM     66  C   UNL A   1      42.376  23.566  26.351  1.00  0.00     0.091 A 
ATOM     67  F   UNL A   1      41.231  24.037  28.389  1.00  0.00    -0.205 F 
ATOM     68  C   UNL A   1      43.184  24.014  25.295  1.00  0.00     0.022 A 
BRANCH  66  69
ATOM     69  S   UNL A   1      41.875  21.839  26.331  1.00  0.00     0.127 S 
ATOM     70  O   UNL A   1      42.212  21.418  27.689  1.00  0.00    -0.237 OA
ATOM     71  O   UNL A   1      40.439  21.933  26.062  1.00  0.00    -0.237 OA
ATOM     72  O   UNL A   1      42.646  21.214  25.265  1.00  0.00    -0.744 OA
ENDBRANCH  66  69
ENDBRANCH  48  62
BRANCH  49  73
ATOM     73  C   UNL A   1      40.561  31.976  34.966  1.00  0.00     0.023 A 
ATOM     74  C   UNL A   1      41.208  33.219  35.089  1.00  0.00     0.012 A 
ATOM     75  C   UNL A   1      39.523  31.651  35.863  1.00  0.00     0.148 A 
ATOM     76  C   UNL A   1      40.825  34.121  36.084  1.00  0.00     0.002 A 
ATOM     77  C   UNL A   1      39.097  32.584  36.800  1.00  0.00     0.091 A 
ATOM     78  F   UNL A   1      38.939  30.448  35.756  1.00  0.00    -0.205 F 
ATOM     79  C   UNL A   1      39.756  33.815  36.923  1.00  0.00     0.022 A 
BRANCH  77  80
ATOM     80  S   UNL A   1      37.603  32.326  37.766  1.00  0.00     0.127 S 
ATOM     81  O   UNL A   1      37.509  30.870  37.796  1.00  0.00    -0.237 OA
ATOM     82  O   UNL A   1      37.945  32.949  39.046  1.00  0.00    -0.237 OA
ATOM     83  O   UNL A   1      36.554  33.025  37.033  1.00  0.00    -0.744 OA
ENDBRANCH  77  80
ENDBRANCH  49  73
BRANCH  61  84
ATOM     84  C   UNL A   1      45.243  26.883  33.962  1.00  0.00     0.023 A 
ATOM     85  C   UNL A   1      46.533  27.447  33.941  1.00  0.00     0.012 A 
ATOM     86  C   UNL A   1      44.953  25.838  34.859  1.00  0.00     0.148 A 
ATOM     87  C   UNL A   1      47.528  26.964  34.790  1.00  0.00     0.002 A 
ATOM     88  C   UNL A   1      45.939  25.386  35.727  1.00  0.00     0.091 A 
ATOM     89  F   UNL A   1      43.722  25.306  34.845  1.00  0.00    -0.205 F 
ATOM     90  C   UNL A   1      47.228  25.943  35.690  1.00  0.00     0.022 A 
BRANCH  88  91
ATOM     91  S   UNL A   1      45.623  24.127  36.969  1.00  0.00     0.127 S 
ATOM     92  O   UNL A   1      46.922  24.031  37.633  1.00  0.00    -0.237 OA
ATOM     93  O   UNL A   1      44.569  24.743  37.776  1.00  0.00    -0.237 OA
ATOM     94  O   UNL A   1      45.205  22.938  36.237  1.00  0.00    -0.744 OA
ENDBRANCH  88  91
ENDBRANCH  61  84
ENDBRANCH  35  36
ENDBRANCH  28  30
ENDBRANCH  27  28
ENDBRANCH  26  27
ENDBRANCH   1  26
TORSDOF 20
ENDMDL
MODEL 3
REMARK VINA RESULT:     -11.3      2.325      3.950
REMARK SMILES CCSc1nc(CC(=O)N[C@@H](C(=O)OCCOC(=O)c2ccc(-c3c4nc(c(-c5cccc(S(=O)(=O)[O-])c5F)c5ccc([nH]5)c(-c5cccc(S(=O)(=O)[O-])c5F)c5nc(c(-c6cccc(S(=O)(=O)[O-])c6F)c6ccc3[nH]6)C=C5)C=C4)cc2)C2=C(C)N=N[C@@H]2C)cs1
REMARK SMILES IDX 15 1 14 2 12 3 13 4 11 5 10 6 8 7 9 8 7 10 6 11 4 12 5 13
REMARK SMILES IDX 91 14 90 15 3 16 2 17 1 18 83 19 84 20 88 21 85 22 86 23
REMARK SMILES IDX 87 24 89 25 16 26 17 27 18 28 19 29 20 30 21 31 82 32 22 33
REMARK SMILES IDX 81 34 23 35 24 36 25 37 75 38 26 39 80 40 74 41 76 42 27 43
REMARK SMILES IDX 79 44 73 45 72 46 28 48 60 49 40 50 59 51 41 52 44 53 58 54
REMARK SMILES IDX 77 55 42 56 43 57 57 59 78 60 45 61 29 62 30 63 38 64 31 65
REMARK SMILES IDX 33 66 39 67 32 68 34 69 35 70 36 71 37 72 61 73 62 74 70 75
REMARK SMILES IDX 63 76 65 77 71 78 64 79 66 80 67 81 68 82 69 83 46 84 47 85
REMARK SMILES IDX 55 86 48 87 50 88 56 89 49 90 51 91 52 92 53 93 54 94
REMARK H PARENT 10 9 76 47 44 58
REMARK Flexibility Score: inf
ROOT
ATOM      1  C   UNL A   1      33.505  27.832  24.108  1.00  0.00     0.274 C 
ENDROOT
BRANCH   1   2
ATOM      2  O   UNL A   1      32.781  27.063  23.122  1.00  0.00    -0.460 OA
BRANCH   2   3
ATOM      3  C   UNL A   1      33.196  25.779  22.908  1.00  0.00     0.333 C 
ATOM      4  O   UNL A   1      34.040  25.450  22.082  1.00  0.00    -0.249 OA
BRANCH   3   5
ATOM      5  C   UNL A   1      32.405  24.754  23.769  1.00  0.00     0.223 C 
BRANCH   5   6
ATOM      6  N   UNL A   1      31.922  25.291  25.035  1.00  0.00    -0.339 N 
ATOM      7  C   UNL A   1      30.664  25.748  25.305  1.00  0.00     0.226 C 
ATOM      8  O   UNL A   1      30.463  26.362  26.354  1.00  0.00    -0.275 OA
ATOM      9  H   UNL A   1      32.571  25.328  25.774  1.00  0.00     0.164 HD
BRANCH   7  10
ATOM     10  C   UNL A   1      29.534  25.474  24.329  1.00  0.00     0.157 C 
BRANCH  10  11
ATOM     11  C   UNL A   1      28.872  26.729  23.861  1.00  0.00     0.062 A 
ATOM     12  C   UNL A   1      28.895  28.721  22.885  1.00  0.00     0.150 A 
ATOM     13  N   UNL A   1      29.658  27.741  23.318  1.00  0.00    -0.234 NA
ATOM     14  S   UNL A   1      27.214  28.526  23.158  1.00  0.00    -0.116 S 
ATOM     15  C   UNL A   1      27.517  27.002  23.877  1.00  0.00     0.092 A 
BRANCH  12  16
ATOM     16  S   UNL A   1      29.539  30.087  21.998  1.00  0.00    -0.096 SA
BRANCH  16  17
ATOM     17  C   UNL A   1      28.023  30.954  21.502  1.00  0.00     0.074 C 
ATOM     18  C   UNL A   1      28.347  32.321  20.929  1.00  0.00     0.016 C 
ENDBRANCH  16  17
ENDBRANCH  12  16
ENDBRANCH  10  11
ENDBRANCH   7  10
ENDBRANCH   5   6
BRANCH   5  19
ATOM     19  C   UNL A   1      33.111  23.472  24.046  1.00  0.00     0.012 C 
ATOM     20  C   UNL A   1      34.278  23.258  24.667  1.00  0.00     0.064 C 
ATOM     21  C   UNL A   1      32.556  22.111  23.812  1.00  0.00     0.156 C 
ATOM     22  C   UNL A   1      35.258  24.245  25.192  1.00  0.00     0.069 C 
ATOM     23  N   UNL A   1      34.552  21.924  24.829  1.00  0.00    -0.160 NA
ATOM     24  N   UNL A   1      33.612  21.225  24.366  1.00  0.00    -0.181 NA
ATOM     25  C   UNL A   1      32.311  21.727  22.364  1.00  0.00     0.040 C 
ENDBRANCH   5  19
ENDBRANCH   3   5
ENDBRANCH   2   3
ENDBRANCH   1   2
BRANCH   1  26
ATOM     26  C   UNL A   1      32.631  28.867  24.803  1.00  0.00     0.275 C 
BRANCH  26  27
ATOM     27  O   UNL A   1      33.449  29.962  25.238  1.00  0.00    -0.458 OA
BRANCH  27  28
ATOM     28  C   UNL A   1      33.042  30.589  26.362  1.00  0.00     0.338 C 
ATOM     29  O   UNL A   1      31.927  31.043  26.582  1.00  0.00    -0.246 OA
BRANCH  28  30
ATOM     30  C   UNL A   1      34.120  30.591  27.370  1.00  0.00     0.060 A 
ATOM     31  C   UNL A   1      34.843  31.754  27.632  1.00  0.00     0.016 A 
ATOM     32  C   UNL A   1      34.529  29.382  27.927  1.00  0.00     0.016 A 
ATOM     33  C   UNL A   1      36.063  31.676  28.305  1.00  0.00     0.010 A 
ATOM     34  C   UNL A   1      35.681  29.336  28.717  1.00  0.00     0.010 A 
ATOM     35  C   UNL A   1      36.501  30.470  28.868  1.00  0.00    -0.014 A 
BRANCH  35  36
ATOM     36  C   UNL A   1      37.811  30.350  29.574  1.00  0.00     0.031 A 
ATOM     37  C   UNL A   1      38.916  29.529  28.957  1.00  0.00     0.074 A 
ATOM     38  C   UNL A   1      38.019  30.918  30.780  1.00  0.00     0.049 A 
ATOM     39  N   UNL A   1      39.940  28.953  29.532  1.00  0.00    -0.248 NA
ATOM     40  C   UNL A   1      38.840  29.298  27.504  1.00  0.00     0.031 C 
ATOM     41  C   UNL A   1      37.088  31.800  31.483  1.00  0.00     0.029 A 
ATOM     42  N   UNL A   1      39.084  30.808  31.646  1.00  0.00    -0.354 N 
ATOM     43  C   UNL A   1      40.561  28.203  28.539  1.00  0.00     0.074 A 
ATOM     44  C   UNL A   1      39.823  28.427  27.314  1.00  0.00     0.031 C 
ATOM     45  C   UNL A   1      37.620  32.163  32.656  1.00  0.00     0.029 A 
ATOM     46  C   UNL A   1      38.866  31.434  32.851  1.00  0.00     0.049 A 
ATOM     47  H   UNL A   1      39.915  30.329  31.424  1.00  0.00     0.167 HD
ATOM     48  C   UNL A   1      41.643  27.396  28.647  1.00  0.00     0.034 A 
ATOM     49  C   UNL A   1      39.534  31.365  34.020  1.00  0.00     0.034 A 
ATOM     50  C   UNL A   1      42.435  27.277  29.843  1.00  0.00     0.049 A 
ATOM     51  C   UNL A   1      40.736  30.475  34.123  1.00  0.00     0.074 A 
ATOM     52  C   UNL A   1      43.566  26.507  30.053  1.00  0.00     0.029 A 
ATOM     53  N   UNL A   1      42.201  27.974  31.017  1.00  0.00    -0.354 N 
ATOM     54  N   UNL A   1      41.283  29.722  33.199  1.00  0.00    -0.248 NA
ATOM     55  C   UNL A   1      41.410  30.414  35.427  1.00  0.00     0.031 C 
ATOM     56  C   UNL A   1      44.019  26.744  31.356  1.00  0.00     0.029 A 
ATOM     57  C   UNL A   1      43.173  27.666  31.952  1.00  0.00     0.049 A 
ATOM     58  H   UNL A   1      41.453  28.597  31.165  1.00  0.00     0.167 HD
ATOM     59  C   UNL A   1      42.373  29.111  33.803  1.00  0.00     0.074 A 
ATOM     60  C   UNL A   1      42.424  29.597  35.167  1.00  0.00     0.031 C 
ATOM     61  C   UNL A   1      43.242  28.209  33.282  1.00  0.00     0.034 A 
BRANCH  48  62
ATOM     62  C   UNL A   1      42.058  26.589  27.447  1.00  0.00     0.023 A 
ATOM     63  C   UNL A   1      42.817  27.187  26.423  1.00  0.00     0.012 A 
ATOM     64  C   UNL A   1      41.772  25.210  27.379  1.00  0.00     0.148 A 
ATOM     65  C   UNL A   1      43.271  26.428  25.342  1.00  0.00     0.002 A 
ATOM     66  C   UNL A   1      42.260  24.452  26.320  1.00  0.00     0.091 A 
ATOM     67  F   UNL A   1      41.025  24.662  28.350  1.00  0.00    -0.205 F 
ATOM     68  C   UNL A   1      43.004  25.061  25.298  1.00  0.00     0.022 A 
BRANCH  66  69
ATOM     69  S   UNL A   1      42.034  22.671  26.228  1.00  0.00     0.127 S 
ATOM     70  O   UNL A   1      42.662  22.229  27.472  1.00  0.00    -0.237 OA
ATOM     71  O   UNL A   1      40.576  22.541  26.202  1.00  0.00    -0.237 OA
ATOM     72  O   UNL A   1      42.697  22.250  25.001  1.00  0.00    -0.744 OA
ENDBRANCH  66  69
ENDBRANCH  48  62
BRANCH  49  73
ATOM     73  C   UNL A   1      39.041  32.154  35.186  1.00  0.00     0.023 A 
ATOM     74  C   UNL A   1      38.164  31.552  36.107  1.00  0.00     0.012 A 
ATOM     75  C   UNL A   1      39.522  33.454  35.446  1.00  0.00     0.148 A 
ATOM     76  C   UNL A   1      37.779  32.230  37.265  1.00  0.00     0.002 A 
ATOM     77  C   UNL A   1      39.195  34.091  36.636  1.00  0.00     0.091 A 
ATOM     78  F   UNL A   1      40.329  34.029  34.541  1.00  0.00    -0.205 F 
ATOM     79  C   UNL A   1      38.311  33.487  37.542  1.00  0.00     0.022 A 
BRANCH  77  80
ATOM     80  S   UNL A   1      40.006  35.614  37.137  1.00  0.00     0.127 S 
ATOM     81  O   UNL A   1      39.660  36.516  36.043  1.00  0.00    -0.237 OA
ATOM     82  O   UNL A   1      39.354  35.913  38.413  1.00  0.00    -0.237 OA
ATOM     83  O   UNL A   1      41.417  35.268  37.264  1.00  0.00    -0.744 OA
ENDBRANCH  77  80
ENDBRANCH  49  73
BRANCH  61  84
ATOM     84  C   UNL A   1      44.345  27.715  34.173  1.00  0.00     0.023 A 
ATOM     85  C   UNL A   1      45.568  28.413  34.213  1.00  0.00     0.012 A 
ATOM     86  C   UNL A   1      44.140  26.618  35.030  1.00  0.00     0.148 A 
ATOM     87  C   UNL A   1      46.580  28.013  35.083  1.00  0.00     0.002 A 
ATOM     88  C   UNL A   1      45.140  26.246  35.919  1.00  0.00     0.091 A 
ATOM     89  F   UNL A   1      42.974  25.960  34.958  1.00  0.00    -0.205 F 
ATOM     90  C   UNL A   1      46.362  26.938  35.944  1.00  0.00     0.022 A 
BRANCH  88  91
ATOM     91  S   UNL A   1      44.920  24.923  37.115  1.00  0.00     0.127 S 
ATOM     92  O   UNL A   1      46.002  25.194  38.061  1.00  0.00    -0.237 OA
ATOM     93  O   UNL A   1      43.577  25.189  37.632  1.00  0.00    -0.237 OA
ATOM     94  O   UNL A   1      45.042  23.680  36.364  1.00  0.00    -0.744 OA
ENDBRANCH  88  91
ENDBRANCH  61  84
ENDBRANCH  35  36
ENDBRANCH  28  30
ENDBRANCH  27  28
ENDBRANCH  26  27
ENDBRANCH   1  26
TORSDOF 20
ENDMDL
