MODEL 1
REMARK VINA RESULT:     -11.8      0.000      0.000
REMARK SMILES CCSc1cccc(-c2ccc([C@@H](C)C(=O)OCCOC(=O)c3ccc(-c4c5nc(c(-c6cccc(S(=O)(=O)[O-])c6F)c6ccc([nH]6)c(-c6cccc(S(=O)(=O)[O-])c6F)c6nc(c(-c7cccc(S(=O)(=O)[O-])c7F)c7ccc4[nH]7)C=C6)C=C5)cc3)cc2)c1
REMARK SMILES IDX 18 1 17 2 15 3 16 4 13 5 14 6 12 7 9 8 10 9 87 10 11 11
REMARK SMILES IDX 86 12 8 13 4 14 5 15 88 16 6 17 7 18 3 19 2 20 1 21 19 22
REMARK SMILES IDX 20 23 21 24 22 25 23 26 24 27 85 28 25 29 84 30 26 31 27 32
REMARK SMILES IDX 28 33 78 34 29 35 83 36 77 37 79 38 30 39 82 40 76 41 75 42
REMARK SMILES IDX 31 44 63 45 43 46 62 47 44 48 47 49 61 50 80 51 45 52 46 53
REMARK SMILES IDX 60 55 81 56 48 57 32 58 33 59 41 60 34 61 36 62 42 63 35 64
REMARK SMILES IDX 37 65 38 66 39 67 40 68 64 69 65 70 73 71 66 72 68 73 74 74
REMARK SMILES IDX 67 75 69 76 70 77 71 78 72 79 49 80 50 81 58 82 51 83 53 84
REMARK SMILES IDX 59 85 52 86 54 87 55 88 56 89 57 90
REMARK H PARENT 79 43 47 54
REMARK Flexibility Score: inf
ROOT
ATOM      1  C   UNL A   1      36.450  19.260  24.961  1.00  0.00     0.274 C 
ENDROOT
BRANCH   1   2
ATOM      2  O   UNL A   1      35.089  19.583  24.614  1.00  0.00    -0.462 OA
BRANCH   2   3
ATOM      3  C   UNL A   1      34.220  18.543  24.525  1.00  0.00     0.313 C 
ATOM      4  O   UNL A   1      34.536  17.367  24.678  1.00  0.00    -0.252 OA
BRANCH   3   5
ATOM      5  C   UNL A   1      32.803  18.953  24.137  1.00  0.00     0.126 C 
ATOM      6  C   UNL A   1      32.426  18.294  22.811  1.00  0.00     0.025 C 
BRANCH   5   7
ATOM      7  C   UNL A   1      32.506  20.446  24.145  1.00  0.00    -0.034 A 
ATOM      8  C   UNL A   1      31.877  23.220  24.207  1.00  0.00    -0.018 A 
ATOM      9  C   UNL A   1      32.198  22.572  23.003  1.00  0.00     0.009 A 
ATOM     10  C   UNL A   1      31.896  22.461  25.383  1.00  0.00     0.009 A 
ATOM     11  C   UNL A   1      32.506  21.207  22.971  1.00  0.00     0.005 A 
ATOM     12  C   UNL A   1      32.197  21.094  25.352  1.00  0.00     0.005 A 
BRANCH   8  13
ATOM     13  C   UNL A   1      31.486  24.638  24.218  1.00  0.00    -0.017 A 
ATOM     14  C   UNL A   1      31.958  26.986  24.699  1.00  0.00     0.008 A 
ATOM     15  C   UNL A   1      30.694  27.338  24.219  1.00  0.00     0.015 A 
ATOM     16  C   UNL A   1      32.353  25.641  24.688  1.00  0.00     0.023 A 
ATOM     17  C   UNL A   1      29.819  26.359  23.757  1.00  0.00     0.002 A 
ATOM     18  C   UNL A   1      30.213  25.022  23.760  1.00  0.00     0.009 A 
BRANCH  14  19
ATOM     19  S   UNL A   1      33.040  28.279  25.281  1.00  0.00    -0.126 SA
BRANCH  19  20
ATOM     20  C   UNL A   1      31.944  29.128  26.471  1.00  0.00     0.071 C 
ATOM     21  C   UNL A   1      31.584  28.244  27.653  1.00  0.00     0.016 C 
ENDBRANCH  19  20
ENDBRANCH  14  19
ENDBRANCH   8  13
ENDBRANCH   5   7
ENDBRANCH   3   5
ENDBRANCH   2   3
ENDBRANCH   1   2
BRANCH   1  22
ATOM     22  C   UNL A   1      37.397  20.409  24.614  1.00  0.00     0.275 C 
BRANCH  22  23
ATOM     23  O   UNL A   1      37.807  21.115  25.797  1.00  0.00    -0.458 OA
BRANCH  23  24
ATOM     24  C   UNL A   1      39.110  20.966  26.130  1.00  0.00     0.338 C 
ATOM     25  O   UNL A   1      39.818  19.995  25.932  1.00  0.00    -0.246 OA
BRANCH  24  26
ATOM     26  C   UNL A   1      39.624  22.227  26.682  1.00  0.00     0.060 A 
ATOM     27  C   UNL A   1      39.109  23.418  26.171  1.00  0.00     0.016 A 
ATOM     28  C   UNL A   1      40.667  22.244  27.608  1.00  0.00     0.016 A 
ATOM     29  C   UNL A   1      39.657  24.639  26.552  1.00  0.00     0.010 A 
ATOM     30  C   UNL A   1      41.207  23.474  28.007  1.00  0.00     0.010 A 
ATOM     31  C   UNL A   1      40.722  24.676  27.461  1.00  0.00    -0.014 A 
BRANCH  31  32
ATOM     32  C   UNL A   1      41.343  25.982  27.790  1.00  0.00     0.031 A 
ATOM     33  C   UNL A   1      42.732  26.301  27.311  1.00  0.00     0.074 A 
ATOM     34  C   UNL A   1      40.644  26.894  28.491  1.00  0.00     0.049 A 
ATOM     35  N   UNL A   1      43.429  27.395  27.474  1.00  0.00    -0.248 NA
ATOM     36  C   UNL A   1      43.429  25.252  26.548  1.00  0.00     0.031 C 
ATOM     37  C   UNL A   1      39.291  26.699  29.015  1.00  0.00     0.029 A 
ATOM     38  N   UNL A   1      40.976  28.166  28.887  1.00  0.00    -0.354 N 
ATOM     39  C   UNL A   1      44.656  27.159  26.867  1.00  0.00     0.074 A 
ATOM     40  C   UNL A   1      44.611  25.813  26.336  1.00  0.00     0.031 C 
ATOM     41  C   UNL A   1      38.910  27.810  29.664  1.00  0.00     0.029 A 
ATOM     42  C   UNL A   1      39.996  28.787  29.623  1.00  0.00     0.049 A 
ATOM     43  H   UNL A   1      41.835  28.593  28.664  1.00  0.00     0.167 HD
ATOM     44  C   UNL A   1      45.715  27.993  26.744  1.00  0.00     0.034 A 
ATOM     45  C   UNL A   1      39.975  30.002  30.203  1.00  0.00     0.034 A 
ATOM     46  C   UNL A   1      45.745  29.344  27.236  1.00  0.00     0.049 A 
ATOM     47  C   UNL A   1      41.160  30.914  30.034  1.00  0.00     0.074 A 
ATOM     48  C   UNL A   1      46.759  30.280  27.123  1.00  0.00     0.029 A 
ATOM     49  N   UNL A   1      44.714  29.955  27.935  1.00  0.00    -0.354 N 
ATOM     50  N   UNL A   1      42.265  30.715  29.359  1.00  0.00    -0.248 NA
ATOM     51  C   UNL A   1      41.080  32.233  30.680  1.00  0.00     0.031 C 
ATOM     52  C   UNL A   1      46.343  31.456  27.760  1.00  0.00     0.029 A 
ATOM     53  C   UNL A   1      45.067  31.253  28.261  1.00  0.00     0.049 A 
ATOM     54  H   UNL A   1      43.858  29.528  28.164  1.00  0.00     0.167 HD
ATOM     55  C   UNL A   1      43.003  31.887  29.478  1.00  0.00     0.074 A 
ATOM     56  C   UNL A   1      42.204  32.804  30.266  1.00  0.00     0.031 C 
ATOM     57  C   UNL A   1      44.240  32.172  29.001  1.00  0.00     0.034 A 
BRANCH  44  58
ATOM     58  C   UNL A   1      46.923  27.480  26.007  1.00  0.00     0.023 A 
ATOM     59  C   UNL A   1      47.825  26.623  26.670  1.00  0.00     0.012 A 
ATOM     60  C   UNL A   1      47.140  27.799  24.653  1.00  0.00     0.148 A 
ATOM     61  C   UNL A   1      48.938  26.111  26.003  1.00  0.00     0.002 A 
ATOM     62  C   UNL A   1      48.233  27.257  23.986  1.00  0.00     0.091 A 
ATOM     63  F   UNL A   1      46.287  28.637  24.048  1.00  0.00    -0.205 F 
ATOM     64  C   UNL A   1      49.136  26.420  24.660  1.00  0.00     0.022 A 
BRANCH  62  65
ATOM     65  S   UNL A   1      48.532  27.545  22.238  1.00  0.00     0.127 S 
ATOM     66  O   UNL A   1      48.751  26.186  21.747  1.00  0.00    -0.237 OA
ATOM     67  O   UNL A   1      47.275  28.155  21.802  1.00  0.00    -0.237 OA
ATOM     68  O   UNL A   1      49.686  28.431  22.173  1.00  0.00    -0.744 OA
ENDBRANCH  62  65
ENDBRANCH  44  58
BRANCH  45  69
ATOM     69  C   UNL A   1      38.764  30.447  30.947  1.00  0.00     0.023 A 
ATOM     70  C   UNL A   1      38.696  30.249  32.340  1.00  0.00     0.012 A 
ATOM     71  C   UNL A   1      37.700  31.097  30.292  1.00  0.00     0.148 A 
ATOM     72  C   UNL A   1      37.580  30.672  33.064  1.00  0.00     0.002 A 
ATOM     73  C   UNL A   1      36.616  31.564  31.028  1.00  0.00     0.091 A 
ATOM     74  F   UNL A   1      37.769  31.253  28.962  1.00  0.00    -0.205 F 
ATOM     75  C   UNL A   1      36.547  31.340  32.411  1.00  0.00     0.022 A 
BRANCH  73  76
ATOM     76  S   UNL A   1      35.315  32.551  30.280  1.00  0.00     0.127 S 
ATOM     77  O   UNL A   1      34.380  32.707  31.391  1.00  0.00    -0.237 OA
ATOM     78  O   UNL A   1      36.031  33.771  29.902  1.00  0.00    -0.237 OA
ATOM     79  O   UNL A   1      34.838  31.766  29.149  1.00  0.00    -0.744 OA
ENDBRANCH  73  76
ENDBRANCH  45  69
BRANCH  57  80
ATOM     80  C   UNL A   1      44.804  33.534  29.306  1.00  0.00     0.023 A 
ATOM     81  C   UNL A   1      45.625  33.704  30.439  1.00  0.00     0.012 A 
ATOM     82  C   UNL A   1      44.573  34.627  28.451  1.00  0.00     0.148 A 
ATOM     83  C   UNL A   1      46.182  34.949  30.731  1.00  0.00     0.002 A 
ATOM     84  C   UNL A   1      45.165  35.856  28.725  1.00  0.00     0.091 A 
ATOM     85  F   UNL A   1      43.769  34.456  27.391  1.00  0.00    -0.205 F 
ATOM     86  C   UNL A   1      45.962  36.021  29.869  1.00  0.00     0.022 A 
BRANCH  84  87
ATOM     87  S   UNL A   1      44.994  37.257  27.614  1.00  0.00     0.127 S 
ATOM     88  O   UNL A   1      45.182  38.387  28.522  1.00  0.00    -0.237 OA
ATOM     89  O   UNL A   1      46.090  37.049  26.666  1.00  0.00    -0.237 OA
ATOM     90  O   UNL A   1      43.666  37.127  27.028  1.00  0.00    -0.744 OA
ENDBRANCH  84  87
ENDBRANCH  57  80
ENDBRANCH  31  32
ENDBRANCH  24  26
ENDBRANCH  23  24
ENDBRANCH  22  23
ENDBRANCH   1  22
TORSDOF 18
ENDMDL
MODEL 2
REMARK VINA RESULT:     -11.7      3.841      7.251
REMARK SMILES CCSc1cccc(-c2ccc([C@@H](C)C(=O)OCCOC(=O)c3ccc(-c4c5nc(c(-c6cccc(S(=O)(=O)[O-])c6F)c6ccc([nH]6)c(-c6cccc(S(=O)(=O)[O-])c6F)c6nc(c(-c7cccc(S(=O)(=O)[O-])c7F)c7ccc4[nH]7)C=C6)C=C5)cc3)cc2)c1
REMARK SMILES IDX 18 1 17 2 15 3 16 4 13 5 14 6 12 7 9 8 10 9 87 10 11 11
REMARK SMILES IDX 86 12 8 13 4 14 5 15 88 16 6 17 7 18 3 19 2 20 1 21 19 22
REMARK SMILES IDX 20 23 21 24 22 25 23 26 24 27 85 28 25 29 84 30 26 31 27 32
REMARK SMILES IDX 28 33 78 34 29 35 83 36 77 37 79 38 30 39 82 40 76 41 75 42
REMARK SMILES IDX 31 44 63 45 43 46 62 47 44 48 47 49 61 50 80 51 45 52 46 53
REMARK SMILES IDX 60 55 81 56 48 57 32 58 33 59 41 60 34 61 36 62 42 63 35 64
REMARK SMILES IDX 37 65 38 66 39 67 40 68 64 69 65 70 73 71 66 72 68 73 74 74
REMARK SMILES IDX 67 75 69 76 70 77 71 78 72 79 49 80 50 81 58 82 51 83 53 84
REMARK SMILES IDX 59 85 52 86 54 87 55 88 56 89 57 90
REMARK H PARENT 79 43 47 54
REMARK Flexibility Score: inf
ROOT
ATOM      1  C   UNL A   1      42.069  19.890  26.108  1.00  0.00     0.274 C 
ENDROOT
BRANCH   1   2
ATOM      2  O   UNL A   1      42.606  21.119  25.579  1.00  0.00    -0.462 OA
BRANCH   2   3
ATOM      3  C   UNL A   1      43.943  21.147  25.339  1.00  0.00     0.313 C 
ATOM      4  O   UNL A   1      44.676  20.166  25.418  1.00  0.00    -0.252 OA
BRANCH   3   5
ATOM      5  C   UNL A   1      44.487  22.538  25.031  1.00  0.00     0.126 C 
ATOM      6  C   UNL A   1      45.285  22.496  23.729  1.00  0.00     0.025 C 
BRANCH   5   7
ATOM      7  C   UNL A   1      45.249  23.229  26.153  1.00  0.00    -0.034 A 
ATOM      8  C   UNL A   1      46.597  24.558  28.277  1.00  0.00    -0.018 A 
ATOM      9  C   UNL A   1      47.078  24.616  26.959  1.00  0.00     0.009 A 
ATOM     10  C   UNL A   1      45.441  23.807  28.518  1.00  0.00     0.009 A 
ATOM     11  C   UNL A   1      46.415  23.964  25.913  1.00  0.00     0.005 A 
ATOM     12  C   UNL A   1      44.772  23.160  27.472  1.00  0.00     0.005 A 
BRANCH   8  13
ATOM     13  C   UNL A   1      47.262  25.306  29.355  1.00  0.00    -0.017 A 
ATOM     14  C   UNL A   1      47.183  26.647  31.395  1.00  0.00     0.008 A 
ATOM     15  C   UNL A   1      48.578  26.724  31.399  1.00  0.00     0.015 A 
ATOM     16  C   UNL A   1      46.531  25.933  30.381  1.00  0.00     0.023 A 
ATOM     17  C   UNL A   1      49.319  26.116  30.388  1.00  0.00     0.002 A 
ATOM     18  C   UNL A   1      48.664  25.417  29.375  1.00  0.00     0.009 A 
BRANCH  14  19
ATOM     19  S   UNL A   1      46.283  27.444  32.713  1.00  0.00    -0.126 SA
BRANCH  19  20
ATOM     20  C   UNL A   1      44.726  26.488  32.685  1.00  0.00     0.071 C 
ATOM     21  C   UNL A   1      43.659  27.100  33.578  1.00  0.00     0.016 C 
ENDBRANCH  19  20
ENDBRANCH  14  19
ENDBRANCH   8  13
ENDBRANCH   5   7
ENDBRANCH   3   5
ENDBRANCH   2   3
ENDBRANCH   1   2
BRANCH   1  22
ATOM     22  C   UNL A   1      40.541  19.922  26.139  1.00  0.00     0.275 C 
BRANCH  22  23
ATOM     23  O   UNL A   1      40.065  20.947  27.028  1.00  0.00    -0.458 OA
BRANCH  23  24
ATOM     24  C   UNL A   1      39.374  21.946  26.432  1.00  0.00     0.338 C 
ATOM     25  O   UNL A   1      38.478  21.841  25.613  1.00  0.00    -0.246 OA
BRANCH  24  26
ATOM     26  C   UNL A   1      39.776  23.235  27.011  1.00  0.00     0.060 A 
ATOM     27  C   UNL A   1      39.194  24.391  26.489  1.00  0.00     0.016 A 
ATOM     28  C   UNL A   1      40.780  23.320  27.975  1.00  0.00     0.016 A 
ATOM     29  C   UNL A   1      39.638  25.644  26.897  1.00  0.00     0.010 A 
ATOM     30  C   UNL A   1      41.214  24.582  28.401  1.00  0.00     0.010 A 
ATOM     31  C   UNL A   1      40.664  25.750  27.845  1.00  0.00    -0.014 A 
BRANCH  31  32
ATOM     32  C   UNL A   1      41.176  27.094  28.206  1.00  0.00     0.031 A 
ATOM     33  C   UNL A   1      42.597  27.471  27.890  1.00  0.00     0.074 A 
ATOM     34  C   UNL A   1      40.353  27.988  28.786  1.00  0.00     0.049 A 
ATOM     35  N   UNL A   1      43.215  28.604  28.102  1.00  0.00    -0.248 NA
ATOM     36  C   UNL A   1      43.432  26.440  27.253  1.00  0.00     0.031 C 
ATOM     37  C   UNL A   1      38.957  27.737  29.146  1.00  0.00     0.029 A 
ATOM     38  N   UNL A   1      40.573  29.285  29.178  1.00  0.00    -0.354 N 
ATOM     39  C   UNL A   1      44.518  28.415  27.658  1.00  0.00     0.074 A 
ATOM     40  C   UNL A   1      44.604  27.055  27.169  1.00  0.00     0.031 C 
ATOM     41  C   UNL A   1      38.445  28.844  29.708  1.00  0.00     0.029 A 
ATOM     42  C   UNL A   1      39.480  29.874  29.768  1.00  0.00     0.049 A 
ATOM     43  H   UNL A   1      41.431  29.749  29.048  1.00  0.00     0.167 HD
ATOM     44  C   UNL A   1      45.544  29.299  27.638  1.00  0.00     0.034 A 
ATOM     45  C   UNL A   1      39.330  31.101  30.302  1.00  0.00     0.034 A 
ATOM     46  C   UNL A   1      45.448  30.663  28.086  1.00  0.00     0.049 A 
ATOM     47  C   UNL A   1      40.481  32.068  30.250  1.00  0.00     0.074 A 
ATOM     48  C   UNL A   1      46.421  31.646  28.068  1.00  0.00     0.029 A 
ATOM     49  N   UNL A   1      44.310  31.238  28.633  1.00  0.00    -0.354 N 
ATOM     50  N   UNL A   1      41.670  31.908  29.721  1.00  0.00    -0.248 NA
ATOM     51  C   UNL A   1      40.260  33.398  30.838  1.00  0.00     0.031 C 
ATOM     52  C   UNL A   1      45.875  32.815  28.610  1.00  0.00     0.029 A 
ATOM     53  C   UNL A   1      44.558  32.561  28.958  1.00  0.00     0.049 A 
ATOM     54  H   UNL A   1      43.453  30.774  28.769  1.00  0.00     0.167 HD
ATOM     55  C   UNL A   1      42.330  33.119  29.892  1.00  0.00     0.074 A 
ATOM     56  C   UNL A   1      41.397  34.015  30.546  1.00  0.00     0.031 C 
ATOM     57  C   UNL A   1      43.602  33.455  29.561  1.00  0.00     0.034 A 
BRANCH  44  58
ATOM     58  C   UNL A   1      46.856  28.829  27.071  1.00  0.00     0.023 A 
ATOM     59  C   UNL A   1      47.977  28.723  27.920  1.00  0.00     0.012 A 
ATOM     60  C   UNL A   1      46.971  28.447  25.721  1.00  0.00     0.148 A 
ATOM     61  C   UNL A   1      49.199  28.265  27.428  1.00  0.00     0.002 A 
ATOM     62  C   UNL A   1      48.184  27.959  25.247  1.00  0.00     0.091 A 
ATOM     63  F   UNL A   1      45.903  28.582  24.923  1.00  0.00    -0.205 F 
ATOM     64  C   UNL A   1      49.299  27.874  26.095  1.00  0.00     0.022 A 
BRANCH  62  65
ATOM     65  S   UNL A   1      48.390  27.369  23.562  1.00  0.00     0.127 S 
ATOM     66  O   UNL A   1      49.845  27.280  23.456  1.00  0.00    -0.237 OA
ATOM     67  O   UNL A   1      47.702  26.078  23.597  1.00  0.00    -0.237 OA
ATOM     68  O   UNL A   1      47.756  28.367  22.712  1.00  0.00    -0.744 OA
ENDBRANCH  62  65
ENDBRANCH  44  58
BRANCH  45  69
ATOM     69  C   UNL A   1      38.016  31.502  30.877  1.00  0.00     0.023 A 
ATOM     70  C   UNL A   1      37.768  31.295  32.248  1.00  0.00     0.012 A 
ATOM     71  C   UNL A   1      37.028  32.121  30.087  1.00  0.00     0.148 A 
ATOM     72  C   UNL A   1      36.552  31.677  32.816  1.00  0.00     0.002 A 
ATOM     73  C   UNL A   1      35.842  32.549  30.670  1.00  0.00     0.091 A 
ATOM     74  F   UNL A   1      37.270  32.287  28.778  1.00  0.00    -0.205 F 
ATOM     75  C   UNL A   1      35.595  32.315  32.032  1.00  0.00     0.022 A 
BRANCH  73  76
ATOM     76  S   UNL A   1      34.620  33.498  29.756  1.00  0.00     0.127 S 
ATOM     77  O   UNL A   1      34.046  32.482  28.878  1.00  0.00    -0.237 OA
ATOM     78  O   UNL A   1      33.731  33.965  30.821  1.00  0.00    -0.237 OA
ATOM     79  O   UNL A   1      35.372  34.560  29.100  1.00  0.00    -0.744 OA
ENDBRANCH  73  76
ENDBRANCH  45  69
BRANCH  57  80
ATOM     80  C   UNL A   1      44.058  34.851  29.889  1.00  0.00     0.023 A 
ATOM     81  C   UNL A   1      44.709  35.097  31.115  1.00  0.00     0.012 A 
ATOM     82  C   UNL A   1      43.898  35.905  28.970  1.00  0.00     0.148 A 
ATOM     83  C   UNL A   1      45.165  36.375  31.433  1.00  0.00     0.002 A 
ATOM     84  C   UNL A   1      44.392  37.169  29.276  1.00  0.00     0.091 A 
ATOM     85  F   UNL A   1      43.254  35.662  27.818  1.00  0.00    -0.205 F 
ATOM     86  C   UNL A   1      45.017  37.408  30.510  1.00  0.00     0.022 A 
BRANCH  84  87
ATOM     87  S   UNL A   1      44.312  38.526  28.100  1.00  0.00     0.127 S 
ATOM     88  O   UNL A   1      44.685  39.668  28.932  1.00  0.00    -0.237 OA
ATOM     89  O   UNL A   1      45.315  38.145  27.105  1.00  0.00    -0.237 OA
ATOM     90  O   UNL A   1      42.944  38.524  27.600  1.00  0.00    -0.744 OA
ENDBRANCH  84  87
ENDBRANCH  57  80
ENDBRANCH  31  32
ENDBRANCH  24  26
ENDBRANCH  23  24
ENDBRANCH  22  23
ENDBRANCH   1  22
TORSDOF 18
ENDMDL
MODEL 3
REMARK VINA RESULT:     -11.6      1.566      2.044
REMARK SMILES CCSc1cccc(-c2ccc([C@@H](C)C(=O)OCCOC(=O)c3ccc(-c4c5nc(c(-c6cccc(S(=O)(=O)[O-])c6F)c6ccc([nH]6)c(-c6cccc(S(=O)(=O)[O-])c6F)c6nc(c(-c7cccc(S(=O)(=O)[O-])c7F)c7ccc4[nH]7)C=C6)C=C5)cc3)cc2)c1
REMARK SMILES IDX 18 1 17 2 15 3 16 4 13 5 14 6 12 7 9 8 10 9 87 10 11 11
REMARK SMILES IDX 86 12 8 13 4 14 5 15 88 16 6 17 7 18 3 19 2 20 1 21 19 22
REMARK SMILES IDX 20 23 21 24 22 25 23 26 24 27 85 28 25 29 84 30 26 31 27 32
REMARK SMILES IDX 28 33 78 34 29 35 83 36 77 37 79 38 30 39 82 40 76 41 75 42
REMARK SMILES IDX 31 44 63 45 43 46 62 47 44 48 47 49 61 50 80 51 45 52 46 53
REMARK SMILES IDX 60 55 81 56 48 57 32 58 33 59 41 60 34 61 36 62 42 63 35 64
REMARK SMILES IDX 37 65 38 66 39 67 40 68 64 69 65 70 73 71 66 72 68 73 74 74
REMARK SMILES IDX 67 75 69 76 70 77 71 78 72 79 49 80 50 81 58 82 51 83 53 84
REMARK SMILES IDX 59 85 52 86 54 87 55 88 56 89 57 90
REMARK H PARENT 79 43 47 54
REMARK Flexibility Score: inf
ROOT
ATOM      1  C   UNL A   1      36.204  19.315  24.930  1.00  0.00     0.274 C 
ENDROOT
BRANCH   1   2
ATOM      2  O   UNL A   1      34.877  19.762  24.587  1.00  0.00    -0.462 OA
BRANCH   2   3
ATOM      3  C   UNL A   1      33.897  18.820  24.589  1.00  0.00     0.313 C 
ATOM      4  O   UNL A   1      34.066  17.653  24.926  1.00  0.00    -0.252 OA
BRANCH   3   5
ATOM      5  C   UNL A   1      32.558  19.320  24.058  1.00  0.00     0.126 C 
ATOM      6  C   UNL A   1      32.391  18.885  22.603  1.00  0.00     0.025 C 
BRANCH   5   7
ATOM      7  C   UNL A   1      32.264  20.802  24.254  1.00  0.00    -0.034 A 
ATOM      8  C   UNL A   1      31.788  23.588  24.576  1.00  0.00    -0.018 A 
ATOM      9  C   UNL A   1      31.765  22.713  25.674  1.00  0.00     0.009 A 
ATOM     10  C   UNL A   1      32.033  23.042  23.310  1.00  0.00     0.009 A 
ATOM     11  C   UNL A   1      32.001  21.343  25.518  1.00  0.00     0.005 A 
ATOM     12  C   UNL A   1      32.276  21.672  23.153  1.00  0.00     0.005 A 
BRANCH   8  13
ATOM     13  C   UNL A   1      31.609  25.036  24.762  1.00  0.00    -0.017 A 
ATOM     14  C   UNL A   1      30.840  27.217  23.977  1.00  0.00     0.008 A 
ATOM     15  C   UNL A   1      31.288  27.803  25.164  1.00  0.00     0.015 A 
ATOM     16  C   UNL A   1      30.994  25.838  23.784  1.00  0.00     0.023 A 
ATOM     17  C   UNL A   1      31.907  27.027  26.140  1.00  0.00     0.002 A 
ATOM     18  C   UNL A   1      32.067  25.657  25.938  1.00  0.00     0.009 A 
BRANCH  14  19
ATOM     19  S   UNL A   1      30.055  28.256  22.758  1.00  0.00    -0.126 SA
BRANCH  19  20
ATOM     20  C   UNL A   1      28.299  28.049  23.216  1.00  0.00     0.071 C 
ATOM     21  C   UNL A   1      27.475  29.289  22.913  1.00  0.00     0.016 C 
ENDBRANCH  19  20
ENDBRANCH  14  19
ENDBRANCH   8  13
ENDBRANCH   5   7
ENDBRANCH   3   5
ENDBRANCH   2   3
ENDBRANCH   1   2
BRANCH   1  22
ATOM     22  C   UNL A   1      37.248  20.385  24.611  1.00  0.00     0.275 C 
BRANCH  22  23
ATOM     23  O   UNL A   1      37.707  21.031  25.811  1.00  0.00    -0.458 OA
BRANCH  23  24
ATOM     24  C   UNL A   1      39.029  20.897  26.063  1.00  0.00     0.338 C 
ATOM     25  O   UNL A   1      39.744  19.950  25.786  1.00  0.00    -0.246 OA
BRANCH  24  26
ATOM     26  C   UNL A   1      39.551  22.147  26.634  1.00  0.00     0.060 A 
ATOM     27  C   UNL A   1      39.038  23.349  26.145  1.00  0.00     0.016 A 
ATOM     28  C   UNL A   1      40.597  22.145  27.557  1.00  0.00     0.016 A 
ATOM     29  C   UNL A   1      39.592  24.560  26.544  1.00  0.00     0.010 A 
ATOM     30  C   UNL A   1      41.142  23.366  27.974  1.00  0.00     0.010 A 
ATOM     31  C   UNL A   1      40.660  24.579  27.450  1.00  0.00    -0.014 A 
BRANCH  31  32
ATOM     32  C   UNL A   1      41.287  25.876  27.799  1.00  0.00     0.031 A 
ATOM     33  C   UNL A   1      42.698  26.173  27.372  1.00  0.00     0.074 A 
ATOM     34  C   UNL A   1      40.576  26.802  28.469  1.00  0.00     0.049 A 
ATOM     35  N   UNL A   1      43.404  27.258  27.558  1.00  0.00    -0.248 NA
ATOM     36  C   UNL A   1      43.408  25.112  26.640  1.00  0.00     0.031 C 
ATOM     37  C   UNL A   1      39.201  26.628  28.942  1.00  0.00     0.029 A 
ATOM     38  N   UNL A   1      40.911  28.070  28.874  1.00  0.00    -0.354 N 
ATOM     39  C   UNL A   1      44.650  27.001  26.999  1.00  0.00     0.074 A 
ATOM     40  C   UNL A   1      44.606  25.654  26.471  1.00  0.00     0.031 C 
ATOM     41  C   UNL A   1      38.811  27.747  29.573  1.00  0.00     0.029 A 
ATOM     42  C   UNL A   1      39.912  28.707  29.570  1.00  0.00     0.049 A 
ATOM     43  H   UNL A   1      41.784  28.483  28.683  1.00  0.00     0.167 HD
ATOM     44  C   UNL A   1      45.726  27.819  26.914  1.00  0.00     0.034 A 
ATOM     45  C   UNL A   1      39.888  29.925  30.146  1.00  0.00     0.034 A 
ATOM     46  C   UNL A   1      45.756  29.172  27.403  1.00  0.00     0.049 A 
ATOM     47  C   UNL A   1      41.091  30.819  30.019  1.00  0.00     0.074 A 
ATOM     48  C   UNL A   1      46.787  30.093  27.326  1.00  0.00     0.029 A 
ATOM     49  N   UNL A   1      44.709  29.801  28.060  1.00  0.00    -0.354 N 
ATOM     50  N   UNL A   1      42.219  30.601  29.387  1.00  0.00    -0.248 NA
ATOM     51  C   UNL A   1      41.007  32.141  30.657  1.00  0.00     0.031 C 
ATOM     52  C   UNL A   1      46.365  31.276  27.942  1.00  0.00     0.029 A 
ATOM     53  C   UNL A   1      45.068  31.095  28.395  1.00  0.00     0.049 A 
ATOM     54  H   UNL A   1      43.838  29.387  28.257  1.00  0.00     0.167 HD
ATOM     55  C   UNL A   1      42.968  31.763  29.531  1.00  0.00     0.074 A 
ATOM     56  C   UNL A   1      42.154  32.694  30.285  1.00  0.00     0.031 C 
ATOM     57  C   UNL A   1      44.227  32.028  29.100  1.00  0.00     0.034 A 
BRANCH  44  58
ATOM     58  C   UNL A   1      46.953  27.286  26.225  1.00  0.00     0.023 A 
ATOM     59  C   UNL A   1      47.130  27.524  24.847  1.00  0.00     0.012 A 
ATOM     60  C   UNL A   1      47.950  26.599  26.943  1.00  0.00     0.148 A 
ATOM     61  C   UNL A   1      48.271  27.065  24.189  1.00  0.00     0.002 A 
ATOM     62  C   UNL A   1      49.100  26.174  26.286  1.00  0.00     0.091 A 
ATOM     63  F   UNL A   1      47.750  26.358  28.246  1.00  0.00    -0.205 F 
ATOM     64  C   UNL A   1      49.259  26.399  24.910  1.00  0.00     0.022 A 
BRANCH  62  65
ATOM     65  S   UNL A   1      50.456  25.368  27.146  1.00  0.00     0.127 S 
ATOM     66  O   UNL A   1      50.881  26.415  28.073  1.00  0.00    -0.237 OA
ATOM     67  O   UNL A   1      49.791  24.228  27.779  1.00  0.00    -0.237 OA
ATOM     68  O   UNL A   1      51.421  25.008  26.117  1.00  0.00    -0.744 OA
ENDBRANCH  62  65
ENDBRANCH  44  58
BRANCH  45  69
ATOM     69  C   UNL A   1      38.656  30.389  30.842  1.00  0.00     0.023 A 
ATOM     70  C   UNL A   1      38.526  30.187  32.229  1.00  0.00     0.012 A 
ATOM     71  C   UNL A   1      37.632  31.063  30.147  1.00  0.00     0.148 A 
ATOM     72  C   UNL A   1      37.390  30.628  32.909  1.00  0.00     0.002 A 
ATOM     73  C   UNL A   1      36.529  31.548  30.839  1.00  0.00     0.091 A 
ATOM     74  F   UNL A   1      37.760  31.224  28.821  1.00  0.00    -0.205 F 
ATOM     75  C   UNL A   1      36.398  31.319  32.218  1.00  0.00     0.022 A 
BRANCH  73  76
ATOM     76  S   UNL A   1      35.279  32.564  30.044  1.00  0.00     0.127 S 
ATOM     77  O   UNL A   1      36.062  33.718  29.609  1.00  0.00    -0.237 OA
ATOM     78  O   UNL A   1      34.814  31.693  28.963  1.00  0.00    -0.237 OA
ATOM     79  O   UNL A   1      34.280  32.821  31.073  1.00  0.00    -0.744 OA
ENDBRANCH  73  76
ENDBRANCH  45  69
BRANCH  57  80
ATOM     80  C   UNL A   1      44.799  33.383  29.423  1.00  0.00     0.023 A 
ATOM     81  C   UNL A   1      45.504  33.566  30.629  1.00  0.00     0.012 A 
ATOM     82  C   UNL A   1      44.691  34.454  28.517  1.00  0.00     0.148 A 
ATOM     83  C   UNL A   1      46.067  34.803  30.941  1.00  0.00     0.002 A 
ATOM     84  C   UNL A   1      45.290  35.674  28.816  1.00  0.00     0.091 A 
ATOM     85  F   UNL A   1      43.995  34.271  27.385  1.00  0.00    -0.205 F 
ATOM     86  C   UNL A   1      45.970  35.853  30.031  1.00  0.00     0.022 A 
BRANCH  84  87
ATOM     87  S   UNL A   1      45.278  37.043  27.652  1.00  0.00     0.127 S 
ATOM     88  O   UNL A   1      45.990  38.079  28.397  1.00  0.00    -0.237 OA
ATOM     89  O   UNL A   1      46.015  36.499  26.510  1.00  0.00    -0.237 OA
ATOM     90  O   UNL A   1      43.871  37.309  27.381  1.00  0.00    -0.744 OA
ENDBRANCH  84  87
ENDBRANCH  57  80
ENDBRANCH  31  32
ENDBRANCH  24  26
ENDBRANCH  23  24
ENDBRANCH  22  23
ENDBRANCH   1  22
TORSDOF 18
ENDMDL
