MODEL 1
REMARK VINA RESULT:     -12.6      0.000      0.000
REMARK SMILES O=C(C[C@@H]1C(=O)NCCN1C(=O)OCC1c2ccccc2-c2ccccc21)OCCOC(=O)c1ccc(-c2c3nc(c(-c4cccc(S(=O)(=O)[O-])c4F)c4ccc([nH]4)c(-c4cccc(S(=O)(=O)[O-])c4F)c4nc(c(-c5cccc(S(=O)(=O)[O-])c5F)c5ccc2[nH]5)C=C4)C=C3)cc1
REMARK SMILES IDX 29 1 28 2 2 3 1 4 3 5 4 6 5 7 10 8 6 9 7 10 9 11 8 12 11 14
REMARK SMILES IDX 12 15 13 16 14 17 15 18 16 19 27 20 17 21 21 22 22 23 26 24
REMARK SMILES IDX 18 25 20 26 23 27 25 28 19 29 24 30 30 31 31 32 32 33 33 34
REMARK SMILES IDX 34 35 35 36 96 37 36 38 95 39 37 40 38 41 39 42 89 43 40 44
REMARK SMILES IDX 94 45 88 46 90 47 41 48 93 49 87 50 86 51 42 53 74 54 54 55
REMARK SMILES IDX 73 56 55 57 58 58 72 59 91 60 56 61 57 62 71 64 92 65 59 66
REMARK SMILES IDX 43 67 44 68 52 69 45 70 47 71 53 72 46 73 48 74 49 75 50 76
REMARK SMILES IDX 51 77 75 78 76 79 84 80 77 81 79 82 85 83 78 84 80 85 81 86
REMARK SMILES IDX 82 87 83 88 60 89 61 90 69 91 62 92 64 93 70 94 63 95 65 96
REMARK SMILES IDX 66 97 67 98 68 99
REMARK H PARENT 7 13 90 52 58 63
REMARK Flexibility Score: inf
ROOT
ATOM      1  C   UNL A   1      31.881  29.220  24.944  1.00  0.00     0.274 C 
ENDROOT
BRANCH   1   2
ATOM      2  O   UNL A   1      32.586  28.029  25.336  1.00  0.00    -0.462 OA
BRANCH   2   3
ATOM      3  C   UNL A   1      33.592  27.493  24.613  1.00  0.00     0.308 C 
ATOM      4  O   UNL A   1      34.113  28.124  23.693  1.00  0.00    -0.252 OA
BRANCH   3   5
ATOM      5  C   UNL A   1      33.965  26.057  24.856  1.00  0.00     0.158 C 
BRANCH   5   6
ATOM      6  C   UNL A   1      33.190  24.930  24.150  1.00  0.00     0.189 C 
ATOM      7  C   UNL A   1      32.873  25.327  22.683  1.00  0.00     0.243 C 
ATOM      8  N   UNL A   1      32.026  24.322  24.882  1.00  0.00    -0.294 N 
ATOM      9  O   UNL A   1      33.751  25.691  21.899  1.00  0.00    -0.273 OA
ATOM     10  N   UNL A   1      31.577  25.252  22.251  1.00  0.00    -0.353 N 
ATOM     11  C   UNL A   1      31.013  23.690  24.047  1.00  0.00     0.145 C 
ATOM     12  C   UNL A   1      30.497  24.739  23.069  1.00  0.00     0.137 C 
ATOM     13  H   UNL A   1      31.368  25.561  21.340  1.00  0.00     0.163 HD
BRANCH   8  14
ATOM     14  C   UNL A   1      31.820  24.291  26.257  1.00  0.00     0.410 C 
ATOM     15  O   UNL A   1      31.522  25.239  26.952  1.00  0.00    -0.224 OA
BRANCH  14  16
ATOM     16  O   UNL A   1      32.055  23.059  26.724  1.00  0.00    -0.448 OA
BRANCH  16  17
ATOM     17  C   UNL A   1      33.252  22.684  27.404  1.00  0.00     0.248 C 
BRANCH  17  18
ATOM     18  C   UNL A   1      34.333  21.806  26.762  1.00  0.00     0.088 C 
ATOM     19  C   UNL A   1      33.710  20.804  25.835  1.00  0.00    -0.029 A 
ATOM     20  C   UNL A   1      35.275  22.541  25.822  1.00  0.00    -0.029 A 
ATOM     21  C   UNL A   1      32.985  19.685  26.188  1.00  0.00     0.005 A 
ATOM     22  C   UNL A   1      33.928  21.192  24.500  1.00  0.00    -0.014 A 
ATOM     23  C   UNL A   1      34.948  22.224  24.486  1.00  0.00    -0.014 A 
ATOM     24  C   UNL A   1      36.426  23.252  26.134  1.00  0.00     0.005 A 
ATOM     25  C   UNL A   1      32.358  18.990  25.167  1.00  0.00     0.000 A 
ATOM     26  C   UNL A   1      33.283  20.517  23.488  1.00  0.00     0.009 A 
ATOM     27  C   UNL A   1      35.729  22.691  23.445  1.00  0.00     0.009 A 
ATOM     28  C   UNL A   1      37.252  23.661  25.088  1.00  0.00     0.000 A 
ATOM     29  C   UNL A   1      32.484  19.419  23.834  1.00  0.00     0.001 A 
ATOM     30  C   UNL A   1      36.904  23.381  23.758  1.00  0.00     0.001 A 
ENDBRANCH  17  18
ENDBRANCH  16  17
ENDBRANCH  14  16
ENDBRANCH   8  14
ENDBRANCH   5   6
ENDBRANCH   3   5
ENDBRANCH   2   3
ENDBRANCH   1   2
BRANCH   1  31
ATOM     31  C   UNL A   1      31.731  30.183  26.123  1.00  0.00     0.275 C 
BRANCH  31  32
ATOM     32  O   UNL A   1      32.869  30.124  27.012  1.00  0.00    -0.458 OA
BRANCH  32  33
ATOM     33  C   UNL A   1      33.448  31.303  27.364  1.00  0.00     0.338 C 
ATOM     34  O   UNL A   1      32.927  32.403  27.281  1.00  0.00    -0.246 OA
BRANCH  33  35
ATOM     35  C   UNL A   1      34.788  31.067  27.990  1.00  0.00     0.060 A 
ATOM     36  C   UNL A   1      35.112  29.772  28.404  1.00  0.00     0.016 A 
ATOM     37  C   UNL A   1      35.757  32.074  28.120  1.00  0.00     0.016 A 
ATOM     38  C   UNL A   1      36.419  29.480  28.848  1.00  0.00     0.010 A 
ATOM     39  C   UNL A   1      37.067  31.780  28.566  1.00  0.00     0.010 A 
ATOM     40  C   UNL A   1      37.440  30.470  28.888  1.00  0.00    -0.014 A 
BRANCH  40  41
ATOM     41  C   UNL A   1      38.819  30.082  29.379  1.00  0.00     0.031 A 
ATOM     42  C   UNL A   1      39.113  30.451  30.806  1.00  0.00     0.074 A 
ATOM     43  C   UNL A   1      39.759  29.375  28.694  1.00  0.00     0.049 A 
ATOM     44  N   UNL A   1      40.009  29.979  31.627  1.00  0.00    -0.248 NA
ATOM     45  C   UNL A   1      38.254  31.506  31.375  1.00  0.00     0.031 C 
ATOM     46  C   UNL A   1      39.700  28.995  27.286  1.00  0.00     0.029 A 
ATOM     47  N   UNL A   1      40.916  28.733  29.129  1.00  0.00    -0.354 N 
ATOM     48  C   UNL A   1      39.864  30.726  32.788  1.00  0.00     0.074 A 
ATOM     49  C   UNL A   1      38.731  31.605  32.603  1.00  0.00     0.031 C 
ATOM     50  C   UNL A   1      40.597  28.022  27.038  1.00  0.00     0.029 A 
ATOM     51  C   UNL A   1      41.417  27.795  28.223  1.00  0.00     0.049 A 
ATOM     52  H   UNL A   1      41.341  28.922  29.996  1.00  0.00     0.167 HD
ATOM     53  C   UNL A   1      40.645  30.747  33.889  1.00  0.00     0.034 A 
ATOM     54  C   UNL A   1      42.383  26.845  28.353  1.00  0.00     0.034 A 
ATOM     55  C   UNL A   1      41.833  29.965  34.056  1.00  0.00     0.049 A 
ATOM     56  C   UNL A   1      43.162  26.806  29.659  1.00  0.00     0.074 A 
ATOM     57  C   UNL A   1      42.747  30.007  35.092  1.00  0.00     0.029 A 
ATOM     58  N   UNL A   1      42.296  29.029  33.146  1.00  0.00    -0.354 N 
ATOM     59  N   UNL A   1      42.916  27.406  30.801  1.00  0.00    -0.248 NA
ATOM     60  C   UNL A   1      44.365  25.951  29.694  1.00  0.00     0.031 C 
ATOM     61  C   UNL A   1      43.784  29.120  34.793  1.00  0.00     0.029 A 
ATOM     62  C   UNL A   1      43.485  28.488  33.597  1.00  0.00     0.049 A 
ATOM     63  H   UNL A   1      41.845  28.787  32.305  1.00  0.00     0.167 HD
ATOM     64  C   UNL A   1      43.929  27.007  31.671  1.00  0.00     0.074 A 
ATOM     65  C   UNL A   1      44.722  26.024  30.968  1.00  0.00     0.031 C 
ATOM     66  C   UNL A   1      44.227  27.462  32.914  1.00  0.00     0.034 A 
BRANCH  53  67
ATOM     67  C   UNL A   1      40.289  31.754  34.941  1.00  0.00     0.023 A 
ATOM     68  C   UNL A   1      40.939  33.001  34.979  1.00  0.00     0.012 A 
ATOM     69  C   UNL A   1      39.320  31.436  35.912  1.00  0.00     0.148 A 
ATOM     70  C   UNL A   1      40.646  33.913  35.992  1.00  0.00     0.002 A 
ATOM     71  C   UNL A   1      38.999  32.368  36.887  1.00  0.00     0.091 A 
ATOM     72  F   UNL A   1      38.753  30.222  35.874  1.00  0.00    -0.205 F 
ATOM     73  C   UNL A   1      39.671  33.600  36.937  1.00  0.00     0.022 A 
BRANCH  71  74
ATOM     74  S   UNL A   1      37.716  32.083  38.107  1.00  0.00     0.127 S 
ATOM     75  O   UNL A   1      36.695  33.045  37.693  1.00  0.00    -0.237 OA
ATOM     76  O   UNL A   1      37.374  30.682  37.860  1.00  0.00    -0.237 OA
ATOM     77  O   UNL A   1      38.322  32.348  39.404  1.00  0.00    -0.744 OA
ENDBRANCH  71  74
ENDBRANCH  53  67
BRANCH  54  78
ATOM     78  C   UNL A   1      42.655  25.768  27.310  1.00  0.00     0.023 A 
ATOM     79  C   UNL A   1      43.499  26.076  26.211  1.00  0.00     0.012 A 
ATOM     80  C   UNL A   1      42.085  24.482  27.324  1.00  0.00     0.148 A 
ATOM     81  C   UNL A   1      43.770  25.167  25.183  1.00  0.00     0.002 A 
ATOM     82  C   UNL A   1      42.408  23.548  26.331  1.00  0.00     0.091 A 
ATOM     83  F   UNL A   1      41.189  24.188  28.276  1.00  0.00    -0.205 F 
ATOM     84  C   UNL A   1      43.238  23.892  25.254  1.00  0.00     0.022 A 
BRANCH  82  85
ATOM     85  S   UNL A   1      41.845  21.842  26.398  1.00  0.00     0.127 S 
ATOM     86  O   UNL A   1      40.424  21.981  26.089  1.00  0.00    -0.237 OA
ATOM     87  O   UNL A   1      42.639  21.206  25.345  1.00  0.00    -0.237 OA
ATOM     88  O   UNL A   1      42.164  21.384  27.744  1.00  0.00    -0.744 OA
ENDBRANCH  82  85
ENDBRANCH  54  78
BRANCH  66  89
ATOM     89  C   UNL A   1      45.464  26.923  33.597  1.00  0.00     0.023 A 
ATOM     90  C   UNL A   1      46.703  27.573  33.409  1.00  0.00     0.012 A 
ATOM     91  C   UNL A   1      45.389  25.840  34.494  1.00  0.00     0.148 A 
ATOM     92  C   UNL A   1      47.852  27.120  34.056  1.00  0.00     0.002 A 
ATOM     93  C   UNL A   1      46.527  25.432  35.182  1.00  0.00     0.091 A 
ATOM     94  F   UNL A   1      44.206  25.230  34.664  1.00  0.00    -0.205 F 
ATOM     95  C   UNL A   1      47.761  26.058  34.950  1.00  0.00     0.022 A 
BRANCH  93  96
ATOM     96  S   UNL A   1      46.490  24.148  36.438  1.00  0.00     0.127 S 
ATOM     97  O   UNL A   1      46.129  22.971  35.649  1.00  0.00    -0.237 OA
ATOM     98  O   UNL A   1      47.868  24.156  36.929  1.00  0.00    -0.237 OA
ATOM     99  O   UNL A   1      45.497  24.571  37.417  1.00  0.00    -0.744 OA
ENDBRANCH  93  96
ENDBRANCH  66  89
ENDBRANCH  40  41
ENDBRANCH  33  35
ENDBRANCH  32  33
ENDBRANCH  31  32
ENDBRANCH   1  31
TORSDOF 19
ENDMDL
MODEL 2
REMARK VINA RESULT:     -12.6      4.853     10.055
REMARK SMILES O=C(C[C@@H]1C(=O)NCCN1C(=O)OCC1c2ccccc2-c2ccccc21)OCCOC(=O)c1ccc(-c2c3nc(c(-c4cccc(S(=O)(=O)[O-])c4F)c4ccc([nH]4)c(-c4cccc(S(=O)(=O)[O-])c4F)c4nc(c(-c5cccc(S(=O)(=O)[O-])c5F)c5ccc2[nH]5)C=C4)C=C3)cc1
REMARK SMILES IDX 29 1 28 2 2 3 1 4 3 5 4 6 5 7 10 8 6 9 7 10 9 11 8 12 11 14
REMARK SMILES IDX 12 15 13 16 14 17 15 18 16 19 27 20 17 21 21 22 22 23 26 24
REMARK SMILES IDX 18 25 20 26 23 27 25 28 19 29 24 30 30 31 31 32 32 33 33 34
REMARK SMILES IDX 34 35 35 36 96 37 36 38 95 39 37 40 38 41 39 42 89 43 40 44
REMARK SMILES IDX 94 45 88 46 90 47 41 48 93 49 87 50 86 51 42 53 74 54 54 55
REMARK SMILES IDX 73 56 55 57 58 58 72 59 91 60 56 61 57 62 71 64 92 65 59 66
REMARK SMILES IDX 43 67 44 68 52 69 45 70 47 71 53 72 46 73 48 74 49 75 50 76
REMARK SMILES IDX 51 77 75 78 76 79 84 80 77 81 79 82 85 83 78 84 80 85 81 86
REMARK SMILES IDX 82 87 83 88 60 89 61 90 69 91 62 92 64 93 70 94 63 95 65 96
REMARK SMILES IDX 66 97 67 98 68 99
REMARK H PARENT 7 13 90 52 58 63
REMARK Flexibility Score: inf
ROOT
ATOM      1  C   UNL A   1      36.028  20.242  24.987  1.00  0.00     0.274 C 
ENDROOT
BRANCH   1   2
ATOM      2  O   UNL A   1      34.855  20.873  25.528  1.00  0.00    -0.462 OA
BRANCH   2   3
ATOM      3  C   UNL A   1      34.014  21.629  24.791  1.00  0.00     0.308 C 
ATOM      4  O   UNL A   1      33.363  21.133  23.872  1.00  0.00    -0.252 OA
BRANCH   3   5
ATOM      5  C   UNL A   1      34.000  23.115  25.017  1.00  0.00     0.158 C 
BRANCH   5   6
ATOM      6  C   UNL A   1      32.891  23.754  25.873  1.00  0.00     0.189 C 
ATOM      7  C   UNL A   1      32.698  22.958  27.191  1.00  0.00     0.243 C 
ATOM      8  N   UNL A   1      31.604  24.118  25.186  1.00  0.00    -0.294 N 
ATOM      9  O   UNL A   1      33.635  22.719  27.955  1.00  0.00    -0.273 OA
ATOM     10  N   UNL A   1      31.442  22.525  27.516  1.00  0.00    -0.353 N 
ATOM     11  C   UNL A   1      30.429  24.196  26.043  1.00  0.00     0.145 C 
ATOM     12  C   UNL A   1      30.265  22.847  26.732  1.00  0.00     0.137 C 
ATOM     13  H   UNL A   1      31.331  21.969  28.320  1.00  0.00     0.163 HD
BRANCH   8  14
ATOM     14  C   UNL A   1      31.419  24.392  23.835  1.00  0.00     0.410 C 
ATOM     15  O   UNL A   1      30.763  23.730  23.060  1.00  0.00    -0.224 OA
BRANCH  14  16
ATOM     16  O   UNL A   1      32.123  25.477  23.491  1.00  0.00    -0.448 OA
BRANCH  16  17
ATOM     17  C   UNL A   1      31.538  26.751  23.227  1.00  0.00     0.248 C 
BRANCH  17  18
ATOM     18  C   UNL A   1      30.512  27.404  24.161  1.00  0.00     0.088 C 
ATOM     19  C   UNL A   1      31.206  28.139  25.269  1.00  0.00    -0.029 A 
ATOM     20  C   UNL A   1      29.689  28.515  23.529  1.00  0.00    -0.029 A 
ATOM     21  C   UNL A   1      31.865  27.588  26.348  1.00  0.00     0.005 A 
ATOM     22  C   UNL A   1      31.138  29.525  25.034  1.00  0.00    -0.014 A 
ATOM     23  C   UNL A   1      30.148  29.764  23.999  1.00  0.00    -0.014 A 
ATOM     24  C   UNL A   1      28.528  28.410  22.775  1.00  0.00     0.005 A 
ATOM     25  C   UNL A   1      32.580  28.451  27.161  1.00  0.00     0.000 A 
ATOM     26  C   UNL A   1      31.870  30.381  25.826  1.00  0.00     0.009 A 
ATOM     27  C   UNL A   1      29.492  30.929  23.646  1.00  0.00     0.009 A 
ATOM     28  C   UNL A   1      27.827  29.578  22.479  1.00  0.00     0.000 A 
ATOM     29  C   UNL A   1      32.604  29.830  26.886  1.00  0.00     0.001 A 
ATOM     30  C   UNL A   1      28.306  30.822  22.912  1.00  0.00     0.001 A 
ENDBRANCH  17  18
ENDBRANCH  16  17
ENDBRANCH  14  16
ENDBRANCH   8  14
ENDBRANCH   5   6
ENDBRANCH   3   5
ENDBRANCH   2   3
ENDBRANCH   1   2
BRANCH   1  31
ATOM     31  C   UNL A   1      37.094  21.279  24.627  1.00  0.00     0.275 C 
BRANCH  31  32
ATOM     32  O   UNL A   1      37.642  21.914  25.803  1.00  0.00    -0.458 OA
BRANCH  32  33
ATOM     33  C   UNL A   1      38.934  21.630  26.120  1.00  0.00     0.338 C 
ATOM     34  O   UNL A   1      39.502  20.571  25.910  1.00  0.00    -0.246 OA
BRANCH  33  35
ATOM     35  C   UNL A   1      39.622  22.845  26.662  1.00  0.00     0.060 A 
ATOM     36  C   UNL A   1      39.147  24.105  26.288  1.00  0.00     0.016 A 
ATOM     37  C   UNL A   1      40.682  22.776  27.580  1.00  0.00     0.016 A 
ATOM     38  C   UNL A   1      39.664  25.265  26.903  1.00  0.00     0.010 A 
ATOM     39  C   UNL A   1      41.201  23.939  28.194  1.00  0.00     0.010 A 
ATOM     40  C   UNL A   1      40.668  25.201  27.909  1.00  0.00    -0.014 A 
BRANCH  40  41
ATOM     41  C   UNL A   1      41.175  26.490  28.521  1.00  0.00     0.031 A 
ATOM     42  C   UNL A   1      42.550  26.907  28.076  1.00  0.00     0.074 A 
ATOM     43  C   UNL A   1      40.489  27.326  29.348  1.00  0.00     0.049 A 
ATOM     44  N   UNL A   1      43.125  28.076  28.113  1.00  0.00    -0.248 NA
ATOM     45  C   UNL A   1      43.380  25.832  27.502  1.00  0.00     0.031 C 
ATOM     46  C   UNL A   1      39.186  27.067  29.952  1.00  0.00     0.029 A 
ATOM     47  N   UNL A   1      40.742  28.640  29.733  1.00  0.00    -0.354 N 
ATOM     48  C   UNL A   1      44.407  27.863  27.628  1.00  0.00     0.074 A 
ATOM     49  C   UNL A   1      44.492  26.482  27.207  1.00  0.00     0.031 C 
ATOM     50  C   UNL A   1      38.657  28.219  30.405  1.00  0.00     0.029 A 
ATOM     51  C   UNL A   1      39.632  29.295  30.272  1.00  0.00     0.049 A 
ATOM     52  H   UNL A   1      41.623  29.068  29.633  1.00  0.00     0.167 HD
ATOM     53  C   UNL A   1      45.459  28.710  27.602  1.00  0.00     0.034 A 
ATOM     54  C   UNL A   1      39.419  30.605  30.573  1.00  0.00     0.034 A 
ATOM     55  C   UNL A   1      45.434  30.049  28.110  1.00  0.00     0.049 A 
ATOM     56  C   UNL A   1      40.588  31.565  30.410  1.00  0.00     0.074 A 
ATOM     57  C   UNL A   1      46.485  30.939  28.227  1.00  0.00     0.029 A 
ATOM     58  N   UNL A   1      44.313  30.678  28.622  1.00  0.00    -0.354 N 
ATOM     59  N   UNL A   1      41.740  31.389  29.806  1.00  0.00    -0.248 NA
ATOM     60  C   UNL A   1      40.425  32.919  30.975  1.00  0.00     0.031 C 
ATOM     61  C   UNL A   1      46.007  32.098  28.843  1.00  0.00     0.029 A 
ATOM     62  C   UNL A   1      44.647  31.946  29.060  1.00  0.00     0.049 A 
ATOM     63  H   UNL A   1      43.413  30.281  28.669  1.00  0.00     0.167 HD
ATOM     64  C   UNL A   1      42.428  32.595  29.929  1.00  0.00     0.074 A 
ATOM     65  C   UNL A   1      41.522  33.531  30.555  1.00  0.00     0.031 C 
ATOM     66  C   UNL A   1      43.717  32.889  29.622  1.00  0.00     0.034 A 
BRANCH  53  67
ATOM     67  C   UNL A   1      46.759  28.145  27.114  1.00  0.00     0.023 A 
ATOM     68  C   UNL A   1      47.770  27.799  28.030  1.00  0.00     0.012 A 
ATOM     69  C   UNL A   1      46.978  27.989  25.732  1.00  0.00     0.148 A 
ATOM     70  C   UNL A   1      48.999  27.327  27.570  1.00  0.00     0.002 A 
ATOM     71  C   UNL A   1      48.185  27.474  25.287  1.00  0.00     0.091 A 
ATOM     72  F   UNL A   1      46.011  28.372  24.886  1.00  0.00    -0.205 F 
ATOM     73  C   UNL A   1      49.201  27.155  26.202  1.00  0.00     0.022 A 
BRANCH  71  74
ATOM     74  S   UNL A   1      48.516  27.158  23.552  1.00  0.00     0.127 S 
ATOM     75  O   UNL A   1      49.978  27.162  23.525  1.00  0.00    -0.237 OA
ATOM     76  O   UNL A   1      47.904  25.843  23.365  1.00  0.00    -0.237 OA
ATOM     77  O   UNL A   1      47.883  28.241  22.814  1.00  0.00    -0.744 OA
ENDBRANCH  71  74
ENDBRANCH  53  67
BRANCH  54  78
ATOM     78  C   UNL A   1      38.060  31.172  30.967  1.00  0.00     0.023 A 
ATOM     79  C   UNL A   1      37.617  31.017  32.306  1.00  0.00     0.012 A 
ATOM     80  C   UNL A   1      37.173  31.806  30.079  1.00  0.00     0.148 A 
ATOM     81  C   UNL A   1      36.368  31.464  32.749  1.00  0.00     0.002 A 
ATOM     82  C   UNL A   1      35.949  32.313  30.536  1.00  0.00     0.091 A 
ATOM     83  F   UNL A   1      37.498  31.866  28.780  1.00  0.00    -0.205 F 
ATOM     84  C   UNL A   1      35.539  32.132  31.864  1.00  0.00     0.022 A 
BRANCH  82  85
ATOM     85  S   UNL A   1      34.859  33.281  29.482  1.00  0.00     0.127 S 
ATOM     86  O   UNL A   1      35.780  34.263  28.917  1.00  0.00    -0.237 OA
ATOM     87  O   UNL A   1      34.373  32.280  28.529  1.00  0.00    -0.237 OA
ATOM     88  O   UNL A   1      33.831  33.806  30.371  1.00  0.00    -0.744 OA
ENDBRANCH  82  85
ENDBRANCH  54  78
BRANCH  66  89
ATOM     89  C   UNL A   1      44.240  34.265  29.966  1.00  0.00     0.023 A 
ATOM     90  C   UNL A   1      44.907  34.471  31.192  1.00  0.00     0.012 A 
ATOM     91  C   UNL A   1      44.158  35.328  29.044  1.00  0.00     0.148 A 
ATOM     92  C   UNL A   1      45.432  35.720  31.519  1.00  0.00     0.002 A 
ATOM     93  C   UNL A   1      44.738  36.555  29.351  1.00  0.00     0.091 A 
ATOM     94  F   UNL A   1      43.520  35.121  27.882  1.00  0.00    -0.205 F 
ATOM     95  C   UNL A   1      45.357  36.758  30.594  1.00  0.00     0.022 A 
BRANCH  93  96
ATOM     96  S   UNL A   1      44.793  37.918  28.183  1.00  0.00     0.127 S 
ATOM     97  O   UNL A   1      43.377  38.264  28.063  1.00  0.00    -0.237 OA
ATOM     98  O   UNL A   1      45.604  38.904  28.896  1.00  0.00    -0.237 OA
ATOM     99  O   UNL A   1      45.409  37.387  26.974  1.00  0.00    -0.744 OA
ENDBRANCH  93  96
ENDBRANCH  66  89
ENDBRANCH  40  41
ENDBRANCH  33  35
ENDBRANCH  32  33
ENDBRANCH  31  32
ENDBRANCH   1  31
TORSDOF 19
ENDMDL
MODEL 3
REMARK VINA RESULT:     -12.5      4.862      9.869
REMARK SMILES O=C(C[C@@H]1C(=O)NCCN1C(=O)OCC1c2ccccc2-c2ccccc21)OCCOC(=O)c1ccc(-c2c3nc(c(-c4cccc(S(=O)(=O)[O-])c4F)c4ccc([nH]4)c(-c4cccc(S(=O)(=O)[O-])c4F)c4nc(c(-c5cccc(S(=O)(=O)[O-])c5F)c5ccc2[nH]5)C=C4)C=C3)cc1
REMARK SMILES IDX 29 1 28 2 2 3 1 4 3 5 4 6 5 7 10 8 6 9 7 10 9 11 8 12 11 14
REMARK SMILES IDX 12 15 13 16 14 17 15 18 16 19 27 20 17 21 21 22 22 23 26 24
REMARK SMILES IDX 18 25 20 26 23 27 25 28 19 29 24 30 30 31 31 32 32 33 33 34
REMARK SMILES IDX 34 35 35 36 96 37 36 38 95 39 37 40 38 41 39 42 89 43 40 44
REMARK SMILES IDX 94 45 88 46 90 47 41 48 93 49 87 50 86 51 42 53 74 54 54 55
REMARK SMILES IDX 73 56 55 57 58 58 72 59 91 60 56 61 57 62 71 64 92 65 59 66
REMARK SMILES IDX 43 67 44 68 52 69 45 70 47 71 53 72 46 73 48 74 49 75 50 76
REMARK SMILES IDX 51 77 75 78 76 79 84 80 77 81 79 82 85 83 78 84 80 85 81 86
REMARK SMILES IDX 82 87 83 88 60 89 61 90 69 91 62 92 64 93 70 94 63 95 65 96
REMARK SMILES IDX 66 97 67 98 68 99
REMARK H PARENT 7 13 90 52 58 63
REMARK Flexibility Score: inf
ROOT
ATOM      1  C   UNL A   1      35.406  20.913  25.051  1.00  0.00     0.274 C 
ENDROOT
BRANCH   1   2
ATOM      2  O   UNL A   1      35.312  22.305  24.704  1.00  0.00    -0.462 OA
BRANCH   2   3
ATOM      3  C   UNL A   1      34.942  23.264  25.579  1.00  0.00     0.308 C 
ATOM      4  O   UNL A   1      35.360  23.255  26.736  1.00  0.00    -0.252 OA
BRANCH   3   5
ATOM      5  C   UNL A   1      33.893  24.255  25.157  1.00  0.00     0.158 C 
BRANCH   5   6
ATOM      6  C   UNL A   1      32.642  24.471  26.028  1.00  0.00     0.189 C 
ATOM      7  C   UNL A   1      31.526  23.467  25.631  1.00  0.00     0.243 C 
ATOM      8  N   UNL A   1      32.157  25.882  26.210  1.00  0.00    -0.294 N 
ATOM      9  O   UNL A   1      31.722  22.252  25.597  1.00  0.00    -0.273 OA
ATOM     10  N   UNL A   1      30.285  23.955  25.328  1.00  0.00    -0.353 N 
ATOM     11  C   UNL A   1      30.746  26.028  26.543  1.00  0.00     0.145 C 
ATOM     12  C   UNL A   1      29.935  25.357  25.441  1.00  0.00     0.137 C 
ATOM     13  H   UNL A   1      29.596  23.325  25.019  1.00  0.00     0.163 HD
BRANCH   8  14
ATOM     14  C   UNL A   1      32.904  27.050  26.103  1.00  0.00     0.410 C 
ATOM     15  O   UNL A   1      34.114  27.121  26.112  1.00  0.00    -0.224 OA
BRANCH  14  16
ATOM     16  O   UNL A   1      32.086  28.108  26.046  1.00  0.00    -0.448 OA
BRANCH  16  17
ATOM     17  C   UNL A   1      32.360  29.281  25.280  1.00  0.00     0.248 C 
BRANCH  17  18
ATOM     18  C   UNL A   1      31.873  29.463  23.838  1.00  0.00     0.088 C 
ATOM     19  C   UNL A   1      32.189  28.245  23.021  1.00  0.00    -0.029 A 
ATOM     20  C   UNL A   1      30.364  29.550  23.679  1.00  0.00    -0.029 A 
ATOM     21  C   UNL A   1      33.430  27.843  22.572  1.00  0.00     0.005 A 
ATOM     22  C   UNL A   1      31.014  27.503  22.802  1.00  0.00    -0.014 A 
ATOM     23  C   UNL A   1      29.877  28.336  23.148  1.00  0.00    -0.014 A 
ATOM     24  C   UNL A   1      29.544  30.663  23.806  1.00  0.00     0.005 A 
ATOM     25  C   UNL A   1      33.515  26.595  21.978  1.00  0.00     0.000 A 
ATOM     26  C   UNL A   1      31.102  26.250  22.236  1.00  0.00     0.009 A 
ATOM     27  C   UNL A   1      28.541  28.203  22.817  1.00  0.00     0.009 A 
ATOM     28  C   UNL A   1      28.213  30.550  23.404  1.00  0.00     0.000 A 
ATOM     29  C   UNL A   1      32.367  25.796  21.837  1.00  0.00     0.001 A 
ATOM     30  C   UNL A   1      27.721  29.332  22.915  1.00  0.00     0.001 A 
ENDBRANCH  17  18
ENDBRANCH  16  17
ENDBRANCH  14  16
ENDBRANCH   8  14
ENDBRANCH   5   6
ENDBRANCH   3   5
ENDBRANCH   2   3
ENDBRANCH   1   2
BRANCH   1  31
ATOM     31  C   UNL A   1      36.847  20.413  24.938  1.00  0.00     0.275 C 
BRANCH  31  32
ATOM     32  O   UNL A   1      37.799  21.496  25.043  1.00  0.00    -0.458 OA
BRANCH  32  33
ATOM     33  C   UNL A   1      38.893  21.289  25.823  1.00  0.00     0.338 C 
ATOM     34  O   UNL A   1      39.511  20.242  25.919  1.00  0.00    -0.246 OA
BRANCH  33  35
ATOM     35  C   UNL A   1      39.325  22.568  26.473  1.00  0.00     0.060 A 
ATOM     36  C   UNL A   1      40.397  22.532  27.370  1.00  0.00     0.016 A 
ATOM     37  C   UNL A   1      38.744  23.810  26.174  1.00  0.00     0.016 A 
ATOM     38  C   UNL A   1      40.933  23.736  27.876  1.00  0.00     0.010 A 
ATOM     39  C   UNL A   1      39.282  25.015  26.683  1.00  0.00     0.010 A 
ATOM     40  C   UNL A   1      40.418  25.007  27.500  1.00  0.00    -0.014 A 
BRANCH  40  41
ATOM     41  C   UNL A   1      41.044  26.254  28.087  1.00  0.00     0.031 A 
ATOM     42  C   UNL A   1      42.354  26.659  27.470  1.00  0.00     0.074 A 
ATOM     43  C   UNL A   1      40.506  27.067  29.037  1.00  0.00     0.049 A 
ATOM     44  N   UNL A   1      42.963  27.812  27.474  1.00  0.00    -0.248 NA
ATOM     45  C   UNL A   1      43.063  25.594  26.739  1.00  0.00     0.031 C 
ATOM     46  C   UNL A   1      39.293  26.811  29.809  1.00  0.00     0.029 A 
ATOM     47  N   UNL A   1      40.849  28.356  29.438  1.00  0.00    -0.354 N 
ATOM     48  C   UNL A   1      44.157  27.592  26.804  1.00  0.00     0.074 A 
ATOM     49  C   UNL A   1      44.141  26.231  26.317  1.00  0.00     0.031 C 
ATOM     50  C   UNL A   1      38.867  27.953  30.381  1.00  0.00     0.029 A 
ATOM     51  C   UNL A   1      39.846  29.011  30.156  1.00  0.00     0.049 A 
ATOM     52  H   UNL A   1      41.719  28.768  29.233  1.00  0.00     0.167 HD
ATOM     53  C   UNL A   1      45.219  28.415  26.665  1.00  0.00     0.034 A 
ATOM     54  C   UNL A   1      39.715  30.310  30.539  1.00  0.00     0.034 A 
ATOM     55  C   UNL A   1      45.305  29.729  27.227  1.00  0.00     0.049 A 
ATOM     56  C   UNL A   1      40.877  31.250  30.253  1.00  0.00     0.074 A 
ATOM     57  C   UNL A   1      46.388  30.588  27.232  1.00  0.00     0.029 A 
ATOM     58  N   UNL A   1      44.286  30.360  27.920  1.00  0.00    -0.354 N 
ATOM     59  N   UNL A   1      41.928  31.075  29.485  1.00  0.00    -0.248 NA
ATOM     60  C   UNL A   1      40.835  32.580  30.892  1.00  0.00     0.031 C 
ATOM     61  C   UNL A   1      46.035  31.728  27.958  1.00  0.00     0.029 A 
ATOM     62  C   UNL A   1      44.716  31.598  28.359  1.00  0.00     0.049 A 
ATOM     63  H   UNL A   1      43.390  29.982  28.077  1.00  0.00     0.167 HD
ATOM     64  C   UNL A   1      42.661  32.258  29.560  1.00  0.00     0.074 A 
ATOM     65  C   UNL A   1      41.880  33.185  30.347  1.00  0.00     0.031 C 
ATOM     66  C   UNL A   1      43.902  32.535  29.086  1.00  0.00     0.034 A 
BRANCH  53  67
ATOM     67  C   UNL A   1      46.421  27.843  25.974  1.00  0.00     0.023 A 
ATOM     68  C   UNL A   1      46.584  28.005  24.586  1.00  0.00     0.012 A 
ATOM     69  C   UNL A   1      47.373  27.117  26.715  1.00  0.00     0.148 A 
ATOM     70  C   UNL A   1      47.673  27.424  23.937  1.00  0.00     0.002 A 
ATOM     71  C   UNL A   1      48.478  26.585  26.070  1.00  0.00     0.091 A 
ATOM     72  F   UNL A   1      47.163  26.944  28.028  1.00  0.00    -0.205 F 
ATOM     73  C   UNL A   1      48.622  26.724  24.680  1.00  0.00     0.022 A 
BRANCH  71  74
ATOM     74  S   UNL A   1      49.784  25.724  26.948  1.00  0.00     0.127 S 
ATOM     75  O   UNL A   1      50.742  25.467  25.874  1.00  0.00    -0.237 OA
ATOM     76  O   UNL A   1      50.207  26.732  27.919  1.00  0.00    -0.237 OA
ATOM     77  O   UNL A   1      49.171  24.535  27.524  1.00  0.00    -0.744 OA
ENDBRANCH  71  74
ENDBRANCH  53  67
BRANCH  54  78
ATOM     78  C   UNL A   1      38.443  30.890  31.146  1.00  0.00     0.023 A 
ATOM     79  C   UNL A   1      38.230  30.760  32.543  1.00  0.00     0.012 A 
ATOM     80  C   UNL A   1      37.419  31.512  30.408  1.00  0.00     0.148 A 
ATOM     81  C   UNL A   1      37.073  31.221  33.180  1.00  0.00     0.002 A 
ATOM     82  C   UNL A   1      36.290  32.032  31.054  1.00  0.00     0.091 A 
ATOM     83  F   UNL A   1      37.522  31.548  29.072  1.00  0.00    -0.205 F 
ATOM     84  C   UNL A   1      36.109  31.876  32.436  1.00  0.00     0.022 A 
BRANCH  82  85
ATOM     85  S   UNL A   1      35.040  32.986  30.181  1.00  0.00     0.127 S 
ATOM     86  O   UNL A   1      35.835  34.063  29.599  1.00  0.00    -0.237 OA
ATOM     87  O   UNL A   1      34.524  32.016  29.213  1.00  0.00    -0.237 OA
ATOM     88  O   UNL A   1      34.077  33.381  31.200  1.00  0.00    -0.744 OA
ENDBRANCH  82  85
ENDBRANCH  54  78
BRANCH  66  89
ATOM     89  C   UNL A   1      44.508  33.882  29.410  1.00  0.00     0.023 A 
ATOM     90  C   UNL A   1      45.241  34.047  30.604  1.00  0.00     0.012 A 
ATOM     91  C   UNL A   1      44.437  34.953  28.498  1.00  0.00     0.148 A 
ATOM     92  C   UNL A   1      45.843  35.267  30.911  1.00  0.00     0.002 A 
ATOM     93  C   UNL A   1      45.090  36.148  28.782  1.00  0.00     0.091 A 
ATOM     94  F   UNL A   1      43.736  34.785  27.366  1.00  0.00    -0.205 F 
ATOM     95  C   UNL A   1      45.777  36.312  29.995  1.00  0.00     0.022 A 
BRANCH  93  96
ATOM     96  S   UNL A   1      45.159  37.514  27.617  1.00  0.00     0.127 S 
ATOM     97  O   UNL A   1      45.818  38.549  28.412  1.00  0.00    -0.237 OA
ATOM     98  O   UNL A   1      45.977  36.959  26.538  1.00  0.00    -0.237 OA
ATOM     99  O   UNL A   1      43.779  37.796  27.246  1.00  0.00    -0.744 OA
ENDBRANCH  93  96
ENDBRANCH  66  89
ENDBRANCH  40  41
ENDBRANCH  33  35
ENDBRANCH  32  33
ENDBRANCH  31  32
ENDBRANCH   1  31
TORSDOF 19
ENDMDL
