MODEL 1
REMARK VINA RESULT:     -11.0      0.000      0.000
REMARK SMILES C[C@H](CNC(=O)Cn1cccc1C(=O)OCCOC(=O)c1ccc(-c2c3nc(c(-c4cccc(S(=O)(=O)[O-])c4F)c4ccc([nH]4)c(-c4cccc(S(=O)(=O)[O-])c4F)c4nc(c(-c5cccc(S(=O)(=O)[O-])c5F)c5ccc2[nH]5)C=C4)C=C3)cc1)[NH+](C)C
REMARK SMILES IDX 16 1 15 2 13 3 14 4 12 5 8 6 9 7 10 8 11 9 7 10 5 11 4 12
REMARK SMILES IDX 6 14 3 15 2 16 1 17 84 18 85 19 86 20 17 22 18 23 19 24
REMARK SMILES IDX 20 25 21 26 22 27 83 28 23 29 82 30 24 31 25 32 26 33 76 34
REMARK SMILES IDX 27 35 81 36 75 37 77 38 28 39 80 40 74 41 73 42 29 44 61 45
REMARK SMILES IDX 41 46 60 47 42 48 45 49 59 50 78 51 43 52 44 53 58 55 79 56
REMARK SMILES IDX 46 57 30 58 31 59 39 60 32 61 34 62 40 63 33 64 35 65 36 66
REMARK SMILES IDX 37 67 38 68 62 69 63 70 71 71 64 72 66 73 72 74 65 75 67 76
REMARK SMILES IDX 68 77 69 78 70 79 47 80 48 81 56 82 49 83 51 84 57 85 50 86
REMARK SMILES IDX 52 87 53 88 54 89 55 90
REMARK H PARENT 4 13 84 21 77 43 45 54
REMARK Flexibility Score: inf
ROOT
ATOM      1  C   UNL A   1      37.125  23.054  24.721  1.00  0.00     0.275 C 
ENDROOT
BRANCH   1   2
ATOM      2  O   UNL A   1      35.917  22.316  24.962  1.00  0.00    -0.457 OA
BRANCH   2   3
ATOM      3  C   UNL A   1      34.963  22.960  25.680  1.00  0.00     0.355 C 
ATOM      4  O   UNL A   1      34.895  22.978  26.906  1.00  0.00    -0.244 OA
BRANCH   3   5
ATOM      5  C   UNL A   1      34.153  23.770  24.795  1.00  0.00     0.128 A 
ATOM      6  N   UNL A   1      33.115  23.398  23.953  1.00  0.00    -0.333 N 
ATOM      7  C   UNL A   1      32.634  24.527  23.311  1.00  0.00     0.087 A 
ATOM      8  C   UNL A   1      33.400  25.606  23.676  1.00  0.00     0.020 A 
ATOM      9  C   UNL A   1      34.348  25.135  24.603  1.00  0.00     0.035 A 
BRANCH   6  10
ATOM     10  C   UNL A   1      32.417  22.118  23.836  1.00  0.00     0.222 C 
BRANCH  10  11
ATOM     11  C   UNL A   1      31.857  21.477  25.086  1.00  0.00     0.240 C 
ATOM     12  N   UNL A   1      32.019  20.142  25.336  1.00  0.00    -0.349 N 
ATOM     13  H   UNL A   1      31.399  19.762  25.999  1.00  0.00     0.163 HD
ATOM     14  O   UNL A   1      31.139  22.124  25.855  1.00  0.00    -0.273 OA
BRANCH  12  15
ATOM     15  C   UNL A   1      32.975  19.198  24.763  1.00  0.00     0.180 C 
BRANCH  15  16
ATOM     16  C   UNL A   1      32.323  18.054  23.939  1.00  0.00     0.199 C 
ATOM     17  C   UNL A   1      32.297  18.383  22.465  1.00  0.00     0.077 C 
BRANCH  16  18
ATOM     18  N   UNL A   1      32.890  16.713  24.210  1.00  0.00    -0.336 N 
ATOM     19  C   UNL A   1      34.204  16.606  23.566  1.00  0.00     0.332 C 
ATOM     20  C   UNL A   1      33.085  16.385  25.625  1.00  0.00     0.332 C 
ATOM     21  H   UNL A   1      32.197  16.062  23.840  1.00  0.00     0.347 HD
ENDBRANCH  16  18
ENDBRANCH  15  16
ENDBRANCH  12  15
ENDBRANCH  10  11
ENDBRANCH   6  10
ENDBRANCH   3   5
ENDBRANCH   2   3
ENDBRANCH   1   2
BRANCH   1  22
ATOM     22  C   UNL A   1      38.080  22.984  25.921  1.00  0.00     0.275 C 
BRANCH  22  23
ATOM     23  O   UNL A   1      38.585  24.174  26.575  1.00  0.00    -0.458 OA
BRANCH  23  24
ATOM     24  C   UNL A   1      39.832  24.315  27.074  1.00  0.00     0.338 C 
ATOM     25  O   UNL A   1      40.676  23.442  27.175  1.00  0.00    -0.246 OA
BRANCH  24  26
ATOM     26  C   UNL A   1      39.927  25.679  27.710  1.00  0.00     0.060 A 
ATOM     27  C   UNL A   1      39.431  25.850  29.010  1.00  0.00     0.016 A 
ATOM     28  C   UNL A   1      40.327  26.817  26.988  1.00  0.00     0.016 A 
ATOM     29  C   UNL A   1      39.319  27.136  29.565  1.00  0.00     0.010 A 
ATOM     30  C   UNL A   1      40.195  28.106  27.535  1.00  0.00     0.010 A 
ATOM     31  C   UNL A   1      39.703  28.283  28.837  1.00  0.00    -0.014 A 
BRANCH  31  32
ATOM     32  C   UNL A   1      39.980  29.539  29.622  1.00  0.00     0.031 A 
ATOM     33  C   UNL A   1      38.781  30.490  29.407  1.00  0.00     0.074 A 
ATOM     34  C   UNL A   1      41.164  29.767  30.290  1.00  0.00     0.049 A 
ATOM     35  N   UNL A   1      38.761  31.754  29.106  1.00  0.00    -0.248 NA
ATOM     36  C   UNL A   1      37.411  29.905  29.319  1.00  0.00     0.031 C 
ATOM     37  C   UNL A   1      42.199  28.755  30.551  1.00  0.00     0.029 A 
ATOM     38  N   UNL A   1      41.746  30.871  30.911  1.00  0.00    -0.354 N 
ATOM     39  C   UNL A   1      37.397  32.122  29.022  1.00  0.00     0.074 A 
ATOM     40  C   UNL A   1      36.649  30.915  28.906  1.00  0.00     0.031 C 
ATOM     41  C   UNL A   1      43.301  29.282  31.140  1.00  0.00     0.029 A 
ATOM     42  C   UNL A   1      43.081  30.693  31.402  1.00  0.00     0.049 A 
ATOM     43  H   UNL A   1      41.267  31.725  31.007  1.00  0.00     0.167 HD
ATOM     44  C   UNL A   1      36.933  33.372  29.309  1.00  0.00     0.034 A 
ATOM     45  C   UNL A   1      43.947  31.603  31.975  1.00  0.00     0.034 A 
ATOM     46  C   UNL A   1      38.015  34.168  29.779  1.00  0.00     0.049 A 
ATOM     47  C   UNL A   1      43.127  32.788  32.236  1.00  0.00     0.074 A 
ATOM     48  C   UNL A   1      39.094  34.725  29.151  1.00  0.00     0.029 A 
ATOM     49  N   UNL A   1      38.242  34.086  31.135  1.00  0.00    -0.354 N 
ATOM     50  N   UNL A   1      42.256  32.879  33.196  1.00  0.00    -0.248 NA
ATOM     51  C   UNL A   1      43.239  33.940  31.334  1.00  0.00     0.031 C 
ATOM     52  C   UNL A   1      40.122  34.561  30.095  1.00  0.00     0.029 A 
ATOM     53  C   UNL A   1      39.591  34.161  31.330  1.00  0.00     0.049 A 
ATOM     54  H   UNL A   1      37.556  33.991  31.836  1.00  0.00     0.167 HD
ATOM     55  C   UNL A   1      41.471  33.911  32.746  1.00  0.00     0.074 A 
ATOM     56  C   UNL A   1      42.309  34.717  31.885  1.00  0.00     0.031 C 
ATOM     57  C   UNL A   1      40.142  33.682  32.576  1.00  0.00     0.034 A 
BRANCH  44  58
ATOM     58  C   UNL A   1      35.556  33.941  29.534  1.00  0.00     0.023 A 
ATOM     59  C   UNL A   1      34.917  34.450  28.367  1.00  0.00     0.012 A 
ATOM     60  C   UNL A   1      34.993  34.274  30.776  1.00  0.00     0.148 A 
ATOM     61  C   UNL A   1      33.844  35.335  28.432  1.00  0.00     0.002 A 
ATOM     62  C   UNL A   1      33.881  35.115  30.834  1.00  0.00     0.091 A 
ATOM     63  F   UNL A   1      35.586  33.868  31.902  1.00  0.00    -0.205 F 
ATOM     64  C   UNL A   1      33.331  35.676  29.671  1.00  0.00     0.022 A 
BRANCH  62  65
ATOM     65  S   UNL A   1      33.083  35.559  32.380  1.00  0.00     0.127 S 
ATOM     66  O   UNL A   1      34.135  36.315  33.056  1.00  0.00    -0.237 OA
ATOM     67  O   UNL A   1      31.956  36.370  31.912  1.00  0.00    -0.237 OA
ATOM     68  O   UNL A   1      32.692  34.300  32.999  1.00  0.00    -0.744 OA
ENDBRANCH  62  65
ENDBRANCH  44  58
BRANCH  45  69
ATOM     69  C   UNL A   1      45.415  31.746  32.390  1.00  0.00     0.023 A 
ATOM     70  C   UNL A   1      46.482  31.974  31.512  1.00  0.00     0.012 A 
ATOM     71  C   UNL A   1      45.781  31.707  33.783  1.00  0.00     0.148 A 
ATOM     72  C   UNL A   1      47.791  32.230  31.995  1.00  0.00     0.002 A 
ATOM     73  C   UNL A   1      47.032  32.090  34.261  1.00  0.00     0.091 A 
ATOM     74  F   UNL A   1      44.922  31.235  34.689  1.00  0.00    -0.205 F 
ATOM     75  C   UNL A   1      48.058  32.338  33.363  1.00  0.00     0.022 A 
BRANCH  73  76
ATOM     76  S   UNL A   1      47.326  32.403  36.021  1.00  0.00     0.127 S 
ATOM     77  O   UNL A   1      46.271  33.359  36.353  1.00  0.00    -0.237 OA
ATOM     78  O   UNL A   1      47.143  31.067  36.587  1.00  0.00    -0.237 OA
ATOM     79  O   UNL A   1      48.683  32.925  36.129  1.00  0.00    -0.744 OA
ENDBRANCH  73  76
ENDBRANCH  45  69
BRANCH  57  80
ATOM     80  C   UNL A   1      39.544  32.672  33.554  1.00  0.00     0.023 A 
ATOM     81  C   UNL A   1      39.192  31.410  33.028  1.00  0.00     0.012 A 
ATOM     82  C   UNL A   1      39.189  32.927  34.900  1.00  0.00     0.148 A 
ATOM     83  C   UNL A   1      38.507  30.455  33.785  1.00  0.00     0.002 A 
ATOM     84  C   UNL A   1      38.485  31.978  35.656  1.00  0.00     0.091 A 
ATOM     85  F   UNL A   1      39.536  34.093  35.440  1.00  0.00    -0.205 F 
ATOM     86  C   UNL A   1      38.148  30.739  35.096  1.00  0.00     0.022 A 
BRANCH  84  87
ATOM     87  S   UNL A   1      37.887  32.267  37.336  1.00  0.00     0.127 S 
ATOM     88  O   UNL A   1      36.776  33.200  37.125  1.00  0.00    -0.237 OA
ATOM     89  O   UNL A   1      37.471  30.931  37.753  1.00  0.00    -0.237 OA
ATOM     90  O   UNL A   1      39.002  32.836  38.083  1.00  0.00    -0.744 OA
ENDBRANCH  84  87
ENDBRANCH  57  80
ENDBRANCH  31  32
ENDBRANCH  24  26
ENDBRANCH  23  24
ENDBRANCH  22  23
ENDBRANCH   1  22
TORSDOF 19
ENDMDL
MODEL 2
REMARK VINA RESULT:     -10.7      1.714      3.436
REMARK SMILES C[C@H](CNC(=O)Cn1cccc1C(=O)OCCOC(=O)c1ccc(-c2c3nc(c(-c4cccc(S(=O)(=O)[O-])c4F)c4ccc([nH]4)c(-c4cccc(S(=O)(=O)[O-])c4F)c4nc(c(-c5cccc(S(=O)(=O)[O-])c5F)c5ccc2[nH]5)C=C4)C=C3)cc1)[NH+](C)C
REMARK SMILES IDX 16 1 15 2 13 3 14 4 12 5 8 6 9 7 10 8 11 9 7 10 5 11 4 12
REMARK SMILES IDX 6 14 3 15 2 16 1 17 84 18 85 19 86 20 17 22 18 23 19 24
REMARK SMILES IDX 20 25 21 26 22 27 83 28 23 29 82 30 24 31 25 32 26 33 76 34
REMARK SMILES IDX 27 35 81 36 75 37 77 38 28 39 80 40 74 41 73 42 29 44 61 45
REMARK SMILES IDX 41 46 60 47 42 48 45 49 59 50 78 51 43 52 44 53 58 55 79 56
REMARK SMILES IDX 46 57 30 58 31 59 39 60 32 61 34 62 40 63 33 64 35 65 36 66
REMARK SMILES IDX 37 67 38 68 62 69 63 70 71 71 64 72 66 73 72 74 65 75 67 76
REMARK SMILES IDX 68 77 69 78 70 79 47 80 48 81 56 82 49 83 51 84 57 85 50 86
REMARK SMILES IDX 52 87 53 88 54 89 55 90
REMARK H PARENT 4 13 84 21 77 43 45 54
REMARK Flexibility Score: inf
ROOT
ATOM      1  C   UNL A   1      36.994  23.372  24.477  1.00  0.00     0.275 C 
ENDROOT
BRANCH   1   2
ATOM      2  O   UNL A   1      36.003  22.363  24.228  1.00  0.00    -0.457 OA
BRANCH   2   3
ATOM      3  C   UNL A   1      34.711  22.750  24.378  1.00  0.00     0.355 C 
ATOM      4  O   UNL A   1      33.966  23.091  23.462  1.00  0.00    -0.244 OA
BRANCH   3   5
ATOM      5  C   UNL A   1      34.293  22.525  25.745  1.00  0.00     0.128 A 
ATOM      6  N   UNL A   1      33.632  23.373  26.622  1.00  0.00    -0.333 N 
ATOM      7  C   UNL A   1      33.434  22.709  27.821  1.00  0.00     0.087 A 
ATOM      8  C   UNL A   1      34.026  21.473  27.748  1.00  0.00     0.020 A 
ATOM      9  C   UNL A   1      34.562  21.357  26.452  1.00  0.00     0.035 A 
BRANCH   6  10
ATOM     10  C   UNL A   1      33.010  24.674  26.376  1.00  0.00     0.222 C 
BRANCH  10  11
ATOM     11  C   UNL A   1      31.510  24.802  26.523  1.00  0.00     0.240 C 
ATOM     12  N   UNL A   1      30.862  25.966  26.213  1.00  0.00    -0.349 N 
ATOM     13  H   UNL A   1      29.960  26.059  26.597  1.00  0.00     0.163 HD
ATOM     14  O   UNL A   1      30.850  23.895  27.039  1.00  0.00    -0.273 OA
BRANCH  12  15
ATOM     15  C   UNL A   1      31.310  27.091  25.395  1.00  0.00     0.180 C 
BRANCH  15  16
ATOM     16  C   UNL A   1      31.684  28.359  26.209  1.00  0.00     0.199 C 
ATOM     17  C   UNL A   1      31.542  28.123  27.695  1.00  0.00     0.077 C 
BRANCH  16  18
ATOM     18  N   UNL A   1      32.997  28.943  25.853  1.00  0.00    -0.336 N 
ATOM     19  C   UNL A   1      33.015  29.253  24.419  1.00  0.00     0.332 C 
ATOM     20  C   UNL A   1      33.348  30.181  26.557  1.00  0.00     0.332 C 
ATOM     21  H   UNL A   1      33.677  28.234  26.128  1.00  0.00     0.347 HD
ENDBRANCH  16  18
ENDBRANCH  15  16
ENDBRANCH  12  15
ENDBRANCH  10  11
ENDBRANCH   6  10
ENDBRANCH   3   5
ENDBRANCH   2   3
ENDBRANCH   1   2
BRANCH   1  22
ATOM     22  C   UNL A   1      37.774  23.092  25.769  1.00  0.00     0.275 C 
BRANCH  22  23
ATOM     23  O   UNL A   1      38.241  24.157  26.633  1.00  0.00    -0.458 OA
BRANCH  23  24
ATOM     24  C   UNL A   1      39.490  24.255  27.138  1.00  0.00     0.338 C 
ATOM     25  O   UNL A   1      40.301  23.352  27.247  1.00  0.00    -0.246 OA
BRANCH  24  26
ATOM     26  C   UNL A   1      39.632  25.617  27.770  1.00  0.00     0.060 A 
ATOM     27  C   UNL A   1      39.173  25.800  29.082  1.00  0.00     0.016 A 
ATOM     28  C   UNL A   1      40.039  26.744  27.036  1.00  0.00     0.016 A 
ATOM     29  C   UNL A   1      39.104  27.088  29.637  1.00  0.00     0.010 A 
ATOM     30  C   UNL A   1      39.950  28.037  27.584  1.00  0.00     0.010 A 
ATOM     31  C   UNL A   1      39.495  28.226  28.898  1.00  0.00    -0.014 A 
BRANCH  31  32
ATOM     32  C   UNL A   1      39.820  29.477  29.673  1.00  0.00     0.031 A 
ATOM     33  C   UNL A   1      38.648  30.463  29.469  1.00  0.00     0.074 A 
ATOM     34  C   UNL A   1      41.018  29.671  30.325  1.00  0.00     0.049 A 
ATOM     35  N   UNL A   1      38.663  31.725  29.162  1.00  0.00    -0.248 NA
ATOM     36  C   UNL A   1      37.259  29.919  29.401  1.00  0.00     0.031 C 
ATOM     37  C   UNL A   1      42.026  28.629  30.577  1.00  0.00     0.029 A 
ATOM     38  N   UNL A   1      41.642  30.760  30.934  1.00  0.00    -0.354 N 
ATOM     39  C   UNL A   1      37.309  32.134  29.094  1.00  0.00     0.074 A 
ATOM     40  C   UNL A   1      36.523  30.950  28.993  1.00  0.00     0.031 C 
ATOM     41  C   UNL A   1      43.150  29.125  31.151  1.00  0.00     0.029 A 
ATOM     42  C   UNL A   1      42.977  30.543  31.408  1.00  0.00     0.049 A 
ATOM     43  H   UNL A   1      41.190  31.628  31.032  1.00  0.00     0.167 HD
ATOM     44  C   UNL A   1      36.887  33.399  29.382  1.00  0.00     0.034 A 
ATOM     45  C   UNL A   1      43.877  31.428  31.967  1.00  0.00     0.034 A 
ATOM     46  C   UNL A   1      37.998  34.163  29.834  1.00  0.00     0.049 A 
ATOM     47  C   UNL A   1      43.097  32.640  32.233  1.00  0.00     0.074 A 
ATOM     48  C   UNL A   1      39.086  34.685  29.190  1.00  0.00     0.029 A 
ATOM     49  N   UNL A   1      38.240  34.080  31.188  1.00  0.00    -0.354 N 
ATOM     50  N   UNL A   1      42.241  32.761  33.203  1.00  0.00    -0.248 NA
ATOM     51  C   UNL A   1      43.232  33.784  31.324  1.00  0.00     0.031 C 
ATOM     52  C   UNL A   1      40.120  34.494  30.122  1.00  0.00     0.029 A 
ATOM     53  C   UNL A   1      39.593  34.115  31.365  1.00  0.00     0.049 A 
ATOM     54  H   UNL A   1      37.561  34.009  31.897  1.00  0.00     0.167 HD
ATOM     55  C   UNL A   1      41.483  33.814  32.759  1.00  0.00     0.074 A 
ATOM     56  C   UNL A   1      42.334  34.590  31.883  1.00  0.00     0.031 C 
ATOM     57  C   UNL A   1      40.145  33.625  32.606  1.00  0.00     0.034 A 
BRANCH  44  58
ATOM     58  C   UNL A   1      35.531  34.010  29.621  1.00  0.00     0.023 A 
ATOM     59  C   UNL A   1      34.911  34.572  28.468  1.00  0.00     0.012 A 
ATOM     60  C   UNL A   1      34.979  34.331  30.871  1.00  0.00     0.148 A 
ATOM     61  C   UNL A   1      33.870  35.493  28.556  1.00  0.00     0.002 A 
ATOM     62  C   UNL A   1      33.897  35.208  30.951  1.00  0.00     0.091 A 
ATOM     63  F   UNL A   1      35.556  33.875  31.987  1.00  0.00    -0.205 F 
ATOM     64  C   UNL A   1      33.368  35.818  29.803  1.00  0.00     0.022 A 
BRANCH  62  65
ATOM     65  S   UNL A   1      33.114  35.640  32.508  1.00  0.00     0.127 S 
ATOM     66  O   UNL A   1      32.130  36.634  32.086  1.00  0.00    -0.237 OA
ATOM     67  O   UNL A   1      32.542  34.356  32.921  1.00  0.00    -0.237 OA
ATOM     68  O   UNL A   1      34.186  36.117  33.371  1.00  0.00    -0.744 OA
ENDBRANCH  62  65
ENDBRANCH  44  58
BRANCH  45  69
ATOM     69  C   UNL A   1      45.354  31.529  32.362  1.00  0.00     0.023 A 
ATOM     70  C   UNL A   1      46.377  32.021  31.541  1.00  0.00     0.012 A 
ATOM     71  C   UNL A   1      45.776  31.154  33.688  1.00  0.00     0.148 A 
ATOM     72  C   UNL A   1      47.694  32.206  32.036  1.00  0.00     0.002 A 
ATOM     73  C   UNL A   1      47.029  31.460  34.212  1.00  0.00     0.091 A 
ATOM     74  F   UNL A   1      44.971  30.428  34.467  1.00  0.00    -0.205 F 
ATOM     75  C   UNL A   1      48.010  31.975  33.378  1.00  0.00     0.022 A 
BRANCH  73  76
ATOM     76  S   UNL A   1      47.381  31.329  35.984  1.00  0.00     0.127 S 
ATOM     77  O   UNL A   1      48.702  31.946  36.091  1.00  0.00    -0.237 OA
ATOM     78  O   UNL A   1      46.288  32.118  36.555  1.00  0.00    -0.237 OA
ATOM     79  O   UNL A   1      47.338  29.910  36.314  1.00  0.00    -0.744 OA
ENDBRANCH  73  76
ENDBRANCH  45  69
BRANCH  57  80
ATOM     80  C   UNL A   1      39.529  32.638  33.596  1.00  0.00     0.023 A 
ATOM     81  C   UNL A   1      39.165  31.372  33.088  1.00  0.00     0.012 A 
ATOM     82  C   UNL A   1      39.170  32.917  34.936  1.00  0.00     0.148 A 
ATOM     83  C   UNL A   1      38.464  30.438  33.855  1.00  0.00     0.002 A 
ATOM     84  C   UNL A   1      38.450  31.989  35.703  1.00  0.00     0.091 A 
ATOM     85  F   UNL A   1      39.529  34.087  35.460  1.00  0.00    -0.205 F 
ATOM     86  C   UNL A   1      38.101  30.746  35.160  1.00  0.00     0.022 A 
BRANCH  84  87
ATOM     87  S   UNL A   1      37.847  32.312  37.375  1.00  0.00     0.127 S 
ATOM     88  O   UNL A   1      36.738  33.242  37.141  1.00  0.00    -0.237 OA
ATOM     89  O   UNL A   1      37.428  30.985  37.816  1.00  0.00    -0.237 OA
ATOM     90  O   UNL A   1      38.961  32.894  38.114  1.00  0.00    -0.744 OA
ENDBRANCH  84  87
ENDBRANCH  57  80
ENDBRANCH  31  32
ENDBRANCH  24  26
ENDBRANCH  23  24
ENDBRANCH  22  23
ENDBRANCH   1  22
TORSDOF 19
ENDMDL
MODEL 3
REMARK VINA RESULT:     -10.6      2.266      3.824
REMARK SMILES C[C@H](CNC(=O)Cn1cccc1C(=O)OCCOC(=O)c1ccc(-c2c3nc(c(-c4cccc(S(=O)(=O)[O-])c4F)c4ccc([nH]4)c(-c4cccc(S(=O)(=O)[O-])c4F)c4nc(c(-c5cccc(S(=O)(=O)[O-])c5F)c5ccc2[nH]5)C=C4)C=C3)cc1)[NH+](C)C
REMARK SMILES IDX 16 1 15 2 13 3 14 4 12 5 8 6 9 7 10 8 11 9 7 10 5 11 4 12
REMARK SMILES IDX 6 14 3 15 2 16 1 17 84 18 85 19 86 20 17 22 18 23 19 24
REMARK SMILES IDX 20 25 21 26 22 27 83 28 23 29 82 30 24 31 25 32 26 33 76 34
REMARK SMILES IDX 27 35 81 36 75 37 77 38 28 39 80 40 74 41 73 42 29 44 61 45
REMARK SMILES IDX 41 46 60 47 42 48 45 49 59 50 78 51 43 52 44 53 58 55 79 56
REMARK SMILES IDX 46 57 30 58 31 59 39 60 32 61 34 62 40 63 33 64 35 65 36 66
REMARK SMILES IDX 37 67 38 68 62 69 63 70 71 71 64 72 66 73 72 74 65 75 67 76
REMARK SMILES IDX 68 77 69 78 70 79 47 80 48 81 56 82 49 83 51 84 57 85 50 86
REMARK SMILES IDX 52 87 53 88 54 89 55 90
REMARK H PARENT 4 13 84 21 77 43 45 54
REMARK Flexibility Score: inf
ROOT
ATOM      1  C   UNL A   1      36.953  23.700  24.587  1.00  0.00     0.275 C 
ENDROOT
BRANCH   1   2
ATOM      2  O   UNL A   1      35.566  23.329  24.583  1.00  0.00    -0.457 OA
BRANCH   2   3
ATOM      3  C   UNL A   1      34.765  24.036  23.746  1.00  0.00     0.355 C 
ATOM      4  O   UNL A   1      34.608  23.798  22.551  1.00  0.00    -0.244 OA
BRANCH   3   5
ATOM      5  C   UNL A   1      33.988  24.990  24.508  1.00  0.00     0.128 A 
ATOM      6  N   UNL A   1      33.290  26.109  24.080  1.00  0.00    -0.333 N 
ATOM      7  C   UNL A   1      32.687  26.705  25.176  1.00  0.00     0.087 A 
ATOM      8  C   UNL A   1      33.052  26.024  26.310  1.00  0.00     0.020 A 
ATOM      9  C   UNL A   1      33.863  24.951  25.894  1.00  0.00     0.035 A 
BRANCH   6  10
ATOM     10  C   UNL A   1      32.988  26.562  22.723  1.00  0.00     0.222 C 
BRANCH  10  11
ATOM     11  C   UNL A   1      33.326  27.985  22.338  1.00  0.00     0.240 C 
ATOM     12  N   UNL A   1      32.406  28.991  22.452  1.00  0.00    -0.349 N 
ATOM     13  H   UNL A   1      32.603  29.801  21.928  1.00  0.00     0.163 HD
ATOM     14  O   UNL A   1      34.405  28.250  21.799  1.00  0.00    -0.273 OA
BRANCH  12  15
ATOM     15  C   UNL A   1      31.176  29.042  23.238  1.00  0.00     0.180 C 
BRANCH  15  16
ATOM     16  C   UNL A   1      29.958  28.360  22.557  1.00  0.00     0.199 C 
ATOM     17  C   UNL A   1      29.383  27.265  23.425  1.00  0.00     0.077 C 
BRANCH  16  18
ATOM     18  N   UNL A   1      28.923  29.304  22.078  1.00  0.00    -0.336 N 
ATOM     19  C   UNL A   1      27.710  29.142  22.888  1.00  0.00     0.332 C 
ATOM     20  C   UNL A   1      29.287  30.723  22.142  1.00  0.00     0.332 C 
ATOM     21  H   UNL A   1      28.795  29.068  21.094  1.00  0.00     0.347 HD
ENDBRANCH  16  18
ENDBRANCH  15  16
ENDBRANCH  12  15
ENDBRANCH  10  11
ENDBRANCH   6  10
ENDBRANCH   3   5
ENDBRANCH   2   3
ENDBRANCH   1   2
BRANCH   1  22
ATOM     22  C   UNL A   1      37.684  23.143  25.816  1.00  0.00     0.275 C 
BRANCH  22  23
ATOM     23  O   UNL A   1      38.205  24.003  26.858  1.00  0.00    -0.458 OA
BRANCH  23  24
ATOM     24  C   UNL A   1      39.515  24.221  27.102  1.00  0.00     0.338 C 
ATOM     25  O   UNL A   1      40.415  23.403  27.016  1.00  0.00    -0.246 OA
BRANCH  24  26
ATOM     26  C   UNL A   1      39.652  25.584  27.732  1.00  0.00     0.060 A 
ATOM     27  C   UNL A   1      39.206  25.763  29.049  1.00  0.00     0.016 A 
ATOM     28  C   UNL A   1      40.041  26.715  26.994  1.00  0.00     0.016 A 
ATOM     29  C   UNL A   1      39.132  27.050  29.606  1.00  0.00     0.010 A 
ATOM     30  C   UNL A   1      39.946  28.007  27.544  1.00  0.00     0.010 A 
ATOM     31  C   UNL A   1      39.504  28.192  28.863  1.00  0.00    -0.014 A 
BRANCH  31  32
ATOM     32  C   UNL A   1      39.826  29.445  29.635  1.00  0.00     0.031 A 
ATOM     33  C   UNL A   1      38.653  30.429  29.427  1.00  0.00     0.074 A 
ATOM     34  C   UNL A   1      41.024  29.643  30.288  1.00  0.00     0.049 A 
ATOM     35  N   UNL A   1      38.665  31.690  29.117  1.00  0.00    -0.248 NA
ATOM     36  C   UNL A   1      37.265  29.883  29.359  1.00  0.00     0.031 C 
ATOM     37  C   UNL A   1      42.033  28.604  30.543  1.00  0.00     0.029 A 
ATOM     38  N   UNL A   1      41.645  30.735  30.893  1.00  0.00    -0.354 N 
ATOM     39  C   UNL A   1      37.312  32.097  29.046  1.00  0.00     0.074 A 
ATOM     40  C   UNL A   1      36.527  30.911  28.948  1.00  0.00     0.031 C 
ATOM     41  C   UNL A   1      43.156  29.103  31.116  1.00  0.00     0.029 A 
ATOM     42  C   UNL A   1      42.980  30.522  31.370  1.00  0.00     0.049 A 
ATOM     43  H   UNL A   1      41.192  31.603  30.989  1.00  0.00     0.167 HD
ATOM     44  C   UNL A   1      36.886  33.362  29.330  1.00  0.00     0.034 A 
ATOM     45  C   UNL A   1      43.878  31.410  31.926  1.00  0.00     0.034 A 
ATOM     46  C   UNL A   1      37.996  34.129  29.781  1.00  0.00     0.049 A 
ATOM     47  C   UNL A   1      43.096  32.621  32.188  1.00  0.00     0.074 A 
ATOM     48  C   UNL A   1      39.083  34.651  29.136  1.00  0.00     0.029 A 
ATOM     49  N   UNL A   1      38.237  34.050  31.135  1.00  0.00    -0.354 N 
ATOM     50  N   UNL A   1      42.239  32.743  33.157  1.00  0.00    -0.248 NA
ATOM     51  C   UNL A   1      43.230  33.763  31.276  1.00  0.00     0.031 C 
ATOM     52  C   UNL A   1      40.117  34.464  30.070  1.00  0.00     0.029 A 
ATOM     53  C   UNL A   1      39.590  34.088  31.313  1.00  0.00     0.049 A 
ATOM     54  H   UNL A   1      37.557  33.980  31.844  1.00  0.00     0.167 HD
ATOM     55  C   UNL A   1      41.479  33.794  32.710  1.00  0.00     0.074 A 
ATOM     56  C   UNL A   1      42.329  34.569  31.833  1.00  0.00     0.031 C 
ATOM     57  C   UNL A   1      40.142  33.602  32.556  1.00  0.00     0.034 A 
BRANCH  44  58
ATOM     58  C   UNL A   1      35.530  33.971  29.566  1.00  0.00     0.023 A 
ATOM     59  C   UNL A   1      34.945  34.600  28.429  1.00  0.00     0.012 A 
ATOM     60  C   UNL A   1      34.947  34.229  30.817  1.00  0.00     0.148 A 
ATOM     61  C   UNL A   1      33.909  35.524  28.540  1.00  0.00     0.002 A 
ATOM     62  C   UNL A   1      33.870  35.111  30.916  1.00  0.00     0.091 A 
ATOM     63  F   UNL A   1      35.491  33.708  31.921  1.00  0.00    -0.205 F 
ATOM     64  C   UNL A   1      33.376  35.786  29.789  1.00  0.00     0.022 A 
BRANCH  62  65
ATOM     65  S   UNL A   1      33.050  35.465  32.473  1.00  0.00     0.127 S 
ATOM     66  O   UNL A   1      32.771  34.123  32.980  1.00  0.00    -0.237 OA
ATOM     67  O   UNL A   1      34.095  36.186  33.204  1.00  0.00    -0.237 OA
ATOM     68  O   UNL A   1      31.892  36.282  32.134  1.00  0.00    -0.744 OA
ENDBRANCH  62  65
ENDBRANCH  44  58
BRANCH  45  69
ATOM     69  C   UNL A   1      45.355  31.514  32.323  1.00  0.00     0.023 A 
ATOM     70  C   UNL A   1      46.384  31.966  31.487  1.00  0.00     0.012 A 
ATOM     71  C   UNL A   1      45.770  31.188  33.664  1.00  0.00     0.148 A 
ATOM     72  C   UNL A   1      47.701  32.159  31.979  1.00  0.00     0.002 A 
ATOM     73  C   UNL A   1      47.023  31.504  34.180  1.00  0.00     0.091 A 
ATOM     74  F   UNL A   1      44.956  30.499  34.468  1.00  0.00    -0.205 F 
ATOM     75  C   UNL A   1      48.010  31.978  33.330  1.00  0.00     0.022 A 
BRANCH  73  76
ATOM     76  S   UNL A   1      47.368  31.439  35.957  1.00  0.00     0.127 S 
ATOM     77  O   UNL A   1      48.670  30.775  36.003  1.00  0.00    -0.237 OA
ATOM     78  O   UNL A   1      47.394  32.862  36.298  1.00  0.00    -0.237 OA
ATOM     79  O   UNL A   1      46.276  30.692  36.566  1.00  0.00    -0.744 OA
ENDBRANCH  73  76
ENDBRANCH  45  69
BRANCH  57  80
ATOM     80  C   UNL A   1      39.527  32.617  33.549  1.00  0.00     0.023 A 
ATOM     81  C   UNL A   1      39.039  31.402  33.019  1.00  0.00     0.012 A 
ATOM     82  C   UNL A   1      39.282  32.861  34.921  1.00  0.00     0.148 A 
ATOM     83  C   UNL A   1      38.328  30.485  33.797  1.00  0.00     0.002 A 
ATOM     84  C   UNL A   1      38.552  31.951  35.700  1.00  0.00     0.091 A 
ATOM     85  F   UNL A   1      39.758  33.979  35.463  1.00  0.00    -0.205 F 
ATOM     86  C   UNL A   1      38.079  30.760  35.136  1.00  0.00     0.022 A 
BRANCH  84  87
ATOM     87  S   UNL A   1      38.090  32.241  37.423  1.00  0.00     0.127 S 
ATOM     88  O   UNL A   1      37.356  31.020  37.767  1.00  0.00    -0.237 OA
ATOM     89  O   UNL A   1      39.390  32.357  38.078  1.00  0.00    -0.237 OA
ATOM     90  O   UNL A   1      37.272  33.447  37.438  1.00  0.00    -0.744 OA
ENDBRANCH  84  87
ENDBRANCH  57  80
ENDBRANCH  31  32
ENDBRANCH  24  26
ENDBRANCH  23  24
ENDBRANCH  22  23
ENDBRANCH   1  22
TORSDOF 19
ENDMDL
