MODEL 1
REMARK VINA RESULT:     -11.9      0.000      0.000
REMARK SMILES Cc1ccccc1NC(=O)c1ccccc1NC(=O)CCC(=O)OCCOC(=O)c1ccc(-c2c3nc(c(-c4cccc(S(=O)(=O)[O-])c4F)c4ccc([nH]4)c(-c4cccc(S(=O)(=O)[O-])c4F)c4nc(c(-c5cccc(S(=O)(=O)[O-])c5F)c5ccc2[nH]5)C=C4)C=C3)cc1
REMARK SMILES IDX 25 1 24 2 22 3 23 4 21 5 20 6 18 7 17 8 19 10 16 11 11 12
REMARK SMILES IDX 12 13 13 14 15 15 14 16 9 17 8 18 10 20 7 21 1 22 2 23 3 24
REMARK SMILES IDX 4 25 6 26 5 27 26 28 27 29 28 30 29 31 30 32 31 33 92 34
REMARK SMILES IDX 32 35 91 36 33 37 34 38 35 39 85 40 36 41 90 42 84 43 86 44
REMARK SMILES IDX 37 45 89 46 83 47 82 48 38 50 70 51 50 52 69 53 51 54 54 55
REMARK SMILES IDX 68 56 87 57 52 58 53 59 67 61 88 62 55 63 39 64 40 65 48 66
REMARK SMILES IDX 41 67 43 68 49 69 42 70 44 71 45 72 46 73 47 74 71 75 72 76
REMARK SMILES IDX 80 77 73 78 75 79 81 80 74 81 76 82 77 83 78 84 79 85 56 86
REMARK SMILES IDX 57 87 65 88 58 89 60 90 66 91 59 92 61 93 62 94 63 95 64 96
REMARK H PARENT 17 9 8 19 86 49 54 60
REMARK Flexibility Score: inf
ROOT
ATOM      1  C   UNL A   1      39.051  22.011  26.189  1.00  0.00     0.274 C 
ENDROOT
BRANCH   1   2
ATOM      2  O   UNL A   1      37.683  22.385  25.873  1.00  0.00    -0.462 OA
BRANCH   2   3
ATOM      3  C   UNL A   1      37.189  21.874  24.756  1.00  0.00     0.306 C 
ATOM      4  O   UNL A   1      37.375  20.696  24.467  1.00  0.00    -0.252 OA
BRANCH   3   5
ATOM      5  C   UNL A   1      36.352  22.698  23.852  1.00  0.00     0.132 C 
BRANCH   5   6
ATOM      6  C   UNL A   1      35.927  23.895  24.725  1.00  0.00     0.112 C 
BRANCH   6   7
ATOM      7  C   UNL A   1      34.425  24.199  24.666  1.00  0.00     0.224 C 
ATOM      8  N   UNL A   1      34.030  25.406  24.118  1.00  0.00    -0.325 N 
ATOM      9  H   UNL A   1      33.950  25.406  23.137  1.00  0.00     0.169 HD
ATOM     10  O   UNL A   1      33.618  23.308  24.935  1.00  0.00    -0.275 OA
BRANCH   8  11
ATOM     11  C   UNL A   1      33.719  26.659  24.745  1.00  0.00     0.054 A 
ATOM     12  C   UNL A   1      33.168  27.738  23.993  1.00  0.00     0.063 A 
ATOM     13  C   UNL A   1      33.059  29.024  24.571  1.00  0.00     0.016 A 
ATOM     14  C   UNL A   1      33.492  29.263  25.872  1.00  0.00     0.001 A 
ATOM     15  C   UNL A   1      34.097  26.915  26.075  1.00  0.00     0.027 A 
ATOM     16  C   UNL A   1      34.012  28.210  26.618  1.00  0.00     0.002 A 
BRANCH  12  17
ATOM     17  C   UNL A   1      32.810  27.711  22.537  1.00  0.00     0.257 C 
ATOM     18  N   UNL A   1      31.517  27.620  22.073  1.00  0.00    -0.322 N 
ATOM     19  H   UNL A   1      31.430  27.428  21.112  1.00  0.00     0.170 HD
ATOM     20  O   UNL A   1      33.721  27.713  21.705  1.00  0.00    -0.269 OA
BRANCH  18  21
ATOM     21  C   UNL A   1      30.305  27.760  22.767  1.00  0.00     0.044 A 
ATOM     22  C   UNL A   1      29.960  30.086  21.704  1.00  0.00     0.046 C 
ATOM     23  C   UNL A   1      29.513  28.896  22.514  1.00  0.00    -0.027 A 
ATOM     24  C   UNL A   1      28.168  28.864  22.918  1.00  0.00     0.005 A 
ATOM     25  C   UNL A   1      27.629  27.734  23.538  1.00  0.00     0.000 A 
ATOM     26  C   UNL A   1      29.791  26.687  23.509  1.00  0.00     0.026 A 
ATOM     27  C   UNL A   1      28.443  26.651  23.848  1.00  0.00     0.002 A 
ENDBRANCH  18  21
ENDBRANCH  12  17
ENDBRANCH   8  11
ENDBRANCH   6   7
ENDBRANCH   5   6
ENDBRANCH   3   5
ENDBRANCH   2   3
ENDBRANCH   1   2
BRANCH   1  28
ATOM     28  C   UNL A   1      40.216  22.906  26.854  1.00  0.00     0.275 C 
BRANCH  28  29
ATOM     29  O   UNL A   1      40.756  24.309  26.573  1.00  0.00    -0.458 OA
BRANCH  29  30
ATOM     30  C   UNL A   1      41.312  25.392  27.272  1.00  0.00     0.338 C 
ATOM     31  O   UNL A   1      42.484  25.711  27.133  1.00  0.00    -0.246 OA
BRANCH  30  32
ATOM     32  C   UNL A   1      40.385  26.118  28.170  1.00  0.00     0.060 A 
ATOM     33  C   UNL A   1      39.458  25.727  29.152  1.00  0.00     0.016 A 
ATOM     34  C   UNL A   1      40.691  27.421  28.116  1.00  0.00     0.016 A 
ATOM     35  C   UNL A   1      38.970  26.726  30.044  1.00  0.00     0.010 A 
ATOM     36  C   UNL A   1      40.798  27.975  29.332  1.00  0.00     0.010 A 
ATOM     37  C   UNL A   1      39.654  27.929  30.064  1.00  0.00    -0.014 A 
BRANCH  37  38
ATOM     38  C   UNL A   1      39.468  29.288  30.592  1.00  0.00     0.031 A 
ATOM     39  C   UNL A   1      38.648  30.226  29.832  1.00  0.00     0.074 A 
ATOM     40  C   UNL A   1      39.657  29.364  31.953  1.00  0.00     0.049 A 
ATOM     41  N   UNL A   1      38.948  31.455  29.612  1.00  0.00    -0.248 NA
ATOM     42  C   UNL A   1      37.374  29.815  29.233  1.00  0.00     0.031 C 
ATOM     43  C   UNL A   1      39.170  30.212  33.028  1.00  0.00     0.029 A 
ATOM     44  N   UNL A   1      40.319  28.369  32.710  1.00  0.00    -0.354 N 
ATOM     45  C   UNL A   1      37.750  32.051  29.267  1.00  0.00     0.074 A 
ATOM     46  C   UNL A   1      36.905  30.983  28.778  1.00  0.00     0.031 C 
ATOM     47  C   UNL A   1      39.868  29.918  34.160  1.00  0.00     0.029 A 
ATOM     48  C   UNL A   1      40.878  28.904  33.842  1.00  0.00     0.049 A 
ATOM     49  H   UNL A   1      40.371  27.420  32.458  1.00  0.00     0.167 HD
ATOM     50  C   UNL A   1      37.390  33.225  29.865  1.00  0.00     0.034 A 
ATOM     51  C   UNL A   1      42.242  28.920  33.791  1.00  0.00     0.034 A 
ATOM     52  C   UNL A   1      38.278  33.486  31.027  1.00  0.00     0.049 A 
ATOM     53  C   UNL A   1      42.658  30.334  33.472  1.00  0.00     0.074 A 
ATOM     54  C   UNL A   1      38.072  33.419  32.397  1.00  0.00     0.029 A 
ATOM     55  N   UNL A   1      39.658  33.550  30.862  1.00  0.00    -0.354 N 
ATOM     56  N   UNL A   1      41.816  31.318  33.295  1.00  0.00    -0.248 NA
ATOM     57  C   UNL A   1      44.039  30.747  33.300  1.00  0.00     0.031 C 
ATOM     58  C   UNL A   1      39.349  33.361  33.039  1.00  0.00     0.029 A 
ATOM     59  C   UNL A   1      40.336  33.385  32.068  1.00  0.00     0.049 A 
ATOM     60  H   UNL A   1      40.103  33.694  29.995  1.00  0.00     0.167 HD
ATOM     61  C   UNL A   1      42.465  32.366  32.728  1.00  0.00     0.074 A 
ATOM     62  C   UNL A   1      43.869  32.020  32.905  1.00  0.00     0.031 C 
ATOM     63  C   UNL A   1      41.806  33.366  32.066  1.00  0.00     0.034 A 
BRANCH  50  64
ATOM     64  C   UNL A   1      36.071  33.968  29.658  1.00  0.00     0.023 A 
ATOM     65  C   UNL A   1      35.631  34.121  28.323  1.00  0.00     0.012 A 
ATOM     66  C   UNL A   1      35.182  34.441  30.658  1.00  0.00     0.148 A 
ATOM     67  C   UNL A   1      34.428  34.749  27.987  1.00  0.00     0.002 A 
ATOM     68  C   UNL A   1      33.994  35.108  30.321  1.00  0.00     0.091 A 
ATOM     69  F   UNL A   1      35.432  34.187  31.947  1.00  0.00    -0.205 F 
ATOM     70  C   UNL A   1      33.615  35.260  28.984  1.00  0.00     0.022 A 
BRANCH  68  71
ATOM     71  S   UNL A   1      32.878  35.827  31.544  1.00  0.00     0.127 S 
ATOM     72  O   UNL A   1      33.723  36.848  32.169  1.00  0.00    -0.237 OA
ATOM     73  O   UNL A   1      31.801  36.360  30.714  1.00  0.00    -0.237 OA
ATOM     74  O   UNL A   1      32.502  34.741  32.439  1.00  0.00    -0.744 OA
ENDBRANCH  68  71
ENDBRANCH  50  64
BRANCH  51  75
ATOM     75  C   UNL A   1      42.818  27.651  33.122  1.00  0.00     0.023 A 
ATOM     76  C   UNL A   1      43.388  27.778  31.820  1.00  0.00     0.012 A 
ATOM     77  C   UNL A   1      43.119  26.466  33.831  1.00  0.00     0.148 A 
ATOM     78  C   UNL A   1      44.272  26.819  31.294  1.00  0.00     0.002 A 
ATOM     79  C   UNL A   1      43.995  25.506  33.295  1.00  0.00     0.091 A 
ATOM     80  F   UNL A   1      42.583  26.283  35.044  1.00  0.00    -0.205 F 
ATOM     81  C   UNL A   1      44.590  25.690  32.040  1.00  0.00     0.022 A 
BRANCH  79  82
ATOM     82  S   UNL A   1      44.461  24.043  34.249  1.00  0.00     0.127 S 
ATOM     83  O   UNL A   1      44.798  24.588  35.566  1.00  0.00    -0.237 OA
ATOM     84  O   UNL A   1      43.271  23.203  34.244  1.00  0.00    -0.237 OA
ATOM     85  O   UNL A   1      45.605  23.548  33.490  1.00  0.00    -0.744 OA
ENDBRANCH  79  82
ENDBRANCH  51  75
BRANCH  63  86
ATOM     86  C   UNL A   1      42.536  34.441  31.306  1.00  0.00     0.023 A 
ATOM     87  C   UNL A   1      43.036  35.598  31.928  1.00  0.00     0.012 A 
ATOM     88  C   UNL A   1      42.835  34.258  29.937  1.00  0.00     0.148 A 
ATOM     89  C   UNL A   1      43.674  36.599  31.199  1.00  0.00     0.002 A 
ATOM     90  C   UNL A   1      43.610  35.182  29.255  1.00  0.00     0.091 A 
ATOM     91  F   UNL A   1      42.352  33.194  29.279  1.00  0.00    -0.205 F 
ATOM     92  C   UNL A   1      43.978  36.383  29.862  1.00  0.00     0.022 A 
BRANCH  90  93
ATOM     93  S   UNL A   1      44.294  34.779  27.648  1.00  0.00     0.127 S 
ATOM     94  O   UNL A   1      44.764  33.412  27.851  1.00  0.00    -0.237 OA
ATOM     95  O   UNL A   1      43.128  34.901  26.772  1.00  0.00    -0.237 OA
ATOM     96  O   UNL A   1      45.322  35.786  27.413  1.00  0.00    -0.744 OA
ENDBRANCH  90  93
ENDBRANCH  63  86
ENDBRANCH  37  38
ENDBRANCH  30  32
ENDBRANCH  29  30
ENDBRANCH  28  29
ENDBRANCH   1  28
TORSDOF 19
ENDMDL
MODEL 2
REMARK VINA RESULT:     -11.9      3.644     10.506
REMARK SMILES Cc1ccccc1NC(=O)c1ccccc1NC(=O)CCC(=O)OCCOC(=O)c1ccc(-c2c3nc(c(-c4cccc(S(=O)(=O)[O-])c4F)c4ccc([nH]4)c(-c4cccc(S(=O)(=O)[O-])c4F)c4nc(c(-c5cccc(S(=O)(=O)[O-])c5F)c5ccc2[nH]5)C=C4)C=C3)cc1
REMARK SMILES IDX 25 1 24 2 22 3 23 4 21 5 20 6 18 7 17 8 19 10 16 11 11 12
REMARK SMILES IDX 12 13 13 14 15 15 14 16 9 17 8 18 10 20 7 21 1 22 2 23 3 24
REMARK SMILES IDX 4 25 6 26 5 27 26 28 27 29 28 30 29 31 30 32 31 33 92 34
REMARK SMILES IDX 32 35 91 36 33 37 34 38 35 39 85 40 36 41 90 42 84 43 86 44
REMARK SMILES IDX 37 45 89 46 83 47 82 48 38 50 70 51 50 52 69 53 51 54 54 55
REMARK SMILES IDX 68 56 87 57 52 58 53 59 67 61 88 62 55 63 39 64 40 65 48 66
REMARK SMILES IDX 41 67 43 68 49 69 42 70 44 71 45 72 46 73 47 74 71 75 72 76
REMARK SMILES IDX 80 77 73 78 75 79 81 80 74 81 76 82 77 83 78 84 79 85 56 86
REMARK SMILES IDX 57 87 65 88 58 89 60 90 66 91 59 92 61 93 62 94 63 95 64 96
REMARK H PARENT 17 9 8 19 86 49 54 60
REMARK Flexibility Score: inf
ROOT
ATOM      1  C   UNL A   1      34.229  31.147  27.468  1.00  0.00     0.274 C 
ENDROOT
BRANCH   1   2
ATOM      2  O   UNL A   1      33.548  29.864  27.428  1.00  0.00    -0.462 OA
BRANCH   2   3
ATOM      3  C   UNL A   1      32.734  29.675  26.401  1.00  0.00     0.306 C 
ATOM      4  O   UNL A   1      31.877  30.506  26.116  1.00  0.00    -0.252 OA
BRANCH   3   5
ATOM      5  C   UNL A   1      32.873  28.480  25.535  1.00  0.00     0.132 C 
BRANCH   5   6
ATOM      6  C   UNL A   1      31.506  27.777  25.648  1.00  0.00     0.112 C 
BRANCH   6   7
ATOM      7  C   UNL A   1      31.606  26.285  25.992  1.00  0.00     0.224 C 
ATOM      8  N   UNL A   1      32.624  25.554  25.408  1.00  0.00    -0.325 N 
ATOM      9  H   UNL A   1      33.487  25.602  25.879  1.00  0.00     0.169 HD
ATOM     10  O   UNL A   1      30.908  25.827  26.896  1.00  0.00    -0.275 OA
BRANCH   8  11
ATOM     11  C   UNL A   1      32.630  24.737  24.227  1.00  0.00     0.054 A 
ATOM     12  C   UNL A   1      32.523  23.318  24.317  1.00  0.00     0.063 A 
ATOM     13  C   UNL A   1      32.736  22.516  23.172  1.00  0.00     0.016 A 
ATOM     14  C   UNL A   1      33.059  23.090  21.946  1.00  0.00     0.001 A 
ATOM     15  C   UNL A   1      32.903  25.294  22.966  1.00  0.00     0.027 A 
ATOM     16  C   UNL A   1      33.146  24.475  21.847  1.00  0.00     0.002 A 
BRANCH  12  17
ATOM     17  C   UNL A   1      32.352  22.521  25.576  1.00  0.00     0.257 C 
ATOM     18  N   UNL A   1      33.392  21.903  26.232  1.00  0.00    -0.322 N 
ATOM     19  H   UNL A   1      33.124  21.267  26.935  1.00  0.00     0.170 HD
ATOM     20  O   UNL A   1      31.212  22.360  26.021  1.00  0.00    -0.269 OA
BRANCH  18  21
ATOM     21  C   UNL A   1      34.776  22.043  26.050  1.00  0.00     0.044 A 
ATOM     22  C   UNL A   1      34.851  19.772  24.828  1.00  0.00     0.046 C 
ATOM     23  C   UNL A   1      35.456  21.072  25.293  1.00  0.00    -0.027 A 
ATOM     24  C   UNL A   1      36.738  21.390  24.813  1.00  0.00     0.005 A 
ATOM     25  C   UNL A   1      37.312  22.637  25.066  1.00  0.00     0.000 A 
ATOM     26  C   UNL A   1      35.416  23.238  26.412  1.00  0.00     0.026 A 
ATOM     27  C   UNL A   1      36.659  23.556  25.879  1.00  0.00     0.002 A 
ENDBRANCH  18  21
ENDBRANCH  12  17
ENDBRANCH   8  11
ENDBRANCH   6   7
ENDBRANCH   5   6
ENDBRANCH   3   5
ENDBRANCH   2   3
ENDBRANCH   1   2
BRANCH   1  28
ATOM     28  C   UNL A   1      35.703  31.493  28.025  1.00  0.00     0.275 C 
BRANCH  28  29
ATOM     29  O   UNL A   1      36.564  30.921  29.151  1.00  0.00    -0.458 OA
BRANCH  29  30
ATOM     30  C   UNL A   1      37.021  29.675  29.609  1.00  0.00     0.338 C 
ATOM     31  O   UNL A   1      36.535  29.136  30.593  1.00  0.00    -0.246 OA
BRANCH  30  32
ATOM     32  C   UNL A   1      38.113  29.063  28.818  1.00  0.00     0.060 A 
ATOM     33  C   UNL A   1      38.765  29.398  27.618  1.00  0.00     0.016 A 
ATOM     34  C   UNL A   1      38.676  28.103  29.562  1.00  0.00     0.016 A 
ATOM     35  C   UNL A   1      39.995  28.741  27.322  1.00  0.00     0.010 A 
ATOM     36  C   UNL A   1      40.014  28.185  29.581  1.00  0.00     0.010 A 
ATOM     37  C   UNL A   1      40.595  28.048  28.360  1.00  0.00    -0.014 A 
BRANCH  37  38
ATOM     38  C   UNL A   1      41.680  27.075  28.546  1.00  0.00     0.031 A 
ATOM     39  C   UNL A   1      41.410  25.667  28.272  1.00  0.00     0.074 A 
ATOM     40  C   UNL A   1      42.930  27.645  28.465  1.00  0.00     0.049 A 
ATOM     41  N   UNL A   1      41.785  24.687  29.013  1.00  0.00    -0.248 NA
ATOM     42  C   UNL A   1      40.652  25.251  27.087  1.00  0.00     0.031 C 
ATOM     43  C   UNL A   1      44.259  27.194  28.087  1.00  0.00     0.029 A 
ATOM     44  N   UNL A   1      43.167  29.034  28.575  1.00  0.00    -0.354 N 
ATOM     45  C   UNL A   1      41.715  23.580  28.190  1.00  0.00     0.074 A 
ATOM     46  C   UNL A   1      40.768  23.919  27.151  1.00  0.00     0.031 C 
ATOM     47  C   UNL A   1      45.151  28.177  28.394  1.00  0.00     0.029 A 
ATOM     48  C   UNL A   1      44.434  29.282  29.038  1.00  0.00     0.049 A 
ATOM     49  H   UNL A   1      42.510  29.732  28.350  1.00  0.00     0.167 HD
ATOM     50  C   UNL A   1      42.773  22.717  28.139  1.00  0.00     0.034 A 
ATOM     51  C   UNL A   1      44.435  29.791  30.304  1.00  0.00     0.034 A 
ATOM     52  C   UNL A   1      43.952  23.332  28.802  1.00  0.00     0.049 A 
ATOM     53  C   UNL A   1      44.810  28.665  31.235  1.00  0.00     0.074 A 
ATOM     54  C   UNL A   1      45.132  23.867  28.309  1.00  0.00     0.029 A 
ATOM     55  N   UNL A   1      43.874  23.763  30.124  1.00  0.00    -0.354 N 
ATOM     56  N   UNL A   1      45.079  27.451  30.837  1.00  0.00    -0.248 NA
ATOM     57  C   UNL A   1      44.886  28.807  32.678  1.00  0.00     0.031 C 
ATOM     58  C   UNL A   1      45.714  24.685  29.327  1.00  0.00     0.029 A 
ATOM     59  C   UNL A   1      44.890  24.661  30.440  1.00  0.00     0.049 A 
ATOM     60  H   UNL A   1      43.182  23.467  30.759  1.00  0.00     0.167 HD
ATOM     61  C   UNL A   1      45.072  26.617  31.907  1.00  0.00     0.074 A 
ATOM     62  C   UNL A   1      45.113  27.533  33.040  1.00  0.00     0.031 C 
ATOM     63  C   UNL A   1      44.922  25.262  31.782  1.00  0.00     0.034 A 
BRANCH  50  64
ATOM     64  C   UNL A   1      42.891  21.498  27.227  1.00  0.00     0.023 A 
ATOM     65  C   UNL A   1      41.944  20.465  27.420  1.00  0.00     0.012 A 
ATOM     66  C   UNL A   1      43.783  21.318  26.138  1.00  0.00     0.148 A 
ATOM     67  C   UNL A   1      41.911  19.307  26.638  1.00  0.00     0.002 A 
ATOM     68  C   UNL A   1      43.778  20.138  25.378  1.00  0.00     0.091 A 
ATOM     69  F   UNL A   1      44.598  22.314  25.772  1.00  0.00    -0.205 F 
ATOM     70  C   UNL A   1      42.839  19.133  25.626  1.00  0.00     0.022 A 
BRANCH  68  71
ATOM     71  S   UNL A   1      44.958  19.806  24.053  1.00  0.00     0.127 S 
ATOM     72  O   UNL A   1      44.606  20.827  23.063  1.00  0.00    -0.237 OA
ATOM     73  O   UNL A   1      46.244  20.022  24.714  1.00  0.00    -0.237 OA
ATOM     74  O   UNL A   1      44.701  18.441  23.613  1.00  0.00    -0.744 OA
ENDBRANCH  68  71
ENDBRANCH  50  64
BRANCH  51  75
ATOM     75  C   UNL A   1      43.277  30.788  30.535  1.00  0.00     0.023 A 
ATOM     76  C   UNL A   1      42.246  30.419  31.450  1.00  0.00     0.012 A 
ATOM     77  C   UNL A   1      43.340  32.153  30.170  1.00  0.00     0.148 A 
ATOM     78  C   UNL A   1      41.385  31.369  32.028  1.00  0.00     0.002 A 
ATOM     79  C   UNL A   1      42.470  33.096  30.744  1.00  0.00     0.091 A 
ATOM     80  F   UNL A   1      44.270  32.545  29.290  1.00  0.00    -0.205 F 
ATOM     81  C   UNL A   1      41.508  32.712  31.688  1.00  0.00     0.022 A 
BRANCH  79  82
ATOM     82  S   UNL A   1      42.623  34.854  30.355  1.00  0.00     0.127 S 
ATOM     83  O   UNL A   1      42.477  34.895  28.898  1.00  0.00    -0.237 OA
ATOM     84  O   UNL A   1      41.530  35.490  31.077  1.00  0.00    -0.237 OA
ATOM     85  O   UNL A   1      43.971  35.145  30.834  1.00  0.00    -0.744 OA
ENDBRANCH  79  82
ENDBRANCH  51  75
BRANCH  63  86
ATOM     86  C   UNL A   1      44.759  24.360  32.975  1.00  0.00     0.023 A 
ATOM     87  C   UNL A   1      43.532  23.757  33.303  1.00  0.00     0.012 A 
ATOM     88  C   UNL A   1      45.886  24.004  33.751  1.00  0.00     0.148 A 
ATOM     89  C   UNL A   1      43.394  22.958  34.436  1.00  0.00     0.002 A 
ATOM     90  C   UNL A   1      45.772  23.080  34.777  1.00  0.00     0.091 A 
ATOM     91  F   UNL A   1      47.075  24.575  33.511  1.00  0.00    -0.205 F 
ATOM     92  C   UNL A   1      44.520  22.603  35.165  1.00  0.00     0.022 A 
BRANCH  90  93
ATOM     93  S   UNL A   1      47.239  22.357  35.510  1.00  0.00     0.127 S 
ATOM     94  O   UNL A   1      47.717  23.439  36.365  1.00  0.00    -0.237 OA
ATOM     95  O   UNL A   1      46.696  21.203  36.227  1.00  0.00    -0.237 OA
ATOM     96  O   UNL A   1      48.091  22.006  34.379  1.00  0.00    -0.744 OA
ENDBRANCH  90  93
ENDBRANCH  63  86
ENDBRANCH  37  38
ENDBRANCH  30  32
ENDBRANCH  29  30
ENDBRANCH  28  29
ENDBRANCH   1  28
TORSDOF 19
ENDMDL
MODEL 3
REMARK VINA RESULT:     -11.7      4.104     10.202
REMARK SMILES Cc1ccccc1NC(=O)c1ccccc1NC(=O)CCC(=O)OCCOC(=O)c1ccc(-c2c3nc(c(-c4cccc(S(=O)(=O)[O-])c4F)c4ccc([nH]4)c(-c4cccc(S(=O)(=O)[O-])c4F)c4nc(c(-c5cccc(S(=O)(=O)[O-])c5F)c5ccc2[nH]5)C=C4)C=C3)cc1
REMARK SMILES IDX 25 1 24 2 22 3 23 4 21 5 20 6 18 7 17 8 19 10 16 11 11 12
REMARK SMILES IDX 12 13 13 14 15 15 14 16 9 17 8 18 10 20 7 21 1 22 2 23 3 24
REMARK SMILES IDX 4 25 6 26 5 27 26 28 27 29 28 30 29 31 30 32 31 33 92 34
REMARK SMILES IDX 32 35 91 36 33 37 34 38 35 39 85 40 36 41 90 42 84 43 86 44
REMARK SMILES IDX 37 45 89 46 83 47 82 48 38 50 70 51 50 52 69 53 51 54 54 55
REMARK SMILES IDX 68 56 87 57 52 58 53 59 67 61 88 62 55 63 39 64 40 65 48 66
REMARK SMILES IDX 41 67 43 68 49 69 42 70 44 71 45 72 46 73 47 74 71 75 72 76
REMARK SMILES IDX 80 77 73 78 75 79 81 80 74 81 76 82 77 83 78 84 79 85 56 86
REMARK SMILES IDX 57 87 65 88 58 89 60 90 66 91 59 92 61 93 62 94 63 95 64 96
REMARK H PARENT 17 9 8 19 86 49 54 60
REMARK Flexibility Score: inf
ROOT
ATOM      1  C   UNL A   1      34.044  30.350  27.256  1.00  0.00     0.274 C 
ENDROOT
BRANCH   1   2
ATOM      2  O   UNL A   1      33.398  29.051  27.176  1.00  0.00    -0.462 OA
BRANCH   2   3
ATOM      3  C   UNL A   1      33.506  28.423  26.016  1.00  0.00     0.306 C 
ATOM      4  O   UNL A   1      33.273  29.006  24.961  1.00  0.00    -0.252 OA
BRANCH   3   5
ATOM      5  C   UNL A   1      33.964  27.015  25.957  1.00  0.00     0.132 C 
BRANCH   5   6
ATOM      6  C   UNL A   1      32.789  26.268  25.294  1.00  0.00     0.112 C 
BRANCH   6   7
ATOM      7  C   UNL A   1      32.658  24.806  25.738  1.00  0.00     0.224 C 
ATOM      8  N   UNL A   1      33.785  24.179  26.239  1.00  0.00    -0.325 N 
ATOM      9  H   UNL A   1      33.950  24.334  27.196  1.00  0.00     0.169 HD
ATOM     10  O   UNL A   1      31.540  24.295  25.807  1.00  0.00    -0.275 OA
BRANCH   8  11
ATOM     11  C   UNL A   1      34.752  23.339  25.590  1.00  0.00     0.054 A 
ATOM     12  C   UNL A   1      34.703  21.921  25.730  1.00  0.00     0.063 A 
ATOM     13  C   UNL A   1      35.773  21.124  25.261  1.00  0.00     0.016 A 
ATOM     14  C   UNL A   1      36.890  21.703  24.667  1.00  0.00     0.001 A 
ATOM     15  C   UNL A   1      35.867  23.894  24.937  1.00  0.00     0.027 A 
ATOM     16  C   UNL A   1      36.936  23.085  24.511  1.00  0.00     0.002 A 
BRANCH  12  17
ATOM     17  C   UNL A   1      33.670  21.141  26.487  1.00  0.00     0.257 C 
ATOM     18  N   UNL A   1      32.815  20.238  25.897  1.00  0.00    -0.322 N 
ATOM     19  H   UNL A   1      32.072  19.932  26.465  1.00  0.00     0.170 HD
ATOM     20  O   UNL A   1      33.536  21.357  27.694  1.00  0.00    -0.269 OA
BRANCH  18  21
ATOM     21  C   UNL A   1      32.846  19.687  24.606  1.00  0.00     0.044 A 
ATOM     22  C   UNL A   1      33.348  17.361  25.605  1.00  0.00     0.046 C 
ATOM     23  C   UNL A   1      33.003  18.294  24.473  1.00  0.00    -0.027 A 
ATOM     24  C   UNL A   1      32.677  17.711  23.238  1.00  0.00     0.005 A 
ATOM     25  C   UNL A   1      32.199  18.486  22.179  1.00  0.00     0.000 A 
ATOM     26  C   UNL A   1      32.495  20.471  23.498  1.00  0.00     0.026 A 
ATOM     27  C   UNL A   1      32.122  19.868  22.303  1.00  0.00     0.002 A 
ENDBRANCH  18  21
ENDBRANCH  12  17
ENDBRANCH   8  11
ENDBRANCH   6   7
ENDBRANCH   5   6
ENDBRANCH   3   5
ENDBRANCH   2   3
ENDBRANCH   1   2
BRANCH   1  28
ATOM     28  C   UNL A   1      35.463  30.735  27.920  1.00  0.00     0.275 C 
BRANCH  28  29
ATOM     29  O   UNL A   1      36.120  30.409  29.262  1.00  0.00    -0.458 OA
BRANCH  29  30
ATOM     30  C   UNL A   1      36.924  29.412  29.835  1.00  0.00     0.338 C 
ATOM     31  O   UNL A   1      36.657  28.919  30.922  1.00  0.00    -0.246 OA
BRANCH  30  32
ATOM     32  C   UNL A   1      38.097  28.995  29.034  1.00  0.00     0.060 A 
ATOM     33  C   UNL A   1      38.674  29.438  27.829  1.00  0.00     0.016 A 
ATOM     34  C   UNL A   1      38.822  28.145  29.771  1.00  0.00     0.016 A 
ATOM     35  C   UNL A   1      39.995  29.000  27.523  1.00  0.00     0.010 A 
ATOM     36  C   UNL A   1      40.126  28.454  29.780  1.00  0.00     0.010 A 
ATOM     37  C   UNL A   1      40.712  28.418  28.553  1.00  0.00    -0.014 A 
BRANCH  37  38
ATOM     38  C   UNL A   1      41.949  27.644  28.729  1.00  0.00     0.031 A 
ATOM     39  C   UNL A   1      42.025  26.308  28.145  1.00  0.00     0.074 A 
ATOM     40  C   UNL A   1      43.047  28.437  28.972  1.00  0.00     0.049 A 
ATOM     41  N   UNL A   1      42.505  25.274  28.736  1.00  0.00    -0.248 NA
ATOM     42  C   UNL A   1      41.531  26.037  26.792  1.00  0.00     0.031 C 
ATOM     43  C   UNL A   1      44.478  28.335  28.745  1.00  0.00     0.029 A 
ATOM     44  N   UNL A   1      42.964  29.786  29.388  1.00  0.00    -0.354 N 
ATOM     45  C   UNL A   1      42.780  24.385  27.714  1.00  0.00     0.074 A 
ATOM     46  C   UNL A   1      41.921  24.769  26.615  1.00  0.00     0.031 C 
ATOM     47  C   UNL A   1      45.092  29.371  29.383  1.00  0.00     0.029 A 
ATOM     48  C   UNL A   1      44.078  30.152  30.098  1.00  0.00     0.049 A 
ATOM     49  H   UNL A   1      42.206  30.384  29.194  1.00  0.00     0.167 HD
ATOM     50  C   UNL A   1      43.997  23.765  27.677  1.00  0.00     0.034 A 
ATOM     51  C   UNL A   1      43.810  30.356  31.420  1.00  0.00     0.034 A 
ATOM     52  C   UNL A   1      44.922  24.421  28.636  1.00  0.00     0.049 A 
ATOM     53  C   UNL A   1      44.298  29.139  32.165  1.00  0.00     0.074 A 
ATOM     54  C   UNL A   1      46.013  25.260  28.463  1.00  0.00     0.029 A 
ATOM     55  N   UNL A   1      44.587  24.523  29.984  1.00  0.00    -0.354 N 
ATOM     56  N   UNL A   1      44.870  28.115  31.591  1.00  0.00    -0.248 NA
ATOM     57  C   UNL A   1      44.158  28.965  33.600  1.00  0.00     0.031 C 
ATOM     58  C   UNL A   1      46.271  25.922  29.704  1.00  0.00     0.029 A 
ATOM     59  C   UNL A   1      45.337  25.499  30.636  1.00  0.00     0.049 A 
ATOM     60  H   UNL A   1      43.900  23.971  30.423  1.00  0.00     0.167 HD
ATOM     61  C   UNL A   1      44.907  27.075  32.462  1.00  0.00     0.074 A 
ATOM     62  C   UNL A   1      44.606  27.706  33.741  1.00  0.00     0.031 C 
ATOM     63  C   UNL A   1      45.070  25.779  32.053  1.00  0.00     0.034 A 
BRANCH  50  64
ATOM     64  C   UNL A   1      44.489  22.824  26.579  1.00  0.00     0.023 A 
ATOM     65  C   UNL A   1      45.567  23.281  25.786  1.00  0.00     0.012 A 
ATOM     66  C   UNL A   1      44.054  21.498  26.320  1.00  0.00     0.148 A 
ATOM     67  C   UNL A   1      46.140  22.515  24.767  1.00  0.00     0.002 A 
ATOM     68  C   UNL A   1      44.602  20.742  25.272  1.00  0.00     0.091 A 
ATOM     69  F   UNL A   1      43.159  20.920  27.130  1.00  0.00    -0.205 F 
ATOM     70  C   UNL A   1      45.648  21.250  24.496  1.00  0.00     0.022 A 
BRANCH  68  71
ATOM     71  S   UNL A   1      44.016  19.094  24.825  1.00  0.00     0.127 S 
ATOM     72  O   UNL A   1      42.564  19.236  24.962  1.00  0.00    -0.237 OA
ATOM     73  O   UNL A   1      44.482  18.957  23.447  1.00  0.00    -0.237 OA
ATOM     74  O   UNL A   1      44.615  18.176  25.784  1.00  0.00    -0.744 OA
ENDBRANCH  68  71
ENDBRANCH  50  64
BRANCH  51  75
ATOM     75  C   UNL A   1      42.445  31.046  31.641  1.00  0.00     0.023 A 
ATOM     76  C   UNL A   1      41.989  31.965  30.650  1.00  0.00     0.012 A 
ATOM     77  C   UNL A   1      41.481  30.586  32.568  1.00  0.00     0.148 A 
ATOM     78  C   UNL A   1      40.637  32.337  30.541  1.00  0.00     0.002 A 
ATOM     79  C   UNL A   1      40.133  30.970  32.460  1.00  0.00     0.091 A 
ATOM     80  F   UNL A   1      41.865  29.746  33.538  1.00  0.00    -0.205 F 
ATOM     81  C   UNL A   1      39.704  31.825  31.436  1.00  0.00     0.022 A 
BRANCH  79  82
ATOM     82  S   UNL A   1      38.887  30.297  33.582  1.00  0.00     0.127 S 
ATOM     83  O   UNL A   1      39.384  30.669  34.908  1.00  0.00    -0.237 OA
ATOM     84  O   UNL A   1      37.649  30.965  33.205  1.00  0.00    -0.237 OA
ATOM     85  O   UNL A   1      38.965  28.869  33.287  1.00  0.00    -0.744 OA
ENDBRANCH  79  82
ENDBRANCH  51  75
BRANCH  63  86
ATOM     86  C   UNL A   1      44.955  24.619  33.004  1.00  0.00     0.023 A 
ATOM     87  C   UNL A   1      43.849  23.750  33.004  1.00  0.00     0.012 A 
ATOM     88  C   UNL A   1      46.028  24.304  33.868  1.00  0.00     0.148 A 
ATOM     89  C   UNL A   1      43.744  22.705  33.921  1.00  0.00     0.002 A 
ATOM     90  C   UNL A   1      45.986  23.169  34.661  1.00  0.00     0.091 A 
ATOM     91  F   UNL A   1      47.093  25.117  33.941  1.00  0.00    -0.205 F 
ATOM     92  C   UNL A   1      44.824  22.402  34.739  1.00  0.00     0.022 A 
BRANCH  90  93
ATOM     93  S   UNL A   1      47.472  22.572  35.466  1.00  0.00     0.127 S 
ATOM     94  O   UNL A   1      48.392  22.429  34.341  1.00  0.00    -0.237 OA
ATOM     95  O   UNL A   1      47.793  23.667  36.383  1.00  0.00    -0.237 OA
ATOM     96  O   UNL A   1      47.071  21.338  36.131  1.00  0.00    -0.744 OA
ENDBRANCH  90  93
ENDBRANCH  63  86
ENDBRANCH  37  38
ENDBRANCH  30  32
ENDBRANCH  29  30
ENDBRANCH  28  29
ENDBRANCH   1  28
TORSDOF 19
ENDMDL
