MODEL 1
REMARK VINA RESULT:     -12.2      0.000      0.000
REMARK SMILES C[C@@H]1[C@@H](C(=O)OCCOC(=O)c2ccc(-c3c4nc(c(-c5cccc(S(=O)(=O)[O-])c5F)c5ccc([nH]5)c(-c5cccc(S(=O)(=O)[O-])c5F)c5nc(c(-c6cccc(S(=O)(=O)[O-])c6F)c6ccc3[nH]6)C=C5)C=C4)cc2)CCN1C(=O)N1CCC[C@H]2CCC[C@@H]21
REMARK SMILES IDX 8 1 7 2 6 3 4 4 5 5 3 6 1 7 2 8 77 9 75 10 76 11 78 12 79 13
REMARK SMILES IDX 80 14 81 15 88 16 82 17 84 18 87 19 83 20 85 21 86 22 9 23
REMARK SMILES IDX 10 24 11 25 12 26 13 27 74 28 14 29 73 30 15 31 16 32 17 33
REMARK SMILES IDX 67 34 18 35 72 36 66 37 68 38 19 39 71 40 65 41 64 42 20 44
REMARK SMILES IDX 52 45 32 46 51 47 33 48 36 49 50 50 69 51 34 52 35 53 49 55
REMARK SMILES IDX 70 56 37 57 21 58 22 59 30 60 23 61 25 62 31 63 24 64 26 65
REMARK SMILES IDX 27 66 28 67 29 68 53 69 54 70 62 71 55 72 57 73 63 74 56 75
REMARK SMILES IDX 58 76 59 77 60 78 61 79 38 80 39 81 47 82 40 83 42 84 48 85
REMARK SMILES IDX 41 86 43 87 44 88 45 89 46 90
REMARK H PARENT 68 43 36 54
REMARK Flexibility Score: inf
ROOT
ATOM      1  C   UNL A   1      31.623  30.445  25.604  1.00  0.00     0.275 C 
ENDROOT
BRANCH   1   2
ATOM      2  C   UNL A   1      31.887  29.318  24.598  1.00  0.00     0.274 C 
BRANCH   2   3
ATOM      3  O   UNL A   1      31.287  28.073  25.005  1.00  0.00    -0.462 OA
BRANCH   3   4
ATOM      4  C   UNL A   1      32.133  27.166  25.574  1.00  0.00     0.311 C 
ATOM      5  O   UNL A   1      33.335  27.339  25.717  1.00  0.00    -0.252 OA
BRANCH   4   6
ATOM      6  C   UNL A   1      31.354  25.966  26.083  1.00  0.00     0.123 C 
ATOM      7  C   UNL A   1      31.724  23.617  26.886  1.00  0.00     0.032 C 
ATOM      8  C   UNL A   1      32.102  24.648  25.815  1.00  0.00     0.098 C 
ATOM      9  N   UNL A   1      31.651  24.257  24.471  1.00  0.00    -0.321 N 
ATOM     10  C   UNL A   1      30.034  25.759  25.343  1.00  0.00     0.039 C 
ATOM     11  C   UNL A   1      30.432  24.957  24.111  1.00  0.00     0.122 C 
BRANCH   9  12
ATOM     12  C   UNL A   1      32.447  23.766  23.442  1.00  0.00     0.320 C 
ATOM     13  O   UNL A   1      32.651  24.416  22.416  1.00  0.00    -0.248 OA
BRANCH  12  14
ATOM     14  N   UNL A   1      33.093  22.585  23.698  1.00  0.00    -0.321 N 
ATOM     15  C   UNL A   1      32.487  21.293  23.404  1.00  0.00     0.121 C 
ATOM     16  C   UNL A   1      34.528  22.514  23.902  1.00  0.00     0.090 C 
ATOM     17  C   UNL A   1      32.743  20.297  24.535  1.00  0.00     0.022 C 
ATOM     18  C   UNL A   1      34.751  21.689  25.172  1.00  0.00     0.012 C 
ATOM     19  C   UNL A   1      35.321  23.780  24.203  1.00  0.00     0.025 C 
ATOM     20  C   UNL A   1      34.215  20.271  24.972  1.00  0.00     0.007 C 
ATOM     21  C   UNL A   1      36.238  21.862  25.438  1.00  0.00     0.006 C 
ATOM     22  C   UNL A   1      36.566  23.274  24.940  1.00  0.00     0.002 C 
ENDBRANCH  12  14
ENDBRANCH   9  12
ENDBRANCH   4   6
ENDBRANCH   3   4
ENDBRANCH   2   3
ENDBRANCH   1   2
BRANCH   1  23
ATOM     23  O   UNL A   1      32.468  30.360  26.766  1.00  0.00    -0.458 OA
BRANCH  23  24
ATOM     24  C   UNL A   1      33.016  31.531  27.170  1.00  0.00     0.338 C 
ATOM     25  O   UNL A   1      32.469  32.623  27.184  1.00  0.00    -0.246 OA
BRANCH  24  26
ATOM     26  C   UNL A   1      34.349  31.301  27.762  1.00  0.00     0.060 A 
ATOM     27  C   UNL A   1      34.675  29.984  28.090  1.00  0.00     0.016 A 
ATOM     28  C   UNL A   1      35.244  32.337  28.047  1.00  0.00     0.016 A 
ATOM     29  C   UNL A   1      35.901  29.691  28.680  1.00  0.00     0.010 A 
ATOM     30  C   UNL A   1      36.471  32.044  28.664  1.00  0.00     0.010 A 
ATOM     31  C   UNL A   1      36.807  30.718  28.981  1.00  0.00    -0.014 A 
BRANCH  31  32
ATOM     32  C   UNL A   1      38.065  30.355  29.680  1.00  0.00     0.031 A 
ATOM     33  C   UNL A   1      38.223  30.681  31.131  1.00  0.00     0.074 A 
ATOM     34  C   UNL A   1      39.012  29.640  29.046  1.00  0.00     0.049 A 
ATOM     35  N   UNL A   1      39.191  30.353  31.943  1.00  0.00    -0.248 NA
ATOM     36  C   UNL A   1      37.167  31.501  31.742  1.00  0.00     0.031 C 
ATOM     37  C   UNL A   1      38.969  29.288  27.633  1.00  0.00     0.029 A 
ATOM     38  N   UNL A   1      40.151  29.024  29.508  1.00  0.00    -0.354 N 
ATOM     39  C   UNL A   1      38.914  31.004  33.137  1.00  0.00     0.074 A 
ATOM     40  C   UNL A   1      37.647  31.684  32.964  1.00  0.00     0.031 C 
ATOM     41  C   UNL A   1      39.952  28.412  27.369  1.00  0.00     0.029 A 
ATOM     42  C   UNL A   1      40.739  28.191  28.578  1.00  0.00     0.049 A 
ATOM     43  H   UNL A   1      40.512  29.163  30.412  1.00  0.00     0.167 HD
ATOM     44  C   UNL A   1      39.676  31.065  34.253  1.00  0.00     0.034 A 
ATOM     45  C   UNL A   1      41.777  27.337  28.700  1.00  0.00     0.034 A 
ATOM     46  C   UNL A   1      40.935  30.387  34.411  1.00  0.00     0.049 A 
ATOM     47  C   UNL A   1      42.541  27.329  29.999  1.00  0.00     0.074 A 
ATOM     48  C   UNL A   1      41.813  30.438  35.479  1.00  0.00     0.029 A 
ATOM     49  N   UNL A   1      41.498  29.535  33.473  1.00  0.00    -0.354 N 
ATOM     50  N   UNL A   1      42.259  27.935  31.127  1.00  0.00    -0.248 NA
ATOM     51  C   UNL A   1      43.790  26.552  30.030  1.00  0.00     0.031 C 
ATOM     52  C   UNL A   1      42.915  29.629  35.179  1.00  0.00     0.029 A 
ATOM     53  C   UNL A   1      42.708  29.050  33.938  1.00  0.00     0.049 A 
ATOM     54  H   UNL A   1      41.096  29.309  32.603  1.00  0.00     0.167 HD
ATOM     55  C   UNL A   1      43.309  27.640  31.988  1.00  0.00     0.074 A 
ATOM     56  C   UNL A   1      44.190  26.734  31.281  1.00  0.00     0.031 C 
ATOM     57  C   UNL A   1      43.554  28.122  33.232  1.00  0.00     0.034 A 
BRANCH  44  58
ATOM     58  C   UNL A   1      39.194  31.953  35.365  1.00  0.00     0.023 A 
ATOM     59  C   UNL A   1      39.433  33.340  35.320  1.00  0.00     0.012 A 
ATOM     60  C   UNL A   1      38.484  31.404  36.451  1.00  0.00     0.148 A 
ATOM     61  C   UNL A   1      38.998  34.164  36.358  1.00  0.00     0.002 A 
ATOM     62  C   UNL A   1      38.017  32.237  37.459  1.00  0.00     0.091 A 
ATOM     63  F   UNL A   1      38.296  30.077  36.486  1.00  0.00    -0.205 F 
ATOM     64  C   UNL A   1      38.283  33.614  37.420  1.00  0.00     0.022 A 
BRANCH  62  65
ATOM     65  S   UNL A   1      37.031  31.631  38.833  1.00  0.00     0.127 S 
ATOM     66  O   UNL A   1      37.956  31.799  39.954  1.00  0.00    -0.237 OA
ATOM     67  O   UNL A   1      35.900  32.559  38.830  1.00  0.00    -0.237 OA
ATOM     68  O   UNL A   1      36.690  30.254  38.507  1.00  0.00    -0.744 OA
ENDBRANCH  62  65
ENDBRANCH  44  58
BRANCH  45  69
ATOM     69  C   UNL A   1      42.148  26.393  27.599  1.00  0.00     0.023 A 
ATOM     70  C   UNL A   1      43.017  26.834  26.578  1.00  0.00     0.012 A 
ATOM     71  C   UNL A   1      41.664  25.074  27.542  1.00  0.00     0.148 A 
ATOM     72  C   UNL A   1      43.370  25.995  25.518  1.00  0.00     0.002 A 
ATOM     73  C   UNL A   1      42.088  24.216  26.531  1.00  0.00     0.091 A 
ATOM     74  F   UNL A   1      40.789  24.671  28.475  1.00  0.00    -0.205 F 
ATOM     75  C   UNL A   1      42.921  24.678  25.504  1.00  0.00     0.022 A 
BRANCH  73  76
ATOM     76  S   UNL A   1      41.695  22.463  26.577  1.00  0.00     0.127 S 
ATOM     77  O   UNL A   1      40.238  22.476  26.486  1.00  0.00    -0.237 OA
ATOM     78  O   UNL A   1      42.383  21.957  25.389  1.00  0.00    -0.237 OA
ATOM     79  O   UNL A   1      42.261  21.991  27.834  1.00  0.00    -0.744 OA
ENDBRANCH  73  76
ENDBRANCH  45  69
BRANCH  57  80
ATOM     80  C   UNL A   1      44.836  27.699  33.899  1.00  0.00     0.023 A 
ATOM     81  C   UNL A   1      45.989  28.497  33.751  1.00  0.00     0.012 A 
ATOM     82  C   UNL A   1      44.881  26.563  34.728  1.00  0.00     0.148 A 
ATOM     83  C   UNL A   1      47.176  28.154  34.395  1.00  0.00     0.002 A 
ATOM     84  C   UNL A   1      46.056  26.253  35.403  1.00  0.00     0.091 A 
ATOM     85  F   UNL A   1      43.778  25.809  34.841  1.00  0.00    -0.205 F 
ATOM     86  C   UNL A   1      47.206  27.040  35.230  1.00  0.00     0.022 A 
BRANCH  84  87
ATOM     87  S   UNL A   1      46.164  24.890  36.569  1.00  0.00     0.127 S 
ATOM     88  O   UNL A   1      46.083  23.733  35.679  1.00  0.00    -0.237 OA
ATOM     89  O   UNL A   1      47.478  25.104  37.175  1.00  0.00    -0.237 OA
ATOM     90  O   UNL A   1      45.042  25.055  37.483  1.00  0.00    -0.744 OA
ENDBRANCH  84  87
ENDBRANCH  57  80
ENDBRANCH  31  32
ENDBRANCH  24  26
ENDBRANCH  23  24
ENDBRANCH   1  23
TORSDOF 16
ENDMDL
MODEL 2
REMARK VINA RESULT:     -12.1      5.122      9.997
REMARK SMILES C[C@@H]1[C@@H](C(=O)OCCOC(=O)c2ccc(-c3c4nc(c(-c5cccc(S(=O)(=O)[O-])c5F)c5ccc([nH]5)c(-c5cccc(S(=O)(=O)[O-])c5F)c5nc(c(-c6cccc(S(=O)(=O)[O-])c6F)c6ccc3[nH]6)C=C5)C=C4)cc2)CCN1C(=O)N1CCC[C@H]2CCC[C@@H]21
REMARK SMILES IDX 8 1 7 2 6 3 4 4 5 5 3 6 1 7 2 8 77 9 75 10 76 11 78 12 79 13
REMARK SMILES IDX 80 14 81 15 88 16 82 17 84 18 87 19 83 20 85 21 86 22 9 23
REMARK SMILES IDX 10 24 11 25 12 26 13 27 74 28 14 29 73 30 15 31 16 32 17 33
REMARK SMILES IDX 67 34 18 35 72 36 66 37 68 38 19 39 71 40 65 41 64 42 20 44
REMARK SMILES IDX 52 45 32 46 51 47 33 48 36 49 50 50 69 51 34 52 35 53 49 55
REMARK SMILES IDX 70 56 37 57 21 58 22 59 30 60 23 61 25 62 31 63 24 64 26 65
REMARK SMILES IDX 27 66 28 67 29 68 53 69 54 70 62 71 55 72 57 73 63 74 56 75
REMARK SMILES IDX 58 76 59 77 60 78 61 79 38 80 39 81 47 82 40 83 42 84 48 85
REMARK SMILES IDX 41 86 43 87 44 88 45 89 46 90
REMARK H PARENT 68 43 36 54
REMARK Flexibility Score: inf
ROOT
ATOM      1  C   UNL A   1      36.609  20.495  24.892  1.00  0.00     0.275 C 
ENDROOT
BRANCH   1   2
ATOM      2  C   UNL A   1      35.153  20.653  25.349  1.00  0.00     0.274 C 
BRANCH   2   3
ATOM      3  O   UNL A   1      34.353  21.358  24.381  1.00  0.00    -0.462 OA
BRANCH   3   4
ATOM      4  C   UNL A   1      34.156  22.687  24.628  1.00  0.00     0.311 C 
ATOM      5  O   UNL A   1      34.351  23.222  25.710  1.00  0.00    -0.252 OA
BRANCH   4   6
ATOM      6  C   UNL A   1      33.759  23.407  23.352  1.00  0.00     0.123 C 
ATOM      7  C   UNL A   1      33.477  25.732  22.450  1.00  0.00     0.032 C 
ATOM      8  C   UNL A   1      33.197  24.810  23.643  1.00  0.00     0.098 C 
ATOM      9  N   UNL A   1      31.761  24.575  23.851  1.00  0.00    -0.321 N 
ATOM     10  C   UNL A   1      32.602  22.728  22.622  1.00  0.00     0.039 C 
ATOM     11  C   UNL A   1      31.363  23.290  23.306  1.00  0.00     0.122 C 
BRANCH   9  12
ATOM     12  C   UNL A   1      30.967  25.132  24.848  1.00  0.00     0.320 C 
ATOM     13  O   UNL A   1      30.642  24.493  25.849  1.00  0.00    -0.248 OA
BRANCH  12  14
ATOM     14  N   UNL A   1      30.685  26.466  24.711  1.00  0.00    -0.321 N 
ATOM     15  C   UNL A   1      29.513  26.939  23.986  1.00  0.00     0.121 C 
ATOM     16  C   UNL A   1      31.275  27.476  25.571  1.00  0.00     0.090 C 
ATOM     17  C   UNL A   1      29.859  28.144  23.112  1.00  0.00     0.022 C 
ATOM     18  C   UNL A   1      31.811  28.576  24.653  1.00  0.00     0.012 C 
ATOM     19  C   UNL A   1      32.499  27.142  26.414  1.00  0.00     0.025 C 
ATOM     20  C   UNL A   1      30.659  29.212  23.873  1.00  0.00     0.007 C 
ATOM     21  C   UNL A   1      32.605  29.459  25.602  1.00  0.00     0.006 C 
ATOM     22  C   UNL A   1      33.167  28.500  26.656  1.00  0.00     0.002 C 
ENDBRANCH  12  14
ENDBRANCH   9  12
ENDBRANCH   4   6
ENDBRANCH   3   4
ENDBRANCH   2   3
ENDBRANCH   1   2
BRANCH   1  23
ATOM     23  O   UNL A   1      37.446  21.585  25.321  1.00  0.00    -0.458 OA
BRANCH  23  24
ATOM     24  C   UNL A   1      38.633  21.222  25.865  1.00  0.00     0.338 C 
ATOM     25  O   UNL A   1      39.161  20.124  25.791  1.00  0.00    -0.246 OA
BRANCH  24  26
ATOM     26  C   UNL A   1      39.316  22.397  26.445  1.00  0.00     0.060 A 
ATOM     27  C   UNL A   1      38.847  23.653  26.059  1.00  0.00     0.016 A 
ATOM     28  C   UNL A   1      40.418  22.291  27.298  1.00  0.00     0.016 A 
ATOM     29  C   UNL A   1      39.458  24.808  26.539  1.00  0.00     0.010 A 
ATOM     30  C   UNL A   1      41.050  23.456  27.763  1.00  0.00     0.010 A 
ATOM     31  C   UNL A   1      40.571  24.720  27.388  1.00  0.00    -0.014 A 
BRANCH  31  32
ATOM     32  C   UNL A   1      41.229  25.984  27.806  1.00  0.00     0.031 A 
ATOM     33  C   UNL A   1      42.539  26.369  27.197  1.00  0.00     0.074 A 
ATOM     34  C   UNL A   1      40.601  26.832  28.641  1.00  0.00     0.049 A 
ATOM     35  N   UNL A   1      43.217  27.475  27.345  1.00  0.00    -0.248 NA
ATOM     36  C   UNL A   1      43.182  25.372  26.328  1.00  0.00     0.031 C 
ATOM     37  C   UNL A   1      39.337  26.548  29.305  1.00  0.00     0.029 A 
ATOM     38  N   UNL A   1      40.896  28.119  29.023  1.00  0.00    -0.354 N 
ATOM     39  C   UNL A   1      44.411  27.275  26.667  1.00  0.00     0.074 A 
ATOM     40  C   UNL A   1      44.331  25.969  26.045  1.00  0.00     0.031 C 
ATOM     41  C   UNL A   1      38.893  27.667  29.901  1.00  0.00     0.029 A 
ATOM     42  C   UNL A   1      39.875  28.731  29.721  1.00  0.00     0.049 A 
ATOM     43  H   UNL A   1      41.750  28.562  28.818  1.00  0.00     0.167 HD
ATOM     44  C   UNL A   1      45.491  28.089  26.615  1.00  0.00     0.034 A 
ATOM     45  C   UNL A   1      39.744  30.006  30.143  1.00  0.00     0.034 A 
ATOM     46  C   UNL A   1      45.558  29.383  27.241  1.00  0.00     0.049 A 
ATOM     47  C   UNL A   1      40.916  30.937  29.965  1.00  0.00     0.074 A 
ATOM     48  C   UNL A   1      46.631  30.255  27.299  1.00  0.00     0.029 A 
ATOM     49  N   UNL A   1      44.513  29.989  27.918  1.00  0.00    -0.354 N 
ATOM     50  N   UNL A   1      42.033  30.743  29.307  1.00  0.00    -0.248 NA
ATOM     51  C   UNL A   1      40.827  32.250  30.623  1.00  0.00     0.031 C 
ATOM     52  C   UNL A   1      46.237  31.384  28.028  1.00  0.00     0.029 A 
ATOM     53  C   UNL A   1      44.910  31.227  28.394  1.00  0.00     0.049 A 
ATOM     54  H   UNL A   1      43.618  29.597  28.044  1.00  0.00     0.167 HD
ATOM     55  C   UNL A   1      42.790  31.891  29.498  1.00  0.00     0.074 A 
ATOM     56  C   UNL A   1      41.974  32.810  30.263  1.00  0.00     0.031 C 
ATOM     57  C   UNL A   1      44.070  32.141  29.125  1.00  0.00     0.034 A 
BRANCH  44  58
ATOM     58  C   UNL A   1      46.710  27.566  25.909  1.00  0.00     0.023 A 
ATOM     59  C   UNL A   1      46.863  27.756  24.522  1.00  0.00     0.012 A 
ATOM     60  C   UNL A   1      47.715  26.897  26.635  1.00  0.00     0.148 A 
ATOM     61  C   UNL A   1      47.988  27.260  23.863  1.00  0.00     0.002 A 
ATOM     62  C   UNL A   1      48.852  26.445  25.979  1.00  0.00     0.091 A 
ATOM     63  F   UNL A   1      47.531  26.702  27.949  1.00  0.00    -0.205 F 
ATOM     64  C   UNL A   1      48.984  26.614  24.593  1.00  0.00     0.022 A 
BRANCH  62  65
ATOM     65  S   UNL A   1      50.217  25.661  26.843  1.00  0.00     0.127 S 
ATOM     66  O   UNL A   1      51.168  25.443  25.753  1.00  0.00    -0.237 OA
ATOM     67  O   UNL A   1      50.610  26.697  27.798  1.00  0.00    -0.237 OA
ATOM     68  O   UNL A   1      49.672  24.453  27.446  1.00  0.00    -0.744 OA
ENDBRANCH  62  65
ENDBRANCH  44  58
BRANCH  45  69
ATOM     69  C   UNL A   1      38.466  30.506  30.741  1.00  0.00     0.023 A 
ATOM     70  C   UNL A   1      38.260  30.377  32.132  1.00  0.00     0.012 A 
ATOM     71  C   UNL A   1      37.456  31.106  29.968  1.00  0.00     0.148 A 
ATOM     72  C   UNL A   1      37.072  30.808  32.728  1.00  0.00     0.002 A 
ATOM     73  C   UNL A   1      36.312  31.610  30.580  1.00  0.00     0.091 A 
ATOM     74  F   UNL A   1      37.620  31.172  28.639  1.00  0.00    -0.205 F 
ATOM     75  C   UNL A   1      36.105  31.442  31.955  1.00  0.00     0.022 A 
BRANCH  73  76
ATOM     76  S   UNL A   1      35.130  32.604  29.662  1.00  0.00     0.127 S 
ATOM     77  O   UNL A   1      34.578  31.632  28.725  1.00  0.00    -0.237 OA
ATOM     78  O   UNL A   1      34.209  33.044  30.710  1.00  0.00    -0.237 OA
ATOM     79  O   UNL A   1      35.926  33.682  29.084  1.00  0.00    -0.744 OA
ENDBRANCH  73  76
ENDBRANCH  45  69
BRANCH  57  80
ATOM     80  C   UNL A   1      44.675  33.449  29.560  1.00  0.00     0.023 A 
ATOM     81  C   UNL A   1      45.397  33.511  30.770  1.00  0.00     0.012 A 
ATOM     82  C   UNL A   1      44.597  34.592  28.741  1.00  0.00     0.148 A 
ATOM     83  C   UNL A   1      46.006  34.698  31.173  1.00  0.00     0.002 A 
ATOM     84  C   UNL A   1      45.246  35.758  29.128  1.00  0.00     0.091 A 
ATOM     85  F   UNL A   1      43.892  34.516  27.604  1.00  0.00    -0.205 F 
ATOM     86  C   UNL A   1      45.941  35.817  30.347  1.00  0.00     0.022 A 
BRANCH  84  87
ATOM     87  S   UNL A   1      45.293  37.223  28.088  1.00  0.00     0.127 S 
ATOM     88  O   UNL A   1      45.695  36.658  26.800  1.00  0.00    -0.237 OA
ATOM     89  O   UNL A   1      43.907  37.688  28.145  1.00  0.00    -0.237 OA
ATOM     90  O   UNL A   1      46.258  38.122  28.704  1.00  0.00    -0.744 OA
ENDBRANCH  84  87
ENDBRANCH  57  80
ENDBRANCH  31  32
ENDBRANCH  24  26
ENDBRANCH  23  24
ENDBRANCH   1  23
TORSDOF 16
ENDMDL
MODEL 3
REMARK VINA RESULT:     -12.1      5.164     10.122
REMARK SMILES C[C@@H]1[C@@H](C(=O)OCCOC(=O)c2ccc(-c3c4nc(c(-c5cccc(S(=O)(=O)[O-])c5F)c5ccc([nH]5)c(-c5cccc(S(=O)(=O)[O-])c5F)c5nc(c(-c6cccc(S(=O)(=O)[O-])c6F)c6ccc3[nH]6)C=C5)C=C4)cc2)CCN1C(=O)N1CCC[C@H]2CCC[C@@H]21
REMARK SMILES IDX 8 1 7 2 6 3 4 4 5 5 3 6 1 7 2 8 77 9 75 10 76 11 78 12 79 13
REMARK SMILES IDX 80 14 81 15 88 16 82 17 84 18 87 19 83 20 85 21 86 22 9 23
REMARK SMILES IDX 10 24 11 25 12 26 13 27 74 28 14 29 73 30 15 31 16 32 17 33
REMARK SMILES IDX 67 34 18 35 72 36 66 37 68 38 19 39 71 40 65 41 64 42 20 44
REMARK SMILES IDX 52 45 32 46 51 47 33 48 36 49 50 50 69 51 34 52 35 53 49 55
REMARK SMILES IDX 70 56 37 57 21 58 22 59 30 60 23 61 25 62 31 63 24 64 26 65
REMARK SMILES IDX 27 66 28 67 29 68 53 69 54 70 62 71 55 72 57 73 63 74 56 75
REMARK SMILES IDX 58 76 59 77 60 78 61 79 38 80 39 81 47 82 40 83 42 84 48 85
REMARK SMILES IDX 41 86 43 87 44 88 45 89 46 90
REMARK H PARENT 68 43 36 54
REMARK Flexibility Score: inf
ROOT
ATOM      1  C   UNL A   1      36.703  20.617  25.000  1.00  0.00     0.275 C 
ENDROOT
BRANCH   1   2
ATOM      2  C   UNL A   1      35.284  21.087  25.341  1.00  0.00     0.274 C 
BRANCH   2   3
ATOM      3  O   UNL A   1      34.665  21.787  24.245  1.00  0.00    -0.462 OA
BRANCH   3   4
ATOM      4  C   UNL A   1      34.580  23.143  24.379  1.00  0.00     0.311 C 
ATOM      5  O   UNL A   1      34.965  23.764  25.360  1.00  0.00    -0.252 OA
BRANCH   4   6
ATOM      6  C   UNL A   1      34.034  23.765  23.106  1.00  0.00     0.123 C 
ATOM      7  C   UNL A   1      33.397  26.003  22.165  1.00  0.00     0.032 C 
ATOM      8  C   UNL A   1      33.298  25.087  23.391  1.00  0.00     0.098 C 
ATOM      9  N   UNL A   1      31.917  24.665  23.670  1.00  0.00    -0.321 N 
ATOM     10  C   UNL A   1      32.950  22.914  22.447  1.00  0.00     0.039 C 
ATOM     11  C   UNL A   1      31.676  23.323  23.174  1.00  0.00     0.122 C 
BRANCH   9  12
ATOM     12  C   UNL A   1      31.098  25.138  24.690  1.00  0.00     0.320 C 
ATOM     13  O   UNL A   1      30.816  24.445  25.668  1.00  0.00    -0.248 OA
BRANCH  12  14
ATOM     14  N   UNL A   1      30.739  26.458  24.603  1.00  0.00    -0.321 N 
ATOM     15  C   UNL A   1      29.565  26.893  23.858  1.00  0.00     0.121 C 
ATOM     16  C   UNL A   1      31.236  27.459  25.529  1.00  0.00     0.090 C 
ATOM     17  C   UNL A   1      29.865  28.157  23.052  1.00  0.00     0.022 C 
ATOM     18  C   UNL A   1      31.733  28.632  24.682  1.00  0.00     0.012 C 
ATOM     19  C   UNL A   1      32.449  27.160  26.401  1.00  0.00     0.025 C 
ATOM     20  C   UNL A   1      30.571  29.233  23.890  1.00  0.00     0.007 C 
ATOM     21  C   UNL A   1      32.438  29.516  25.699  1.00  0.00     0.006 C 
ATOM     22  C   UNL A   1      33.023  28.543  26.728  1.00  0.00     0.002 C 
ENDBRANCH  12  14
ENDBRANCH   9  12
ENDBRANCH   4   6
ENDBRANCH   3   4
ENDBRANCH   2   3
ENDBRANCH   1   2
BRANCH   1  23
ATOM     23  O   UNL A   1      37.691  21.647  25.196  1.00  0.00    -0.458 OA
BRANCH  23  24
ATOM     24  C   UNL A   1      38.801  21.262  25.869  1.00  0.00     0.338 C 
ATOM     25  O   UNL A   1      39.294  20.145  25.880  1.00  0.00    -0.246 OA
BRANCH  24  26
ATOM     26  C   UNL A   1      39.463  22.430  26.485  1.00  0.00     0.060 A 
ATOM     27  C   UNL A   1      39.025  23.691  26.077  1.00  0.00     0.016 A 
ATOM     28  C   UNL A   1      40.518  22.315  27.395  1.00  0.00     0.016 A 
ATOM     29  C   UNL A   1      39.620  24.840  26.589  1.00  0.00     0.010 A 
ATOM     30  C   UNL A   1      41.134  23.474  27.893  1.00  0.00     0.010 A 
ATOM     31  C   UNL A   1      40.686  24.743  27.494  1.00  0.00    -0.014 A 
BRANCH  31  32
ATOM     32  C   UNL A   1      41.332  26.001  27.948  1.00  0.00     0.031 A 
ATOM     33  C   UNL A   1      42.666  26.386  27.393  1.00  0.00     0.074 A 
ATOM     34  C   UNL A   1      40.676  26.844  28.765  1.00  0.00     0.049 A 
ATOM     35  N   UNL A   1      43.342  27.488  27.576  1.00  0.00    -0.248 NA
ATOM     36  C   UNL A   1      43.338  25.393  26.541  1.00  0.00     0.031 C 
ATOM     37  C   UNL A   1      39.386  26.560  29.378  1.00  0.00     0.029 A 
ATOM     38  N   UNL A   1      40.960  28.128  29.168  1.00  0.00    -0.354 N 
ATOM     39  C   UNL A   1      44.560  27.289  26.943  1.00  0.00     0.074 A 
ATOM     40  C   UNL A   1      44.500  25.989  26.307  1.00  0.00     0.031 C 
ATOM     41  C   UNL A   1      38.923  27.676  29.965  1.00  0.00     0.029 A 
ATOM     42  C   UNL A   1      39.915  28.738  29.831  1.00  0.00     0.049 A 
ATOM     43  H   UNL A   1      41.822  28.569  29.000  1.00  0.00     0.167 HD
ATOM     44  C   UNL A   1      45.644  28.099  26.938  1.00  0.00     0.034 A 
ATOM     45  C   UNL A   1      39.772  30.011  30.258  1.00  0.00     0.034 A 
ATOM     46  C   UNL A   1      45.691  29.388  27.576  1.00  0.00     0.049 A 
ATOM     47  C   UNL A   1      40.953  30.938  30.132  1.00  0.00     0.074 A 
ATOM     48  C   UNL A   1      46.764  30.256  27.682  1.00  0.00     0.029 A 
ATOM     49  N   UNL A   1      44.622  29.993  28.218  1.00  0.00    -0.354 N 
ATOM     50  N   UNL A   1      42.094  30.745  29.516  1.00  0.00    -0.248 NA
ATOM     51  C   UNL A   1      40.843  32.246  30.797  1.00  0.00     0.031 C 
ATOM     52  C   UNL A   1      46.346  31.380  28.404  1.00  0.00     0.029 A 
ATOM     53  C   UNL A   1      45.005  31.226  28.718  1.00  0.00     0.049 A 
ATOM     54  H   UNL A   1      43.722  29.603  28.306  1.00  0.00     0.167 HD
ATOM     55  C   UNL A   1      42.847  31.889  29.745  1.00  0.00     0.074 A 
ATOM     56  C   UNL A   1      42.005  32.805  30.485  1.00  0.00     0.031 C 
ATOM     57  C   UNL A   1      44.141  32.137  29.424  1.00  0.00     0.034 A 
BRANCH  44  58
ATOM     58  C   UNL A   1      46.887  27.578  26.276  1.00  0.00     0.023 A 
ATOM     59  C   UNL A   1      47.819  26.821  27.011  1.00  0.00     0.012 A 
ATOM     60  C   UNL A   1      47.120  27.830  24.909  1.00  0.00     0.148 A 
ATOM     61  C   UNL A   1      48.981  26.348  26.402  1.00  0.00     0.002 A 
ATOM     62  C   UNL A   1      48.257  27.319  24.299  1.00  0.00     0.091 A 
ATOM     63  F   UNL A   1      46.233  28.579  24.239  1.00  0.00    -0.205 F 
ATOM     64  C   UNL A   1      49.194  26.589  25.046  1.00  0.00     0.022 A 
BRANCH  62  65
ATOM     65  S   UNL A   1      48.585  27.521  22.545  1.00  0.00     0.127 S 
ATOM     66  O   UNL A   1      49.878  28.205  22.564  1.00  0.00    -0.237 OA
ATOM     67  O   UNL A   1      48.635  26.134  22.082  1.00  0.00    -0.237 OA
ATOM     68  O   UNL A   1      47.476  28.300  22.014  1.00  0.00    -0.744 OA
ENDBRANCH  62  65
ENDBRANCH  44  58
BRANCH  45  69
ATOM     69  C   UNL A   1      38.474  30.510  30.810  1.00  0.00     0.023 A 
ATOM     70  C   UNL A   1      38.219  30.383  32.193  1.00  0.00     0.012 A 
ATOM     71  C   UNL A   1      37.491  31.108  30.001  1.00  0.00     0.148 A 
ATOM     72  C   UNL A   1      37.010  30.813  32.747  1.00  0.00     0.002 A 
ATOM     73  C   UNL A   1      36.326  31.613  30.572  1.00  0.00     0.091 A 
ATOM     74  F   UNL A   1      37.702  31.174  28.679  1.00  0.00    -0.205 F 
ATOM     75  C   UNL A   1      36.071  31.446  31.940  1.00  0.00     0.022 A 
BRANCH  73  76
ATOM     76  S   UNL A   1      35.177  32.606  29.612  1.00  0.00     0.127 S 
ATOM     77  O   UNL A   1      36.051  33.637  29.063  1.00  0.00    -0.237 OA
ATOM     78  O   UNL A   1      34.670  31.642  28.635  1.00  0.00    -0.237 OA
ATOM     79  O   UNL A   1      34.178  33.050  30.578  1.00  0.00    -0.744 OA
ENDBRANCH  73  76
ENDBRANCH  45  69
BRANCH  57  80
ATOM     80  C   UNL A   1      44.733  33.440  29.892  1.00  0.00     0.023 A 
ATOM     81  C   UNL A   1      45.388  33.494  31.139  1.00  0.00     0.012 A 
ATOM     82  C   UNL A   1      44.710  34.583  29.071  1.00  0.00     0.148 A 
ATOM     83  C   UNL A   1      45.986  34.676  31.576  1.00  0.00     0.002 A 
ATOM     84  C   UNL A   1      45.348  35.744  29.493  1.00  0.00     0.091 A 
ATOM     85  F   UNL A   1      44.067  34.514  27.897  1.00  0.00    -0.205 F 
ATOM     86  C   UNL A   1      45.976  35.795  30.748  1.00  0.00     0.022 A 
BRANCH  84  87
ATOM     87  S   UNL A   1      45.464  37.208  28.458  1.00  0.00     0.127 S 
ATOM     88  O   UNL A   1      46.545  37.946  29.110  1.00  0.00    -0.237 OA
ATOM     89  O   UNL A   1      45.812  36.639  27.155  1.00  0.00    -0.237 OA
ATOM     90  O   UNL A   1      44.154  37.842  28.512  1.00  0.00    -0.744 OA
ENDBRANCH  84  87
ENDBRANCH  57  80
ENDBRANCH  31  32
ENDBRANCH  24  26
ENDBRANCH  23  24
ENDBRANCH   1  23
TORSDOF 16
ENDMDL
