MODEL 1
REMARK VINA RESULT:     -11.7      0.000      0.000
REMARK SMILES Cn1ncc(C(=O)OCCOC(=O)c2ccc(-c3c4nc(c(-c5cccc(S(=O)(=O)[O-])c5F)c5ccc([nH]5)c(-c5cccc(S(=O)(=O)[O-])c5F)c5nc(c(-c6cccc(S(=O)(=O)[O-])c6F)c6ccc3[nH]6)C=C5)C=C4)cc2)c1NS(=O)(=O)[C@@H]1CCS(=O)(=O)C1
REMARK SMILES IDX 9 1 8 2 6 3 7 4 5 5 1 6 2 7 3 8 77 9 4 10 78 11 79 13 80 14
REMARK SMILES IDX 81 15 82 16 83 17 88 18 84 19 85 20 86 21 87 22 10 23 11 24
REMARK SMILES IDX 12 25 13 26 14 27 15 28 76 29 16 30 75 31 17 32 18 33 19 34
REMARK SMILES IDX 69 35 20 36 74 37 68 38 70 39 21 40 73 41 67 42 66 43 22 45
REMARK SMILES IDX 54 46 34 47 53 48 35 49 38 50 52 51 71 52 36 53 37 54 51 56
REMARK SMILES IDX 72 57 39 58 23 59 24 60 32 61 25 62 27 63 33 64 26 65 28 66
REMARK SMILES IDX 29 67 30 68 31 69 55 70 56 71 64 72 57 73 59 74 65 75 58 76
REMARK SMILES IDX 60 77 61 78 62 79 63 80 40 81 41 82 49 83 42 84 44 85 50 86
REMARK SMILES IDX 43 87 45 88 46 89 47 90 48 91
REMARK H PARENT 78 12 70 44 38 55
REMARK Flexibility Score: inf
ROOT
ATOM      1  C   UNL A   1      36.634  22.493  23.612  1.00  0.00     0.275 C 
ENDROOT
BRANCH   1   2
ATOM      2  O   UNL A   1      35.199  22.703  23.601  1.00  0.00    -0.458 OA
BRANCH   2   3
ATOM      3  C   UNL A   1      34.707  23.495  24.597  1.00  0.00     0.343 C 
ATOM      4  O   UNL A   1      35.260  24.496  25.024  1.00  0.00    -0.246 OA
BRANCH   3   5
ATOM      5  C   UNL A   1      33.453  23.009  25.117  1.00  0.00     0.123 A 
ATOM      6  C   UNL A   1      30.189  22.644  26.642  1.00  0.00     0.176 C 
ATOM      7  N   UNL A   1      31.479  22.593  25.991  1.00  0.00    -0.251 N 
ATOM      8  N   UNL A   1      31.800  21.450  25.375  1.00  0.00    -0.179 NA
ATOM      9  C   UNL A   1      32.459  23.578  25.911  1.00  0.00     0.152 A 
ATOM     10  C   UNL A   1      32.971  21.711  24.810  1.00  0.00     0.153 A 
BRANCH   9  11
ATOM     11  N   UNL A   1      32.301  24.806  26.557  1.00  0.00    -0.267 N 
ATOM     12  H   UNL A   1      32.333  24.725  27.538  1.00  0.00     0.181 HD
BRANCH  11  13
ATOM     13  S   UNL A   1      32.078  26.335  26.064  1.00  0.00     0.237 S 
ATOM     14  O   UNL A   1      31.029  26.946  26.851  1.00  0.00    -0.206 OA
ATOM     15  O   UNL A   1      33.394  26.942  26.065  1.00  0.00    -0.206 OA
BRANCH  13  16
ATOM     16  C   UNL A   1      31.549  26.386  24.389  1.00  0.00     0.145 C 
ATOM     17  C   UNL A   1      32.609  26.913  23.429  1.00  0.00     0.039 C 
ATOM     18  C   UNL A   1      30.255  27.169  24.209  1.00  0.00     0.158 C 
ATOM     19  C   UNL A   1      32.413  28.402  23.241  1.00  0.00     0.138 C 
ATOM     20  S   UNL A   1      30.652  28.626  23.278  1.00  0.00     0.151 S 
ATOM     21  O   UNL A   1      30.338  29.790  24.074  1.00  0.00    -0.229 OA
ATOM     22  O   UNL A   1      30.138  28.432  21.939  1.00  0.00    -0.229 OA
ENDBRANCH  13  16
ENDBRANCH  11  13
ENDBRANCH   9  11
ENDBRANCH   3   5
ENDBRANCH   2   3
ENDBRANCH   1   2
BRANCH   1  23
ATOM     23  C   UNL A   1      37.002  21.258  24.450  1.00  0.00     0.275 C 
BRANCH  23  24
ATOM     24  O   UNL A   1      37.443  21.676  25.747  1.00  0.00    -0.458 OA
BRANCH  24  25
ATOM     25  C   UNL A   1      38.696  21.288  26.092  1.00  0.00     0.338 C 
ATOM     26  O   UNL A   1      39.267  20.252  25.826  1.00  0.00    -0.246 OA
BRANCH  25  27
ATOM     27  C   UNL A   1      39.375  22.505  26.537  1.00  0.00     0.060 A 
ATOM     28  C   UNL A   1      40.506  22.334  27.342  1.00  0.00     0.016 A 
ATOM     29  C   UNL A   1      38.960  23.763  26.115  1.00  0.00     0.016 A 
ATOM     30  C   UNL A   1      41.253  23.437  27.725  1.00  0.00     0.010 A 
ATOM     31  C   UNL A   1      39.712  24.869  26.497  1.00  0.00     0.010 A 
ATOM     32  C   UNL A   1      40.858  24.709  27.300  1.00  0.00    -0.014 A 
BRANCH  32  33
ATOM     33  C   UNL A   1      41.609  25.902  27.734  1.00  0.00     0.031 A 
ATOM     34  C   UNL A   1      40.899  26.933  28.554  1.00  0.00     0.074 A 
ATOM     35  C   UNL A   1      42.884  26.065  27.339  1.00  0.00     0.049 A 
ATOM     36  N   UNL A   1      41.280  28.138  28.873  1.00  0.00    -0.248 NA
ATOM     37  C   UNL A   1      39.567  26.563  29.065  1.00  0.00     0.031 C 
ATOM     38  C   UNL A   1      43.655  25.099  26.552  1.00  0.00     0.029 A 
ATOM     39  N   UNL A   1      43.744  27.116  27.514  1.00  0.00    -0.354 N 
ATOM     40  C   UNL A   1      40.211  28.697  29.562  1.00  0.00     0.074 A 
ATOM     41  C   UNL A   1      39.171  27.695  29.627  1.00  0.00     0.031 C 
ATOM     42  C   UNL A   1      44.867  25.615  26.289  1.00  0.00     0.029 A 
ATOM     43  C   UNL A   1      44.933  26.964  26.838  1.00  0.00     0.049 A 
ATOM     44  H   UNL A   1      43.532  27.903  28.066  1.00  0.00     0.167 HD
ATOM     45  C   UNL A   1      40.115  29.939  30.088  1.00  0.00     0.034 A 
ATOM     46  C   UNL A   1      45.939  27.841  26.646  1.00  0.00     0.034 A 
ATOM     47  C   UNL A   1      41.182  30.901  30.035  1.00  0.00     0.049 A 
ATOM     48  C   UNL A   1      45.810  29.211  27.253  1.00  0.00     0.074 A 
ATOM     49  C   UNL A   1      41.220  32.176  30.564  1.00  0.00     0.029 A 
ATOM     50  N   UNL A   1      42.402  30.687  29.408  1.00  0.00    -0.354 N 
ATOM     51  N   UNL A   1      44.822  29.708  27.960  1.00  0.00    -0.248 NA
ATOM     52  C   UNL A   1      46.934  30.134  27.055  1.00  0.00     0.031 C 
ATOM     53  C   UNL A   1      42.460  32.740  30.241  1.00  0.00     0.029 A 
ATOM     54  C   UNL A   1      43.202  31.805  29.535  1.00  0.00     0.049 A 
ATOM     55  H   UNL A   1      42.659  29.859  28.942  1.00  0.00     0.167 HD
ATOM     56  C   UNL A   1      45.215  30.993  28.313  1.00  0.00     0.074 A 
ATOM     57  C   UNL A   1      46.543  31.186  27.762  1.00  0.00     0.031 C 
ATOM     58  C   UNL A   1      44.538  31.938  29.011  1.00  0.00     0.034 A 
BRANCH  45  59
ATOM     59  C   UNL A   1      38.823  30.314  30.762  1.00  0.00     0.023 A 
ATOM     60  C   UNL A   1      38.611  29.978  32.115  1.00  0.00     0.012 A 
ATOM     61  C   UNL A   1      37.825  31.021  30.061  1.00  0.00     0.148 A 
ATOM     62  C   UNL A   1      37.412  30.306  32.749  1.00  0.00     0.002 A 
ATOM     63  C   UNL A   1      36.652  31.383  30.713  1.00  0.00     0.091 A 
ATOM     64  F   UNL A   1      38.034  31.309  28.769  1.00  0.00    -0.205 F 
ATOM     65  C   UNL A   1      36.439  31.016  32.051  1.00  0.00     0.022 A 
BRANCH  63  66
ATOM     66  S   UNL A   1      35.363  32.352  29.923  1.00  0.00     0.127 S 
ATOM     67  O   UNL A   1      36.109  33.532  29.488  1.00  0.00    -0.237 OA
ATOM     68  O   UNL A   1      34.936  31.466  28.839  1.00  0.00    -0.237 OA
ATOM     69  O   UNL A   1      34.356  32.593  30.946  1.00  0.00    -0.744 OA
ENDBRANCH  63  66
ENDBRANCH  45  59
BRANCH  46  70
ATOM     70  C   UNL A   1      47.144  27.439  25.865  1.00  0.00     0.023 A 
ATOM     71  C   UNL A   1      48.128  26.638  26.473  1.00  0.00     0.012 A 
ATOM     72  C   UNL A   1      47.298  27.804  24.513  1.00  0.00     0.148 A 
ATOM     73  C   UNL A   1      49.255  26.227  25.757  1.00  0.00     0.002 A 
ATOM     74  C   UNL A   1      48.390  27.340  23.788  1.00  0.00     0.091 A 
ATOM     75  F   UNL A   1      46.361  28.583  23.954  1.00  0.00    -0.205 F 
ATOM     76  C   UNL A   1      49.379  26.567  24.413  1.00  0.00     0.022 A 
BRANCH  74  77
ATOM     77  S   UNL A   1      48.544  27.600  22.016  1.00  0.00     0.127 S 
ATOM     78  O   UNL A   1      48.887  26.261  21.546  1.00  0.00    -0.237 OA
ATOM     79  O   UNL A   1      47.200  28.057  21.659  1.00  0.00    -0.237 OA
ATOM     80  O   UNL A   1      49.577  28.616  21.862  1.00  0.00    -0.744 OA
ENDBRANCH  74  77
ENDBRANCH  46  70
BRANCH  58  81
ATOM     81  C   UNL A   1      45.240  33.247  29.250  1.00  0.00     0.023 A 
ATOM     82  C   UNL A   1      46.080  33.397  30.369  1.00  0.00     0.012 A 
ATOM     83  C   UNL A   1      45.122  34.297  28.320  1.00  0.00     0.148 A 
ATOM     84  C   UNL A   1      46.774  34.589  30.575  1.00  0.00     0.002 A 
ATOM     85  C   UNL A   1      45.856  35.461  28.504  1.00  0.00     0.091 A 
ATOM     86  F   UNL A   1      44.298  34.135  27.275  1.00  0.00    -0.205 F 
ATOM     87  C   UNL A   1      46.672  35.614  29.637  1.00  0.00     0.022 A 
BRANCH  85  88
ATOM     88  S   UNL A   1      45.861  36.789  27.295  1.00  0.00     0.127 S 
ATOM     89  O   UNL A   1      46.455  36.130  26.134  1.00  0.00    -0.237 OA
ATOM     90  O   UNL A   1      44.436  37.093  27.165  1.00  0.00    -0.237 OA
ATOM     91  O   UNL A   1      46.656  37.860  27.882  1.00  0.00    -0.744 OA
ENDBRANCH  85  88
ENDBRANCH  58  81
ENDBRANCH  32  33
ENDBRANCH  25  27
ENDBRANCH  24  25
ENDBRANCH  23  24
ENDBRANCH   1  23
TORSDOF 17
ENDMDL
MODEL 2
REMARK VINA RESULT:     -11.7      5.275     10.136
REMARK SMILES Cn1ncc(C(=O)OCCOC(=O)c2ccc(-c3c4nc(c(-c5cccc(S(=O)(=O)[O-])c5F)c5ccc([nH]5)c(-c5cccc(S(=O)(=O)[O-])c5F)c5nc(c(-c6cccc(S(=O)(=O)[O-])c6F)c6ccc3[nH]6)C=C5)C=C4)cc2)c1NS(=O)(=O)[C@@H]1CCS(=O)(=O)C1
REMARK SMILES IDX 9 1 8 2 6 3 7 4 5 5 1 6 2 7 3 8 77 9 4 10 78 11 79 13 80 14
REMARK SMILES IDX 81 15 82 16 83 17 88 18 84 19 85 20 86 21 87 22 10 23 11 24
REMARK SMILES IDX 12 25 13 26 14 27 15 28 76 29 16 30 75 31 17 32 18 33 19 34
REMARK SMILES IDX 69 35 20 36 74 37 68 38 70 39 21 40 73 41 67 42 66 43 22 45
REMARK SMILES IDX 54 46 34 47 53 48 35 49 38 50 52 51 71 52 36 53 37 54 51 56
REMARK SMILES IDX 72 57 39 58 23 59 24 60 32 61 25 62 27 63 33 64 26 65 28 66
REMARK SMILES IDX 29 67 30 68 31 69 55 70 56 71 64 72 57 73 59 74 65 75 58 76
REMARK SMILES IDX 60 77 61 78 62 79 63 80 40 81 41 82 49 83 42 84 44 85 50 86
REMARK SMILES IDX 43 87 45 88 46 89 47 90 48 91
REMARK H PARENT 78 12 70 44 38 55
REMARK Flexibility Score: inf
ROOT
ATOM      1  C   UNL A   1      31.407  29.483  24.614  1.00  0.00     0.275 C 
ENDROOT
BRANCH   1   2
ATOM      2  O   UNL A   1      30.710  28.249  24.306  1.00  0.00    -0.458 OA
BRANCH   2   3
ATOM      3  C   UNL A   1      30.802  27.821  23.014  1.00  0.00     0.343 C 
ATOM      4  O   UNL A   1      30.044  28.154  22.117  1.00  0.00    -0.246 OA
BRANCH   3   5
ATOM      5  C   UNL A   1      31.895  26.901  22.816  1.00  0.00     0.123 A 
ATOM      6  C   UNL A   1      34.127  24.049  22.810  1.00  0.00     0.176 C 
ATOM      7  N   UNL A   1      33.372  25.276  22.693  1.00  0.00    -0.251 N 
ATOM      8  N   UNL A   1      33.829  26.187  21.827  1.00  0.00    -0.179 NA
ATOM      9  C   UNL A   1      32.215  25.661  23.366  1.00  0.00     0.152 A 
ATOM     10  C   UNL A   1      32.918  27.150  21.867  1.00  0.00     0.153 A 
BRANCH   9  11
ATOM     11  N   UNL A   1      31.649  24.846  24.349  1.00  0.00    -0.267 N 
ATOM     12  H   UNL A   1      31.052  24.159  23.973  1.00  0.00     0.181 HD
BRANCH  11  13
ATOM     13  S   UNL A   1      31.747  24.771  25.965  1.00  0.00     0.237 S 
ATOM     14  O   UNL A   1      32.994  25.363  26.400  1.00  0.00    -0.206 OA
ATOM     15  O   UNL A   1      30.503  25.327  26.458  1.00  0.00    -0.206 OA
BRANCH  13  16
ATOM     16  C   UNL A   1      31.757  23.104  26.519  1.00  0.00     0.145 C 
ATOM     17  C   UNL A   1      33.153  22.560  26.798  1.00  0.00     0.039 C 
ATOM     18  C   UNL A   1      31.020  22.169  25.569  1.00  0.00     0.158 C 
ATOM     19  C   UNL A   1      33.669  21.856  25.561  1.00  0.00     0.138 C 
ATOM     20  S   UNL A   1      32.232  21.086  24.857  1.00  0.00     0.151 S 
ATOM     21  O   UNL A   1      32.245  21.276  23.425  1.00  0.00    -0.229 OA
ATOM     22  O   UNL A   1      32.060  19.788  25.474  1.00  0.00    -0.229 OA
ENDBRANCH  13  16
ENDBRANCH  11  13
ENDBRANCH   9  11
ENDBRANCH   3   5
ENDBRANCH   2   3
ENDBRANCH   1   2
BRANCH   1  23
ATOM     23  C   UNL A   1      31.813  29.529  26.096  1.00  0.00     0.275 C 
BRANCH  23  24
ATOM     24  O   UNL A   1      33.142  30.053  26.209  1.00  0.00    -0.458 OA
BRANCH  24  25
ATOM     25  C   UNL A   1      33.263  31.185  26.946  1.00  0.00     0.338 C 
ATOM     26  O   UNL A   1      32.416  32.013  27.205  1.00  0.00    -0.246 OA
BRANCH  25  27
ATOM     27  C   UNL A   1      34.517  31.040  27.684  1.00  0.00     0.060 A 
ATOM     28  C   UNL A   1      34.825  29.759  28.154  1.00  0.00     0.016 A 
ATOM     29  C   UNL A   1      35.393  32.108  27.843  1.00  0.00     0.016 A 
ATOM     30  C   UNL A   1      36.039  29.528  28.781  1.00  0.00     0.010 A 
ATOM     31  C   UNL A   1      36.613  31.874  28.469  1.00  0.00     0.010 A 
ATOM     32  C   UNL A   1      36.939  30.587  28.938  1.00  0.00    -0.014 A 
BRANCH  32  33
ATOM     33  C   UNL A   1      38.216  30.376  29.645  1.00  0.00     0.031 A 
ATOM     34  C   UNL A   1      39.228  29.459  29.031  1.00  0.00     0.074 A 
ATOM     35  C   UNL A   1      38.419  30.956  30.840  1.00  0.00     0.049 A 
ATOM     36  N   UNL A   1      40.315  28.965  29.551  1.00  0.00    -0.248 NA
ATOM     37  C   UNL A   1      38.965  29.023  27.647  1.00  0.00     0.031 C 
ATOM     38  C   UNL A   1      37.489  31.876  31.501  1.00  0.00     0.029 A 
ATOM     39  N   UNL A   1      39.453  30.831  31.728  1.00  0.00    -0.354 N 
ATOM     40  C   UNL A   1      40.833  28.107  28.590  1.00  0.00     0.074 A 
ATOM     41  C   UNL A   1      39.948  28.157  27.449  1.00  0.00     0.031 C 
ATOM     42  C   UNL A   1      37.984  32.212  32.703  1.00  0.00     0.029 A 
ATOM     43  C   UNL A   1      39.231  31.487  32.918  1.00  0.00     0.049 A 
ATOM     44  H   UNL A   1      40.273  30.322  31.536  1.00  0.00     0.167 HD
ATOM     45  C   UNL A   1      41.949  27.345  28.664  1.00  0.00     0.034 A 
ATOM     46  C   UNL A   1      39.937  31.462  34.065  1.00  0.00     0.034 A 
ATOM     47  C   UNL A   1      42.825  27.344  29.803  1.00  0.00     0.049 A 
ATOM     48  C   UNL A   1      41.179  30.616  34.115  1.00  0.00     0.074 A 
ATOM     49  C   UNL A   1      44.005  26.647  29.982  1.00  0.00     0.029 A 
ATOM     50  N   UNL A   1      42.611  28.078  30.961  1.00  0.00    -0.354 N 
ATOM     51  N   UNL A   1      41.697  29.858  33.177  1.00  0.00    -0.248 NA
ATOM     52  C   UNL A   1      41.944  30.632  35.368  1.00  0.00     0.031 C 
ATOM     53  C   UNL A   1      44.495  26.949  31.258  1.00  0.00     0.029 A 
ATOM     54  C   UNL A   1      43.635  27.854  31.861  1.00  0.00     0.049 A 
ATOM     55  H   UNL A   1      41.843  28.674  31.117  1.00  0.00     0.167 HD
ATOM     56  C   UNL A   1      42.862  29.327  33.715  1.00  0.00     0.074 A 
ATOM     57  C   UNL A   1      42.985  29.872  35.054  1.00  0.00     0.031 C 
ATOM     58  C   UNL A   1      43.743  28.454  33.167  1.00  0.00     0.034 A 
BRANCH  45  59
ATOM     59  C   UNL A   1      42.274  26.467  27.487  1.00  0.00     0.023 A 
ATOM     60  C   UNL A   1      42.939  27.007  26.367  1.00  0.00     0.012 A 
ATOM     61  C   UNL A   1      41.942  25.098  27.498  1.00  0.00     0.148 A 
ATOM     62  C   UNL A   1      43.234  26.209  25.262  1.00  0.00     0.002 A 
ATOM     63  C   UNL A   1      42.278  24.299  26.411  1.00  0.00     0.091 A 
ATOM     64  F   UNL A   1      41.286  24.608  28.559  1.00  0.00    -0.205 F 
ATOM     65  C   UNL A   1      42.914  24.855  25.289  1.00  0.00     0.022 A 
BRANCH  63  66
ATOM     66  S   UNL A   1      41.965  22.531  26.372  1.00  0.00     0.127 S 
ATOM     67  O   UNL A   1      40.507  22.495  26.267  1.00  0.00    -0.237 OA
ATOM     68  O   UNL A   1      42.675  22.121  25.160  1.00  0.00    -0.237 OA
ATOM     69  O   UNL A   1      42.514  21.998  27.611  1.00  0.00    -0.744 OA
ENDBRANCH  63  66
ENDBRANCH  45  59
BRANCH  46  70
ATOM     70  C   UNL A   1      39.490  32.269  35.237  1.00  0.00     0.023 A 
ATOM     71  C   UNL A   1      39.722  33.657  35.251  1.00  0.00     0.012 A 
ATOM     72  C   UNL A   1      38.795  31.681  36.312  1.00  0.00     0.148 A 
ATOM     73  C   UNL A   1      39.293  34.441  36.325  1.00  0.00     0.002 A 
ATOM     74  C   UNL A   1      38.316  32.476  37.348  1.00  0.00     0.091 A 
ATOM     75  F   UNL A   1      38.598  30.355  36.293  1.00  0.00    -0.205 F 
ATOM     76  C   UNL A   1      38.580  33.853  37.365  1.00  0.00     0.022 A 
BRANCH  74  77
ATOM     77  S   UNL A   1      37.254  31.823  38.643  1.00  0.00     0.127 S 
ATOM     78  O   UNL A   1      37.072  30.440  38.214  1.00  0.00    -0.237 OA
ATOM     79  O   UNL A   1      38.087  31.998  39.834  1.00  0.00    -0.237 OA
ATOM     80  O   UNL A   1      36.061  32.661  38.625  1.00  0.00    -0.744 OA
ENDBRANCH  74  77
ENDBRANCH  46  70
BRANCH  58  81
ATOM     81  C   UNL A   1      44.934  28.068  34.000  1.00  0.00     0.023 A 
ATOM     82  C   UNL A   1      46.097  28.860  33.969  1.00  0.00     0.012 A 
ATOM     83  C   UNL A   1      44.865  26.963  34.870  1.00  0.00     0.148 A 
ATOM     84  C   UNL A   1      47.190  28.541  34.774  1.00  0.00     0.002 A 
ATOM     85  C   UNL A   1      45.937  26.682  35.706  1.00  0.00     0.091 A 
ATOM     86  F   UNL A   1      43.754  26.214  34.864  1.00  0.00    -0.205 F 
ATOM     87  C   UNL A   1      47.105  27.461  35.650  1.00  0.00     0.022 A 
BRANCH  85  88
ATOM     88  S   UNL A   1      45.874  25.373  36.934  1.00  0.00     0.127 S 
ATOM     89  O   UNL A   1      45.763  24.183  36.094  1.00  0.00    -0.237 OA
ATOM     90  O   UNL A   1      47.159  25.526  37.615  1.00  0.00    -0.237 OA
ATOM     91  O   UNL A   1      44.713  25.662  37.766  1.00  0.00    -0.744 OA
ENDBRANCH  85  88
ENDBRANCH  58  81
ENDBRANCH  32  33
ENDBRANCH  25  27
ENDBRANCH  24  25
ENDBRANCH  23  24
ENDBRANCH   1  23
TORSDOF 17
ENDMDL
MODEL 3
REMARK VINA RESULT:     -11.6      5.170      9.965
REMARK SMILES Cn1ncc(C(=O)OCCOC(=O)c2ccc(-c3c4nc(c(-c5cccc(S(=O)(=O)[O-])c5F)c5ccc([nH]5)c(-c5cccc(S(=O)(=O)[O-])c5F)c5nc(c(-c6cccc(S(=O)(=O)[O-])c6F)c6ccc3[nH]6)C=C5)C=C4)cc2)c1NS(=O)(=O)[C@@H]1CCS(=O)(=O)C1
REMARK SMILES IDX 9 1 8 2 6 3 7 4 5 5 1 6 2 7 3 8 77 9 4 10 78 11 79 13 80 14
REMARK SMILES IDX 81 15 82 16 83 17 88 18 84 19 85 20 86 21 87 22 10 23 11 24
REMARK SMILES IDX 12 25 13 26 14 27 15 28 76 29 16 30 75 31 17 32 18 33 19 34
REMARK SMILES IDX 69 35 20 36 74 37 68 38 70 39 21 40 73 41 67 42 66 43 22 45
REMARK SMILES IDX 54 46 34 47 53 48 35 49 38 50 52 51 71 52 36 53 37 54 51 56
REMARK SMILES IDX 72 57 39 58 23 59 24 60 32 61 25 62 27 63 33 64 26 65 28 66
REMARK SMILES IDX 29 67 30 68 31 69 55 70 56 71 64 72 57 73 59 74 65 75 58 76
REMARK SMILES IDX 60 77 61 78 62 79 63 80 40 81 41 82 49 83 42 84 44 85 50 86
REMARK SMILES IDX 43 87 45 88 46 89 47 90 48 91
REMARK H PARENT 78 12 70 44 38 55
REMARK Flexibility Score: inf
ROOT
ATOM      1  C   UNL A   1      32.087  28.548  24.722  1.00  0.00     0.275 C 
ENDROOT
BRANCH   1   2
ATOM      2  O   UNL A   1      30.794  28.119  24.223  1.00  0.00    -0.458 OA
BRANCH   2   3
ATOM      3  C   UNL A   1      30.762  26.886  23.640  1.00  0.00     0.343 C 
ATOM      4  O   UNL A   1      30.728  26.689  22.436  1.00  0.00    -0.246 OA
BRANCH   3   5
ATOM      5  C   UNL A   1      30.749  25.820  24.610  1.00  0.00     0.123 A 
ATOM      6  C   UNL A   1      31.456  22.887  26.615  1.00  0.00     0.176 C 
ATOM      7  N   UNL A   1      31.020  24.090  25.940  1.00  0.00    -0.251 N 
ATOM      8  N   UNL A   1      30.046  24.793  26.529  1.00  0.00    -0.179 NA
ATOM      9  C   UNL A   1      31.471  24.635  24.742  1.00  0.00     0.152 A 
ATOM     10  C   UNL A   1      29.910  25.860  25.752  1.00  0.00     0.153 A 
BRANCH   9  11
ATOM     11  N   UNL A   1      32.441  23.985  23.975  1.00  0.00    -0.267 N 
ATOM     12  H   UNL A   1      32.160  23.083  23.695  1.00  0.00     0.181 HD
BRANCH  11  13
ATOM     13  S   UNL A   1      33.921  24.373  23.439  1.00  0.00     0.237 S 
ATOM     14  O   UNL A   1      33.832  24.837  22.072  1.00  0.00    -0.206 OA
ATOM     15  O   UNL A   1      34.480  25.258  24.441  1.00  0.00    -0.206 OA
BRANCH  13  16
ATOM     16  C   UNL A   1      34.975  22.967  23.429  1.00  0.00     0.145 C 
ATOM     17  C   UNL A   1      34.526  21.859  24.373  1.00  0.00     0.039 C 
ATOM     18  C   UNL A   1      36.429  23.325  23.709  1.00  0.00     0.158 C 
ATOM     19  C   UNL A   1      35.228  22.025  25.704  1.00  0.00     0.138 C 
ATOM     20  S   UNL A   1      36.848  22.616  25.281  1.00  0.00     0.151 S 
ATOM     21  O   UNL A   1      37.219  23.676  26.189  1.00  0.00    -0.229 OA
ATOM     22  O   UNL A   1      37.698  21.474  25.021  1.00  0.00    -0.229 OA
ENDBRANCH  13  16
ENDBRANCH  11  13
ENDBRANCH   9  11
ENDBRANCH   3   5
ENDBRANCH   2   3
ENDBRANCH   1   2
BRANCH   1  23
ATOM     23  C   UNL A   1      31.981  29.915  25.417  1.00  0.00     0.275 C 
BRANCH  23  24
ATOM     24  O   UNL A   1      32.924  29.976  26.493  1.00  0.00    -0.458 OA
BRANCH  24  25
ATOM     25  C   UNL A   1      33.218  31.222  26.943  1.00  0.00     0.338 C 
ATOM     26  O   UNL A   1      32.495  32.193  27.005  1.00  0.00    -0.246 OA
BRANCH  25  27
ATOM     27  C   UNL A   1      34.470  31.085  27.688  1.00  0.00     0.060 A 
ATOM     28  C   UNL A   1      34.797  29.801  28.135  1.00  0.00     0.016 A 
ATOM     29  C   UNL A   1      35.326  32.164  27.872  1.00  0.00     0.016 A 
ATOM     30  C   UNL A   1      36.010  29.578  28.766  1.00  0.00     0.010 A 
ATOM     31  C   UNL A   1      36.545  31.940  28.503  1.00  0.00     0.010 A 
ATOM     32  C   UNL A   1      36.890  30.649  28.949  1.00  0.00    -0.014 A 
BRANCH  32  33
ATOM     33  C   UNL A   1      38.166  30.447  29.661  1.00  0.00     0.031 A 
ATOM     34  C   UNL A   1      39.190  29.544  29.048  1.00  0.00     0.074 A 
ATOM     35  C   UNL A   1      38.357  31.024  30.861  1.00  0.00     0.049 A 
ATOM     36  N   UNL A   1      40.279  29.058  29.571  1.00  0.00    -0.248 NA
ATOM     37  C   UNL A   1      38.938  29.112  27.661  1.00  0.00     0.031 C 
ATOM     38  C   UNL A   1      37.416  31.931  31.521  1.00  0.00     0.029 A 
ATOM     39  N   UNL A   1      39.389  30.905  31.753  1.00  0.00    -0.354 N 
ATOM     40  C   UNL A   1      40.810  28.209  28.609  1.00  0.00     0.074 A 
ATOM     41  C   UNL A   1      39.930  28.256  27.463  1.00  0.00     0.031 C 
ATOM     42  C   UNL A   1      37.902  32.266  32.727  1.00  0.00     0.029 A 
ATOM     43  C   UNL A   1      39.155  31.553  32.945  1.00  0.00     0.049 A 
ATOM     44  H   UNL A   1      40.214  30.404  31.562  1.00  0.00     0.167 HD
ATOM     45  C   UNL A   1      41.932  27.458  28.684  1.00  0.00     0.034 A 
ATOM     46  C   UNL A   1      39.855  31.529  34.096  1.00  0.00     0.034 A 
ATOM     47  C   UNL A   1      42.804  27.459  29.827  1.00  0.00     0.049 A 
ATOM     48  C   UNL A   1      41.106  30.694  34.147  1.00  0.00     0.074 A 
ATOM     49  C   UNL A   1      43.989  26.773  30.009  1.00  0.00     0.029 A 
ATOM     50  N   UNL A   1      42.577  28.186  30.988  1.00  0.00    -0.354 N 
ATOM     51  N   UNL A   1      41.635  29.946  33.208  1.00  0.00    -0.248 NA
ATOM     52  C   UNL A   1      41.865  30.712  35.403  1.00  0.00     0.031 C 
ATOM     53  C   UNL A   1      44.470  27.073  31.288  1.00  0.00     0.029 A 
ATOM     54  C   UNL A   1      43.598  27.967  31.891  1.00  0.00     0.049 A 
ATOM     55  H   UNL A   1      41.802  28.773  31.143  1.00  0.00     0.167 HD
ATOM     56  C   UNL A   1      42.803  29.423  33.749  1.00  0.00     0.074 A 
ATOM     57  C   UNL A   1      42.914  29.963  35.091  1.00  0.00     0.031 C 
ATOM     58  C   UNL A   1      43.695  28.562  33.201  1.00  0.00     0.034 A 
BRANCH  45  59
ATOM     59  C   UNL A   1      42.272  26.588  27.504  1.00  0.00     0.023 A 
ATOM     60  C   UNL A   1      42.953  27.136  26.398  1.00  0.00     0.012 A 
ATOM     61  C   UNL A   1      41.936  25.219  27.499  1.00  0.00     0.148 A 
ATOM     62  C   UNL A   1      43.261  26.346  25.291  1.00  0.00     0.002 A 
ATOM     63  C   UNL A   1      42.286  24.429  26.411  1.00  0.00     0.091 A 
ATOM     64  F   UNL A   1      41.266  24.722  28.548  1.00  0.00    -0.205 F 
ATOM     65  C   UNL A   1      42.937  24.992  25.302  1.00  0.00     0.022 A 
BRANCH  63  66
ATOM     66  S   UNL A   1      41.970  22.662  26.354  1.00  0.00     0.127 S 
ATOM     67  O   UNL A   1      42.638  22.206  27.572  1.00  0.00    -0.237 OA
ATOM     68  O   UNL A   1      40.508  22.612  26.405  1.00  0.00    -0.237 OA
ATOM     69  O   UNL A   1      42.554  22.188  25.107  1.00  0.00    -0.744 OA
ENDBRANCH  63  66
ENDBRANCH  45  59
BRANCH  46  70
ATOM     70  C   UNL A   1      39.395  32.326  35.269  1.00  0.00     0.023 A 
ATOM     71  C   UNL A   1      38.552  31.729  36.225  1.00  0.00     0.012 A 
ATOM     72  C   UNL A   1      39.825  33.653  35.469  1.00  0.00     0.148 A 
ATOM     73  C   UNL A   1      38.126  32.445  37.345  1.00  0.00     0.002 A 
ATOM     74  C   UNL A   1      39.448  34.340  36.618  1.00  0.00     0.091 A 
ATOM     75  F   UNL A   1      40.613  34.213  34.540  1.00  0.00    -0.205 F 
ATOM     76  C   UNL A   1      38.583  33.744  37.548  1.00  0.00     0.022 A 
BRANCH  74  77
ATOM     77  S   UNL A   1      40.119  35.955  37.032  1.00  0.00     0.127 S 
ATOM     78  O   UNL A   1      41.542  35.661  37.172  1.00  0.00    -0.237 OA
ATOM     79  O   UNL A   1      39.762  36.743  35.851  1.00  0.00    -0.237 OA
ATOM     80  O   UNL A   1      39.427  36.361  38.248  1.00  0.00    -0.744 OA
ENDBRANCH  74  77
ENDBRANCH  46  70
BRANCH  58  81
ATOM     81  C   UNL A   1      44.885  28.183  34.038  1.00  0.00     0.023 A 
ATOM     82  C   UNL A   1      46.046  28.979  34.006  1.00  0.00     0.012 A 
ATOM     83  C   UNL A   1      44.819  27.081  34.912  1.00  0.00     0.148 A 
ATOM     84  C   UNL A   1      47.138  28.667  34.814  1.00  0.00     0.002 A 
ATOM     85  C   UNL A   1      45.890  26.807  35.751  1.00  0.00     0.091 A 
ATOM     86  F   UNL A   1      43.710  26.328  34.907  1.00  0.00    -0.205 F 
ATOM     87  C   UNL A   1      47.055  27.589  35.694  1.00  0.00     0.022 A 
BRANCH  85  88
ATOM     88  S   UNL A   1      45.829  25.503  36.984  1.00  0.00     0.127 S 
ATOM     89  O   UNL A   1      44.673  25.904  37.783  1.00  0.00    -0.237 OA
ATOM     90  O   UNL A   1      45.621  24.310  36.162  1.00  0.00    -0.237 OA
ATOM     91  O   UNL A   1      47.112  25.544  37.674  1.00  0.00    -0.744 OA
ENDBRANCH  85  88
ENDBRANCH  58  81
ENDBRANCH  32  33
ENDBRANCH  25  27
ENDBRANCH  24  25
ENDBRANCH  23  24
ENDBRANCH   1  23
TORSDOF 17
ENDMDL
