MODEL 1
REMARK VINA RESULT:     -12.3      0.000      0.000
REMARK SMILES O=C(OCCOC(=O)[C@H]1CS[C@@H](c2cccc(OCc3ccc(Cl)cc3Cl)c2)[NH2+]1)c1ccc(-c2c3nc(c(-c4cccc(S(=O)(=O)[O-])c4F)c4ccc([nH]4)c(-c4cccc(S(=O)(=O)[O-])c4F)c4nc(c(-c5cccc(S(=O)(=O)[O-])c5F)c5ccc2[nH]5)C=C4)C=C3)cc1
REMARK SMILES IDX 5 1 4 2 3 3 2 4 1 5 30 6 31 7 92 8 32 9 91 10 33 11 34 12
REMARK SMILES IDX 35 13 85 14 36 15 90 16 84 17 86 18 37 19 89 20 83 21 82 22
REMARK SMILES IDX 38 24 70 25 50 26 69 27 51 28 54 29 68 30 87 31 52 32 53 33
REMARK SMILES IDX 67 35 88 36 55 37 39 38 40 39 48 40 41 41 43 42 49 43 42 44
REMARK SMILES IDX 44 45 45 46 46 47 47 48 71 49 72 50 80 51 73 52 75 53 81 54
REMARK SMILES IDX 74 55 76 56 77 57 78 58 79 59 56 60 57 61 65 62 58 63 60 64
REMARK SMILES IDX 66 65 59 66 61 67 62 68 63 69 64 70 6 71 7 72 8 73 9 74
REMARK SMILES IDX 10 75 29 76 11 77 12 78 13 81 14 82 28 83 15 84 17 85 16 86
REMARK SMILES IDX 18 87 19 88 20 89 21 90 26 91 22 92 25 93 27 94 23 95 24 96
REMARK H PARENT 86 23 54 34 29 79 29 80
REMARK Flexibility Score: inf
ROOT
ATOM      1  C   UNL A   1      34.298  34.663  31.060  1.00  0.00     0.274 C 
ENDROOT
BRANCH   1   2
ATOM      2  C   UNL A   1      34.275  34.162  32.507  1.00  0.00     0.275 C 
BRANCH   2   3
ATOM      3  O   UNL A   1      35.555  34.120  33.158  1.00  0.00    -0.458 OA
BRANCH   3   4
ATOM      4  C   UNL A   1      36.293  33.064  33.571  1.00  0.00     0.338 C 
ATOM      5  O   UNL A   1      36.232  32.762  34.763  1.00  0.00    -0.246 OA
BRANCH   4   6
ATOM      6  C   UNL A   1      37.262  32.305  32.703  1.00  0.00     0.060 A 
ATOM      7  C   UNL A   1      37.279  32.241  31.309  1.00  0.00     0.016 A 
ATOM      8  C   UNL A   1      38.278  31.608  33.376  1.00  0.00     0.016 A 
ATOM      9  C   UNL A   1      38.321  31.595  30.609  1.00  0.00     0.010 A 
ATOM     10  C   UNL A   1      39.335  30.999  32.679  1.00  0.00     0.010 A 
ATOM     11  C   UNL A   1      39.398  31.004  31.277  1.00  0.00    -0.014 A 
BRANCH  11  12
ATOM     12  C   UNL A   1      40.573  30.416  30.528  1.00  0.00     0.031 A 
ATOM     13  C   UNL A   1      41.695  31.281  30.084  1.00  0.00     0.074 A 
ATOM     14  C   UNL A   1      40.600  29.132  30.095  1.00  0.00     0.049 A 
ATOM     15  N   UNL A   1      42.688  30.956  29.303  1.00  0.00    -0.248 NA
ATOM     16  C   UNL A   1      41.692  32.682  30.530  1.00  0.00     0.031 C 
ATOM     17  C   UNL A   1      39.462  28.274  30.282  1.00  0.00     0.029 A 
ATOM     18  N   UNL A   1      41.463  28.366  29.295  1.00  0.00    -0.354 N 
ATOM     19  C   UNL A   1      43.448  32.098  29.192  1.00  0.00     0.074 A 
ATOM     20  C   UNL A   1      42.722  33.162  29.855  1.00  0.00     0.031 C 
ATOM     21  C   UNL A   1      39.654  27.191  29.528  1.00  0.00     0.029 A 
ATOM     22  C   UNL A   1      40.901  27.175  28.813  1.00  0.00     0.049 A 
ATOM     23  H   UNL A   1      42.386  28.643  29.091  1.00  0.00     0.167 HD
ATOM     24  C   UNL A   1      44.690  32.222  28.683  1.00  0.00     0.034 A 
ATOM     25  C   UNL A   1      41.272  26.255  27.859  1.00  0.00     0.034 A 
ATOM     26  C   UNL A   1      45.416  31.185  28.012  1.00  0.00     0.049 A 
ATOM     27  C   UNL A   1      42.612  26.470  27.248  1.00  0.00     0.074 A 
ATOM     28  C   UNL A   1      46.724  31.207  27.564  1.00  0.00     0.029 A 
ATOM     29  N   UNL A   1      44.889  29.958  27.648  1.00  0.00    -0.354 N 
ATOM     30  N   UNL A   1      43.373  27.527  27.304  1.00  0.00    -0.248 NA
ATOM     31  C   UNL A   1      43.181  25.328  26.516  1.00  0.00     0.031 C 
ATOM     32  C   UNL A   1      46.980  30.006  26.897  1.00  0.00     0.029 A 
ATOM     33  C   UNL A   1      45.847  29.220  26.974  1.00  0.00     0.049 A 
ATOM     34  H   UNL A   1      43.971  29.656  27.840  1.00  0.00     0.167 HD
ATOM     35  C   UNL A   1      44.536  27.159  26.660  1.00  0.00     0.074 A 
ATOM     36  C   UNL A   1      44.377  25.793  26.212  1.00  0.00     0.031 C 
ATOM     37  C   UNL A   1      45.658  27.886  26.487  1.00  0.00     0.034 A 
BRANCH  24  38
ATOM     38  C   UNL A   1      45.344  33.540  28.932  1.00  0.00     0.023 A 
ATOM     39  C   UNL A   1      46.007  33.759  30.159  1.00  0.00     0.012 A 
ATOM     40  C   UNL A   1      45.254  34.568  27.984  1.00  0.00     0.148 A 
ATOM     41  C   UNL A   1      46.515  35.015  30.468  1.00  0.00     0.002 A 
ATOM     42  C   UNL A   1      45.817  35.798  28.275  1.00  0.00     0.091 A 
ATOM     43  F   UNL A   1      44.592  34.330  26.843  1.00  0.00    -0.205 F 
ATOM     44  C   UNL A   1      46.425  36.032  29.523  1.00  0.00     0.022 A 
BRANCH  42  45
ATOM     45  S   UNL A   1      45.824  37.142  27.092  1.00  0.00     0.127 S 
ATOM     46  O   UNL A   1      46.514  36.524  25.953  1.00  0.00    -0.237 OA
ATOM     47  O   UNL A   1      44.387  37.358  26.886  1.00  0.00    -0.237 OA
ATOM     48  O   UNL A   1      46.528  38.237  27.720  1.00  0.00    -0.744 OA
ENDBRANCH  42  45
ENDBRANCH  24  38
BRANCH  25  49
ATOM     49  C   UNL A   1      40.578  24.964  27.386  1.00  0.00     0.023 A 
ATOM     50  C   UNL A   1      39.325  25.076  26.735  1.00  0.00     0.012 A 
ATOM     51  C   UNL A   1      41.014  23.635  27.683  1.00  0.00     0.148 A 
ATOM     52  C   UNL A   1      38.628  23.944  26.269  1.00  0.00     0.002 A 
ATOM     53  C   UNL A   1      40.371  22.513  27.121  1.00  0.00     0.091 A 
ATOM     54  F   UNL A   1      42.050  23.465  28.517  1.00  0.00    -0.205 F 
ATOM     55  C   UNL A   1      39.178  22.674  26.408  1.00  0.00     0.022 A 
BRANCH  53  56
ATOM     56  S   UNL A   1      41.112  20.847  27.026  1.00  0.00     0.127 S 
ATOM     57  O   UNL A   1      40.993  20.366  28.398  1.00  0.00    -0.237 OA
ATOM     58  O   UNL A   1      40.222  20.189  26.064  1.00  0.00    -0.237 OA
ATOM     59  O   UNL A   1      42.472  21.036  26.539  1.00  0.00    -0.744 OA
ENDBRANCH  53  56
ENDBRANCH  25  49
BRANCH  37  60
ATOM     60  C   UNL A   1      46.789  27.167  25.831  1.00  0.00     0.023 A 
ATOM     61  C   UNL A   1      47.581  26.261  26.562  1.00  0.00     0.012 A 
ATOM     62  C   UNL A   1      47.115  27.475  24.499  1.00  0.00     0.148 A 
ATOM     63  C   UNL A   1      48.717  25.702  25.982  1.00  0.00     0.002 A 
ATOM     64  C   UNL A   1      48.209  26.868  23.910  1.00  0.00     0.091 A 
ATOM     65  F   UNL A   1      46.373  28.388  23.855  1.00  0.00    -0.205 F 
ATOM     66  C   UNL A   1      49.023  25.997  24.654  1.00  0.00     0.022 A 
BRANCH  64  67
ATOM     67  S   UNL A   1      48.629  27.132  22.190  1.00  0.00     0.127 S 
ATOM     68  O   UNL A   1      49.919  27.812  22.296  1.00  0.00    -0.237 OA
ATOM     69  O   UNL A   1      48.697  25.761  21.683  1.00  0.00    -0.237 OA
ATOM     70  O   UNL A   1      47.551  27.934  21.627  1.00  0.00    -0.744 OA
ENDBRANCH  64  67
ENDBRANCH  37  60
ENDBRANCH  11  12
ENDBRANCH   4   6
ENDBRANCH   3   4
ENDBRANCH   2   3
ENDBRANCH   1   2
BRANCH   1  71
ATOM     71  O   UNL A   1      34.613  33.638  30.104  1.00  0.00    -0.458 OA
BRANCH  71  72
ATOM     72  C   UNL A   1      33.861  33.666  28.966  1.00  0.00     0.365 C 
ATOM     73  O   UNL A   1      32.995  34.507  28.740  1.00  0.00    -0.245 OA
BRANCH  72  74
ATOM     74  C   UNL A   1      34.191  32.567  27.964  1.00  0.00     0.304 C 
ATOM     75  C   UNL A   1      35.672  32.167  28.063  1.00  0.00     0.153 C 
ATOM     76  N   UNL A   1      33.361  31.355  28.068  1.00  0.00    -0.319 N 
ATOM     77  S   UNL A   1      35.721  30.346  27.906  1.00  0.00    -0.087 SA
ATOM     78  C   UNL A   1      34.076  30.347  27.263  1.00  0.00     0.274 C 
ATOM     79  H   UNL A   1      32.429  31.524  27.690  1.00  0.00     0.348 HD
ATOM     80  H   UNL A   1      33.229  31.057  29.035  1.00  0.00     0.348 HD
BRANCH  78  81
ATOM     81  C   UNL A   1      33.230  29.128  27.115  1.00  0.00     0.024 A 
ATOM     82  C   UNL A   1      31.868  28.942  27.326  1.00  0.00     0.011 A 
ATOM     83  C   UNL A   1      33.994  28.067  26.596  1.00  0.00     0.057 A 
ATOM     84  C   UNL A   1      31.295  27.715  26.968  1.00  0.00     0.004 A 
ATOM     85  C   UNL A   1      33.460  26.879  26.183  1.00  0.00     0.120 A 
ATOM     86  C   UNL A   1      32.087  26.691  26.397  1.00  0.00     0.046 A 
BRANCH  85  87
ATOM     87  O   UNL A   1      34.216  26.008  25.444  1.00  0.00    -0.489 OA
BRANCH  87  88
ATOM     88  C   UNL A   1      33.607  24.919  24.671  1.00  0.00     0.267 C 
BRANCH  88  89
ATOM     89  C   UNL A   1      34.388  23.596  24.463  1.00  0.00     0.008 A 
ATOM     90  C   UNL A   1      35.606  23.535  23.752  1.00  0.00     0.010 A 
ATOM     91  C   UNL A   1      33.953  22.371  24.956  1.00  0.00     0.049 A 
ATOM     92  C   UNL A   1      36.519  22.479  23.857  1.00  0.00     0.021 A 
ATOM     93  C   UNL A   1      34.810  21.253  24.978  1.00  0.00     0.041 A 
ATOM     94  Cl  UNL A   1      32.345  22.141  25.533  1.00  0.00    -0.084 Cl
ATOM     95  C   UNL A   1      36.119  21.341  24.513  1.00  0.00     0.042 A 
ATOM     96  Cl  UNL A   1      37.231  20.056  24.766  1.00  0.00    -0.084 Cl
ENDBRANCH  88  89
ENDBRANCH  87  88
ENDBRANCH  85  87
ENDBRANCH  78  81
ENDBRANCH  72  74
ENDBRANCH  71  72
ENDBRANCH   1  71
TORSDOF 18
ENDMDL
MODEL 2
REMARK VINA RESULT:     -12.3      4.946      7.510
REMARK SMILES O=C(OCCOC(=O)[C@H]1CS[C@@H](c2cccc(OCc3ccc(Cl)cc3Cl)c2)[NH2+]1)c1ccc(-c2c3nc(c(-c4cccc(S(=O)(=O)[O-])c4F)c4ccc([nH]4)c(-c4cccc(S(=O)(=O)[O-])c4F)c4nc(c(-c5cccc(S(=O)(=O)[O-])c5F)c5ccc2[nH]5)C=C4)C=C3)cc1
REMARK SMILES IDX 5 1 4 2 3 3 2 4 1 5 30 6 31 7 92 8 32 9 91 10 33 11 34 12
REMARK SMILES IDX 35 13 85 14 36 15 90 16 84 17 86 18 37 19 89 20 83 21 82 22
REMARK SMILES IDX 38 24 70 25 50 26 69 27 51 28 54 29 68 30 87 31 52 32 53 33
REMARK SMILES IDX 67 35 88 36 55 37 39 38 40 39 48 40 41 41 43 42 49 43 42 44
REMARK SMILES IDX 44 45 45 46 46 47 47 48 71 49 72 50 80 51 73 52 75 53 81 54
REMARK SMILES IDX 74 55 76 56 77 57 78 58 79 59 56 60 57 61 65 62 58 63 60 64
REMARK SMILES IDX 66 65 59 66 61 67 62 68 63 69 64 70 6 71 7 72 8 73 9 74
REMARK SMILES IDX 10 75 29 76 11 77 12 78 13 81 14 82 28 83 15 84 17 85 16 86
REMARK SMILES IDX 18 87 19 88 20 89 21 90 26 91 22 92 25 93 27 94 23 95 24 96
REMARK H PARENT 86 23 54 34 29 79 29 80
REMARK Flexibility Score: inf
ROOT
ATOM      1  C   UNL A   1      31.427  31.273  25.999  1.00  0.00     0.274 C 
ENDROOT
BRANCH   1   2
ATOM      2  C   UNL A   1      31.242  32.344  27.079  1.00  0.00     0.275 C 
BRANCH   2   3
ATOM      3  O   UNL A   1      32.166  33.442  27.012  1.00  0.00    -0.458 OA
BRANCH   3   4
ATOM      4  C   UNL A   1      33.047  33.903  27.929  1.00  0.00     0.338 C 
ATOM      5  O   UNL A   1      32.859  35.033  28.379  1.00  0.00    -0.246 OA
BRANCH   4   6
ATOM      6  C   UNL A   1      34.297  33.177  28.354  1.00  0.00     0.060 A 
ATOM      7  C   UNL A   1      35.607  33.658  28.321  1.00  0.00     0.016 A 
ATOM      8  C   UNL A   1      34.116  31.884  28.868  1.00  0.00     0.016 A 
ATOM      9  C   UNL A   1      36.680  32.923  28.869  1.00  0.00     0.010 A 
ATOM     10  C   UNL A   1      35.178  31.170  29.447  1.00  0.00     0.010 A 
ATOM     11  C   UNL A   1      36.482  31.685  29.489  1.00  0.00    -0.014 A 
BRANCH  11  12
ATOM     12  C   UNL A   1      37.610  30.952  30.180  1.00  0.00     0.031 A 
ATOM     13  C   UNL A   1      38.125  31.422  31.490  1.00  0.00     0.074 A 
ATOM     14  C   UNL A   1      38.300  29.944  29.592  1.00  0.00     0.049 A 
ATOM     15  N   UNL A   1      39.181  30.997  32.127  1.00  0.00    -0.248 NA
ATOM     16  C   UNL A   1      37.404  32.520  32.151  1.00  0.00     0.031 C 
ATOM     17  C   UNL A   1      38.021  29.562  28.235  1.00  0.00     0.029 A 
ATOM     18  N   UNL A   1      39.435  29.187  29.922  1.00  0.00    -0.354 N 
ATOM     19  C   UNL A   1      39.233  31.747  33.280  1.00  0.00     0.074 A 
ATOM     20  C   UNL A   1      38.198  32.755  33.182  1.00  0.00     0.031 C 
ATOM     21  C   UNL A   1      39.012  28.766  27.835  1.00  0.00     0.029 A 
ATOM     22  C   UNL A   1      40.004  28.496  28.842  1.00  0.00     0.049 A 
ATOM     23  H   UNL A   1      39.800  29.144  30.836  1.00  0.00     0.167 HD
ATOM     24  C   UNL A   1      39.998  31.541  34.370  1.00  0.00     0.034 A 
ATOM     25  C   UNL A   1      41.194  27.835  28.644  1.00  0.00     0.034 A 
ATOM     26  C   UNL A   1      41.036  30.559  34.479  1.00  0.00     0.049 A 
ATOM     27  C   UNL A   1      42.061  27.702  29.846  1.00  0.00     0.074 A 
ATOM     28  C   UNL A   1      41.782  30.221  35.593  1.00  0.00     0.029 A 
ATOM     29  N   UNL A   1      41.509  29.789  33.431  1.00  0.00    -0.354 N 
ATOM     30  N   UNL A   1      41.973  28.327  30.987  1.00  0.00    -0.248 NA
ATOM     31  C   UNL A   1      43.139  26.704  29.761  1.00  0.00     0.031 C 
ATOM     32  C   UNL A   1      42.733  29.269  35.212  1.00  0.00     0.029 A 
ATOM     33  C   UNL A   1      42.544  28.982  33.874  1.00  0.00     0.049 A 
ATOM     34  H   UNL A   1      41.163  29.811  32.509  1.00  0.00     0.167 HD
ATOM     35  C   UNL A   1      42.952  27.760  31.776  1.00  0.00     0.074 A 
ATOM     36  C   UNL A   1      43.627  26.754  30.985  1.00  0.00     0.031 C 
ATOM     37  C   UNL A   1      43.241  28.028  33.065  1.00  0.00     0.034 A 
BRANCH  24  38
ATOM     38  C   UNL A   1      39.647  32.378  35.555  1.00  0.00     0.023 A 
ATOM     39  C   UNL A   1      40.373  33.564  35.800  1.00  0.00     0.012 A 
ATOM     40  C   UNL A   1      38.648  31.964  36.445  1.00  0.00     0.148 A 
ATOM     41  C   UNL A   1      40.153  34.295  36.962  1.00  0.00     0.002 A 
ATOM     42  C   UNL A   1      38.392  32.732  37.568  1.00  0.00     0.091 A 
ATOM     43  F   UNL A   1      38.000  30.819  36.192  1.00  0.00    -0.205 F 
ATOM     44  C   UNL A   1      39.157  33.881  37.841  1.00  0.00     0.022 A 
BRANCH  42  45
ATOM     45  S   UNL A   1      37.079  32.327  38.715  1.00  0.00     0.127 S 
ATOM     46  O   UNL A   1      35.926  32.975  38.078  1.00  0.00    -0.237 OA
ATOM     47  O   UNL A   1      37.068  30.861  38.643  1.00  0.00    -0.237 OA
ATOM     48  O   UNL A   1      37.466  32.879  39.994  1.00  0.00    -0.744 OA
ENDBRANCH  42  45
ENDBRANCH  24  38
BRANCH  25  49
ATOM     49  C   UNL A   1      41.742  27.103  27.404  1.00  0.00     0.023 A 
ATOM     50  C   UNL A   1      42.218  27.882  26.321  1.00  0.00     0.012 A 
ATOM     51  C   UNL A   1      41.672  25.692  27.179  1.00  0.00     0.148 A 
ATOM     52  C   UNL A   1      42.739  27.290  25.155  1.00  0.00     0.002 A 
ATOM     53  C   UNL A   1      42.293  25.101  26.059  1.00  0.00     0.091 A 
ATOM     54  F   UNL A   1      40.998  24.930  28.051  1.00  0.00    -0.205 F 
ATOM     55  C   UNL A   1      42.831  25.907  25.050  1.00  0.00     0.022 A 
BRANCH  53  56
ATOM     56  S   UNL A   1      42.690  23.324  25.927  1.00  0.00     0.127 S 
ATOM     57  O   UNL A   1      43.565  23.106  27.074  1.00  0.00    -0.237 OA
ATOM     58  O   UNL A   1      41.359  22.721  26.046  1.00  0.00    -0.237 OA
ATOM     59  O   UNL A   1      43.306  23.143  24.619  1.00  0.00    -0.744 OA
ENDBRANCH  53  56
ENDBRANCH  25  49
BRANCH  37  60
ATOM     60  C   UNL A   1      44.298  27.168  33.673  1.00  0.00     0.023 A 
ATOM     61  C   UNL A   1      45.661  27.465  33.482  1.00  0.00     0.012 A 
ATOM     62  C   UNL A   1      43.919  26.002  34.361  1.00  0.00     0.148 A 
ATOM     63  C   UNL A   1      46.637  26.582  33.935  1.00  0.00     0.002 A 
ATOM     64  C   UNL A   1      44.896  25.161  34.861  1.00  0.00     0.091 A 
ATOM     65  F   UNL A   1      42.612  25.721  34.470  1.00  0.00    -0.205 F 
ATOM     66  C   UNL A   1      46.255  25.437  34.633  1.00  0.00     0.022 A 
BRANCH  64  67
ATOM     67  S   UNL A   1      44.495  23.712  35.833  1.00  0.00     0.127 S 
ATOM     68  O   UNL A   1      43.431  23.102  35.037  1.00  0.00    -0.237 OA
ATOM     69  O   UNL A   1      45.763  22.983  35.825  1.00  0.00    -0.237 OA
ATOM     70  O   UNL A   1      44.085  24.202  37.143  1.00  0.00    -0.744 OA
ENDBRANCH  64  67
ENDBRANCH  37  60
ENDBRANCH  11  12
ENDBRANCH   4   6
ENDBRANCH   3   4
ENDBRANCH   2   3
ENDBRANCH   1   2
BRANCH   1  71
ATOM     71  O   UNL A   1      31.560  29.944  26.527  1.00  0.00    -0.458 OA
BRANCH  71  72
ATOM     72  C   UNL A   1      32.805  29.401  26.403  1.00  0.00     0.365 C 
ATOM     73  O   UNL A   1      33.810  30.052  26.132  1.00  0.00    -0.245 OA
BRANCH  72  74
ATOM     74  C   UNL A   1      32.866  27.898  26.649  1.00  0.00     0.304 C 
ATOM     75  C   UNL A   1      31.453  27.294  26.676  1.00  0.00     0.153 C 
ATOM     76  N   UNL A   1      33.691  27.140  25.695  1.00  0.00    -0.319 N 
ATOM     77  S   UNL A   1      31.560  25.703  25.780  1.00  0.00    -0.087 SA
ATOM     78  C   UNL A   1      33.320  25.731  25.922  1.00  0.00     0.274 C 
ATOM     79  H   UNL A   1      34.683  27.288  25.881  1.00  0.00     0.348 HD
ATOM     80  H   UNL A   1      33.534  27.432  24.730  1.00  0.00     0.348 HD
BRANCH  78  81
ATOM     81  C   UNL A   1      34.240  24.838  25.159  1.00  0.00     0.024 A 
ATOM     82  C   UNL A   1      35.540  24.431  25.436  1.00  0.00     0.011 A 
ATOM     83  C   UNL A   1      33.577  24.301  24.041  1.00  0.00     0.057 A 
ATOM     84  C   UNL A   1      36.129  23.461  24.615  1.00  0.00     0.004 A 
ATOM     85  C   UNL A   1      34.098  23.313  23.254  1.00  0.00     0.120 A 
ATOM     86  C   UNL A   1      35.410  22.904  23.532  1.00  0.00     0.046 A 
BRANCH  85  87
ATOM     87  O   UNL A   1      33.295  22.655  22.359  1.00  0.00    -0.489 OA
BRANCH  87  88
ATOM     88  C   UNL A   1      32.159  21.836  22.797  1.00  0.00     0.267 C 
BRANCH  88  89
ATOM     89  C   UNL A   1      32.394  20.364  23.223  1.00  0.00     0.008 A 
ATOM     90  C   UNL A   1      32.132  19.272  22.367  1.00  0.00     0.010 A 
ATOM     91  C   UNL A   1      32.876  20.003  24.476  1.00  0.00     0.049 A 
ATOM     92  C   UNL A   1      32.667  17.992  22.548  1.00  0.00     0.021 A 
ATOM     93  C   UNL A   1      33.324  18.691  24.730  1.00  0.00     0.041 A 
ATOM     94  Cl  UNL A   1      32.925  21.119  25.789  1.00  0.00    -0.084 Cl
ATOM     95  C   UNL A   1      33.302  17.719  23.734  1.00  0.00     0.042 A 
ATOM     96  Cl  UNL A   1      34.071  16.200  23.970  1.00  0.00    -0.084 Cl
ENDBRANCH  88  89
ENDBRANCH  87  88
ENDBRANCH  85  87
ENDBRANCH  78  81
ENDBRANCH  72  74
ENDBRANCH  71  72
ENDBRANCH   1  71
TORSDOF 18
ENDMDL
MODEL 3
REMARK VINA RESULT:     -12.2      4.632     11.672
REMARK SMILES O=C(OCCOC(=O)[C@H]1CS[C@@H](c2cccc(OCc3ccc(Cl)cc3Cl)c2)[NH2+]1)c1ccc(-c2c3nc(c(-c4cccc(S(=O)(=O)[O-])c4F)c4ccc([nH]4)c(-c4cccc(S(=O)(=O)[O-])c4F)c4nc(c(-c5cccc(S(=O)(=O)[O-])c5F)c5ccc2[nH]5)C=C4)C=C3)cc1
REMARK SMILES IDX 5 1 4 2 3 3 2 4 1 5 30 6 31 7 92 8 32 9 91 10 33 11 34 12
REMARK SMILES IDX 35 13 85 14 36 15 90 16 84 17 86 18 37 19 89 20 83 21 82 22
REMARK SMILES IDX 38 24 70 25 50 26 69 27 51 28 54 29 68 30 87 31 52 32 53 33
REMARK SMILES IDX 67 35 88 36 55 37 39 38 40 39 48 40 41 41 43 42 49 43 42 44
REMARK SMILES IDX 44 45 45 46 46 47 47 48 71 49 72 50 80 51 73 52 75 53 81 54
REMARK SMILES IDX 74 55 76 56 77 57 78 58 79 59 56 60 57 61 65 62 58 63 60 64
REMARK SMILES IDX 66 65 59 66 61 67 62 68 63 69 64 70 6 71 7 72 8 73 9 74
REMARK SMILES IDX 10 75 29 76 11 77 12 78 13 81 14 82 28 83 15 84 17 85 16 86
REMARK SMILES IDX 18 87 19 88 20 89 21 90 26 91 22 92 25 93 27 94 23 95 24 96
REMARK H PARENT 86 23 54 34 29 79 29 80
REMARK Flexibility Score: inf
ROOT
ATOM      1  C   UNL A   1      46.102  21.314  24.905  1.00  0.00     0.274 C 
ENDROOT
BRANCH   1   2
ATOM      2  C   UNL A   1      46.369  22.700  24.310  1.00  0.00     0.275 C 
BRANCH   2   3
ATOM      3  O   UNL A   1      45.194  23.452  23.967  1.00  0.00    -0.458 OA
BRANCH   3   4
ATOM      4  C   UNL A   1      44.035  23.622  24.644  1.00  0.00     0.338 C 
ATOM      5  O   UNL A   1      43.055  22.984  24.258  1.00  0.00    -0.246 OA
BRANCH   4   6
ATOM      6  C   UNL A   1      43.833  24.612  25.761  1.00  0.00     0.060 A 
ATOM      7  C   UNL A   1      44.096  25.983  25.734  1.00  0.00     0.016 A 
ATOM      8  C   UNL A   1      43.292  24.100  26.950  1.00  0.00     0.016 A 
ATOM      9  C   UNL A   1      43.742  26.826  26.809  1.00  0.00     0.010 A 
ATOM     10  C   UNL A   1      42.905  24.946  28.003  1.00  0.00     0.010 A 
ATOM     11  C   UNL A   1      43.094  26.335  27.946  1.00  0.00    -0.014 A 
BRANCH  11  12
ATOM     12  C   UNL A   1      42.609  27.253  29.045  1.00  0.00     0.031 A 
ATOM     13  C   UNL A   1      43.153  27.137  30.422  1.00  0.00     0.074 A 
ATOM     14  C   UNL A   1      41.570  28.109  28.882  1.00  0.00     0.049 A 
ATOM     15  N   UNL A   1      42.729  27.742  31.497  1.00  0.00    -0.248 NA
ATOM     16  C   UNL A   1      44.276  26.213  30.634  1.00  0.00     0.031 C 
ATOM     17  C   UNL A   1      40.832  28.135  27.649  1.00  0.00     0.029 A 
ATOM     18  N   UNL A   1      40.839  28.962  29.724  1.00  0.00    -0.354 N 
ATOM     19  C   UNL A   1      43.553  27.301  32.507  1.00  0.00     0.074 A 
ATOM     20  C   UNL A   1      44.398  26.265  31.949  1.00  0.00     0.031 C 
ATOM     21  C   UNL A   1      39.723  28.842  27.866  1.00  0.00     0.029 A 
ATOM     22  C   UNL A   1      39.611  29.385  29.194  1.00  0.00     0.049 A 
ATOM     23  H   UNL A   1      41.162  29.241  30.612  1.00  0.00     0.167 HD
ATOM     24  C   UNL A   1      43.673  27.794  33.756  1.00  0.00     0.034 A 
ATOM     25  C   UNL A   1      38.506  30.018  29.715  1.00  0.00     0.034 A 
ATOM     26  C   UNL A   1      42.838  28.809  34.327  1.00  0.00     0.049 A 
ATOM     27  C   UNL A   1      38.634  30.472  31.127  1.00  0.00     0.074 A 
ATOM     28  C   UNL A   1      42.968  29.435  35.553  1.00  0.00     0.029 A 
ATOM     29  N   UNL A   1      41.690  29.313  33.740  1.00  0.00    -0.354 N 
ATOM     30  N   UNL A   1      39.536  30.144  32.009  1.00  0.00    -0.248 NA
ATOM     31  C   UNL A   1      37.639  31.454  31.585  1.00  0.00     0.031 C 
ATOM     32  C   UNL A   1      41.880  30.296  35.724  1.00  0.00     0.029 A 
ATOM     33  C   UNL A   1      41.101  30.239  34.585  1.00  0.00     0.049 A 
ATOM     34  H   UNL A   1      41.345  29.053  32.855  1.00  0.00     0.167 HD
ATOM     35  C   UNL A   1      39.250  30.921  33.112  1.00  0.00     0.074 A 
ATOM     36  C   UNL A   1      38.089  31.724  32.795  1.00  0.00     0.031 C 
ATOM     37  C   UNL A   1      39.919  30.988  34.280  1.00  0.00     0.034 A 
BRANCH  24  38
ATOM     38  C   UNL A   1      44.829  27.263  34.536  1.00  0.00     0.023 A 
ATOM     39  C   UNL A   1      46.120  27.782  34.293  1.00  0.00     0.012 A 
ATOM     40  C   UNL A   1      44.647  26.223  35.456  1.00  0.00     0.148 A 
ATOM     41  C   UNL A   1      47.230  27.220  34.912  1.00  0.00     0.002 A 
ATOM     42  C   UNL A   1      45.751  25.711  36.114  1.00  0.00     0.091 A 
ATOM     43  F   UNL A   1      43.410  25.739  35.637  1.00  0.00    -0.205 F 
ATOM     44  C   UNL A   1      47.043  26.189  35.827  1.00  0.00     0.022 A 
BRANCH  42  45
ATOM     45  S   UNL A   1      45.604  24.441  37.367  1.00  0.00     0.127 S 
ATOM     46  O   UNL A   1      45.497  23.230  36.543  1.00  0.00    -0.237 OA
ATOM     47  O   UNL A   1      46.881  24.581  38.078  1.00  0.00    -0.237 OA
ATOM     48  O   UNL A   1      44.428  24.764  38.143  1.00  0.00    -0.744 OA
ENDBRANCH  42  45
ENDBRANCH  24  38
BRANCH  25  49
ATOM     49  C   UNL A   1      37.184  30.440  29.049  1.00  0.00     0.023 A 
ATOM     50  C   UNL A   1      36.329  29.426  28.552  1.00  0.00     0.012 A 
ATOM     51  C   UNL A   1      36.804  31.785  28.745  1.00  0.00     0.148 A 
ATOM     52  C   UNL A   1      35.100  29.729  27.934  1.00  0.00     0.002 A 
ATOM     53  C   UNL A   1      35.527  32.083  28.226  1.00  0.00     0.091 A 
ATOM     54  F   UNL A   1      37.688  32.771  28.954  1.00  0.00    -0.205 F 
ATOM     55  C   UNL A   1      34.675  31.049  27.826  1.00  0.00     0.022 A 
BRANCH  53  56
ATOM     56  S   UNL A   1      34.767  33.743  28.262  1.00  0.00     0.127 S 
ATOM     57  O   UNL A   1      35.383  34.402  27.115  1.00  0.00    -0.237 OA
ATOM     58  O   UNL A   1      33.348  33.415  28.094  1.00  0.00    -0.237 OA
ATOM     59  O   UNL A   1      35.092  34.309  29.565  1.00  0.00    -0.744 OA
ENDBRANCH  53  56
ENDBRANCH  25  49
BRANCH  37  60
ATOM     60  C   UNL A   1      39.415  32.007  35.246  1.00  0.00     0.023 A 
ATOM     61  C   UNL A   1      38.318  31.720  36.082  1.00  0.00     0.012 A 
ATOM     62  C   UNL A   1      39.986  33.291  35.247  1.00  0.00     0.148 A 
ATOM     63  C   UNL A   1      37.768  32.720  36.879  1.00  0.00     0.002 A 
ATOM     64  C   UNL A   1      39.472  34.262  36.086  1.00  0.00     0.091 A 
ATOM     65  F   UNL A   1      40.989  33.544  34.393  1.00  0.00    -0.205 F 
ATOM     66  C   UNL A   1      38.352  33.986  36.889  1.00  0.00     0.022 A 
BRANCH  64  67
ATOM     67  S   UNL A   1      40.208  35.889  36.218  1.00  0.00     0.127 S 
ATOM     68  O   UNL A   1      39.764  36.520  34.975  1.00  0.00    -0.237 OA
ATOM     69  O   UNL A   1      39.575  36.409  37.430  1.00  0.00    -0.237 OA
ATOM     70  O   UNL A   1      41.645  35.678  36.326  1.00  0.00    -0.744 OA
ENDBRANCH  64  67
ENDBRANCH  37  60
ENDBRANCH  11  12
ENDBRANCH   4   6
ENDBRANCH   3   4
ENDBRANCH   2   3
ENDBRANCH   1   2
BRANCH   1  71
ATOM     71  O   UNL A   1      45.114  20.561  24.184  1.00  0.00    -0.458 OA
BRANCH  71  72
ATOM     72  C   UNL A   1      44.885  19.307  24.669  1.00  0.00     0.365 C 
ATOM     73  O   UNL A   1      45.738  18.424  24.713  1.00  0.00    -0.245 OA
BRANCH  72  74
ATOM     74  C   UNL A   1      43.468  19.078  25.181  1.00  0.00     0.304 C 
ATOM     75  C   UNL A   1      43.482  18.209  26.449  1.00  0.00     0.153 C 
ATOM     76  N   UNL A   1      42.693  20.300  25.448  1.00  0.00    -0.319 N 
ATOM     77  S   UNL A   1      42.238  18.932  27.577  1.00  0.00    -0.087 SA
ATOM     78  C   UNL A   1      41.534  19.839  26.235  1.00  0.00     0.274 C 
ATOM     79  H   UNL A   1      42.389  20.731  24.575  1.00  0.00     0.348 HD
ATOM     80  H   UNL A   1      43.241  21.006  25.941  1.00  0.00     0.348 HD
BRANCH  78  81
ATOM     81  C   UNL A   1      40.557  20.955  26.395  1.00  0.00     0.024 A 
ATOM     82  C   UNL A   1      40.691  22.189  27.022  1.00  0.00     0.011 A 
ATOM     83  C   UNL A   1      39.370  20.664  25.700  1.00  0.00     0.057 A 
ATOM     84  C   UNL A   1      39.651  23.121  26.898  1.00  0.00     0.004 A 
ATOM     85  C   UNL A   1      38.362  21.567  25.510  1.00  0.00     0.120 A 
ATOM     86  C   UNL A   1      38.496  22.811  26.144  1.00  0.00     0.046 A 
BRANCH  85  87
ATOM     87  O   UNL A   1      37.370  21.306  24.603  1.00  0.00    -0.489 OA
BRANCH  87  88
ATOM     88  C   UNL A   1      35.981  21.078  25.018  1.00  0.00     0.267 C 
BRANCH  88  89
ATOM     89  C   UNL A   1      35.028  22.287  25.204  1.00  0.00     0.008 A 
ATOM     90  C   UNL A   1      34.171  22.417  26.319  1.00  0.00     0.010 A 
ATOM     91  C   UNL A   1      34.940  23.332  24.292  1.00  0.00     0.049 A 
ATOM     92  C   UNL A   1      33.592  23.626  26.721  1.00  0.00     0.021 A 
ATOM     93  C   UNL A   1      34.270  24.527  24.621  1.00  0.00     0.041 A 
ATOM     94  Cl  UNL A   1      35.611  23.217  22.708  1.00  0.00    -0.084 Cl
ATOM     95  C   UNL A   1      33.680  24.700  25.870  1.00  0.00     0.042 A 
ATOM     96  Cl  UNL A   1      33.082  26.235  26.357  1.00  0.00    -0.084 Cl
ENDBRANCH  88  89
ENDBRANCH  87  88
ENDBRANCH  85  87
ENDBRANCH  78  81
ENDBRANCH  72  74
ENDBRANCH  71  72
ENDBRANCH   1  71
TORSDOF 18
ENDMDL
