MODEL 1
REMARK VINA RESULT:     -14.7      0.000      0.000
REMARK SMILES O=C(OCCOC(=O)[C@H]1CC2(CC[NH+](C(=O)C3CC3)CC2)CN1C(=O)CCn1cccn1)c1ccc(-c2c3nc(c(-c4cccc(S(=O)(=O)[O-])c4F)c4ccc([nH]4)c(-c4cccc(S(=O)(=O)[O-])c4F)c4nc(c(-c5cccc(S(=O)(=O)[O-])c5F)c5ccc2[nH]5)C=C4)C=C3)cc1
REMARK SMILES IDX 5 1 4 2 3 3 2 4 1 5 33 6 34 7 95 8 35 9 94 10 36 11 37 12
REMARK SMILES IDX 38 13 88 14 39 15 93 16 87 17 89 18 40 19 92 20 86 21 85 22
REMARK SMILES IDX 41 24 73 25 53 26 72 27 54 28 57 29 71 30 90 31 55 32 56 33
REMARK SMILES IDX 70 35 91 36 58 37 42 38 43 39 51 40 44 41 46 42 52 43 45 44
REMARK SMILES IDX 47 45 48 46 49 47 50 48 74 49 75 50 83 51 76 52 78 53 84 54
REMARK SMILES IDX 77 55 79 56 80 57 81 58 82 59 59 60 60 61 68 62 61 63 63 64
REMARK SMILES IDX 69 65 62 66 64 67 65 68 66 69 67 70 6 71 7 72 8 73 9 74
REMARK SMILES IDX 10 75 23 76 11 77 22 78 12 79 21 80 13 81 20 82 14 83 24 85
REMARK SMILES IDX 25 86 26 87 27 88 28 89 29 90 32 91 30 92 31 93 15 94 16 95
REMARK SMILES IDX 17 96 18 97 19 98
REMARK H PARENT 89 23 57 34 14 84
REMARK Flexibility Score: inf
ROOT
ATOM      1  C   UNL A   1      41.388  40.517  26.138  1.00  0.00     0.274 C 
ENDROOT
BRANCH   1   2
ATOM      2  C   UNL A   1      42.100  39.497  27.478  1.00  0.00     0.275 C 
BRANCH   2   3
ATOM      3  O   UNL A   1      43.565  39.751  28.061  1.00  0.00    -0.458 OA
BRANCH   3   4
ATOM      4  C   UNL A   1      44.948  38.820  27.878  1.00  0.00     0.338 C 
ATOM      5  O   UNL A   1      45.786  39.692  27.532  1.00  0.00    -0.246 OA
BRANCH   4   6
ATOM      6  C   UNL A   1      44.885  36.630  28.335  1.00  0.00     0.060 A 
ATOM      7  C   UNL A   1      44.111  35.503  27.581  1.00  0.00     0.016 A 
ATOM      8  C   UNL A   1      45.083  35.815  29.591  1.00  0.00     0.016 A 
ATOM      9  C   UNL A   1      43.199  34.510  28.060  1.00  0.00     0.010 A 
ATOM     10  C   UNL A   1      44.294  34.665  30.072  1.00  0.00     0.010 A 
ATOM     11  C   UNL A   1      43.231  34.095  29.367  1.00  0.00    -0.014 A 
BRANCH  11  12
ATOM     12  C   UNL A   1      42.493  32.842  29.818  1.00  0.00     0.031 A 
ATOM     13  C   UNL A   1      40.968  33.148  30.233  1.00  0.00     0.074 A 
ATOM     14  C   UNL A   1      43.047  31.580  29.577  1.00  0.00     0.049 A 
ATOM     15  N   UNL A   1      40.062  32.297  30.603  1.00  0.00    -0.248 NA
ATOM     16  C   UNL A   1      40.319  34.490  30.081  1.00  0.00     0.031 C 
ATOM     17  C   UNL A   1      44.418  31.255  29.109  1.00  0.00     0.029 A 
ATOM     18  N   UNL A   1      42.544  30.279  29.615  1.00  0.00    -0.354 N 
ATOM     19  C   UNL A   1      38.786  32.900  30.492  1.00  0.00     0.074 A 
ATOM     20  C   UNL A   1      38.997  34.253  30.109  1.00  0.00     0.031 C 
ATOM     21  C   UNL A   1      44.512  29.971  28.657  1.00  0.00     0.029 A 
ATOM     22  C   UNL A   1      43.266  29.265  28.897  1.00  0.00     0.049 A 
ATOM     23  H   UNL A   1      41.724  30.063  30.117  1.00  0.00     0.167 HD
ATOM     24  C   UNL A   1      37.638  32.293  30.913  1.00  0.00     0.034 A 
ATOM     25  C   UNL A   1      42.913  27.958  28.569  1.00  0.00     0.034 A 
ATOM     26  C   UNL A   1      38.005  31.495  32.058  1.00  0.00     0.049 A 
ATOM     27  C   UNL A   1      41.772  27.616  29.436  1.00  0.00     0.074 A 
ATOM     28  C   UNL A   1      38.507  31.897  33.280  1.00  0.00     0.029 A 
ATOM     29  N   UNL A   1      38.499  30.235  31.809  1.00  0.00    -0.354 N 
ATOM     30  N   UNL A   1      41.845  27.626  30.732  1.00  0.00    -0.248 NA
ATOM     31  C   UNL A   1      40.441  27.700  28.867  1.00  0.00     0.031 C 
ATOM     32  C   UNL A   1      39.672  31.104  33.455  1.00  0.00     0.029 A 
ATOM     33  C   UNL A   1      39.677  30.079  32.506  1.00  0.00     0.049 A 
ATOM     34  H   UNL A   1      38.080  29.558  31.230  1.00  0.00     0.167 HD
ATOM     35  C   UNL A   1      40.685  28.278  31.101  1.00  0.00     0.074 A 
ATOM     36  C   UNL A   1      39.811  28.206  29.931  1.00  0.00     0.031 C 
ATOM     37  C   UNL A   1      40.697  29.106  32.180  1.00  0.00     0.034 A 
BRANCH  24  38
ATOM     38  C   UNL A   1      36.319  32.086  30.152  1.00  0.00     0.023 A 
ATOM     39  C   UNL A   1      36.355  31.137  29.102  1.00  0.00     0.012 A 
ATOM     40  C   UNL A   1      35.215  32.974  30.142  1.00  0.00     0.148 A 
ATOM     41  C   UNL A   1      35.483  31.192  28.006  1.00  0.00     0.002 A 
ATOM     42  C   UNL A   1      34.413  33.100  28.990  1.00  0.00     0.091 A 
ATOM     43  F   UNL A   1      34.947  33.689  31.244  1.00  0.00    -0.205 F 
ATOM     44  C   UNL A   1      34.559  32.217  27.915  1.00  0.00     0.022 A 
BRANCH  42  45
ATOM     45  S   UNL A   1      33.332  34.523  28.669  1.00  0.00     0.127 S 
ATOM     46  O   UNL A   1      34.298  35.539  28.248  1.00  0.00    -0.237 OA
ATOM     47  O   UNL A   1      32.473  34.016  27.602  1.00  0.00    -0.237 OA
ATOM     48  O   UNL A   1      32.668  34.787  29.936  1.00  0.00    -0.744 OA
ENDBRANCH  42  45
ENDBRANCH  24  38
BRANCH  25  49
ATOM     49  C   UNL A   1      43.230  26.954  27.449  1.00  0.00     0.023 A 
ATOM     50  C   UNL A   1      42.457  26.843  26.245  1.00  0.00     0.012 A 
ATOM     51  C   UNL A   1      44.504  26.359  27.402  1.00  0.00     0.148 A 
ATOM     52  C   UNL A   1      42.943  26.199  25.076  1.00  0.00     0.002 A 
ATOM     53  C   UNL A   1      44.990  25.735  26.237  1.00  0.00     0.091 A 
ATOM     54  F   UNL A   1      45.281  26.485  28.483  1.00  0.00    -0.205 F 
ATOM     55  C   UNL A   1      44.221  25.658  25.068  1.00  0.00     0.022 A 
BRANCH  53  56
ATOM     56  S   UNL A   1      46.656  25.053  26.142  1.00  0.00     0.127 S 
ATOM     57  O   UNL A   1      46.921  25.108  24.704  1.00  0.00    -0.237 OA
ATOM     58  O   UNL A   1      47.421  26.009  26.939  1.00  0.00    -0.237 OA
ATOM     59  O   UNL A   1      46.553  23.706  26.686  1.00  0.00    -0.744 OA
ENDBRANCH  53  56
ENDBRANCH  25  49
BRANCH  37  60
ATOM     60  C   UNL A   1      41.912  29.054  33.095  1.00  0.00     0.023 A 
ATOM     61  C   UNL A   1      43.054  29.893  33.066  1.00  0.00     0.012 A 
ATOM     62  C   UNL A   1      41.807  28.125  34.133  1.00  0.00     0.148 A 
ATOM     63  C   UNL A   1      44.064  29.780  34.035  1.00  0.00     0.002 A 
ATOM     64  C   UNL A   1      42.775  28.051  35.118  1.00  0.00     0.091 A 
ATOM     65  F   UNL A   1      40.727  27.331  34.151  1.00  0.00    -0.205 F 
ATOM     66  C   UNL A   1      43.919  28.860  35.068  1.00  0.00     0.022 A 
BRANCH  64  67
ATOM     67  S   UNL A   1      42.544  26.968  36.518  1.00  0.00     0.127 S 
ATOM     68  O   UNL A   1      43.673  27.338  37.368  1.00  0.00    -0.237 OA
ATOM     69  O   UNL A   1      41.232  27.382  37.014  1.00  0.00    -0.237 OA
ATOM     70  O   UNL A   1      42.575  25.610  35.988  1.00  0.00    -0.744 OA
ENDBRANCH  64  67
ENDBRANCH  37  60
ENDBRANCH  11  12
ENDBRANCH   4   6
ENDBRANCH   3   4
ENDBRANCH   2   3
ENDBRANCH   1   2
BRANCH   1  71
ATOM     71  O   UNL A   1      42.236  41.534  24.923  1.00  0.00    -0.461 OA
BRANCH  71  72
ATOM     72  C   UNL A   1      43.666  42.105  24.599  1.00  0.00     0.328 C 
ATOM     73  O   UNL A   1      44.753  41.515  24.414  1.00  0.00    -0.250 OA
BRANCH  72  74
ATOM     74  C   UNL A   1      44.050  43.418  24.953  1.00  0.00     0.195 C 
ATOM     75  C   UNL A   1      45.358  43.509  25.620  1.00  0.00     0.046 C 
ATOM     76  N   UNL A   1      43.950  44.108  23.773  1.00  0.00    -0.328 N 
ATOM     77  C   UNL A   1      45.720  44.963  25.392  1.00  0.00     0.001 C 
ATOM     78  C   UNL A   1      44.740  45.355  24.101  1.00  0.00     0.128 C 
ATOM     79  C   UNL A   1      47.156  45.060  24.923  1.00  0.00     0.071 C 
ATOM     80  C   UNL A   1      45.699  45.683  26.780  1.00  0.00     0.071 C 
ATOM     81  C   UNL A   1      48.216  44.561  25.907  1.00  0.00     0.270 C 
ATOM     82  C   UNL A   1      46.804  45.153  27.781  1.00  0.00     0.270 C 
ATOM     83  N   UNL A   1      48.151  45.132  27.213  1.00  0.00    -0.272 N 
ATOM     84  H   UNL A   1      48.439  46.004  27.568  1.00  0.00     0.356 HD
BRANCH  76  85
ATOM     85  C   UNL A   1      42.944  43.677  22.836  1.00  0.00     0.225 C 
ATOM     86  O   UNL A   1      41.751  43.763  23.157  1.00  0.00    -0.275 OA
BRANCH  85  87
ATOM     87  C   UNL A   1      43.317  42.962  21.171  1.00  0.00     0.124 C 
BRANCH  87  88
ATOM     88  C   UNL A   1      42.545  43.022  19.430  1.00  0.00     0.154 C 
BRANCH  88  89
ATOM     89  N   UNL A   1      42.892  44.310  18.193  1.00  0.00    -0.272 N 
ATOM     90  C   UNL A   1      44.434  45.392  17.704  1.00  0.00     0.108 A 
ATOM     91  N   UNL A   1      41.399  45.330  17.732  1.00  0.00    -0.182 NA
ATOM     92  C   UNL A   1      43.812  46.936  17.016  1.00  0.00     0.042 A 
ATOM     93  C   UNL A   1      41.882  46.823  17.089  1.00  0.00     0.135 A 
ENDBRANCH  88  89
ENDBRANCH  87  88
ENDBRANCH  85  87
ENDBRANCH  76  85
BRANCH  83  94
ATOM     94  C   UNL A   1      49.266  45.362  28.059  1.00  0.00     0.315 C 
ATOM     95  O   UNL A   1      49.773  46.484  28.088  1.00  0.00    -0.231 OA
BRANCH  94  96
ATOM     96  C   UNL A   1      49.875  44.364  29.022  1.00  0.00     0.119 C 
ATOM     97  C   UNL A   1      49.453  42.944  29.195  1.00  0.00     0.019 C 
ATOM     98  C   UNL A   1      50.812  43.240  28.682  1.00  0.00     0.019 C 
ENDBRANCH  94  96
ENDBRANCH  83  94
ENDBRANCH  72  74
ENDBRANCH  71  72
ENDBRANCH   1  71
TORSDOF 20
ENDMDL
MODEL 2
REMARK VINA RESULT:     -14.6      2.006      5.331
REMARK SMILES O=C(OCCOC(=O)[C@H]1CC2(CC[NH+](C(=O)C3CC3)CC2)CN1C(=O)CCn1cccn1)c1ccc(-c2c3nc(c(-c4cccc(S(=O)(=O)[O-])c4F)c4ccc([nH]4)c(-c4cccc(S(=O)(=O)[O-])c4F)c4nc(c(-c5cccc(S(=O)(=O)[O-])c5F)c5ccc2[nH]5)C=C4)C=C3)cc1
REMARK SMILES IDX 5 1 4 2 3 3 2 4 1 5 33 6 34 7 95 8 35 9 94 10 36 11 37 12
REMARK SMILES IDX 38 13 88 14 39 15 93 16 87 17 89 18 40 19 92 20 86 21 85 22
REMARK SMILES IDX 41 24 73 25 53 26 72 27 54 28 57 29 71 30 90 31 55 32 56 33
REMARK SMILES IDX 70 35 91 36 58 37 42 38 43 39 51 40 44 41 46 42 52 43 45 44
REMARK SMILES IDX 47 45 48 46 49 47 50 48 74 49 75 50 83 51 76 52 78 53 84 54
REMARK SMILES IDX 77 55 79 56 80 57 81 58 82 59 59 60 60 61 68 62 61 63 63 64
REMARK SMILES IDX 69 65 62 66 64 67 65 68 66 69 67 70 6 71 7 72 8 73 9 74
REMARK SMILES IDX 10 75 23 76 11 77 22 78 12 79 21 80 13 81 20 82 14 83 24 85
REMARK SMILES IDX 25 86 26 87 27 88 28 89 29 90 32 91 30 92 31 93 15 94 16 95
REMARK SMILES IDX 17 96 18 97 19 98
REMARK H PARENT 89 23 57 34 14 84
REMARK Flexibility Score: inf
ROOT
ATOM      1  C   UNL A   1      42.792  40.831  25.934  1.00  0.00     0.274 C 
ENDROOT
BRANCH   1   2
ATOM      2  C   UNL A   1      43.412  39.775  27.292  1.00  0.00     0.275 C 
BRANCH   2   3
ATOM      3  O   UNL A   1      44.960  39.422  27.463  1.00  0.00    -0.458 OA
BRANCH   3   4
ATOM      4  C   UNL A   1      45.826  38.139  26.816  1.00  0.00     0.338 C 
ATOM      5  O   UNL A   1      46.605  38.741  26.033  1.00  0.00    -0.246 OA
BRANCH   4   6
ATOM      6  C   UNL A   1      45.428  36.055  27.528  1.00  0.00     0.060 A 
ATOM      7  C   UNL A   1      44.470  34.986  26.914  1.00  0.00     0.016 A 
ATOM      8  C   UNL A   1      45.521  35.370  28.871  1.00  0.00     0.016 A 
ATOM      9  C   UNL A   1      43.423  34.213  27.509  1.00  0.00     0.010 A 
ATOM     10  C   UNL A   1      44.571  34.424  29.487  1.00  0.00     0.010 A 
ATOM     11  C   UNL A   1      43.416  33.953  28.856  1.00  0.00    -0.014 A 
BRANCH  11  12
ATOM     12  C   UNL A   1      42.499  32.894  29.454  1.00  0.00     0.031 A 
ATOM     13  C   UNL A   1      41.093  33.509  29.939  1.00  0.00     0.074 A 
ATOM     14  C   UNL A   1      42.794  31.538  29.280  1.00  0.00     0.049 A 
ATOM     15  N   UNL A   1      40.079  32.870  30.434  1.00  0.00    -0.248 NA
ATOM     16  C   UNL A   1      40.690  34.935  29.721  1.00  0.00     0.031 C 
ATOM     17  C   UNL A   1      44.042  30.930  28.753  1.00  0.00     0.029 A 
ATOM     18  N   UNL A   1      42.066  30.359  29.456  1.00  0.00    -0.354 N 
ATOM     19  C   UNL A   1      38.929  33.693  30.357  1.00  0.00     0.074 A 
ATOM     20  C   UNL A   1      39.354  34.953  29.853  1.00  0.00     0.031 C 
ATOM     21  C   UNL A   1      43.864  29.623  28.402  1.00  0.00     0.029 A 
ATOM     22  C   UNL A   1      42.533  29.182  28.777  1.00  0.00     0.049 A 
ATOM     23  H   UNL A   1      41.263  30.336  30.025  1.00  0.00     0.167 HD
ATOM     24  C   UNL A   1      37.727  33.342  30.898  1.00  0.00     0.034 A 
ATOM     25  C   UNL A   1      41.923  27.945  28.580  1.00  0.00     0.034 A 
ATOM     26  C   UNL A   1      38.030  32.568  32.078  1.00  0.00     0.049 A 
ATOM     27  C   UNL A   1      40.809  27.883  29.543  1.00  0.00     0.074 A 
ATOM     28  C   UNL A   1      38.691  32.951  33.229  1.00  0.00     0.029 A 
ATOM     29  N   UNL A   1      38.265  31.224  31.901  1.00  0.00    -0.354 N 
ATOM     30  N   UNL A   1      40.984  27.966  30.826  1.00  0.00    -0.248 NA
ATOM     31  C   UNL A   1      39.476  28.177  29.056  1.00  0.00     0.031 C 
ATOM     32  C   UNL A   1      39.702  31.967  33.392  1.00  0.00     0.029 A 
ATOM     33  C   UNL A   1      39.446  30.898  32.531  1.00  0.00     0.049 A 
ATOM     34  H   UNL A   1      37.685  30.600  31.407  1.00  0.00     0.167 HD
ATOM     35  C   UNL A   1      39.995  28.848  31.215  1.00  0.00     0.074 A 
ATOM     36  C   UNL A   1      39.034  28.862  30.114  1.00  0.00     0.031 C 
ATOM     37  C   UNL A   1      40.242  29.730  32.221  1.00  0.00     0.034 A 
BRANCH  24  38
ATOM     38  C   UNL A   1      36.336  33.336  30.243  1.00  0.00     0.023 A 
ATOM     39  C   UNL A   1      36.298  32.948  28.881  1.00  0.00     0.012 A 
ATOM     40  C   UNL A   1      35.185  34.007  30.724  1.00  0.00     0.148 A 
ATOM     41  C   UNL A   1      35.291  33.372  28.004  1.00  0.00     0.002 A 
ATOM     42  C   UNL A   1      34.235  34.528  29.823  1.00  0.00     0.091 A 
ATOM     43  F   UNL A   1      35.016  34.136  32.048  1.00  0.00    -0.205 F 
ATOM     44  C   UNL A   1      34.298  34.222  28.460  1.00  0.00     0.022 A 
BRANCH  42  45
ATOM     45  S   UNL A   1      33.032  35.814  30.263  1.00  0.00     0.127 S 
ATOM     46  O   UNL A   1      32.230  35.133  31.281  1.00  0.00    -0.237 OA
ATOM     47  O   UNL A   1      33.897  36.874  30.775  1.00  0.00    -0.237 OA
ATOM     48  O   UNL A   1      32.334  36.119  29.024  1.00  0.00    -0.744 OA
ENDBRANCH  42  45
ENDBRANCH  24  38
BRANCH  25  49
ATOM     49  C   UNL A   1      41.963  26.826  27.527  1.00  0.00     0.023 A 
ATOM     50  C   UNL A   1      41.784  27.056  26.121  1.00  0.00     0.012 A 
ATOM     51  C   UNL A   1      42.538  25.587  27.865  1.00  0.00     0.148 A 
ATOM     52  C   UNL A   1      42.178  26.116  25.132  1.00  0.00     0.002 A 
ATOM     53  C   UNL A   1      42.942  24.663  26.882  1.00  0.00     0.091 A 
ATOM     54  F   UNL A   1      42.773  25.353  29.160  1.00  0.00    -0.205 F 
ATOM     55  C   UNL A   1      42.773  24.922  25.515  1.00  0.00     0.022 A 
BRANCH  53  56
ATOM     56  S   UNL A   1      43.763  23.115  27.305  1.00  0.00     0.127 S 
ATOM     57  O   UNL A   1      42.817  22.523  28.252  1.00  0.00    -0.237 OA
ATOM     58  O   UNL A   1      43.830  22.443  26.011  1.00  0.00    -0.237 OA
ATOM     59  O   UNL A   1      45.039  23.503  27.890  1.00  0.00    -0.744 OA
ENDBRANCH  53  56
ENDBRANCH  25  49
BRANCH  37  60
ATOM     60  C   UNL A   1      41.494  29.513  33.057  1.00  0.00     0.023 A 
ATOM     61  C   UNL A   1      42.703  30.254  33.016  1.00  0.00     0.012 A 
ATOM     62  C   UNL A   1      41.365  28.526  34.037  1.00  0.00     0.148 A 
ATOM     63  C   UNL A   1      43.749  29.989  33.914  1.00  0.00     0.002 A 
ATOM     64  C   UNL A   1      42.373  28.303  34.956  1.00  0.00     0.091 A 
ATOM     65  F   UNL A   1      40.221  27.826  34.067  1.00  0.00    -0.205 F 
ATOM     66  C   UNL A   1      43.579  29.015  34.892  1.00  0.00     0.022 A 
BRANCH  64  67
ATOM     67  S   UNL A   1      42.124  27.147  36.293  1.00  0.00     0.127 S 
ATOM     68  O   UNL A   1      42.100  25.872  35.582  1.00  0.00    -0.237 OA
ATOM     69  O   UNL A   1      43.309  27.375  37.121  1.00  0.00    -0.237 OA
ATOM     70  O   UNL A   1      40.871  27.533  36.933  1.00  0.00    -0.744 OA
ENDBRANCH  64  67
ENDBRANCH  37  60
ENDBRANCH  11  12
ENDBRANCH   4   6
ENDBRANCH   3   4
ENDBRANCH   2   3
ENDBRANCH   1   2
BRANCH   1  71
ATOM     71  O   UNL A   1      43.696  41.528  24.546  1.00  0.00    -0.461 OA
BRANCH  71  72
ATOM     72  C   UNL A   1      44.056  42.918  23.903  1.00  0.00     0.328 C 
ATOM     73  O   UNL A   1      43.428  43.999  23.902  1.00  0.00    -0.250 OA
BRANCH  72  74
ATOM     74  C   UNL A   1      44.927  43.032  22.796  1.00  0.00     0.195 C 
ATOM     75  C   UNL A   1      44.475  43.974  21.761  1.00  0.00     0.046 C 
ATOM     76  N   UNL A   1      46.135  43.336  23.370  1.00  0.00    -0.328 N 
ATOM     77  C   UNL A   1      45.769  44.279  21.033  1.00  0.00     0.001 C 
ATOM     78  C   UNL A   1      46.906  43.838  22.171  1.00  0.00     0.128 C 
ATOM     79  C   UNL A   1      45.890  45.772  20.820  1.00  0.00     0.071 C 
ATOM     80  C   UNL A   1      45.662  43.672  19.596  1.00  0.00     0.071 C 
ATOM     81  C   UNL A   1      44.810  46.412  19.945  1.00  0.00     0.270 C 
ATOM     82  C   UNL A   1      44.541  44.349  18.708  1.00  0.00     0.270 C 
ATOM     83  N   UNL A   1      44.626  45.808  18.665  1.00  0.00    -0.272 N 
ATOM     84  H   UNL A   1      45.138  45.869  17.827  1.00  0.00     0.356 HD
BRANCH  76  85
ATOM     85  C   UNL A   1      46.397  42.801  24.683  1.00  0.00     0.225 C 
ATOM     86  O   UNL A   1      46.823  41.642  24.782  1.00  0.00    -0.275 OA
BRANCH  85  87
ATOM     87  C   UNL A   1      46.107  43.729  26.256  1.00  0.00     0.124 C 
BRANCH  87  88
ATOM     88  C   UNL A   1      46.590  43.538  28.089  1.00  0.00     0.154 C 
BRANCH  88  89
ATOM     89  N   UNL A   1      45.411  43.565  29.474  1.00  0.00    -0.272 N 
ATOM     90  C   UNL A   1      44.172  44.867  30.222  1.00  0.00     0.108 A 
ATOM     91  N   UNL A   1      45.898  42.461  30.897  1.00  0.00    -0.182 NA
ATOM     92  C   UNL A   1      43.998  44.496  31.977  1.00  0.00     0.042 A 
ATOM     93  C   UNL A   1      45.140  42.973  32.325  1.00  0.00     0.135 A 
ENDBRANCH  88  89
ENDBRANCH  87  88
ENDBRANCH  85  87
ENDBRANCH  76  85
BRANCH  83  94
ATOM     94  C   UNL A   1      44.225  46.494  17.490  1.00  0.00     0.315 C 
ATOM     95  O   UNL A   1      45.086  46.856  16.686  1.00  0.00    -0.231 OA
BRANCH  94  96
ATOM     96  C   UNL A   1      42.799  46.771  17.062  1.00  0.00     0.119 C 
ATOM     97  C   UNL A   1      41.942  47.893  17.544  1.00  0.00     0.019 C 
ATOM     98  C   UNL A   1      42.334  47.842  16.116  1.00  0.00     0.019 C 
ENDBRANCH  94  96
ENDBRANCH  83  94
ENDBRANCH  72  74
ENDBRANCH  71  72
ENDBRANCH   1  71
TORSDOF 20
ENDMDL
MODEL 3
REMARK VINA RESULT:     -14.5      2.206      3.666
REMARK SMILES O=C(OCCOC(=O)[C@H]1CC2(CC[NH+](C(=O)C3CC3)CC2)CN1C(=O)CCn1cccn1)c1ccc(-c2c3nc(c(-c4cccc(S(=O)(=O)[O-])c4F)c4ccc([nH]4)c(-c4cccc(S(=O)(=O)[O-])c4F)c4nc(c(-c5cccc(S(=O)(=O)[O-])c5F)c5ccc2[nH]5)C=C4)C=C3)cc1
REMARK SMILES IDX 5 1 4 2 3 3 2 4 1 5 33 6 34 7 95 8 35 9 94 10 36 11 37 12
REMARK SMILES IDX 38 13 88 14 39 15 93 16 87 17 89 18 40 19 92 20 86 21 85 22
REMARK SMILES IDX 41 24 73 25 53 26 72 27 54 28 57 29 71 30 90 31 55 32 56 33
REMARK SMILES IDX 70 35 91 36 58 37 42 38 43 39 51 40 44 41 46 42 52 43 45 44
REMARK SMILES IDX 47 45 48 46 49 47 50 48 74 49 75 50 83 51 76 52 78 53 84 54
REMARK SMILES IDX 77 55 79 56 80 57 81 58 82 59 59 60 60 61 68 62 61 63 63 64
REMARK SMILES IDX 69 65 62 66 64 67 65 68 66 69 67 70 6 71 7 72 8 73 9 74
REMARK SMILES IDX 10 75 23 76 11 77 22 78 12 79 21 80 13 81 20 82 14 83 24 85
REMARK SMILES IDX 25 86 26 87 27 88 28 89 29 90 32 91 30 92 31 93 15 94 16 95
REMARK SMILES IDX 17 96 18 97 19 98
REMARK H PARENT 89 23 57 34 14 84
REMARK Flexibility Score: inf
ROOT
ATOM      1  C   UNL A   1      46.951  40.914  24.640  1.00  0.00     0.274 C 
ENDROOT
BRANCH   1   2
ATOM      2  C   UNL A   1      46.619  39.483  25.729  1.00  0.00     0.275 C 
BRANCH   2   3
ATOM      3  O   UNL A   1      45.196  39.239  26.411  1.00  0.00    -0.458 OA
BRANCH   3   4
ATOM      4  C   UNL A   1      44.847  38.763  27.981  1.00  0.00     0.338 C 
ATOM      5  O   UNL A   1      44.650  39.876  28.535  1.00  0.00    -0.246 OA
BRANCH   4   6
ATOM      6  C   UNL A   1      44.768  36.586  28.493  1.00  0.00     0.060 A 
ATOM      7  C   UNL A   1      44.067  35.430  27.713  1.00  0.00     0.016 A 
ATOM      8  C   UNL A   1      44.874  35.808  29.783  1.00  0.00     0.016 A 
ATOM      9  C   UNL A   1      43.129  34.440  28.147  1.00  0.00     0.010 A 
ATOM     10  C   UNL A   1      44.061  34.663  30.234  1.00  0.00     0.010 A 
ATOM     11  C   UNL A   1      43.061  34.062  29.464  1.00  0.00    -0.014 A 
BRANCH  11  12
ATOM     12  C   UNL A   1      42.302  32.813  29.891  1.00  0.00     0.031 A 
ATOM     13  C   UNL A   1      40.788  33.140  30.328  1.00  0.00     0.074 A 
ATOM     14  C   UNL A   1      42.828  31.547  29.612  1.00  0.00     0.049 A 
ATOM     15  N   UNL A   1      39.868  32.299  30.686  1.00  0.00    -0.248 NA
ATOM     16  C   UNL A   1      40.166  34.498  30.217  1.00  0.00     0.031 C 
ATOM     17  C   UNL A   1      44.187  31.206  29.122  1.00  0.00     0.029 A 
ATOM     18  N   UNL A   1      42.298  30.255  29.623  1.00  0.00    -0.354 N 
ATOM     19  C   UNL A   1      38.603  32.931  30.604  1.00  0.00     0.074 A 
ATOM     20  C   UNL A   1      38.839  34.288  30.253  1.00  0.00     0.031 C 
ATOM     21  C   UNL A   1      44.250  29.931  28.637  1.00  0.00     0.029 A 
ATOM     22  C   UNL A   1      42.992  29.246  28.872  1.00  0.00     0.049 A 
ATOM     23  H   UNL A   1      41.479  30.044  30.127  1.00  0.00     0.167 HD
ATOM     24  C   UNL A   1      37.448  32.337  31.021  1.00  0.00     0.034 A 
ATOM     25  C   UNL A   1      42.609  27.955  28.516  1.00  0.00     0.034 A 
ATOM     26  C   UNL A   1      37.809  31.502  32.142  1.00  0.00     0.049 A 
ATOM     27  C   UNL A   1      41.469  27.615  29.385  1.00  0.00     0.074 A 
ATOM     28  C   UNL A   1      38.331  31.863  33.369  1.00  0.00     0.029 A 
ATOM     29  N   UNL A   1      38.274  30.239  31.857  1.00  0.00    -0.354 N 
ATOM     30  N   UNL A   1      41.555  27.590  30.680  1.00  0.00    -0.248 NA
ATOM     31  C   UNL A   1      40.134  27.740  28.833  1.00  0.00     0.031 C 
ATOM     32  C   UNL A   1      39.481  31.042  33.511  1.00  0.00     0.029 A 
ATOM     33  C   UNL A   1      39.456  30.042  32.537  1.00  0.00     0.049 A 
ATOM     34  H   UNL A   1      37.836  29.586  31.265  1.00  0.00     0.167 HD
ATOM     35  C   UNL A   1      40.413  28.256  31.077  1.00  0.00     0.074 A 
ATOM     36  C   UNL A   1      39.526  28.231  29.915  1.00  0.00     0.031 C 
ATOM     37  C   UNL A   1      40.452  29.056  32.177  1.00  0.00     0.034 A 
BRANCH  24  38
ATOM     38  C   UNL A   1      36.117  32.176  30.269  1.00  0.00     0.023 A 
ATOM     39  C   UNL A   1      36.108  31.215  29.229  1.00  0.00     0.012 A 
ATOM     40  C   UNL A   1      35.051  33.108  30.254  1.00  0.00     0.148 A 
ATOM     41  C   UNL A   1      35.234  31.294  28.136  1.00  0.00     0.002 A 
ATOM     42  C   UNL A   1      34.248  33.255  29.104  1.00  0.00     0.091 A 
ATOM     43  F   UNL A   1      34.818  33.845  31.350  1.00  0.00    -0.205 F 
ATOM     44  C   UNL A   1      34.353  32.355  28.039  1.00  0.00     0.022 A 
BRANCH  42  45
ATOM     45  S   UNL A   1      33.226  34.718  28.773  1.00  0.00     0.127 S 
ATOM     46  O   UNL A   1      32.312  34.213  27.747  1.00  0.00    -0.237 OA
ATOM     47  O   UNL A   1      32.610  34.958  30.076  1.00  0.00    -0.237 OA
ATOM     48  O   UNL A   1      34.160  35.738  28.324  1.00  0.00    -0.744 OA
ENDBRANCH  42  45
ENDBRANCH  24  38
BRANCH  25  49
ATOM     49  C   UNL A   1      42.894  26.973  27.368  1.00  0.00     0.023 A 
ATOM     50  C   UNL A   1      43.132  27.387  26.014  1.00  0.00     0.012 A 
ATOM     51  C   UNL A   1      43.292  25.659  27.673  1.00  0.00     0.148 A 
ATOM     52  C   UNL A   1      43.745  26.544  25.049  1.00  0.00     0.002 A 
ATOM     53  C   UNL A   1      43.914  24.830  26.719  1.00  0.00     0.091 A 
ATOM     54  F   UNL A   1      43.139  25.249  28.937  1.00  0.00    -0.205 F 
ATOM     55  C   UNL A   1      44.152  25.267  25.409  1.00  0.00     0.022 A 
BRANCH  53  56
ATOM     56  S   UNL A   1      44.509  23.179  27.130  1.00  0.00     0.127 S 
ATOM     57  O   UNL A   1      45.498  23.467  28.170  1.00  0.00    -0.237 OA
ATOM     58  O   UNL A   1      43.293  22.529  27.610  1.00  0.00    -0.237 OA
ATOM     59  O   UNL A   1      45.070  22.652  25.894  1.00  0.00    -0.744 OA
ENDBRANCH  53  56
ENDBRANCH  25  49
BRANCH  37  60
ATOM     60  C   UNL A   1      41.674  28.956  33.078  1.00  0.00     0.023 A 
ATOM     61  C   UNL A   1      42.813  29.801  33.090  1.00  0.00     0.012 A 
ATOM     62  C   UNL A   1      41.582  27.968  34.060  1.00  0.00     0.148 A 
ATOM     63  C   UNL A   1      43.831  29.636  34.042  1.00  0.00     0.002 A 
ATOM     64  C   UNL A   1      42.558  27.840  35.031  1.00  0.00     0.091 A 
ATOM     65  F   UNL A   1      40.505  27.168  34.039  1.00  0.00    -0.205 F 
ATOM     66  C   UNL A   1      43.698  28.656  35.020  1.00  0.00     0.022 A 
BRANCH  64  67
ATOM     67  S   UNL A   1      42.343  26.675  36.366  1.00  0.00     0.127 S 
ATOM     68  O   UNL A   1      43.624  26.782  37.061  1.00  0.00    -0.237 OA
ATOM     69  O   UNL A   1      41.199  27.237  37.084  1.00  0.00    -0.237 OA
ATOM     70  O   UNL A   1      42.074  25.386  35.739  1.00  0.00    -0.744 OA
ENDBRANCH  64  67
ENDBRANCH  37  60
ENDBRANCH  11  12
ENDBRANCH   4   6
ENDBRANCH   3   4
ENDBRANCH   2   3
ENDBRANCH   1   2
BRANCH   1  71
ATOM     71  O   UNL A   1      46.281  41.272  23.012  1.00  0.00    -0.461 OA
BRANCH  71  72
ATOM     72  C   UNL A   1      45.663  42.458  22.183  1.00  0.00     0.328 C 
ATOM     73  O   UNL A   1      45.055  42.455  21.091  1.00  0.00    -0.250 OA
BRANCH  72  74
ATOM     74  C   UNL A   1      46.131  43.785  22.306  1.00  0.00     0.195 C 
ATOM     75  C   UNL A   1      46.610  44.379  21.048  1.00  0.00     0.046 C 
ATOM     76  N   UNL A   1      45.082  44.441  22.895  1.00  0.00    -0.328 N 
ATOM     77  C   UNL A   1      46.531  45.861  21.355  1.00  0.00     0.001 C 
ATOM     78  C   UNL A   1      45.458  45.882  22.632  1.00  0.00     0.128 C 
ATOM     79  C   UNL A   1      45.878  46.584  20.197  1.00  0.00     0.071 C 
ATOM     80  C   UNL A   1      47.992  46.417  21.408  1.00  0.00     0.071 C 
ATOM     81  C   UNL A   1      46.624  46.519  18.862  1.00  0.00     0.270 C 
ATOM     82  C   UNL A   1      48.744  46.341  20.017  1.00  0.00     0.270 C 
ATOM     83  N   UNL A   1      47.990  46.927  18.909  1.00  0.00    -0.272 N 
ATOM     84  H   UNL A   1      48.414  47.815  18.938  1.00  0.00     0.356 HD
BRANCH  76  85
ATOM     85  C   UNL A   1      44.249  43.685  23.796  1.00  0.00     0.225 C 
ATOM     86  O   UNL A   1      44.690  43.394  24.916  1.00  0.00    -0.275 OA
BRANCH  85  87
ATOM     87  C   UNL A   1      42.552  43.079  23.376  1.00  0.00     0.124 C 
BRANCH  87  88
ATOM     88  C   UNL A   1      41.604  42.596  21.796  1.00  0.00     0.154 C 
BRANCH  88  89
ATOM     89  N   UNL A   1      41.915  43.304  20.150  1.00  0.00    -0.272 N 
ATOM     90  C   UNL A   1      43.297  44.421  19.353  1.00  0.00     0.108 A 
ATOM     91  N   UNL A   1      40.362  43.660  19.179  1.00  0.00    -0.182 NA
ATOM     92  C   UNL A   1      42.530  45.351  18.013  1.00  0.00     0.042 A 
ATOM     93  C   UNL A   1      40.668  44.824  17.985  1.00  0.00     0.135 A 
ENDBRANCH  88  89
ENDBRANCH  87  88
ENDBRANCH  85  87
ENDBRANCH  76  85
BRANCH  83  94
ATOM     94  C   UNL A   1      48.690  47.553  17.846  1.00  0.00     0.315 C 
ATOM     95  O   UNL A   1      48.865  48.772  17.881  1.00  0.00    -0.231 OA
BRANCH  94  96
ATOM     96  C   UNL A   1      49.337  46.852  16.669  1.00  0.00     0.119 C 
ATOM     97  C   UNL A   1      50.303  45.718  16.749  1.00  0.00     0.019 C 
ATOM     98  C   UNL A   1      48.979  45.502  16.117  1.00  0.00     0.019 C 
ENDBRANCH  94  96
ENDBRANCH  83  94
ENDBRANCH  72  74
ENDBRANCH  71  72
ENDBRANCH   1  71
TORSDOF 20
ENDMDL
