MODEL 1
REMARK VINA RESULT:     -11.4      0.000      0.000
REMARK SMILES C[C@@H](C(=O)OCCOC(=O)c1ccc(-c2c3nc(c(-c4cccc(S(=O)(=O)[O-])c4F)c4ccc([nH]4)c(-c4cccc(S(=O)(=O)[O-])c4F)c4nc(c(-c5cccc(S(=O)(=O)[O-])c5F)c5ccc2[nH]5)C=C4)C=C3)cc1)c1ccc(C[C@H]2CCCC2=O)cc1F
REMARK SMILES IDX 6 1 5 2 3 3 4 4 2 5 1 6 74 7 75 8 86 9 76 10 85 11 87 12
REMARK SMILES IDX 77 13 78 14 79 15 80 16 83 17 81 18 82 19 84 20 7 21 8 22
REMARK SMILES IDX 9 23 10 24 11 25 12 26 73 27 13 28 72 29 14 30 15 31 16 32
REMARK SMILES IDX 66 33 17 34 71 35 65 36 67 37 18 38 70 39 64 40 63 41 19 43
REMARK SMILES IDX 51 44 31 45 50 46 32 47 35 48 49 49 68 50 33 51 34 52 48 54
REMARK SMILES IDX 69 55 36 56 20 57 21 58 29 59 22 60 24 61 30 62 23 63 25 64
REMARK SMILES IDX 26 65 27 66 28 67 52 68 53 69 61 70 54 71 56 72 62 73 55 74
REMARK SMILES IDX 57 75 58 76 59 77 60 78 37 79 38 80 46 81 39 82 41 83 47 84
REMARK SMILES IDX 40 85 42 86 43 87 44 88 45 89
REMARK H PARENT 67 42 35 53
REMARK Flexibility Score: inf
ROOT
ATOM      1  C   UNL A   1      32.250  29.972  25.707  1.00  0.00     0.274 C 
ENDROOT
BRANCH   1   2
ATOM      2  O   UNL A   1      31.156  29.574  24.855  1.00  0.00    -0.462 OA
BRANCH   2   3
ATOM      3  C   UNL A   1      31.435  28.647  23.892  1.00  0.00     0.313 C 
ATOM      4  O   UNL A   1      30.560  28.056  23.276  1.00  0.00    -0.252 OA
BRANCH   3   5
ATOM      5  C   UNL A   1      32.951  28.371  23.766  1.00  0.00     0.129 C 
ATOM      6  C   UNL A   1      33.515  28.987  22.470  1.00  0.00     0.025 C 
BRANCH   5   7
ATOM      7  C   UNL A   1      33.340  26.899  23.953  1.00  0.00     0.002 A 
ATOM      8  C   UNL A   1      33.356  25.982  22.891  1.00  0.00     0.008 A 
ATOM      9  C   UNL A   1      33.772  26.412  25.195  1.00  0.00     0.127 A 
ATOM     10  C   UNL A   1      33.719  24.644  23.081  1.00  0.00     0.004 A 
ATOM     11  C   UNL A   1      34.054  25.058  25.411  1.00  0.00     0.043 A 
ATOM     12  F   UNL A   1      33.945  27.255  26.223  1.00  0.00    -0.207 F 
ATOM     13  C   UNL A   1      33.993  24.142  24.355  1.00  0.00    -0.044 A 
BRANCH  13  14
ATOM     14  C   UNL A   1      34.261  22.669  24.580  1.00  0.00     0.047 C 
BRANCH  14  15
ATOM     15  C   UNL A   1      35.570  22.084  24.024  1.00  0.00     0.060 C 
ATOM     16  C   UNL A   1      36.766  23.031  24.035  1.00  0.00     0.012 C 
ATOM     17  C   UNL A   1      36.117  20.905  24.797  1.00  0.00     0.136 C 
ATOM     18  C   UNL A   1      37.584  22.681  25.271  1.00  0.00     0.009 C 
ATOM     19  C   UNL A   1      37.494  21.167  25.355  1.00  0.00     0.076 C 
ATOM     20  O   UNL A   1      35.512  19.852  24.964  1.00  0.00    -0.299 OA
ENDBRANCH  14  15
ENDBRANCH  13  14
ENDBRANCH   5   7
ENDBRANCH   3   5
ENDBRANCH   2   3
ENDBRANCH   1   2
BRANCH   1  21
ATOM     21  C   UNL A   1      31.908  31.233  26.497  1.00  0.00     0.275 C 
BRANCH  21  22
ATOM     22  O   UNL A   1      32.727  31.317  27.677  1.00  0.00    -0.458 OA
BRANCH  22  23
ATOM     23  C   UNL A   1      33.712  32.233  27.655  1.00  0.00     0.338 C 
ATOM     24  O   UNL A   1      33.611  33.434  27.404  1.00  0.00    -0.246 OA
BRANCH  23  25
ATOM     25  C   UNL A   1      34.981  31.604  28.038  1.00  0.00     0.060 A 
ATOM     26  C   UNL A   1      34.973  30.252  28.354  1.00  0.00     0.016 A 
ATOM     27  C   UNL A   1      36.143  32.358  28.216  1.00  0.00     0.016 A 
ATOM     28  C   UNL A   1      36.101  29.676  28.931  1.00  0.00     0.010 A 
ATOM     29  C   UNL A   1      37.295  31.752  28.746  1.00  0.00     0.010 A 
ATOM     30  C   UNL A   1      37.273  30.417  29.181  1.00  0.00    -0.014 A 
BRANCH  30  31
ATOM     31  C   UNL A   1      38.376  29.796  29.996  1.00  0.00     0.031 A 
ATOM     32  C   UNL A   1      39.290  28.736  29.407  1.00  0.00     0.074 A 
ATOM     33  C   UNL A   1      38.717  30.319  31.195  1.00  0.00     0.049 A 
ATOM     34  N   UNL A   1      40.428  28.279  29.882  1.00  0.00    -0.248 NA
ATOM     35  C   UNL A   1      38.935  28.166  28.097  1.00  0.00     0.031 C 
ATOM     36  C   UNL A   1      37.991  31.382  31.888  1.00  0.00     0.029 A 
ATOM     37  N   UNL A   1      39.790  30.060  32.022  1.00  0.00    -0.354 N 
ATOM     38  C   UNL A   1      40.938  27.422  28.912  1.00  0.00     0.074 A 
ATOM     39  C   UNL A   1      39.969  27.376  27.842  1.00  0.00     0.031 C 
ATOM     40  C   UNL A   1      38.664  31.727  32.995  1.00  0.00     0.029 A 
ATOM     41  C   UNL A   1      39.825  30.853  33.148  1.00  0.00     0.049 A 
ATOM     42  H   UNL A   1      40.467  29.374  31.826  1.00  0.00     0.167 HD
ATOM     43  C   UNL A   1      42.125  26.772  28.873  1.00  0.00     0.034 A 
ATOM     44  C   UNL A   1      40.664  30.867  34.205  1.00  0.00     0.034 A 
ATOM     45  C   UNL A   1      43.108  26.762  29.921  1.00  0.00     0.049 A 
ATOM     46  C   UNL A   1      41.824  29.915  34.258  1.00  0.00     0.074 A 
ATOM     47  C   UNL A   1      44.320  26.090  29.952  1.00  0.00     0.029 A 
ATOM     48  N   UNL A   1      42.986  27.417  31.131  1.00  0.00    -0.354 N 
ATOM     49  N   UNL A   1      42.321  29.169  33.304  1.00  0.00    -0.248 NA
ATOM     50  C   UNL A   1      42.537  29.801  35.541  1.00  0.00     0.031 C 
ATOM     51  C   UNL A   1      44.913  26.308  31.201  1.00  0.00     0.029 A 
ATOM     52  C   UNL A   1      44.074  27.125  31.939  1.00  0.00     0.049 A 
ATOM     53  H   UNL A   1      42.237  28.004  31.382  1.00  0.00     0.167 HD
ATOM     54  C   UNL A   1      43.403  28.500  33.868  1.00  0.00     0.074 A 
ATOM     55  C   UNL A   1      43.514  28.955  35.237  1.00  0.00     0.031 C 
ATOM     56  C   UNL A   1      44.212  27.575  33.298  1.00  0.00     0.034 A 
BRANCH  43  57
ATOM     57  C   UNL A   1      42.462  26.023  27.615  1.00  0.00     0.023 A 
ATOM     58  C   UNL A   1      43.155  26.695  26.588  1.00  0.00     0.012 A 
ATOM     59  C   UNL A   1      42.172  24.653  27.482  1.00  0.00     0.148 A 
ATOM     60  C   UNL A   1      43.558  26.010  25.443  1.00  0.00     0.002 A 
ATOM     61  C   UNL A   1      42.590  23.975  26.344  1.00  0.00     0.091 A 
ATOM     62  F   UNL A   1      41.483  24.050  28.459  1.00  0.00    -0.205 F 
ATOM     63  C   UNL A   1      43.284  24.650  25.325  1.00  0.00     0.022 A 
BRANCH  61  64
ATOM     64  S   UNL A   1      42.309  22.215  26.125  1.00  0.00     0.127 S 
ATOM     65  O   UNL A   1      43.040  21.954  24.886  1.00  0.00    -0.237 OA
ATOM     66  O   UNL A   1      42.920  21.647  27.326  1.00  0.00    -0.237 OA
ATOM     67  O   UNL A   1      40.864  22.053  26.047  1.00  0.00    -0.744 OA
ENDBRANCH  61  64
ENDBRANCH  43  57
BRANCH  44  68
ATOM     68  C   UNL A   1      40.407  31.802  35.338  1.00  0.00     0.023 A 
ATOM     69  C   UNL A   1      41.201  32.953  35.505  1.00  0.00     0.012 A 
ATOM     70  C   UNL A   1      39.352  31.563  36.241  1.00  0.00     0.148 A 
ATOM     71  C   UNL A   1      40.940  33.848  36.546  1.00  0.00     0.002 A 
ATOM     72  C   UNL A   1      39.049  32.497  37.222  1.00  0.00     0.091 A 
ATOM     73  F   UNL A   1      38.647  30.430  36.115  1.00  0.00    -0.205 F 
ATOM     74  C   UNL A   1      39.851  33.633  37.390  1.00  0.00     0.022 A 
BRANCH  72  75
ATOM     75  S   UNL A   1      37.550  32.346  38.198  1.00  0.00     0.127 S 
ATOM     76  O   UNL A   1      37.900  33.081  39.409  1.00  0.00    -0.237 OA
ATOM     77  O   UNL A   1      36.553  32.995  37.347  1.00  0.00    -0.237 OA
ATOM     78  O   UNL A   1      37.352  30.909  38.348  1.00  0.00    -0.744 OA
ENDBRANCH  72  75
ENDBRANCH  44  68
BRANCH  56  79
ATOM     79  C   UNL A   1      45.279  26.943  34.155  1.00  0.00     0.023 A 
ATOM     80  C   UNL A   1      46.549  27.549  34.222  1.00  0.00     0.012 A 
ATOM     81  C   UNL A   1      45.017  25.806  34.945  1.00  0.00     0.148 A 
ATOM     82  C   UNL A   1      47.548  27.023  35.041  1.00  0.00     0.002 A 
ATOM     83  C   UNL A   1      46.005  25.310  35.790  1.00  0.00     0.091 A 
ATOM     84  F   UNL A   1      43.811  25.226  34.854  1.00  0.00    -0.205 F 
ATOM     85  C   UNL A   1      47.273  25.912  35.833  1.00  0.00     0.022 A 
BRANCH  83  86
ATOM     86  S   UNL A   1      45.704  23.936  36.909  1.00  0.00     0.127 S 
ATOM     87  O   UNL A   1      47.020  23.751  37.517  1.00  0.00    -0.237 OA
ATOM     88  O   UNL A   1      44.687  24.478  37.811  1.00  0.00    -0.237 OA
ATOM     89  O   UNL A   1      45.236  22.842  36.068  1.00  0.00    -0.744 OA
ENDBRANCH  83  86
ENDBRANCH  56  79
ENDBRANCH  30  31
ENDBRANCH  23  25
ENDBRANCH  22  23
ENDBRANCH  21  22
ENDBRANCH   1  21
TORSDOF 17
ENDMDL
MODEL 2
REMARK VINA RESULT:     -11.3      1.591      7.827
REMARK SMILES C[C@@H](C(=O)OCCOC(=O)c1ccc(-c2c3nc(c(-c4cccc(S(=O)(=O)[O-])c4F)c4ccc([nH]4)c(-c4cccc(S(=O)(=O)[O-])c4F)c4nc(c(-c5cccc(S(=O)(=O)[O-])c5F)c5ccc2[nH]5)C=C4)C=C3)cc1)c1ccc(C[C@H]2CCCC2=O)cc1F
REMARK SMILES IDX 6 1 5 2 3 3 4 4 2 5 1 6 74 7 75 8 86 9 76 10 85 11 87 12
REMARK SMILES IDX 77 13 78 14 79 15 80 16 83 17 81 18 82 19 84 20 7 21 8 22
REMARK SMILES IDX 9 23 10 24 11 25 12 26 73 27 13 28 72 29 14 30 15 31 16 32
REMARK SMILES IDX 66 33 17 34 71 35 65 36 67 37 18 38 70 39 64 40 63 41 19 43
REMARK SMILES IDX 51 44 31 45 50 46 32 47 35 48 49 49 68 50 33 51 34 52 48 54
REMARK SMILES IDX 69 55 36 56 20 57 21 58 29 59 22 60 24 61 30 62 23 63 25 64
REMARK SMILES IDX 26 65 27 66 28 67 52 68 53 69 61 70 54 71 56 72 62 73 55 74
REMARK SMILES IDX 57 75 58 76 59 77 60 78 37 79 38 80 46 81 39 82 41 83 47 84
REMARK SMILES IDX 40 85 42 86 43 87 44 88 45 89
REMARK H PARENT 67 42 35 53
REMARK Flexibility Score: inf
ROOT
ATOM      1  C   UNL A   1      31.083  30.808  25.312  1.00  0.00     0.274 C 
ENDROOT
BRANCH   1   2
ATOM      2  O   UNL A   1      31.625  29.509  25.629  1.00  0.00    -0.462 OA
BRANCH   2   3
ATOM      3  C   UNL A   1      31.693  28.607  24.604  1.00  0.00     0.313 C 
ATOM      4  O   UNL A   1      30.697  28.173  24.045  1.00  0.00    -0.252 OA
BRANCH   3   5
ATOM      5  C   UNL A   1      33.142  28.141  24.329  1.00  0.00     0.129 C 
ATOM      6  C   UNL A   1      33.774  28.959  23.186  1.00  0.00     0.025 C 
BRANCH   5   7
ATOM      7  C   UNL A   1      33.288  26.626  24.140  1.00  0.00     0.002 A 
ATOM      8  C   UNL A   1      33.692  25.771  25.177  1.00  0.00     0.008 A 
ATOM      9  C   UNL A   1      32.952  26.008  22.926  1.00  0.00     0.127 A 
ATOM     10  C   UNL A   1      33.815  24.390  24.985  1.00  0.00     0.004 A 
ATOM     11  C   UNL A   1      33.154  24.640  22.703  1.00  0.00     0.043 A 
ATOM     12  F   UNL A   1      32.402  26.725  21.937  1.00  0.00    -0.207 F 
ATOM     13  C   UNL A   1      33.628  23.815  23.727  1.00  0.00    -0.044 A 
BRANCH  13  14
ATOM     14  C   UNL A   1      33.884  22.341  23.490  1.00  0.00     0.047 C 
BRANCH  14  15
ATOM     15  C   UNL A   1      33.562  21.363  24.633  1.00  0.00     0.060 C 
ATOM     16  C   UNL A   1      32.304  20.524  24.440  1.00  0.00     0.012 C 
ATOM     17  C   UNL A   1      34.603  20.290  24.862  1.00  0.00     0.136 C 
ATOM     18  C   UNL A   1      32.763  19.167  23.923  1.00  0.00     0.009 C 
ATOM     19  C   UNL A   1      34.049  18.898  24.686  1.00  0.00     0.076 C 
ATOM     20  O   UNL A   1      35.773  20.517  25.150  1.00  0.00    -0.299 OA
ENDBRANCH  14  15
ENDBRANCH  13  14
ENDBRANCH   5   7
ENDBRANCH   3   5
ENDBRANCH   2   3
ENDBRANCH   1   2
BRANCH   1  21
ATOM     21  C   UNL A   1      31.238  31.774  26.484  1.00  0.00     0.275 C 
BRANCH  21  22
ATOM     22  O   UNL A   1      32.465  31.510  27.186  1.00  0.00    -0.458 OA
BRANCH  22  23
ATOM     23  C   UNL A   1      33.171  32.586  27.579  1.00  0.00     0.338 C 
ATOM     24  O   UNL A   1      32.754  33.733  27.747  1.00  0.00    -0.246 OA
BRANCH  23  25
ATOM     25  C   UNL A   1      34.559  32.196  27.848  1.00  0.00     0.060 A 
ATOM     26  C   UNL A   1      34.836  30.850  28.042  1.00  0.00     0.016 A 
ATOM     27  C   UNL A   1      35.560  33.151  28.040  1.00  0.00     0.016 A 
ATOM     28  C   UNL A   1      36.088  30.468  28.514  1.00  0.00     0.010 A 
ATOM     29  C   UNL A   1      36.839  32.749  28.462  1.00  0.00     0.010 A 
ATOM     30  C   UNL A   1      37.106  31.407  28.778  1.00  0.00    -0.014 A 
BRANCH  30  31
ATOM     31  C   UNL A   1      38.357  30.957  29.484  1.00  0.00     0.031 A 
ATOM     32  C   UNL A   1      38.663  31.402  30.904  1.00  0.00     0.074 A 
ATOM     33  C   UNL A   1      39.126  29.979  28.956  1.00  0.00     0.049 A 
ATOM     34  N   UNL A   1      39.558  30.920  31.738  1.00  0.00    -0.248 NA
ATOM     35  C   UNL A   1      37.826  32.459  31.493  1.00  0.00     0.031 C 
ATOM     36  C   UNL A   1      38.945  29.388  27.631  1.00  0.00     0.029 A 
ATOM     37  N   UNL A   1      40.183  29.274  29.489  1.00  0.00    -0.354 N 
ATOM     38  C   UNL A   1      39.353  31.574  32.949  1.00  0.00     0.074 A 
ATOM     39  C   UNL A   1      38.286  32.524  32.736  1.00  0.00     0.031 C 
ATOM     40  C   UNL A   1      39.812  28.378  27.476  1.00  0.00     0.029 A 
ATOM     41  C   UNL A   1      40.676  28.297  28.651  1.00  0.00     0.049 A 
ATOM     42  H   UNL A   1      40.552  29.451  30.383  1.00  0.00     0.167 HD
ATOM     43  C   UNL A   1      39.948  31.375  34.149  1.00  0.00     0.034 A 
ATOM     44  C   UNL A   1      41.720  27.452  28.782  1.00  0.00     0.034 A 
ATOM     45  C   UNL A   1      41.030  30.465  34.405  1.00  0.00     0.049 A 
ATOM     46  C   UNL A   1      42.545  27.462  30.036  1.00  0.00     0.074 A 
ATOM     47  C   UNL A   1      41.699  30.245  35.598  1.00  0.00     0.029 A 
ATOM     48  N   UNL A   1      41.629  29.656  33.459  1.00  0.00    -0.354 N 
ATOM     49  N   UNL A   1      42.290  28.036  31.184  1.00  0.00    -0.248 NA
ATOM     50  C   UNL A   1      43.811  26.712  30.009  1.00  0.00     0.031 C 
ATOM     51  C   UNL A   1      42.730  29.329  35.363  1.00  0.00     0.029 A 
ATOM     52  C   UNL A   1      42.693  28.973  34.026  1.00  0.00     0.049 A 
ATOM     53  H   UNL A   1      41.342  29.577  32.521  1.00  0.00     0.167 HD
ATOM     54  C   UNL A   1      43.358  27.716  32.016  1.00  0.00     0.074 A 
ATOM     55  C   UNL A   1      44.248  26.867  31.253  1.00  0.00     0.031 C 
ATOM     56  C   UNL A   1      43.584  28.115  33.291  1.00  0.00     0.034 A 
BRANCH  43  57
ATOM     57  C   UNL A   1      39.410  32.143  35.322  1.00  0.00     0.023 A 
ATOM     58  C   UNL A   1      38.476  31.521  36.173  1.00  0.00     0.012 A 
ATOM     59  C   UNL A   1      39.885  33.432  35.628  1.00  0.00     0.148 A 
ATOM     60  C   UNL A   1      38.019  32.172  37.317  1.00  0.00     0.002 A 
ATOM     61  C   UNL A   1      39.436  34.068  36.779  1.00  0.00     0.091 A 
ATOM     62  F   UNL A   1      40.747  34.011  34.783  1.00  0.00    -0.205 F 
ATOM     63  C   UNL A   1      38.506  33.440  37.625  1.00  0.00     0.022 A 
BRANCH  61  64
ATOM     64  S   UNL A   1      40.035  35.689  37.269  1.00  0.00     0.127 S 
ATOM     65  O   UNL A   1      41.468  35.439  37.410  1.00  0.00    -0.237 OA
ATOM     66  O   UNL A   1      39.669  36.518  36.121  1.00  0.00    -0.237 OA
ATOM     67  O   UNL A   1      39.329  36.015  38.500  1.00  0.00    -0.744 OA
ENDBRANCH  61  64
ENDBRANCH  43  57
BRANCH  44  68
ATOM     68  C   UNL A   1      42.074  26.538  27.657  1.00  0.00     0.023 A 
ATOM     69  C   UNL A   1      42.963  26.961  26.649  1.00  0.00     0.012 A 
ATOM     70  C   UNL A   1      41.549  25.232  27.601  1.00  0.00     0.148 A 
ATOM     71  C   UNL A   1      43.321  26.094  25.614  1.00  0.00     0.002 A 
ATOM     72  C   UNL A   1      41.972  24.352  26.615  1.00  0.00     0.091 A 
ATOM     73  F   UNL A   1      40.651  24.864  28.525  1.00  0.00    -0.205 F 
ATOM     74  C   UNL A   1      42.846  24.784  25.609  1.00  0.00     0.022 A 
BRANCH  72  75
ATOM     75  S   UNL A   1      41.529  22.614  26.687  1.00  0.00     0.127 S 
ATOM     76  O   UNL A   1      40.072  22.671  26.665  1.00  0.00    -0.237 OA
ATOM     77  O   UNL A   1      42.146  22.079  25.473  1.00  0.00    -0.237 OA
ATOM     78  O   UNL A   1      42.139  22.130  27.920  1.00  0.00    -0.744 OA
ENDBRANCH  72  75
ENDBRANCH  44  68
BRANCH  56  79
ATOM     79  C   UNL A   1      44.866  27.681  33.953  1.00  0.00     0.023 A 
ATOM     80  C   UNL A   1      45.984  28.537  33.903  1.00  0.00     0.012 A 
ATOM     81  C   UNL A   1      44.953  26.477  34.680  1.00  0.00     0.148 A 
ATOM     82  C   UNL A   1      47.174  28.193  34.545  1.00  0.00     0.002 A 
ATOM     83  C   UNL A   1      46.130  26.159  35.351  1.00  0.00     0.091 A 
ATOM     84  F   UNL A   1      43.889  25.660  34.700  1.00  0.00    -0.205 F 
ATOM     85  C   UNL A   1      47.244  27.012  35.277  1.00  0.00     0.022 A 
BRANCH  83  86
ATOM     86  S   UNL A   1      46.274  24.700  36.390  1.00  0.00     0.127 S 
ATOM     87  O   UNL A   1      46.200  23.623  35.405  1.00  0.00    -0.237 OA
ATOM     88  O   UNL A   1      47.592  24.874  37.003  1.00  0.00    -0.237 OA
ATOM     89  O   UNL A   1      45.163  24.776  37.329  1.00  0.00    -0.744 OA
ENDBRANCH  83  86
ENDBRANCH  56  79
ENDBRANCH  30  31
ENDBRANCH  23  25
ENDBRANCH  22  23
ENDBRANCH  21  22
ENDBRANCH   1  21
TORSDOF 17
ENDMDL
MODEL 3
REMARK VINA RESULT:     -11.3      5.677      8.747
REMARK SMILES C[C@@H](C(=O)OCCOC(=O)c1ccc(-c2c3nc(c(-c4cccc(S(=O)(=O)[O-])c4F)c4ccc([nH]4)c(-c4cccc(S(=O)(=O)[O-])c4F)c4nc(c(-c5cccc(S(=O)(=O)[O-])c5F)c5ccc2[nH]5)C=C4)C=C3)cc1)c1ccc(C[C@H]2CCCC2=O)cc1F
REMARK SMILES IDX 6 1 5 2 3 3 4 4 2 5 1 6 74 7 75 8 86 9 76 10 85 11 87 12
REMARK SMILES IDX 77 13 78 14 79 15 80 16 83 17 81 18 82 19 84 20 7 21 8 22
REMARK SMILES IDX 9 23 10 24 11 25 12 26 73 27 13 28 72 29 14 30 15 31 16 32
REMARK SMILES IDX 66 33 17 34 71 35 65 36 67 37 18 38 70 39 64 40 63 41 19 43
REMARK SMILES IDX 51 44 31 45 50 46 32 47 35 48 49 49 68 50 33 51 34 52 48 54
REMARK SMILES IDX 69 55 36 56 20 57 21 58 29 59 22 60 24 61 30 62 23 63 25 64
REMARK SMILES IDX 26 65 27 66 28 67 52 68 53 69 61 70 54 71 56 72 62 73 55 74
REMARK SMILES IDX 57 75 58 76 59 77 60 78 37 79 38 80 46 81 39 82 41 83 47 84
REMARK SMILES IDX 40 85 42 86 43 87 44 88 45 89
REMARK H PARENT 67 42 35 53
REMARK Flexibility Score: inf
ROOT
ATOM      1  C   UNL A   1      37.685  21.360  25.175  1.00  0.00     0.274 C 
ENDROOT
BRANCH   1   2
ATOM      2  O   UNL A   1      36.885  22.480  25.605  1.00  0.00    -0.462 OA
BRANCH   2   3
ATOM      3  C   UNL A   1      36.042  23.024  24.677  1.00  0.00     0.313 C 
ATOM      4  O   UNL A   1      36.447  23.538  23.645  1.00  0.00    -0.252 OA
BRANCH   3   5
ATOM      5  C   UNL A   1      34.568  23.003  25.141  1.00  0.00     0.129 C 
ATOM      6  C   UNL A   1      34.441  23.512  26.590  1.00  0.00     0.025 C 
BRANCH   5   7
ATOM      7  C   UNL A   1      33.854  21.666  24.906  1.00  0.00     0.002 A 
ATOM      8  C   UNL A   1      33.740  20.687  25.904  1.00  0.00     0.008 A 
ATOM      9  C   UNL A   1      33.212  21.387  23.690  1.00  0.00     0.127 A 
ATOM     10  C   UNL A   1      33.079  19.475  25.672  1.00  0.00     0.004 A 
ATOM     11  C   UNL A   1      32.625  20.144  23.423  1.00  0.00     0.043 A 
ATOM     12  F   UNL A   1      33.130  22.330  22.742  1.00  0.00    -0.207 F 
ATOM     13  C   UNL A   1      32.585  19.151  24.407  1.00  0.00    -0.044 A 
BRANCH  13  14
ATOM     14  C   UNL A   1      31.984  17.790  24.122  1.00  0.00     0.047 C 
BRANCH  14  15
ATOM     15  C   UNL A   1      32.947  16.621  23.855  1.00  0.00     0.060 C 
ATOM     16  C   UNL A   1      34.318  17.014  23.315  1.00  0.00     0.012 C 
ATOM     17  C   UNL A   1      33.328  15.821  25.080  1.00  0.00     0.136 C 
ATOM     18  C   UNL A   1      35.267  17.020  24.505  1.00  0.00     0.009 C 
ATOM     19  C   UNL A   1      34.814  15.839  25.345  1.00  0.00     0.076 C 
ATOM     20  O   UNL A   1      32.525  15.227  25.791  1.00  0.00    -0.299 OA
ENDBRANCH  14  15
ENDBRANCH  13  14
ENDBRANCH   5   7
ENDBRANCH   3   5
ENDBRANCH   2   3
ENDBRANCH   1   2
BRANCH   1  21
ATOM     21  C   UNL A   1      39.094  21.426  25.761  1.00  0.00     0.275 C 
BRANCH  21  22
ATOM     22  O   UNL A   1      39.511  20.121  26.200  1.00  0.00    -0.458 OA
BRANCH  22  23
ATOM     23  C   UNL A   1      40.828  19.857  26.118  1.00  0.00     0.338 C 
ATOM     24  O   UNL A   1      41.358  18.805  25.761  1.00  0.00    -0.246 OA
BRANCH  23  25
ATOM     25  C   UNL A   1      41.595  21.056  26.473  1.00  0.00     0.060 A 
ATOM     26  C   UNL A   1      41.722  21.379  27.817  1.00  0.00     0.016 A 
ATOM     27  C   UNL A   1      42.074  21.930  25.494  1.00  0.00     0.016 A 
ATOM     28  C   UNL A   1      42.247  22.616  28.179  1.00  0.00     0.010 A 
ATOM     29  C   UNL A   1      42.655  23.153  25.873  1.00  0.00     0.010 A 
ATOM     30  C   UNL A   1      42.686  23.551  27.219  1.00  0.00    -0.014 A 
BRANCH  30  31
ATOM     31  C   UNL A   1      43.043  24.945  27.660  1.00  0.00     0.031 A 
ATOM     32  C   UNL A   1      44.402  25.547  27.349  1.00  0.00     0.074 A 
ATOM     33  C   UNL A   1      42.092  25.771  28.151  1.00  0.00     0.049 A 
ATOM     34  N   UNL A   1      44.783  26.802  27.438  1.00  0.00    -0.248 NA
ATOM     35  C   UNL A   1      45.443  24.659  26.805  1.00  0.00     0.031 C 
ATOM     36  C   UNL A   1      40.715  25.383  28.456  1.00  0.00     0.029 A 
ATOM     37  N   UNL A   1      42.124  27.120  28.433  1.00  0.00    -0.354 N 
ATOM     38  C   UNL A   1      46.071  26.856  26.916  1.00  0.00     0.074 A 
ATOM     39  C   UNL A   1      46.435  25.505  26.558  1.00  0.00     0.031 C 
ATOM     40  C   UNL A   1      40.021  26.471  28.822  1.00  0.00     0.029 A 
ATOM     41  C   UNL A   1      40.918  27.624  28.867  1.00  0.00     0.049 A 
ATOM     42  H   UNL A   1      42.933  27.671  28.334  1.00  0.00     0.167 HD
ATOM     43  C   UNL A   1      46.868  27.928  26.695  1.00  0.00     0.034 A 
ATOM     44  C   UNL A   1      40.564  28.856  29.288  1.00  0.00     0.034 A 
ATOM     45  C   UNL A   1      46.565  29.285  27.058  1.00  0.00     0.049 A 
ATOM     46  C   UNL A   1      41.573  29.968  29.297  1.00  0.00     0.074 A 
ATOM     47  C   UNL A   1      47.353  30.413  26.889  1.00  0.00     0.029 A 
ATOM     48  N   UNL A   1      45.410  29.699  27.692  1.00  0.00    -0.354 N 
ATOM     49  N   UNL A   1      42.756  30.010  28.737  1.00  0.00    -0.248 NA
ATOM     50  C   UNL A   1      41.201  31.203  30.007  1.00  0.00     0.031 C 
ATOM     51  C   UNL A   1      46.687  31.504  27.459  1.00  0.00     0.029 A 
ATOM     52  C   UNL A   1      45.482  31.055  27.970  1.00  0.00     0.049 A 
ATOM     53  H   UNL A   1      44.648  29.116  27.914  1.00  0.00     0.167 HD
ATOM     54  C   UNL A   1      43.268  31.272  29.023  1.00  0.00     0.074 A 
ATOM     55  C   UNL A   1      42.253  31.979  29.776  1.00  0.00     0.031 C 
ATOM     56  C   UNL A   1      44.482  31.781  28.705  1.00  0.00     0.034 A 
BRANCH  43  57
ATOM     57  C   UNL A   1      48.166  27.687  25.977  1.00  0.00     0.023 A 
ATOM     58  C   UNL A   1      49.319  27.402  26.734  1.00  0.00     0.012 A 
ATOM     59  C   UNL A   1      48.227  27.661  24.573  1.00  0.00     0.148 A 
ATOM     60  C   UNL A   1      50.521  27.091  26.101  1.00  0.00     0.002 A 
ATOM     61  C   UNL A   1      49.426  27.335  23.948  1.00  0.00     0.091 A 
ATOM     62  F   UNL A   1      47.124  27.969  23.880  1.00  0.00    -0.205 F 
ATOM     63  C   UNL A   1      50.572  27.048  24.710  1.00  0.00     0.022 A 
BRANCH  61  64
ATOM     64  S   UNL A   1      49.572  27.224  22.162  1.00  0.00     0.127 S 
ATOM     65  O   UNL A   1      49.170  28.568  21.753  1.00  0.00    -0.237 OA
ATOM     66  O   UNL A   1      50.994  26.931  21.981  1.00  0.00    -0.237 OA
ATOM     67  O   UNL A   1      48.677  26.149  21.758  1.00  0.00    -0.744 OA
ENDBRANCH  61  64
ENDBRANCH  43  57
BRANCH  44  68
ATOM     68  C   UNL A   1      39.177  29.097  29.784  1.00  0.00     0.023 A 
ATOM     69  C   UNL A   1      38.800  28.677  31.073  1.00  0.00     0.012 A 
ATOM     70  C   UNL A   1      38.236  29.771  28.981  1.00  0.00     0.148 A 
ATOM     71  C   UNL A   1      37.511  28.932  31.551  1.00  0.00     0.002 A 
ATOM     72  C   UNL A   1      36.986  30.091  29.493  1.00  0.00     0.091 A 
ATOM     73  F   UNL A   1      38.583  30.105  27.730  1.00  0.00    -0.205 F 
ATOM     74  C   UNL A   1      36.613  29.659  30.772  1.00  0.00     0.022 A 
BRANCH  72  75
ATOM     75  S   UNL A   1      35.880  31.182  28.593  1.00  0.00     0.127 S 
ATOM     76  O   UNL A   1      35.386  30.308  27.534  1.00  0.00    -0.237 OA
ATOM     77  O   UNL A   1      34.892  31.540  29.610  1.00  0.00    -0.237 OA
ATOM     78  O   UNL A   1      36.723  32.295  28.172  1.00  0.00    -0.744 OA
ENDBRANCH  72  75
ENDBRANCH  44  68
BRANCH  56  79
ATOM     79  C   UNL A   1      44.822  33.164  29.199  1.00  0.00     0.023 A 
ATOM     80  C   UNL A   1      45.466  33.305  30.444  1.00  0.00     0.012 A 
ATOM     81  C   UNL A   1      44.577  34.310  28.417  1.00  0.00     0.148 A 
ATOM     82  C   UNL A   1      45.841  34.564  30.914  1.00  0.00     0.002 A 
ATOM     83  C   UNL A   1      44.990  35.558  28.874  1.00  0.00     0.091 A 
ATOM     84  F   UNL A   1      43.942  34.164  27.244  1.00  0.00    -0.205 F 
ATOM     85  C   UNL A   1      45.614  35.688  30.125  1.00  0.00     0.022 A 
BRANCH  83  86
ATOM     86  S   UNL A   1      44.814  37.046  27.880  1.00  0.00     0.127 S 
ATOM     87  O   UNL A   1      45.551  36.686  26.670  1.00  0.00    -0.237 OA
ATOM     88  O   UNL A   1      43.364  37.142  27.704  1.00  0.00    -0.237 OA
ATOM     89  O   UNL A   1      45.392  38.120  28.677  1.00  0.00    -0.744 OA
ENDBRANCH  83  86
ENDBRANCH  56  79
ENDBRANCH  30  31
ENDBRANCH  23  25
ENDBRANCH  22  23
ENDBRANCH  21  22
ENDBRANCH   1  21
TORSDOF 17
ENDMDL
