MODEL 1
REMARK VINA RESULT:     -11.4      0.000      0.000
REMARK SMILES C[C@@H](C(=O)OCCOC(=O)c1ccc(-c2c3nc(c(-c4cccc(S(=O)(=O)[O-])c4F)c4ccc([nH]4)c(-c4cccc(S(=O)(=O)[O-])c4F)c4nc(c(-c5cccc(S(=O)(=O)[O-])c5F)c5ccc2[nH]5)C=C4)C=C3)cc1)c1ccc(C(=O)c2cccs2)cc1
REMARK SMILES IDX 6 1 5 2 3 3 4 4 2 5 1 6 74 7 75 8 86 9 76 10 85 11 77 12
REMARK SMILES IDX 78 13 79 14 80 15 81 16 84 17 82 18 83 19 7 20 8 21 9 22
REMARK SMILES IDX 10 23 11 24 12 25 73 26 13 27 72 28 14 29 15 30 16 31 66 32
REMARK SMILES IDX 17 33 71 34 65 35 67 36 18 37 70 38 64 39 63 40 19 42 51 43
REMARK SMILES IDX 31 44 50 45 32 46 35 47 49 48 68 49 33 50 34 51 48 53 69 54
REMARK SMILES IDX 36 55 20 56 21 57 29 58 22 59 24 60 30 61 23 62 25 63 26 64
REMARK SMILES IDX 27 65 28 66 52 67 53 68 61 69 54 70 56 71 62 72 55 73 57 74
REMARK SMILES IDX 58 75 59 76 60 77 37 78 38 79 46 80 39 81 41 82 47 83 40 84
REMARK SMILES IDX 42 85 43 86 44 87 45 88
REMARK H PARENT 67 41 35 52
REMARK Flexibility Score: inf
ROOT
ATOM      1  C   UNL A   1      36.047  20.057  24.993  1.00  0.00     0.274 C 
ENDROOT
BRANCH   1   2
ATOM      2  O   UNL A   1      35.187  21.062  24.417  1.00  0.00    -0.462 OA
BRANCH   2   3
ATOM      3  C   UNL A   1      34.050  21.368  25.101  1.00  0.00     0.313 C 
ATOM      4  O   UNL A   1      32.929  21.017  24.752  1.00  0.00    -0.252 OA
BRANCH   3   5
ATOM      5  C   UNL A   1      34.317  22.264  26.320  1.00  0.00     0.126 C 
ATOM      6  C   UNL A   1      33.939  21.603  27.650  1.00  0.00     0.025 C 
BRANCH   5   7
ATOM      7  C   UNL A   1      33.730  23.667  26.147  1.00  0.00    -0.034 A 
ATOM      8  C   UNL A   1      32.405  23.904  26.544  1.00  0.00     0.005 A 
ATOM      9  C   UNL A   1      34.464  24.753  25.647  1.00  0.00     0.005 A 
ATOM     10  C   UNL A   1      31.832  25.176  26.424  1.00  0.00     0.012 A 
ATOM     11  C   UNL A   1      33.892  26.033  25.539  1.00  0.00     0.012 A 
ATOM     12  C   UNL A   1      32.561  26.258  25.906  1.00  0.00     0.023 A 
BRANCH  12  13
ATOM     13  C   UNL A   1      31.879  27.599  25.855  1.00  0.00     0.202 C 
ATOM     14  O   UNL A   1      32.007  28.312  26.852  1.00  0.00    -0.288 OA
BRANCH  13  15
ATOM     15  C   UNL A   1      31.107  28.016  24.692  1.00  0.00     0.075 A 
ATOM     16  C   UNL A   1      30.432  27.280  23.734  1.00  0.00     0.024 A 
ATOM     17  S   UNL A   1      30.880  29.701  24.439  1.00  0.00    -0.140 S 
ATOM     18  C   UNL A   1      29.802  28.102  22.752  1.00  0.00     0.012 A 
ATOM     19  C   UNL A   1      29.977  29.442  23.014  1.00  0.00     0.065 A 
ENDBRANCH  13  15
ENDBRANCH  12  13
ENDBRANCH   5   7
ENDBRANCH   3   5
ENDBRANCH   2   3
ENDBRANCH   1   2
BRANCH   1  20
ATOM     20  C   UNL A   1      37.510  20.397  24.724  1.00  0.00     0.275 C 
BRANCH  20  21
ATOM     21  O   UNL A   1      37.951  21.382  25.672  1.00  0.00    -0.458 OA
BRANCH  21  22
ATOM     22  C   UNL A   1      39.208  21.226  26.147  1.00  0.00     0.338 C 
ATOM     23  O   UNL A   1      39.919  20.240  26.066  1.00  0.00    -0.246 OA
BRANCH  22  24
ATOM     24  C   UNL A   1      39.642  22.486  26.768  1.00  0.00     0.060 A 
ATOM     25  C   UNL A   1      39.019  23.672  26.390  1.00  0.00     0.016 A 
ATOM     26  C   UNL A   1      40.738  22.509  27.629  1.00  0.00     0.016 A 
ATOM     27  C   UNL A   1      39.555  24.891  26.794  1.00  0.00     0.010 A 
ATOM     28  C   UNL A   1      41.215  23.737  28.105  1.00  0.00     0.010 A 
ATOM     29  C   UNL A   1      40.662  24.949  27.654  1.00  0.00    -0.014 A 
BRANCH  29  30
ATOM     30  C   UNL A   1      41.257  26.268  28.024  1.00  0.00     0.031 A 
ATOM     31  C   UNL A   1      42.666  26.619  27.605  1.00  0.00     0.074 A 
ATOM     32  C   UNL A   1      40.531  27.184  28.697  1.00  0.00     0.049 A 
ATOM     33  N   UNL A   1      43.395  27.653  27.941  1.00  0.00    -0.248 NA
ATOM     34  C   UNL A   1      43.351  25.680  26.699  1.00  0.00     0.031 C 
ATOM     35  C   UNL A   1      39.148  27.005  29.144  1.00  0.00     0.029 A 
ATOM     36  N   UNL A   1      40.843  28.459  29.103  1.00  0.00    -0.354 N 
ATOM     37  C   UNL A   1      44.636  27.458  27.348  1.00  0.00     0.074 A 
ATOM     38  C   UNL A   1      44.569  26.203  26.631  1.00  0.00     0.031 C 
ATOM     39  C   UNL A   1      38.710  28.149  29.692  1.00  0.00     0.029 A 
ATOM     40  C   UNL A   1      39.802  29.114  29.721  1.00  0.00     0.049 A 
ATOM     41  H   UNL A   1      41.729  28.866  28.964  1.00  0.00     0.167 HD
ATOM     42  C   UNL A   1      45.724  28.265  27.367  1.00  0.00     0.034 A 
ATOM     43  C   UNL A   1      39.733  30.343  30.269  1.00  0.00     0.034 A 
ATOM     44  C   UNL A   1      45.759  29.571  27.966  1.00  0.00     0.049 A 
ATOM     45  C   UNL A   1      40.954  31.219  30.270  1.00  0.00     0.074 A 
ATOM     46  C   UNL A   1      46.815  30.464  28.011  1.00  0.00     0.029 A 
ATOM     47  N   UNL A   1      44.687  30.188  28.589  1.00  0.00    -0.354 N 
ATOM     48  N   UNL A   1      42.125  31.005  29.723  1.00  0.00    -0.248 NA
ATOM     49  C   UNL A   1      40.847  32.506  30.974  1.00  0.00     0.031 C 
ATOM     50  C   UNL A   1      46.379  31.628  28.654  1.00  0.00     0.029 A 
ATOM     51  C   UNL A   1      45.053  31.456  29.013  1.00  0.00     0.049 A 
ATOM     52  H   UNL A   1      43.796  29.786  28.712  1.00  0.00     0.167 HD
ATOM     53  C   UNL A   1      42.890  32.129  30.008  1.00  0.00     0.074 A 
ATOM     54  C   UNL A   1      42.040  33.039  30.749  1.00  0.00     0.031 C 
ATOM     55  C   UNL A   1      44.190  32.371  29.711  1.00  0.00     0.034 A 
BRANCH  42  56
ATOM     56  C   UNL A   1      46.969  27.784  26.672  1.00  0.00     0.023 A 
ATOM     57  C   UNL A   1      47.944  27.079  27.404  1.00  0.00     0.012 A 
ATOM     58  C   UNL A   1      47.130  27.953  25.283  1.00  0.00     0.148 A 
ATOM     59  C   UNL A   1      49.070  26.562  26.766  1.00  0.00     0.002 A 
ATOM     60  C   UNL A   1      48.238  27.406  24.648  1.00  0.00     0.091 A 
ATOM     61  F   UNL A   1      46.201  28.648  24.610  1.00  0.00    -0.205 F 
ATOM     62  C   UNL A   1      49.212  26.714  25.388  1.00  0.00     0.022 A 
BRANCH  60  63
ATOM     63  S   UNL A   1      48.470  27.493  22.869  1.00  0.00     0.127 S 
ATOM     64  O   UNL A   1      49.769  28.157  22.772  1.00  0.00    -0.237 OA
ATOM     65  O   UNL A   1      48.478  26.080  22.485  1.00  0.00    -0.237 OA
ATOM     66  O   UNL A   1      47.336  28.250  22.356  1.00  0.00    -0.744 OA
ENDBRANCH  60  63
ENDBRANCH  42  56
BRANCH  43  67
ATOM     67  C   UNL A   1      38.443  30.827  30.840  1.00  0.00     0.023 A 
ATOM     68  C   UNL A   1      38.208  30.692  32.222  1.00  0.00     0.012 A 
ATOM     69  C   UNL A   1      37.476  31.467  30.041  1.00  0.00     0.148 A 
ATOM     70  C   UNL A   1      37.031  31.176  32.795  1.00  0.00     0.002 A 
ATOM     71  C   UNL A   1      36.336  32.005  30.628  1.00  0.00     0.091 A 
ATOM     72  F   UNL A   1      37.696  31.555  28.721  1.00  0.00    -0.205 F 
ATOM     73  C   UNL A   1      36.104  31.848  32.001  1.00  0.00     0.022 A 
BRANCH  71  74
ATOM     74  S   UNL A   1      35.180  33.019  29.696  1.00  0.00     0.127 S 
ATOM     75  O   UNL A   1      36.058  34.047  29.145  1.00  0.00    -0.237 OA
ATOM     76  O   UNL A   1      34.654  32.067  28.715  1.00  0.00    -0.237 OA
ATOM     77  O   UNL A   1      34.194  33.471  30.669  1.00  0.00    -0.744 OA
ENDBRANCH  71  74
ENDBRANCH  43  67
BRANCH  55  78
ATOM     78  C   UNL A   1      44.786  33.665  30.193  1.00  0.00     0.023 A 
ATOM     79  C   UNL A   1      45.446  33.694  31.437  1.00  0.00     0.012 A 
ATOM     80  C   UNL A   1      44.766  34.824  29.393  1.00  0.00     0.148 A 
ATOM     81  C   UNL A   1      46.059  34.862  31.889  1.00  0.00     0.002 A 
ATOM     82  C   UNL A   1      45.412  35.975  29.833  1.00  0.00     0.091 A 
ATOM     83  F   UNL A   1      44.116  34.783  28.221  1.00  0.00    -0.205 F 
ATOM     84  C   UNL A   1      46.052  35.998  31.083  1.00  0.00     0.022 A 
BRANCH  82  85
ATOM     85  S   UNL A   1      45.521  37.455  28.820  1.00  0.00     0.127 S 
ATOM     86  O   UNL A   1      44.114  37.739  28.551  1.00  0.00    -0.237 OA
ATOM     87  O   UNL A   1      46.173  38.408  29.720  1.00  0.00    -0.237 OA
ATOM     88  O   UNL A   1      46.323  37.082  27.662  1.00  0.00    -0.744 OA
ENDBRANCH  82  85
ENDBRANCH  55  78
ENDBRANCH  29  30
ENDBRANCH  22  24
ENDBRANCH  21  22
ENDBRANCH  20  21
ENDBRANCH   1  20
TORSDOF 17
ENDMDL
MODEL 2
REMARK VINA RESULT:     -11.2      1.173      7.738
REMARK SMILES C[C@@H](C(=O)OCCOC(=O)c1ccc(-c2c3nc(c(-c4cccc(S(=O)(=O)[O-])c4F)c4ccc([nH]4)c(-c4cccc(S(=O)(=O)[O-])c4F)c4nc(c(-c5cccc(S(=O)(=O)[O-])c5F)c5ccc2[nH]5)C=C4)C=C3)cc1)c1ccc(C(=O)c2cccs2)cc1
REMARK SMILES IDX 6 1 5 2 3 3 4 4 2 5 1 6 74 7 75 8 86 9 76 10 85 11 77 12
REMARK SMILES IDX 78 13 79 14 80 15 81 16 84 17 82 18 83 19 7 20 8 21 9 22
REMARK SMILES IDX 10 23 11 24 12 25 73 26 13 27 72 28 14 29 15 30 16 31 66 32
REMARK SMILES IDX 17 33 71 34 65 35 67 36 18 37 70 38 64 39 63 40 19 42 51 43
REMARK SMILES IDX 31 44 50 45 32 46 35 47 49 48 68 49 33 50 34 51 48 53 69 54
REMARK SMILES IDX 36 55 20 56 21 57 29 58 22 59 24 60 30 61 23 62 25 63 26 64
REMARK SMILES IDX 27 65 28 66 52 67 53 68 61 69 54 70 56 71 62 72 55 73 57 74
REMARK SMILES IDX 58 75 59 76 60 77 37 78 38 79 46 80 39 81 41 82 47 83 40 84
REMARK SMILES IDX 42 85 43 86 44 87 45 88
REMARK H PARENT 67 41 35 52
REMARK Flexibility Score: inf
ROOT
ATOM      1  C   UNL A   1      35.565  20.990  24.614  1.00  0.00     0.274 C 
ENDROOT
BRANCH   1   2
ATOM      2  O   UNL A   1      34.614  20.119  25.260  1.00  0.00    -0.462 OA
BRANCH   2   3
ATOM      3  C   UNL A   1      33.641  20.712  26.006  1.00  0.00     0.313 C 
ATOM      4  O   UNL A   1      33.787  21.048  27.176  1.00  0.00    -0.252 OA
BRANCH   3   5
ATOM      5  C   UNL A   1      32.313  20.848  25.244  1.00  0.00     0.126 C 
ATOM      6  C   UNL A   1      32.339  20.184  23.863  1.00  0.00     0.025 C 
BRANCH   5   7
ATOM      7  C   UNL A   1      31.806  22.291  25.218  1.00  0.00    -0.034 A 
ATOM      8  C   UNL A   1      32.178  23.125  24.152  1.00  0.00     0.005 A 
ATOM      9  C   UNL A   1      30.945  22.824  26.189  1.00  0.00     0.005 A 
ATOM     10  C   UNL A   1      31.722  24.445  24.075  1.00  0.00     0.012 A 
ATOM     11  C   UNL A   1      30.476  24.147  26.104  1.00  0.00     0.012 A 
ATOM     12  C   UNL A   1      30.876  24.984  25.057  1.00  0.00     0.023 A 
BRANCH  12  13
ATOM     13  C   UNL A   1      30.399  26.399  24.869  1.00  0.00     0.202 C 
ATOM     14  O   UNL A   1      29.451  26.555  24.097  1.00  0.00    -0.288 OA
BRANCH  13  15
ATOM     15  C   UNL A   1      31.034  27.513  25.559  1.00  0.00     0.075 A 
ATOM     16  C   UNL A   1      31.415  27.670  26.880  1.00  0.00     0.024 A 
ATOM     17  S   UNL A   1      31.496  28.880  24.624  1.00  0.00    -0.140 S 
ATOM     18  C   UNL A   1      32.008  28.944  27.134  1.00  0.00     0.012 A 
ATOM     19  C   UNL A   1      32.104  29.704  25.991  1.00  0.00     0.065 A 
ENDBRANCH  13  15
ENDBRANCH  12  13
ENDBRANCH   5   7
ENDBRANCH   3   5
ENDBRANCH   2   3
ENDBRANCH   1   2
BRANCH   1  20
ATOM     20  C   UNL A   1      36.988  20.589  24.992  1.00  0.00     0.275 C 
BRANCH  20  21
ATOM     21  O   UNL A   1      37.581  21.630  25.783  1.00  0.00    -0.458 OA
BRANCH  21  22
ATOM     22  C   UNL A   1      38.881  21.456  26.115  1.00  0.00     0.338 C 
ATOM     23  O   UNL A   1      39.561  20.456  25.966  1.00  0.00    -0.246 OA
BRANCH  22  24
ATOM     24  C   UNL A   1      39.405  22.714  26.667  1.00  0.00     0.060 A 
ATOM     25  C   UNL A   1      38.905  23.920  26.185  1.00  0.00     0.016 A 
ATOM     26  C   UNL A   1      40.468  22.702  27.569  1.00  0.00     0.016 A 
ATOM     27  C   UNL A   1      39.534  25.113  26.526  1.00  0.00     0.010 A 
ATOM     28  C   UNL A   1      41.037  23.914  27.979  1.00  0.00     0.010 A 
ATOM     29  C   UNL A   1      40.611  25.134  27.425  1.00  0.00    -0.014 A 
BRANCH  29  30
ATOM     30  C   UNL A   1      41.310  26.419  27.730  1.00  0.00     0.031 A 
ATOM     31  C   UNL A   1      40.632  27.481  28.564  1.00  0.00     0.074 A 
ATOM     32  C   UNL A   1      42.573  26.631  27.306  1.00  0.00     0.049 A 
ATOM     33  N   UNL A   1      41.023  28.703  28.823  1.00  0.00    -0.248 NA
ATOM     34  C   UNL A   1      39.340  27.131  29.179  1.00  0.00     0.031 C 
ATOM     35  C   UNL A   1      43.371  25.689  26.518  1.00  0.00     0.029 A 
ATOM     36  N   UNL A   1      43.420  27.697  27.497  1.00  0.00    -0.354 N 
ATOM     37  C   UNL A   1      40.005  29.284  29.568  1.00  0.00     0.074 A 
ATOM     38  C   UNL A   1      38.971  28.284  29.719  1.00  0.00     0.031 C 
ATOM     39  C   UNL A   1      44.608  26.184  26.359  1.00  0.00     0.029 A 
ATOM     40  C   UNL A   1      44.670  27.515  26.951  1.00  0.00     0.049 A 
ATOM     41  H   UNL A   1      43.156  28.513  27.981  1.00  0.00     0.167 HD
ATOM     42  C   UNL A   1      39.947  30.525  30.107  1.00  0.00     0.034 A 
ATOM     43  C   UNL A   1      45.743  28.330  26.909  1.00  0.00     0.034 A 
ATOM     44  C   UNL A   1      41.022  31.479  30.074  1.00  0.00     0.049 A 
ATOM     45  C   UNL A   1      45.651  29.699  27.522  1.00  0.00     0.074 A 
ATOM     46  C   UNL A   1      41.054  32.752  30.616  1.00  0.00     0.029 A 
ATOM     47  N   UNL A   1      42.264  31.257  29.501  1.00  0.00    -0.354 N 
ATOM     48  N   UNL A   1      44.669  30.236  28.203  1.00  0.00    -0.248 NA
ATOM     49  C   UNL A   1      46.818  30.580  27.354  1.00  0.00     0.031 C 
ATOM     50  C   UNL A   1      42.320  33.298  30.379  1.00  0.00     0.029 A 
ATOM     51  C   UNL A   1      43.074  32.366  29.686  1.00  0.00     0.049 A 
ATOM     52  H   UNL A   1      42.531  30.433  29.033  1.00  0.00     0.167 HD
ATOM     53  C   UNL A   1      45.099  31.511  28.549  1.00  0.00     0.074 A 
ATOM     54  C   UNL A   1      46.445  31.656  28.033  1.00  0.00     0.031 C 
ATOM     55  C   UNL A   1      44.426  32.486  29.208  1.00  0.00     0.034 A 
BRANCH  42  56
ATOM     56  C   UNL A   1      38.691  30.918  30.836  1.00  0.00     0.023 A 
ATOM     57  C   UNL A   1      38.608  30.726  32.229  1.00  0.00     0.012 A 
ATOM     58  C   UNL A   1      37.632  31.554  30.158  1.00  0.00     0.148 A 
ATOM     59  C   UNL A   1      37.483  31.148  32.935  1.00  0.00     0.002 A 
ATOM     60  C   UNL A   1      36.529  32.003  30.874  1.00  0.00     0.091 A 
ATOM     61  F   UNL A   1      37.722  31.705  28.829  1.00  0.00    -0.205 F 
ATOM     62  C   UNL A   1      36.450  31.796  32.261  1.00  0.00     0.022 A 
BRANCH  60  63
ATOM     63  S   UNL A   1      35.183  32.908  30.101  1.00  0.00     0.127 S 
ATOM     64  O   UNL A   1      35.888  34.052  29.526  1.00  0.00    -0.237 OA
ATOM     65  O   UNL A   1      34.682  31.945  29.119  1.00  0.00    -0.237 OA
ATOM     66  O   UNL A   1      34.246  33.219  31.172  1.00  0.00    -0.744 OA
ENDBRANCH  60  63
ENDBRANCH  42  56
BRANCH  43  67
ATOM     67  C   UNL A   1      47.009  27.854  26.282  1.00  0.00     0.023 A 
ATOM     68  C   UNL A   1      47.958  27.178  27.074  1.00  0.00     0.012 A 
ATOM     69  C   UNL A   1      47.255  28.013  24.905  1.00  0.00     0.148 A 
ATOM     70  C   UNL A   1      49.131  26.680  26.507  1.00  0.00     0.002 A 
ATOM     71  C   UNL A   1      48.396  27.457  24.335  1.00  0.00     0.091 A 
ATOM     72  F   UNL A   1      46.361  28.690  24.170  1.00  0.00    -0.205 F 
ATOM     73  C   UNL A   1      49.342  26.803  25.136  1.00  0.00     0.022 A 
BRANCH  71  74
ATOM     74  S   UNL A   1      48.651  27.438  22.556  1.00  0.00     0.127 S 
ATOM     75  O   UNL A   1      47.517  28.223  22.080  1.00  0.00    -0.237 OA
ATOM     76  O   UNL A   1      49.953  28.095  22.423  1.00  0.00    -0.237 OA
ATOM     77  O   UNL A   1      48.658  26.030  22.182  1.00  0.00    -0.744 OA
ENDBRANCH  71  74
ENDBRANCH  43  67
BRANCH  55  78
ATOM     78  C   UNL A   1      45.122  33.804  29.404  1.00  0.00     0.023 A 
ATOM     79  C   UNL A   1      45.934  33.988  30.541  1.00  0.00     0.012 A 
ATOM     80  C   UNL A   1      45.041  34.827  28.439  1.00  0.00     0.148 A 
ATOM     81  C   UNL A   1      46.639  35.176  30.725  1.00  0.00     0.002 A 
ATOM     82  C   UNL A   1      45.776  35.995  28.611  1.00  0.00     0.091 A 
ATOM     83  F   UNL A   1      44.248  34.642  27.374  1.00  0.00    -0.205 F 
ATOM     84  C   UNL A   1      46.569  36.175  29.757  1.00  0.00     0.022 A 
BRANCH  82  85
ATOM     85  S   UNL A   1      45.808  37.295  27.370  1.00  0.00     0.127 S 
ATOM     86  O   UNL A   1      44.383  37.528  27.144  1.00  0.00    -0.237 OA
ATOM     87  O   UNL A   1      46.499  38.381  28.067  1.00  0.00    -0.237 OA
ATOM     88  O   UNL A   1      46.545  36.744  26.241  1.00  0.00    -0.744 OA
ENDBRANCH  82  85
ENDBRANCH  55  78
ENDBRANCH  29  30
ENDBRANCH  22  24
ENDBRANCH  21  22
ENDBRANCH  20  21
ENDBRANCH   1  20
TORSDOF 17
ENDMDL
MODEL 3
REMARK VINA RESULT:     -11.1      5.254      7.914
REMARK SMILES C[C@@H](C(=O)OCCOC(=O)c1ccc(-c2c3nc(c(-c4cccc(S(=O)(=O)[O-])c4F)c4ccc([nH]4)c(-c4cccc(S(=O)(=O)[O-])c4F)c4nc(c(-c5cccc(S(=O)(=O)[O-])c5F)c5ccc2[nH]5)C=C4)C=C3)cc1)c1ccc(C(=O)c2cccs2)cc1
REMARK SMILES IDX 6 1 5 2 3 3 4 4 2 5 1 6 74 7 75 8 86 9 76 10 85 11 77 12
REMARK SMILES IDX 78 13 79 14 80 15 81 16 84 17 82 18 83 19 7 20 8 21 9 22
REMARK SMILES IDX 10 23 11 24 12 25 73 26 13 27 72 28 14 29 15 30 16 31 66 32
REMARK SMILES IDX 17 33 71 34 65 35 67 36 18 37 70 38 64 39 63 40 19 42 51 43
REMARK SMILES IDX 31 44 50 45 32 46 35 47 49 48 68 49 33 50 34 51 48 53 69 54
REMARK SMILES IDX 36 55 20 56 21 57 29 58 22 59 24 60 30 61 23 62 25 63 26 64
REMARK SMILES IDX 27 65 28 66 52 67 53 68 61 69 54 70 56 71 62 72 55 73 57 74
REMARK SMILES IDX 58 75 59 76 60 77 37 78 38 79 46 80 39 81 41 82 47 83 40 84
REMARK SMILES IDX 42 85 43 86 44 87 45 88
REMARK H PARENT 67 41 35 52
REMARK Flexibility Score: inf
ROOT
ATOM      1  C   UNL A   1      31.378  29.612  25.027  1.00  0.00     0.274 C 
ENDROOT
BRANCH   1   2
ATOM      2  O   UNL A   1      31.532  28.202  25.293  1.00  0.00    -0.462 OA
BRANCH   2   3
ATOM      3  C   UNL A   1      32.427  27.523  24.524  1.00  0.00     0.313 C 
ATOM      4  O   UNL A   1      33.578  27.893  24.327  1.00  0.00    -0.252 OA
BRANCH   3   5
ATOM      5  C   UNL A   1      31.814  26.275  23.869  1.00  0.00     0.126 C 
ATOM      6  C   UNL A   1      30.303  26.152  24.099  1.00  0.00     0.025 C 
BRANCH   5   7
ATOM      7  C   UNL A   1      32.589  25.001  24.213  1.00  0.00    -0.034 A 
ATOM      8  C   UNL A   1      32.583  24.536  25.537  1.00  0.00     0.005 A 
ATOM      9  C   UNL A   1      33.279  24.237  23.259  1.00  0.00     0.005 A 
ATOM     10  C   UNL A   1      33.260  23.365  25.894  1.00  0.00     0.012 A 
ATOM     11  C   UNL A   1      33.949  23.053  23.616  1.00  0.00     0.012 A 
ATOM     12  C   UNL A   1      33.967  22.612  24.944  1.00  0.00     0.023 A 
BRANCH  12  13
ATOM     13  C   UNL A   1      34.628  21.342  25.409  1.00  0.00     0.202 C 
ATOM     14  O   UNL A   1      35.546  21.473  26.220  1.00  0.00    -0.288 OA
BRANCH  13  15
ATOM     15  C   UNL A   1      34.203  20.039  24.916  1.00  0.00     0.075 A 
ATOM     16  C   UNL A   1      34.928  18.905  24.594  1.00  0.00     0.024 A 
ATOM     17  S   UNL A   1      32.516  19.751  24.754  1.00  0.00    -0.140 S 
ATOM     18  C   UNL A   1      34.101  17.834  24.138  1.00  0.00     0.012 A 
ATOM     19  C   UNL A   1      32.766  18.167  24.167  1.00  0.00     0.065 A 
ENDBRANCH  13  15
ENDBRANCH  12  13
ENDBRANCH   5   7
ENDBRANCH   3   5
ENDBRANCH   2   3
ENDBRANCH   1   2
BRANCH   1  20
ATOM     20  C   UNL A   1      31.730  30.424  26.269  1.00  0.00     0.275 C 
BRANCH  20  21
ATOM     21  O   UNL A   1      33.154  30.603  26.333  1.00  0.00    -0.458 OA
BRANCH  21  22
ATOM     22  C   UNL A   1      33.597  31.526  27.217  1.00  0.00     0.338 C 
ATOM     23  O   UNL A   1      33.015  32.521  27.611  1.00  0.00    -0.246 OA
BRANCH  22  24
ATOM     24  C   UNL A   1      34.927  31.124  27.699  1.00  0.00     0.060 A 
ATOM     25  C   UNL A   1      35.172  29.777  27.951  1.00  0.00     0.016 A 
ATOM     26  C   UNL A   1      35.886  32.086  28.012  1.00  0.00     0.016 A 
ATOM     27  C   UNL A   1      36.338  29.402  28.612  1.00  0.00     0.010 A 
ATOM     28  C   UNL A   1      37.097  31.689  28.594  1.00  0.00     0.010 A 
ATOM     29  C   UNL A   1      37.319  30.346  28.948  1.00  0.00    -0.014 A 
BRANCH  29  30
ATOM     30  C   UNL A   1      38.534  29.928  29.710  1.00  0.00     0.031 A 
ATOM     31  C   UNL A   1      39.565  29.024  29.076  1.00  0.00     0.074 A 
ATOM     32  C   UNL A   1      38.753  30.389  30.959  1.00  0.00     0.049 A 
ATOM     33  N   UNL A   1      40.610  28.453  29.619  1.00  0.00    -0.248 NA
ATOM     34  C   UNL A   1      39.394  28.710  27.646  1.00  0.00     0.031 C 
ATOM     35  C   UNL A   1      37.867  31.294  31.696  1.00  0.00     0.029 A 
ATOM     36  N   UNL A   1      39.801  30.183  31.824  1.00  0.00    -0.354 N 
ATOM     37  C   UNL A   1      41.178  27.666  28.625  1.00  0.00     0.074 A 
ATOM     38  C   UNL A   1      40.362  27.826  27.442  1.00  0.00     0.031 C 
ATOM     39  C   UNL A   1      38.441  31.621  32.863  1.00  0.00     0.029 A 
ATOM     40  C   UNL A   1      39.691  30.884  33.004  1.00  0.00     0.049 A 
ATOM     41  H   UNL A   1      40.560  29.590  31.618  1.00  0.00     0.167 HD
ATOM     42  C   UNL A   1      42.297  26.905  28.679  1.00  0.00     0.034 A 
ATOM     43  C   UNL A   1      40.490  30.918  34.089  1.00  0.00     0.034 A 
ATOM     44  C   UNL A   1      43.186  26.842  29.807  1.00  0.00     0.049 A 
ATOM     45  C   UNL A   1      41.729  30.068  34.117  1.00  0.00     0.074 A 
ATOM     46  C   UNL A   1      44.355  26.112  29.936  1.00  0.00     0.029 A 
ATOM     47  N   UNL A   1      43.030  27.558  30.982  1.00  0.00    -0.354 N 
ATOM     48  N   UNL A   1      42.236  29.313  33.174  1.00  0.00    -0.248 NA
ATOM     49  C   UNL A   1      42.505  30.068  35.367  1.00  0.00     0.031 C 
ATOM     50  C   UNL A   1      44.912  26.394  31.188  1.00  0.00     0.029 A 
ATOM     51  C   UNL A   1      44.088  27.296  31.839  1.00  0.00     0.049 A 
ATOM     52  H   UNL A   1      42.279  28.164  31.180  1.00  0.00     0.167 HD
ATOM     53  C   UNL A   1      43.389  28.755  33.711  1.00  0.00     0.074 A 
ATOM     54  C   UNL A   1      43.527  29.285  35.053  1.00  0.00     0.031 C 
ATOM     55  C   UNL A   1      44.240  27.860  33.154  1.00  0.00     0.034 A 
BRANCH  42  56
ATOM     56  C   UNL A   1      42.665  26.107  27.457  1.00  0.00     0.023 A 
ATOM     57  C   UNL A   1      43.489  26.687  26.472  1.00  0.00     0.012 A 
ATOM     58  C   UNL A   1      42.270  24.761  27.328  1.00  0.00     0.148 A 
ATOM     59  C   UNL A   1      43.901  25.943  25.369  1.00  0.00     0.002 A 
ATOM     60  C   UNL A   1      42.713  24.016  26.242  1.00  0.00     0.091 A 
ATOM     61  F   UNL A   1      41.467  24.238  28.266  1.00  0.00    -0.205 F 
ATOM     62  C   UNL A   1      43.525  24.606  25.259  1.00  0.00     0.022 A 
BRANCH  60  63
ATOM     63  S   UNL A   1      42.334  22.270  26.054  1.00  0.00     0.127 S 
ATOM     64  O   UNL A   1      43.067  21.939  24.833  1.00  0.00    -0.237 OA
ATOM     65  O   UNL A   1      42.895  21.694  27.277  1.00  0.00    -0.237 OA
ATOM     66  O   UNL A   1      40.883  22.186  25.959  1.00  0.00    -0.744 OA
ENDBRANCH  60  63
ENDBRANCH  42  56
BRANCH  43  67
ATOM     67  C   UNL A   1      40.150  31.816  35.230  1.00  0.00     0.023 A 
ATOM     68  C   UNL A   1      40.721  33.102  35.287  1.00  0.00     0.012 A 
ATOM     69  C   UNL A   1      39.228  31.431  36.222  1.00  0.00     0.148 A 
ATOM     70  C   UNL A   1      40.387  33.983  36.316  1.00  0.00     0.002 A 
ATOM     71  C   UNL A   1      38.850  32.337  37.207  1.00  0.00     0.091 A 
ATOM     72  F   UNL A   1      38.720  30.191  36.175  1.00  0.00    -0.205 F 
ATOM     73  C   UNL A   1      39.439  33.608  37.266  1.00  0.00     0.022 A 
BRANCH  71  74
ATOM     74  S   UNL A   1      37.521  31.979  38.363  1.00  0.00     0.127 S 
ATOM     75  O   UNL A   1      37.214  30.588  38.047  1.00  0.00    -0.237 OA
ATOM     76  O   UNL A   1      38.172  32.187  39.658  1.00  0.00    -0.237 OA
ATOM     77  O   UNL A   1      36.477  32.950  38.062  1.00  0.00    -0.744 OA
ENDBRANCH  71  74
ENDBRANCH  43  67
BRANCH  55  78
ATOM     78  C   UNL A   1      45.394  27.380  33.990  1.00  0.00     0.023 A 
ATOM     79  C   UNL A   1      46.608  28.096  33.957  1.00  0.00     0.012 A 
ATOM     80  C   UNL A   1      45.262  26.281  34.860  1.00  0.00     0.148 A 
ATOM     81  C   UNL A   1      47.680  27.712  34.763  1.00  0.00     0.002 A 
ATOM     82  C   UNL A   1      46.323  25.927  35.688  1.00  0.00     0.091 A 
ATOM     83  F   UNL A   1      44.107  25.600  34.862  1.00  0.00    -0.205 F 
ATOM     84  C   UNL A   1      47.534  26.636  35.635  1.00  0.00     0.022 A 
BRANCH  82  85
ATOM     85  S   UNL A   1      46.189  24.606  36.899  1.00  0.00     0.127 S 
ATOM     86  O   UNL A   1      45.937  23.444  36.050  1.00  0.00    -0.237 OA
ATOM     87  O   UNL A   1      47.509  24.622  37.532  1.00  0.00    -0.237 OA
ATOM     88  O   UNL A   1      45.098  24.991  37.783  1.00  0.00    -0.744 OA
ENDBRANCH  82  85
ENDBRANCH  55  78
ENDBRANCH  29  30
ENDBRANCH  22  24
ENDBRANCH  21  22
ENDBRANCH  20  21
ENDBRANCH   1  20
TORSDOF 17
ENDMDL
