MODEL 1
REMARK VINA RESULT:     -11.7      0.000      0.000
REMARK SMILES C/C(=C/C[N@H+]1C[C@H]2CCC[N@H+]2C[C@@H]1C)C(=O)OCCOC(=O)c1ccc(-c2c3nc(c(-c4cccc(S(=O)(=O)[O-])c4F)c4ccc([nH]4)c(-c4cccc(S(=O)(=O)[O-])c4F)c4nc(c(-c5cccc(S(=O)(=O)[O-])c5F)c5ccc2[nH]5)C=C4)C=C3)cc1
REMARK SMILES IDX 19 1 18 2 17 3 15 4 16 5 2 6 1 7 3 8 4 9 5 10 6 11 13 12
REMARK SMILES IDX 7 14 12 15 14 16 8 17 11 18 9 19 10 20 20 22 21 23 22 24
REMARK SMILES IDX 23 25 24 26 85 27 25 28 84 29 26 30 27 31 28 32 78 33 29 34
REMARK SMILES IDX 83 35 77 36 79 37 30 38 82 39 76 40 75 41 31 43 63 44 43 45
REMARK SMILES IDX 62 46 44 47 47 48 61 49 80 50 45 51 46 52 60 54 81 55 48 56
REMARK SMILES IDX 32 57 33 58 41 59 34 60 36 61 42 62 35 63 37 64 38 65 39 66
REMARK SMILES IDX 40 67 64 68 65 69 73 70 66 71 68 72 74 73 67 74 69 75 70 76
REMARK SMILES IDX 71 77 72 78 49 79 50 80 58 81 51 82 53 83 59 84 52 85 54 86
REMARK SMILES IDX 55 87 56 88 57 89
REMARK H PARENT 5 13 11 21 79 42 47 53
REMARK Flexibility Score: inf
ROOT
ATOM      1  C   UNL A   1      36.439  20.486  25.001  1.00  0.00     0.275 C 
ENDROOT
BRANCH   1   2
ATOM      2  C   UNL A   1      35.059  21.034  24.638  1.00  0.00     0.275 C 
BRANCH   2   3
ATOM      3  O   UNL A   1      35.109  22.473  24.634  1.00  0.00    -0.459 OA
BRANCH   3   4
ATOM      4  C   UNL A   1      34.263  23.137  23.810  1.00  0.00     0.333 C 
ATOM      5  O   UNL A   1      34.418  23.330  22.618  1.00  0.00    -0.247 OA
BRANCH   4   6
ATOM      6  C   UNL A   1      33.030  23.527  24.553  1.00  0.00     0.036 C 
ATOM      7  C   UNL A   1      31.790  22.719  24.300  1.00  0.00     0.052 C 
ATOM      8  C   UNL A   1      32.951  24.662  25.271  1.00  0.00     0.044 C 
BRANCH   8   9
ATOM      9  C   UNL A   1      33.970  25.764  25.339  1.00  0.00     0.292 C 
BRANCH   9  10
ATOM     10  N   UNL A   1      33.437  27.042  24.849  1.00  0.00    -0.320 N 
ATOM     11  C   UNL A   1      32.393  26.866  23.826  1.00  0.00     0.328 C 
ATOM     12  C   UNL A   1      33.018  27.961  25.928  1.00  0.00     0.237 C 
ATOM     13  H   UNL A   1      34.224  27.502  24.391  1.00  0.00     0.348 HD
ATOM     14  C   UNL A   1      31.940  28.208  23.226  1.00  0.00     0.240 C 
ATOM     15  C   UNL A   1      31.766  28.836  25.595  1.00  0.00     0.328 C 
ATOM     16  C   UNL A   1      34.224  28.824  26.300  1.00  0.00     0.081 C 
ATOM     17  C   UNL A   1      30.692  28.046  22.357  1.00  0.00     0.077 C 
ATOM     18  N   UNL A   1      31.632  29.281  24.199  1.00  0.00    -0.323 N 
ATOM     19  C   UNL A   1      30.022  29.399  22.463  1.00  0.00     0.068 C 
ATOM     20  C   UNL A   1      30.278  29.776  23.911  1.00  0.00     0.263 C 
ATOM     21  H   UNL A   1      32.311  30.036  24.095  1.00  0.00     0.348 HD
ENDBRANCH   9  10
ENDBRANCH   8   9
ENDBRANCH   4   6
ENDBRANCH   3   4
ENDBRANCH   2   3
ENDBRANCH   1   2
BRANCH   1  22
ATOM     22  O   UNL A   1      37.306  21.571  25.380  1.00  0.00    -0.458 OA
BRANCH  22  23
ATOM     23  C   UNL A   1      38.526  21.198  25.817  1.00  0.00     0.338 C 
ATOM     24  O   UNL A   1      39.097  20.132  25.630  1.00  0.00    -0.246 OA
BRANCH  23  25
ATOM     25  C   UNL A   1      39.180  22.348  26.445  1.00  0.00     0.060 A 
ATOM     26  C   UNL A   1      38.682  23.611  26.145  1.00  0.00     0.016 A 
ATOM     27  C   UNL A   1      40.330  22.206  27.211  1.00  0.00     0.016 A 
ATOM     28  C   UNL A   1      39.387  24.750  26.501  1.00  0.00     0.010 A 
ATOM     29  C   UNL A   1      40.987  23.356  27.660  1.00  0.00     0.010 A 
ATOM     30  C   UNL A   1      40.546  24.639  27.275  1.00  0.00    -0.014 A 
BRANCH  30  31
ATOM     31  C   UNL A   1      41.301  25.860  27.657  1.00  0.00     0.031 A 
ATOM     32  C   UNL A   1      40.638  26.921  28.493  1.00  0.00     0.074 A 
ATOM     33  C   UNL A   1      42.576  26.020  27.250  1.00  0.00     0.049 A 
ATOM     34  N   UNL A   1      41.063  28.120  28.796  1.00  0.00    -0.248 NA
ATOM     35  C   UNL A   1      39.314  26.598  29.052  1.00  0.00     0.031 C 
ATOM     36  C   UNL A   1      43.342  25.052  26.460  1.00  0.00     0.029 A 
ATOM     37  N   UNL A   1      43.451  27.062  27.432  1.00  0.00    -0.354 N 
ATOM     38  C   UNL A   1      40.033  28.719  29.512  1.00  0.00     0.074 A 
ATOM     39  C   UNL A   1      38.964  27.750  29.607  1.00  0.00     0.031 C 
ATOM     40  C   UNL A   1      44.569  25.541  26.230  1.00  0.00     0.029 A 
ATOM     41  C   UNL A   1      44.651  26.887  26.783  1.00  0.00     0.049 A 
ATOM     42  H   UNL A   1      43.240  27.857  27.972  1.00  0.00     0.167 HD
ATOM     43  C   UNL A   1      39.987  29.964  30.046  1.00  0.00     0.034 A 
ATOM     44  C   UNL A   1      45.687  27.731  26.610  1.00  0.00     0.034 A 
ATOM     45  C   UNL A   1      41.080  30.899  29.996  1.00  0.00     0.049 A 
ATOM     46  C   UNL A   1      45.607  29.106  27.206  1.00  0.00     0.074 A 
ATOM     47  C   UNL A   1      41.151  32.167  30.543  1.00  0.00     0.029 A 
ATOM     48  N   UNL A   1      42.293  30.666  29.365  1.00  0.00    -0.354 N 
ATOM     49  N   UNL A   1      44.648  29.640  27.924  1.00  0.00    -0.248 NA
ATOM     50  C   UNL A   1      46.757  29.993  26.983  1.00  0.00     0.031 C 
ATOM     51  C   UNL A   1      42.399  32.712  30.221  1.00  0.00     0.029 A 
ATOM     52  C   UNL A   1      43.118  31.770  29.502  1.00  0.00     0.049 A 
ATOM     53  H   UNL A   1      42.532  29.838  28.890  1.00  0.00     0.167 HD
ATOM     54  C   UNL A   1      45.089  30.913  28.264  1.00  0.00     0.074 A 
ATOM     55  C   UNL A   1      46.414  31.060  27.693  1.00  0.00     0.031 C 
ATOM     56  C   UNL A   1      44.452  31.879  28.970  1.00  0.00     0.034 A 
BRANCH  43  57
ATOM     57  C   UNL A   1      38.716  30.384  30.738  1.00  0.00     0.023 A 
ATOM     58  C   UNL A   1      38.543  30.133  32.113  1.00  0.00     0.012 A 
ATOM     59  C   UNL A   1      37.710  31.073  30.030  1.00  0.00     0.148 A 
ATOM     60  C   UNL A   1      37.375  30.527  32.766  1.00  0.00     0.002 A 
ATOM     61  C   UNL A   1      36.570  31.504  30.698  1.00  0.00     0.091 A 
ATOM     62  F   UNL A   1      37.882  31.285  28.718  1.00  0.00    -0.205 F 
ATOM     63  C   UNL A   1      36.395  31.221  32.062  1.00  0.00     0.022 A 
BRANCH  61  64
ATOM     64  S   UNL A   1      35.287  32.474  29.897  1.00  0.00     0.127 S 
ATOM     65  O   UNL A   1      34.365  32.716  31.006  1.00  0.00    -0.237 OA
ATOM     66  O   UNL A   1      36.027  33.655  29.451  1.00  0.00    -0.237 OA
ATOM     67  O   UNL A   1      34.766  31.643  28.821  1.00  0.00    -0.744 OA
ENDBRANCH  61  64
ENDBRANCH  43  57
BRANCH  44  68
ATOM     68  C   UNL A   1      46.886  27.291  25.840  1.00  0.00     0.023 A 
ATOM     69  C   UNL A   1      47.802  26.402  26.431  1.00  0.00     0.012 A 
ATOM     70  C   UNL A   1      47.103  27.719  24.515  1.00  0.00     0.148 A 
ATOM     71  C   UNL A   1      48.927  25.967  25.728  1.00  0.00     0.002 A 
ATOM     72  C   UNL A   1      48.192  27.235  23.799  1.00  0.00     0.091 A 
ATOM     73  F   UNL A   1      46.229  28.579  23.974  1.00  0.00    -0.205 F 
ATOM     74  C   UNL A   1      49.115  26.374  24.410  1.00  0.00     0.022 A 
BRANCH  72  75
ATOM     75  S   UNL A   1      48.434  27.594  22.055  1.00  0.00     0.127 S 
ATOM     76  O   UNL A   1      48.659  26.260  21.505  1.00  0.00    -0.237 OA
ATOM     77  O   UNL A   1      47.154  28.203  21.692  1.00  0.00    -0.237 OA
ATOM     78  O   UNL A   1      49.569  28.504  21.996  1.00  0.00    -0.744 OA
ENDBRANCH  72  75
ENDBRANCH  44  68
BRANCH  56  79
ATOM     79  C   UNL A   1      45.194  33.167  29.206  1.00  0.00     0.023 A 
ATOM     80  C   UNL A   1      46.032  33.301  30.331  1.00  0.00     0.012 A 
ATOM     81  C   UNL A   1      45.110  34.221  28.276  1.00  0.00     0.148 A 
ATOM     82  C   UNL A   1      46.746  34.478  30.546  1.00  0.00     0.002 A 
ATOM     83  C   UNL A   1      45.864  35.371  28.469  1.00  0.00     0.091 A 
ATOM     84  F   UNL A   1      44.291  34.082  27.223  1.00  0.00    -0.205 F 
ATOM     85  C   UNL A   1      46.672  35.508  29.609  1.00  0.00     0.022 A 
BRANCH  83  86
ATOM     86  S   UNL A   1      45.907  36.706  27.267  1.00  0.00     0.127 S 
ATOM     87  O   UNL A   1      46.419  36.021  26.080  1.00  0.00    -0.237 OA
ATOM     88  O   UNL A   1      44.499  37.096  27.186  1.00  0.00    -0.237 OA
ATOM     89  O   UNL A   1      46.784  37.724  27.828  1.00  0.00    -0.744 OA
ENDBRANCH  83  86
ENDBRANCH  56  79
ENDBRANCH  30  31
ENDBRANCH  23  25
ENDBRANCH  22  23
ENDBRANCH   1  22
TORSDOF 16
ENDMDL
MODEL 2
REMARK VINA RESULT:     -11.7      1.560      2.156
REMARK SMILES C/C(=C/C[N@H+]1C[C@H]2CCC[N@H+]2C[C@@H]1C)C(=O)OCCOC(=O)c1ccc(-c2c3nc(c(-c4cccc(S(=O)(=O)[O-])c4F)c4ccc([nH]4)c(-c4cccc(S(=O)(=O)[O-])c4F)c4nc(c(-c5cccc(S(=O)(=O)[O-])c5F)c5ccc2[nH]5)C=C4)C=C3)cc1
REMARK SMILES IDX 19 1 18 2 17 3 15 4 16 5 2 6 1 7 3 8 4 9 5 10 6 11 13 12
REMARK SMILES IDX 7 14 12 15 14 16 8 17 11 18 9 19 10 20 20 22 21 23 22 24
REMARK SMILES IDX 23 25 24 26 85 27 25 28 84 29 26 30 27 31 28 32 78 33 29 34
REMARK SMILES IDX 83 35 77 36 79 37 30 38 82 39 76 40 75 41 31 43 63 44 43 45
REMARK SMILES IDX 62 46 44 47 47 48 61 49 80 50 45 51 46 52 60 54 81 55 48 56
REMARK SMILES IDX 32 57 33 58 41 59 34 60 36 61 42 62 35 63 37 64 38 65 39 66
REMARK SMILES IDX 40 67 64 68 65 69 73 70 66 71 68 72 74 73 67 74 69 75 70 76
REMARK SMILES IDX 71 77 72 78 49 79 50 80 58 81 51 82 53 83 59 84 52 85 54 86
REMARK SMILES IDX 55 87 56 88 57 89
REMARK H PARENT 5 13 11 21 79 42 47 53
REMARK Flexibility Score: inf
ROOT
ATOM      1  C   UNL A   1      36.314  20.845  25.372  1.00  0.00     0.275 C 
ENDROOT
BRANCH   1   2
ATOM      2  C   UNL A   1      35.132  21.808  25.486  1.00  0.00     0.275 C 
BRANCH   2   3
ATOM      3  O   UNL A   1      33.974  21.210  24.873  1.00  0.00    -0.459 OA
BRANCH   3   4
ATOM      4  C   UNL A   1      32.911  22.006  24.609  1.00  0.00     0.333 C 
ATOM      5  O   UNL A   1      32.260  22.638  25.420  1.00  0.00    -0.247 OA
BRANCH   4   6
ATOM      6  C   UNL A   1      32.696  22.094  23.135  1.00  0.00     0.036 C 
ATOM      7  C   UNL A   1      32.145  20.879  22.446  1.00  0.00     0.052 C 
ATOM      8  C   UNL A   1      33.149  23.128  22.402  1.00  0.00     0.044 C 
BRANCH   8   9
ATOM      9  C   UNL A   1      34.033  24.250  22.867  1.00  0.00     0.292 C 
BRANCH   9  10
ATOM     10  N   UNL A   1      33.260  25.397  23.360  1.00  0.00    -0.320 N 
ATOM     11  C   UNL A   1      33.703  25.850  24.689  1.00  0.00     0.328 C 
ATOM     12  C   UNL A   1      33.164  26.506  22.390  1.00  0.00     0.237 C 
ATOM     13  H   UNL A   1      32.307  25.049  23.471  1.00  0.00     0.348 HD
ATOM     14  C   UNL A   1      32.801  26.963  25.250  1.00  0.00     0.240 C 
ATOM     15  C   UNL A   1      33.168  27.935  23.024  1.00  0.00     0.328 C 
ATOM     16  C   UNL A   1      31.915  26.274  21.537  1.00  0.00     0.081 C 
ATOM     17  C   UNL A   1      33.406  27.602  26.502  1.00  0.00     0.077 C 
ATOM     18  N   UNL A   1      32.492  28.076  24.324  1.00  0.00    -0.323 N 
ATOM     19  C   UNL A   1      32.842  29.006  26.476  1.00  0.00     0.068 C 
ATOM     20  C   UNL A   1      32.853  29.334  24.994  1.00  0.00     0.263 C 
ATOM     21  H   UNL A   1      31.496  28.067  24.107  1.00  0.00     0.348 HD
ENDBRANCH   9  10
ENDBRANCH   8   9
ENDBRANCH   4   6
ENDBRANCH   3   4
ENDBRANCH   2   3
ENDBRANCH   1   2
BRANCH   1  22
ATOM     22  O   UNL A   1      37.514  21.586  25.087  1.00  0.00    -0.458 OA
BRANCH  22  23
ATOM     23  C   UNL A   1      38.610  21.171  25.754  1.00  0.00     0.338 C 
ATOM     24  O   UNL A   1      39.115  20.057  25.750  1.00  0.00    -0.246 OA
BRANCH  23  25
ATOM     25  C   UNL A   1      39.244  22.325  26.395  1.00  0.00     0.060 A 
ATOM     26  C   UNL A   1      38.729  23.584  26.103  1.00  0.00     0.016 A 
ATOM     27  C   UNL A   1      40.393  22.195  27.164  1.00  0.00     0.016 A 
ATOM     28  C   UNL A   1      39.415  24.730  26.473  1.00  0.00     0.010 A 
ATOM     29  C   UNL A   1      41.030  23.351  27.627  1.00  0.00     0.010 A 
ATOM     30  C   UNL A   1      40.571  24.630  27.251  1.00  0.00    -0.014 A 
BRANCH  30  31
ATOM     31  C   UNL A   1      41.306  25.859  27.646  1.00  0.00     0.031 A 
ATOM     32  C   UNL A   1      40.616  26.914  28.468  1.00  0.00     0.074 A 
ATOM     33  C   UNL A   1      42.588  26.031  27.265  1.00  0.00     0.049 A 
ATOM     34  N   UNL A   1      41.022  28.117  28.779  1.00  0.00    -0.248 NA
ATOM     35  C   UNL A   1      39.285  26.577  29.000  1.00  0.00     0.031 C 
ATOM     36  C   UNL A   1      43.378  25.071  26.491  1.00  0.00     0.029 A 
ATOM     37  N   UNL A   1      43.447  27.083  27.463  1.00  0.00    -0.354 N 
ATOM     38  C   UNL A   1      39.973  28.706  29.473  1.00  0.00     0.074 A 
ATOM     39  C   UNL A   1      38.912  27.726  29.547  1.00  0.00     0.031 C 
ATOM     40  C   UNL A   1      44.605  25.572  26.285  1.00  0.00     0.029 A 
ATOM     41  C   UNL A   1      44.663  26.919  26.839  1.00  0.00     0.049 A 
ATOM     42  H   UNL A   1      43.218  27.876  27.999  1.00  0.00     0.167 HD
ATOM     43  C   UNL A   1      39.903  29.950  30.005  1.00  0.00     0.034 A 
ATOM     44  C   UNL A   1      45.693  27.774  26.686  1.00  0.00     0.034 A 
ATOM     45  C   UNL A   1      40.987  30.897  29.976  1.00  0.00     0.049 A 
ATOM     46  C   UNL A   1      45.587  29.149  27.279  1.00  0.00     0.074 A 
ATOM     47  C   UNL A   1      41.034  32.166  30.523  1.00  0.00     0.029 A 
ATOM     48  N   UNL A   1      42.215  30.676  29.369  1.00  0.00    -0.354 N 
ATOM     49  N   UNL A   1      44.608  29.673  27.977  1.00  0.00    -0.248 NA
ATOM     50  C   UNL A   1      46.732  30.047  27.079  1.00  0.00     0.031 C 
ATOM     51  C   UNL A   1      42.282  32.723  30.226  1.00  0.00     0.029 A 
ATOM     52  C   UNL A   1      43.025  31.789  29.522  1.00  0.00     0.049 A 
ATOM     53  H   UNL A   1      42.472  29.850  28.900  1.00  0.00     0.167 HD
ATOM     54  C   UNL A   1      45.030  30.950  28.325  1.00  0.00     0.074 A 
ATOM     55  C   UNL A   1      46.364  31.111  27.781  1.00  0.00     0.031 C 
ATOM     56  C   UNL A   1      44.368  31.910  29.017  1.00  0.00     0.034 A 
BRANCH  43  57
ATOM     57  C   UNL A   1      38.614  30.358  30.671  1.00  0.00     0.023 A 
ATOM     58  C   UNL A   1      38.398  30.066  32.032  1.00  0.00     0.012 A 
ATOM     59  C   UNL A   1      37.634  31.076  29.955  1.00  0.00     0.148 A 
ATOM     60  C   UNL A   1      37.213  30.448  32.661  1.00  0.00     0.002 A 
ATOM     61  C   UNL A   1      36.477  31.494  30.601  1.00  0.00     0.091 A 
ATOM     62  F   UNL A   1      37.847  31.327  28.655  1.00  0.00    -0.205 F 
ATOM     63  C   UNL A   1      36.259  31.171  31.950  1.00  0.00     0.022 A 
BRANCH  61  64
ATOM     64  S   UNL A   1      35.225  32.497  29.792  1.00  0.00     0.127 S 
ATOM     65  O   UNL A   1      34.734  31.583  28.762  1.00  0.00    -0.237 OA
ATOM     66  O   UNL A   1      34.282  32.750  30.883  1.00  0.00    -0.237 OA
ATOM     67  O   UNL A   1      35.914  33.682  29.300  1.00  0.00    -0.744 OA
ENDBRANCH  61  64
ENDBRANCH  43  57
BRANCH  44  68
ATOM     68  C   UNL A   1      46.912  27.345  25.940  1.00  0.00     0.023 A 
ATOM     69  C   UNL A   1      47.019  27.627  24.566  1.00  0.00     0.012 A 
ATOM     70  C   UNL A   1      47.978  26.694  26.593  1.00  0.00     0.148 A 
ATOM     71  C   UNL A   1      48.153  27.246  23.848  1.00  0.00     0.002 A 
ATOM     72  C   UNL A   1      49.130  26.372  25.886  1.00  0.00     0.091 A 
ATOM     73  F   UNL A   1      47.851  26.419  27.898  1.00  0.00    -0.205 F 
ATOM     74  C   UNL A   1      49.212  26.630  24.509  1.00  0.00     0.022 A 
BRANCH  72  75
ATOM     75  S   UNL A   1      50.595  25.706  26.685  1.00  0.00     0.127 S 
ATOM     76  O   UNL A   1      50.084  24.460  27.251  1.00  0.00    -0.237 OA
ATOM     77  O   UNL A   1      51.507  25.540  25.553  1.00  0.00    -0.237 OA
ATOM     78  O   UNL A   1      51.011  26.716  27.647  1.00  0.00    -0.744 OA
ENDBRANCH  72  75
ENDBRANCH  44  68
BRANCH  56  79
ATOM     79  C   UNL A   1      45.093  33.207  29.267  1.00  0.00     0.023 A 
ATOM     80  C   UNL A   1      45.901  33.352  30.412  1.00  0.00     0.012 A 
ATOM     81  C   UNL A   1      45.022  34.257  28.331  1.00  0.00     0.148 A 
ATOM     82  C   UNL A   1      46.598  34.536  30.640  1.00  0.00     0.002 A 
ATOM     83  C   UNL A   1      45.760  35.414  28.539  1.00  0.00     0.091 A 
ATOM     84  F   UNL A   1      44.231  34.106  27.259  1.00  0.00    -0.205 F 
ATOM     85  C   UNL A   1      46.539  35.562  29.698  1.00  0.00     0.022 A 
BRANCH  83  86
ATOM     86  S   UNL A   1      45.821  36.745  27.333  1.00  0.00     0.127 S 
ATOM     87  O   UNL A   1      46.333  36.052  26.151  1.00  0.00    -0.237 OA
ATOM     88  O   UNL A   1      44.416  37.147  27.243  1.00  0.00    -0.237 OA
ATOM     89  O   UNL A   1      46.703  37.757  27.896  1.00  0.00    -0.744 OA
ENDBRANCH  83  86
ENDBRANCH  56  79
ENDBRANCH  30  31
ENDBRANCH  23  25
ENDBRANCH  22  23
ENDBRANCH   1  22
TORSDOF 16
ENDMDL
MODEL 3
REMARK VINA RESULT:     -11.7      5.318     10.282
REMARK SMILES C/C(=C/C[N@H+]1C[C@H]2CCC[N@H+]2C[C@@H]1C)C(=O)OCCOC(=O)c1ccc(-c2c3nc(c(-c4cccc(S(=O)(=O)[O-])c4F)c4ccc([nH]4)c(-c4cccc(S(=O)(=O)[O-])c4F)c4nc(c(-c5cccc(S(=O)(=O)[O-])c5F)c5ccc2[nH]5)C=C4)C=C3)cc1
REMARK SMILES IDX 19 1 18 2 17 3 15 4 16 5 2 6 1 7 3 8 4 9 5 10 6 11 13 12
REMARK SMILES IDX 7 14 12 15 14 16 8 17 11 18 9 19 10 20 20 22 21 23 22 24
REMARK SMILES IDX 23 25 24 26 85 27 25 28 84 29 26 30 27 31 28 32 78 33 29 34
REMARK SMILES IDX 83 35 77 36 79 37 30 38 82 39 76 40 75 41 31 43 63 44 43 45
REMARK SMILES IDX 62 46 44 47 47 48 61 49 80 50 45 51 46 52 60 54 81 55 48 56
REMARK SMILES IDX 32 57 33 58 41 59 34 60 36 61 42 62 35 63 37 64 38 65 39 66
REMARK SMILES IDX 40 67 64 68 65 69 73 70 66 71 68 72 74 73 67 74 69 75 70 76
REMARK SMILES IDX 71 77 72 78 49 79 50 80 58 81 51 82 53 83 59 84 52 85 54 86
REMARK SMILES IDX 55 87 56 88 57 89
REMARK H PARENT 5 13 11 21 79 42 47 53
REMARK Flexibility Score: inf
ROOT
ATOM      1  C   UNL A   1      31.429  30.550  25.752  1.00  0.00     0.275 C 
ENDROOT
BRANCH   1   2
ATOM      2  C   UNL A   1      31.283  29.493  24.656  1.00  0.00     0.275 C 
BRANCH   2   3
ATOM      3  O   UNL A   1      32.180  28.401  24.931  1.00  0.00    -0.459 OA
BRANCH   3   4
ATOM      4  C   UNL A   1      31.698  27.140  24.827  1.00  0.00     0.333 C 
ATOM      5  O   UNL A   1      30.751  26.674  25.434  1.00  0.00    -0.247 OA
BRANCH   4   6
ATOM      6  C   UNL A   1      32.436  26.400  23.762  1.00  0.00     0.036 C 
ATOM      7  C   UNL A   1      31.740  26.213  22.445  1.00  0.00     0.052 C 
ATOM      8  C   UNL A   1      33.589  25.750  24.005  1.00  0.00     0.044 C 
BRANCH   8   9
ATOM      9  C   UNL A   1      34.240  25.528  25.340  1.00  0.00     0.292 C 
BRANCH   9  10
ATOM     10  N   UNL A   1      34.424  24.101  25.636  1.00  0.00    -0.320 N 
ATOM     11  C   UNL A   1      33.205  23.311  25.397  1.00  0.00     0.328 C 
ATOM     12  C   UNL A   1      35.613  23.510  24.988  1.00  0.00     0.237 C 
ATOM     13  H   UNL A   1      34.610  24.058  26.638  1.00  0.00     0.348 HD
ATOM     14  C   UNL A   1      33.369  21.847  25.837  1.00  0.00     0.240 C 
ATOM     15  C   UNL A   1      35.440  22.027  24.527  1.00  0.00     0.328 C 
ATOM     16  C   UNL A   1      36.793  23.667  25.949  1.00  0.00     0.081 C 
ATOM     17  C   UNL A   1      32.204  20.978  25.358  1.00  0.00     0.077 C 
ATOM     18  N   UNL A   1      34.605  21.169  25.383  1.00  0.00    -0.323 N 
ATOM     19  C   UNL A   1      32.829  19.606  25.229  1.00  0.00     0.068 C 
ATOM     20  C   UNL A   1      34.214  19.929  24.697  1.00  0.00     0.263 C 
ATOM     21  H   UNL A   1      35.188  20.954  26.192  1.00  0.00     0.348 HD
ENDBRANCH   9  10
ENDBRANCH   8   9
ENDBRANCH   4   6
ENDBRANCH   3   4
ENDBRANCH   2   3
ENDBRANCH   1   2
BRANCH   1  22
ATOM     22  O   UNL A   1      32.699  30.392  26.409  1.00  0.00    -0.458 OA
BRANCH  22  23
ATOM     23  C   UNL A   1      33.148  31.492  27.049  1.00  0.00     0.338 C 
ATOM     24  O   UNL A   1      32.534  32.520  27.298  1.00  0.00    -0.246 OA
BRANCH  23  25
ATOM     25  C   UNL A   1      34.489  31.224  27.573  1.00  0.00     0.060 A 
ATOM     26  C   UNL A   1      34.797  29.909  27.908  1.00  0.00     0.016 A 
ATOM     27  C   UNL A   1      35.384  32.249  27.850  1.00  0.00     0.016 A 
ATOM     28  C   UNL A   1      35.944  29.614  28.628  1.00  0.00     0.010 A 
ATOM     29  C   UNL A   1      36.591  31.939  28.485  1.00  0.00     0.010 A 
ATOM     30  C   UNL A   1      36.864  30.625  28.917  1.00  0.00    -0.014 A 
BRANCH  30  31
ATOM     31  C   UNL A   1      38.094  30.308  29.689  1.00  0.00     0.031 A 
ATOM     32  C   UNL A   1      39.139  29.401  29.096  1.00  0.00     0.074 A 
ATOM     33  C   UNL A   1      38.270  30.827  30.920  1.00  0.00     0.049 A 
ATOM     34  N   UNL A   1      40.194  28.877  29.661  1.00  0.00    -0.248 NA
ATOM     35  C   UNL A   1      38.966  29.022  27.684  1.00  0.00     0.031 C 
ATOM     36  C   UNL A   1      37.345  31.741  31.596  1.00  0.00     0.029 A 
ATOM     37  N   UNL A   1      39.281  30.648  31.832  1.00  0.00    -0.354 N 
ATOM     38  C   UNL A   1      40.767  28.050  28.703  1.00  0.00     0.074 A 
ATOM     39  C   UNL A   1      39.948  28.147  27.515  1.00  0.00     0.031 C 
ATOM     40  C   UNL A   1      37.831  32.047  32.807  1.00  0.00     0.029 A 
ATOM     41  C   UNL A   1      39.058  31.290  33.028  1.00  0.00     0.049 A 
ATOM     42  H   UNL A   1      40.086  30.113  31.648  1.00  0.00     0.167 HD
ATOM     43  C   UNL A   1      41.880  27.283  28.804  1.00  0.00     0.034 A 
ATOM     44  C   UNL A   1      39.734  31.239  34.192  1.00  0.00     0.034 A 
ATOM     45  C   UNL A   1      42.721  27.239  29.971  1.00  0.00     0.049 A 
ATOM     46  C   UNL A   1      40.960  30.375  34.278  1.00  0.00     0.074 A 
ATOM     47  C   UNL A   1      43.893  26.530  30.160  1.00  0.00     0.029 A 
ATOM     48  N   UNL A   1      42.481  27.936  31.146  1.00  0.00    -0.354 N 
ATOM     49  N   UNL A   1      41.518  29.639  33.348  1.00  0.00    -0.248 NA
ATOM     50  C   UNL A   1      41.660  30.346  35.569  1.00  0.00     0.031 C 
ATOM     51  C   UNL A   1      44.349  26.777  31.459  1.00  0.00     0.029 A 
ATOM     52  C   UNL A   1      43.479  27.667  32.068  1.00  0.00     0.049 A 
ATOM     53  H   UNL A   1      41.714  28.533  31.301  1.00  0.00     0.167 HD
ATOM     54  C   UNL A   1      42.650  29.082  33.930  1.00  0.00     0.074 A 
ATOM     55  C   UNL A   1      42.711  29.587  35.287  1.00  0.00     0.031 C 
ATOM     56  C   UNL A   1      43.549  28.219  33.397  1.00  0.00     0.034 A 
BRANCH  43  57
ATOM     57  C   UNL A   1      42.257  26.434  27.617  1.00  0.00     0.023 A 
ATOM     58  C   UNL A   1      43.040  26.976  26.579  1.00  0.00     0.012 A 
ATOM     59  C   UNL A   1      41.873  25.078  27.557  1.00  0.00     0.148 A 
ATOM     60  C   UNL A   1      43.404  26.197  25.482  1.00  0.00     0.002 A 
ATOM     61  C   UNL A   1      42.279  24.295  26.482  1.00  0.00     0.091 A 
ATOM     62  F   UNL A   1      41.111  24.584  28.542  1.00  0.00    -0.205 F 
ATOM     63  C   UNL A   1      43.033  24.855  25.439  1.00  0.00     0.022 A 
BRANCH  61  64
ATOM     64  S   UNL A   1      41.920  22.538  26.374  1.00  0.00     0.127 S 
ATOM     65  O   UNL A   1      42.485  22.044  27.629  1.00  0.00    -0.237 OA
ATOM     66  O   UNL A   1      40.458  22.526  26.317  1.00  0.00    -0.237 OA
ATOM     67  O   UNL A   1      42.578  22.066  25.164  1.00  0.00    -0.744 OA
ENDBRANCH  61  64
ENDBRANCH  43  57
BRANCH  44  68
ATOM     68  C   UNL A   1      39.265  32.034  35.363  1.00  0.00     0.023 A 
ATOM     69  C   UNL A   1      38.386  31.447  36.292  1.00  0.00     0.012 A 
ATOM     70  C   UNL A   1      39.712  33.353  35.579  1.00  0.00     0.148 A 
ATOM     71  C   UNL A   1      37.939  32.167  37.401  1.00  0.00     0.002 A 
ATOM     72  C   UNL A   1      39.313  34.043  36.717  1.00  0.00     0.091 A 
ATOM     73  F   UNL A   1      40.536  33.901  34.674  1.00  0.00    -0.205 F 
ATOM     74  C   UNL A   1      38.412  33.458  37.620  1.00  0.00     0.022 A 
BRANCH  72  75
ATOM     75  S   UNL A   1      39.980  35.653  37.150  1.00  0.00     0.127 S 
ATOM     76  O   UNL A   1      39.296  35.929  38.412  1.00  0.00    -0.237 OA
ATOM     77  O   UNL A   1      41.409  35.364  37.274  1.00  0.00    -0.237 OA
ATOM     78  O   UNL A   1      39.640  36.531  36.040  1.00  0.00    -0.744 OA
ENDBRANCH  72  75
ENDBRANCH  44  68
BRANCH  56  79
ATOM     79  C   UNL A   1      44.704  27.798  34.266  1.00  0.00     0.023 A 
ATOM     80  C   UNL A   1      45.878  28.577  34.303  1.00  0.00     0.012 A 
ATOM     81  C   UNL A   1      44.598  26.665  35.096  1.00  0.00     0.148 A 
ATOM     82  C   UNL A   1      46.943  28.213  35.125  1.00  0.00     0.002 A 
ATOM     83  C   UNL A   1      45.643  26.338  35.950  1.00  0.00     0.091 A 
ATOM     84  F   UNL A   1      43.481  25.926  35.031  1.00  0.00    -0.205 F 
ATOM     85  C   UNL A   1      46.820  27.102  35.958  1.00  0.00     0.022 A 
BRANCH  83  86
ATOM     86  S   UNL A   1      45.534  24.984  37.127  1.00  0.00     0.127 S 
ATOM     87  O   UNL A   1      44.366  25.370  37.918  1.00  0.00    -0.237 OA
ATOM     88  O   UNL A   1      45.324  23.830  36.253  1.00  0.00    -0.237 OA
ATOM     89  O   UNL A   1      46.801  24.974  37.845  1.00  0.00    -0.744 OA
ENDBRANCH  83  86
ENDBRANCH  56  79
ENDBRANCH  30  31
ENDBRANCH  23  25
ENDBRANCH  22  23
ENDBRANCH   1  22
TORSDOF 16
ENDMDL
