MODEL 1
REMARK VINA RESULT:     -11.3      0.000      0.000
REMARK SMILES CC[C@@H]1CCCN1C(=O)N[C@H]1C=C[C@@H](C(=O)OCCOC(=O)c2ccc(-c3c4nc(c(-c5cccc(S(=O)(=O)[O-])c5F)c5ccc([nH]5)c(-c5cccc(S(=O)(=O)[O-])c5F)c5nc(c(-c6cccc(S(=O)(=O)[O-])c6F)c6ccc3[nH]6)C=C5)C=C4)cc2)C1
REMARK SMILES IDX 18 1 17 2 15 3 16 4 14 5 11 6 12 7 86 8 13 9 10 10 8 11 9 12
REMARK SMILES IDX 7 14 3 15 4 16 5 17 6 18 2 19 1 20 19 21 20 22 21 23 22 24
REMARK SMILES IDX 23 25 24 26 85 27 25 28 84 29 26 30 27 31 28 32 78 33 29 34
REMARK SMILES IDX 83 35 77 36 79 37 30 38 82 39 76 40 75 41 31 43 63 44 43 45
REMARK SMILES IDX 62 46 44 47 47 48 61 49 80 50 45 51 46 52 60 54 81 55 48 56
REMARK SMILES IDX 32 57 33 58 41 59 34 60 36 61 42 62 35 63 37 64 38 65 39 66
REMARK SMILES IDX 40 67 64 68 65 69 73 70 66 71 68 72 74 73 67 74 69 75 70 76
REMARK SMILES IDX 71 77 72 78 49 79 50 80 58 81 51 82 53 83 59 84 52 85 54 86
REMARK SMILES IDX 55 87 56 88 57 89
REMARK H PARENT 10 13 79 42 47 53
REMARK Flexibility Score: inf
ROOT
ATOM      1  C   UNL A   1      30.933  30.090  24.533  1.00  0.00     0.274 C 
ENDROOT
BRANCH   1   2
ATOM      2  O   UNL A   1      31.606  29.319  23.524  1.00  0.00    -0.462 OA
BRANCH   2   3
ATOM      3  C   UNL A   1      30.933  28.203  23.153  1.00  0.00     0.312 C 
ATOM      4  O   UNL A   1      29.924  28.201  22.452  1.00  0.00    -0.252 OA
BRANCH   3   5
ATOM      5  C   UNL A   1      31.411  26.940  23.817  1.00  0.00     0.124 C 
ATOM      6  C   UNL A   1      31.045  24.905  24.978  1.00  0.00     0.107 C 
ATOM      7  C   UNL A   1      30.721  24.747  23.533  1.00  0.00    -0.006 C 
ATOM      8  C   UNL A   1      30.799  26.416  25.130  1.00  0.00     0.048 C 
ATOM      9  C   UNL A   1      31.042  25.848  22.857  1.00  0.00    -0.014 C 
BRANCH   6  10
ATOM     10  N   UNL A   1      30.275  23.990  25.737  1.00  0.00    -0.332 N 
ATOM     11  C   UNL A   1      30.593  22.799  26.276  1.00  0.00     0.318 C 
ATOM     12  O   UNL A   1      29.620  22.188  26.739  1.00  0.00    -0.249 OA
ATOM     13  H   UNL A   1      29.346  24.275  25.898  1.00  0.00     0.165 HD
BRANCH  11  14
ATOM     14  N   UNL A   1      31.847  22.221  26.213  1.00  0.00    -0.322 N 
ATOM     15  C   UNL A   1      32.742  21.758  25.094  1.00  0.00     0.086 C 
ATOM     16  C   UNL A   1      34.075  21.464  25.819  1.00  0.00     0.027 C 
ATOM     17  C   UNL A   1      34.138  22.526  26.882  1.00  0.00     0.024 C 
ATOM     18  C   UNL A   1      32.699  22.582  27.356  1.00  0.00     0.122 C 
BRANCH  15  19
ATOM     19  C   UNL A   1      32.500  20.586  24.115  1.00  0.00     0.022 C 
ATOM     20  C   UNL A   1      32.153  20.910  22.661  1.00  0.00     0.006 C 
ENDBRANCH  15  19
ENDBRANCH  11  14
ENDBRANCH   6  10
ENDBRANCH   3   5
ENDBRANCH   2   3
ENDBRANCH   1   2
BRANCH   1  21
ATOM     21  C   UNL A   1      31.574  29.958  25.919  1.00  0.00     0.275 C 
BRANCH  21  22
ATOM     22  O   UNL A   1      32.962  30.341  25.950  1.00  0.00    -0.458 OA
BRANCH  22  23
ATOM     23  C   UNL A   1      33.290  31.225  26.918  1.00  0.00     0.338 C 
ATOM     24  O   UNL A   1      32.569  32.092  27.401  1.00  0.00    -0.246 OA
BRANCH  23  25
ATOM     25  C   UNL A   1      34.630  30.942  27.449  1.00  0.00     0.060 A 
ATOM     26  C   UNL A   1      34.936  29.625  27.808  1.00  0.00     0.016 A 
ATOM     27  C   UNL A   1      35.523  31.976  27.719  1.00  0.00     0.016 A 
ATOM     28  C   UNL A   1      36.127  29.335  28.465  1.00  0.00     0.010 A 
ATOM     29  C   UNL A   1      36.723  31.684  28.374  1.00  0.00     0.010 A 
ATOM     30  C   UNL A   1      37.020  30.367  28.772  1.00  0.00    -0.014 A 
BRANCH  30  31
ATOM     31  C   UNL A   1      38.229  30.084  29.579  1.00  0.00     0.031 A 
ATOM     32  C   UNL A   1      39.279  29.158  29.034  1.00  0.00     0.074 A 
ATOM     33  C   UNL A   1      38.375  30.642  30.794  1.00  0.00     0.049 A 
ATOM     34  N   UNL A   1      40.323  28.651  29.631  1.00  0.00    -0.248 NA
ATOM     35  C   UNL A   1      39.126  28.742  27.629  1.00  0.00     0.031 C 
ATOM     36  C   UNL A   1      37.441  31.587  31.408  1.00  0.00     0.029 A 
ATOM     37  N   UNL A   1      39.353  30.474  31.742  1.00  0.00    -0.354 N 
ATOM     38  C   UNL A   1      40.917  27.806  28.701  1.00  0.00     0.074 A 
ATOM     39  C   UNL A   1      40.126  27.883  27.492  1.00  0.00     0.031 C 
ATOM     40  C   UNL A   1      37.879  31.899  32.637  1.00  0.00     0.029 A 
ATOM     41  C   UNL A   1      39.093  31.138  32.918  1.00  0.00     0.049 A 
ATOM     42  H   UNL A   1      40.162  29.933  31.595  1.00  0.00     0.167 HD
ATOM     43  C   UNL A   1      42.023  27.039  28.844  1.00  0.00     0.034 A 
ATOM     44  C   UNL A   1      39.739  31.103  34.100  1.00  0.00     0.034 A 
ATOM     45  C   UNL A   1      42.833  27.014  30.033  1.00  0.00     0.049 A 
ATOM     46  C   UNL A   1      40.963  30.238  34.233  1.00  0.00     0.074 A 
ATOM     47  C   UNL A   1      43.996  26.303  30.266  1.00  0.00     0.029 A 
ATOM     48  N   UNL A   1      42.566  27.739  31.184  1.00  0.00    -0.354 N 
ATOM     49  N   UNL A   1      41.548  29.492  33.327  1.00  0.00    -0.248 NA
ATOM     50  C   UNL A   1      41.625  30.221  35.546  1.00  0.00     0.031 C 
ATOM     51  C   UNL A   1      44.428  26.591  31.565  1.00  0.00     0.029 A 
ATOM     52  C   UNL A   1      43.540  27.491  32.135  1.00  0.00     0.049 A 
ATOM     53  H   UNL A   1      41.798  28.341  31.307  1.00  0.00     0.167 HD
ATOM     54  C   UNL A   1      42.660  28.936  33.951  1.00  0.00     0.074 A 
ATOM     55  C   UNL A   1      42.679  29.452  35.305  1.00  0.00     0.031 C 
ATOM     56  C   UNL A   1      43.571  28.062  33.456  1.00  0.00     0.034 A 
BRANCH  43  57
ATOM     57  C   UNL A   1      42.432  26.177  27.682  1.00  0.00     0.023 A 
ATOM     58  C   UNL A   1      43.324  26.682  26.715  1.00  0.00     0.012 A 
ATOM     59  C   UNL A   1      41.972  24.850  27.572  1.00  0.00     0.148 A 
ATOM     60  C   UNL A   1      43.731  25.889  25.643  1.00  0.00     0.002 A 
ATOM     61  C   UNL A   1      42.412  24.052  26.522  1.00  0.00     0.091 A 
ATOM     62  F   UNL A   1      41.101  24.397  28.486  1.00  0.00    -0.205 F 
ATOM     63  C   UNL A   1      43.284  24.573  25.553  1.00  0.00     0.022 A 
BRANCH  61  64
ATOM     64  S   UNL A   1      41.941  22.327  26.360  1.00  0.00     0.127 S 
ATOM     65  O   UNL A   1      42.656  21.938  25.145  1.00  0.00    -0.237 OA
ATOM     66  O   UNL A   1      42.472  21.742  27.593  1.00  0.00    -0.237 OA
ATOM     67  O   UNL A   1      40.488  22.318  26.264  1.00  0.00    -0.744 OA
ENDBRANCH  61  64
ENDBRANCH  43  57
BRANCH  44  68
ATOM     68  C   UNL A   1      39.248  31.928  35.239  1.00  0.00     0.023 A 
ATOM     69  C   UNL A   1      38.312  31.378  36.137  1.00  0.00     0.012 A 
ATOM     70  C   UNL A   1      39.731  33.232  35.465  1.00  0.00     0.148 A 
ATOM     71  C   UNL A   1      37.851  32.119  37.226  1.00  0.00     0.002 A 
ATOM     72  C   UNL A   1      39.310  33.943  36.583  1.00  0.00     0.091 A 
ATOM     73  F   UNL A   1      40.601  33.750  34.587  1.00  0.00    -0.205 F 
ATOM     74  C   UNL A   1      38.359  33.394  37.457  1.00  0.00     0.022 A 
BRANCH  72  75
ATOM     75  S   UNL A   1      40.023  35.532  37.025  1.00  0.00     0.127 S 
ATOM     76  O   UNL A   1      39.651  36.357  35.878  1.00  0.00    -0.237 OA
ATOM     77  O   UNL A   1      39.319  35.852  38.268  1.00  0.00    -0.237 OA
ATOM     78  O   UNL A   1      41.448  35.281  37.196  1.00  0.00    -0.744 OA
ENDBRANCH  72  75
ENDBRANCH  44  68
BRANCH  56  79
ATOM     79  C   UNL A   1      44.681  27.627  34.373  1.00  0.00     0.023 A 
ATOM     80  C   UNL A   1      45.875  28.373  34.420  1.00  0.00     0.012 A 
ATOM     81  C   UNL A   1      44.513  26.531  35.240  1.00  0.00     0.148 A 
ATOM     82  C   UNL A   1      46.896  28.020  35.303  1.00  0.00     0.002 A 
ATOM     83  C   UNL A   1      45.518  26.210  36.146  1.00  0.00     0.091 A 
ATOM     84  F   UNL A   1      43.379  25.820  35.162  1.00  0.00    -0.205 F 
ATOM     85  C   UNL A   1      46.713  26.947  36.173  1.00  0.00     0.022 A 
BRANCH  83  86
ATOM     86  S   UNL A   1      45.323  24.900  37.360  1.00  0.00     0.127 S 
ATOM     87  O   UNL A   1      46.583  24.986  38.096  1.00  0.00    -0.237 OA
ATOM     88  O   UNL A   1      44.147  25.340  38.113  1.00  0.00    -0.237 OA
ATOM     89  O   UNL A   1      45.122  23.677  36.595  1.00  0.00    -0.744 OA
ENDBRANCH  83  86
ENDBRANCH  56  79
ENDBRANCH  30  31
ENDBRANCH  23  25
ENDBRANCH  22  23
ENDBRANCH  21  22
ENDBRANCH   1  21
TORSDOF 17
ENDMDL
MODEL 2
REMARK VINA RESULT:     -11.3      5.285     10.195
REMARK SMILES CC[C@@H]1CCCN1C(=O)N[C@H]1C=C[C@@H](C(=O)OCCOC(=O)c2ccc(-c3c4nc(c(-c5cccc(S(=O)(=O)[O-])c5F)c5ccc([nH]5)c(-c5cccc(S(=O)(=O)[O-])c5F)c5nc(c(-c6cccc(S(=O)(=O)[O-])c6F)c6ccc3[nH]6)C=C5)C=C4)cc2)C1
REMARK SMILES IDX 18 1 17 2 15 3 16 4 14 5 11 6 12 7 86 8 13 9 10 10 8 11 9 12
REMARK SMILES IDX 7 14 3 15 4 16 5 17 6 18 2 19 1 20 19 21 20 22 21 23 22 24
REMARK SMILES IDX 23 25 24 26 85 27 25 28 84 29 26 30 27 31 28 32 78 33 29 34
REMARK SMILES IDX 83 35 77 36 79 37 30 38 82 39 76 40 75 41 31 43 63 44 43 45
REMARK SMILES IDX 62 46 44 47 47 48 61 49 80 50 45 51 46 52 60 54 81 55 48 56
REMARK SMILES IDX 32 57 33 58 41 59 34 60 36 61 42 62 35 63 37 64 38 65 39 66
REMARK SMILES IDX 40 67 64 68 65 69 73 70 66 71 68 72 74 73 67 74 69 75 70 76
REMARK SMILES IDX 71 77 72 78 49 79 50 80 58 81 51 82 53 83 59 84 52 85 54 86
REMARK SMILES IDX 55 87 56 88 57 89
REMARK H PARENT 10 13 79 42 47 53
REMARK Flexibility Score: inf
ROOT
ATOM      1  C   UNL A   1      36.076  20.329  24.996  1.00  0.00     0.274 C 
ENDROOT
BRANCH   1   2
ATOM      2  O   UNL A   1      35.369  21.572  24.851  1.00  0.00    -0.462 OA
BRANCH   2   3
ATOM      3  C   UNL A   1      34.057  21.419  24.546  1.00  0.00     0.312 C 
ATOM      4  O   UNL A   1      33.509  20.334  24.362  1.00  0.00    -0.252 OA
BRANCH   3   5
ATOM      5  C   UNL A   1      33.331  22.707  24.266  1.00  0.00     0.124 C 
ATOM      6  C   UNL A   1      33.211  25.072  24.152  1.00  0.00     0.107 C 
ATOM      7  C   UNL A   1      33.959  24.530  22.984  1.00  0.00    -0.006 C 
ATOM      8  C   UNL A   1      33.477  23.947  25.167  1.00  0.00     0.048 C 
ATOM      9  C   UNL A   1      33.923  23.199  22.980  1.00  0.00    -0.014 C 
BRANCH   6  10
ATOM     10  N   UNL A   1      33.658  26.387  24.429  1.00  0.00    -0.332 N 
ATOM     11  C   UNL A   1      33.088  27.584  24.198  1.00  0.00     0.318 C 
ATOM     12  O   UNL A   1      33.839  28.543  24.423  1.00  0.00    -0.249 OA
ATOM     13  H   UNL A   1      34.540  26.433  24.867  1.00  0.00     0.165 HD
BRANCH  11  14
ATOM     14  N   UNL A   1      31.839  27.758  23.633  1.00  0.00    -0.322 N 
ATOM     15  C   UNL A   1      30.425  27.574  24.117  1.00  0.00     0.086 C 
ATOM     16  C   UNL A   1      29.589  28.218  22.987  1.00  0.00     0.027 C 
ATOM     17  C   UNL A   1      30.435  29.379  22.541  1.00  0.00     0.024 C 
ATOM     18  C   UNL A   1      31.829  28.784  22.579  1.00  0.00     0.122 C 
BRANCH  15  19
ATOM     19  C   UNL A   1      29.720  26.251  24.493  1.00  0.00     0.022 C 
ATOM     20  C   UNL A   1      29.970  25.661  25.881  1.00  0.00     0.006 C 
ENDBRANCH  15  19
ENDBRANCH  11  14
ENDBRANCH   6  10
ENDBRANCH   3   5
ENDBRANCH   2   3
ENDBRANCH   1   2
BRANCH   1  21
ATOM     21  C   UNL A   1      37.597  20.487  24.893  1.00  0.00     0.275 C 
BRANCH  21  22
ATOM     22  O   UNL A   1      38.109  21.620  25.620  1.00  0.00    -0.458 OA
BRANCH  22  23
ATOM     23  C   UNL A   1      39.325  21.439  26.181  1.00  0.00     0.338 C 
ATOM     24  O   UNL A   1      40.034  20.441  26.098  1.00  0.00    -0.246 OA
BRANCH  23  25
ATOM     25  C   UNL A   1      39.788  22.672  26.830  1.00  0.00     0.060 A 
ATOM     26  C   UNL A   1      39.282  23.893  26.371  1.00  0.00     0.016 A 
ATOM     27  C   UNL A   1      40.808  22.639  27.779  1.00  0.00     0.016 A 
ATOM     28  C   UNL A   1      39.810  25.092  26.839  1.00  0.00     0.010 A 
ATOM     29  C   UNL A   1      41.334  23.844  28.253  1.00  0.00     0.010 A 
ATOM     30  C   UNL A   1      40.855  25.075  27.768  1.00  0.00    -0.014 A 
BRANCH  30  31
ATOM     31  C   UNL A   1      41.503  26.343  28.175  1.00  0.00     0.031 A 
ATOM     32  C   UNL A   1      40.688  27.397  28.871  1.00  0.00     0.074 A 
ATOM     33  C   UNL A   1      42.805  26.551  27.910  1.00  0.00     0.049 A 
ATOM     34  N   UNL A   1      41.009  28.628  29.165  1.00  0.00    -0.248 NA
ATOM     35  C   UNL A   1      39.327  27.012  29.283  1.00  0.00     0.031 C 
ATOM     36  C   UNL A   1      43.702  25.585  27.275  1.00  0.00     0.029 A 
ATOM     37  N   UNL A   1      43.593  27.655  28.117  1.00  0.00    -0.354 N 
ATOM     38  C   UNL A   1      39.872  29.187  29.738  1.00  0.00     0.074 A 
ATOM     39  C   UNL A   1      38.860  28.155  29.766  1.00  0.00     0.031 C 
ATOM     40  C   UNL A   1      44.913  26.145  27.126  1.00  0.00     0.029 A 
ATOM     41  C   UNL A   1      44.862  27.524  27.603  1.00  0.00     0.049 A 
ATOM     42  H   UNL A   1      43.282  28.461  28.588  1.00  0.00     0.167 HD
ATOM     43  C   UNL A   1      39.695  30.447  30.199  1.00  0.00     0.034 A 
ATOM     44  C   UNL A   1      45.856  28.427  27.494  1.00  0.00     0.034 A 
ATOM     45  C   UNL A   1      40.728  31.448  30.216  1.00  0.00     0.049 A 
ATOM     46  C   UNL A   1      45.629  29.822  28.011  1.00  0.00     0.074 A 
ATOM     47  C   UNL A   1      40.662  32.742  30.699  1.00  0.00     0.029 A 
ATOM     48  N   UNL A   1      42.014  31.262  29.735  1.00  0.00    -0.354 N 
ATOM     49  N   UNL A   1      44.572  30.320  28.605  1.00  0.00    -0.248 NA
ATOM     50  C   UNL A   1      46.738  30.776  27.857  1.00  0.00     0.031 C 
ATOM     51  C   UNL A   1      41.911  33.343  30.500  1.00  0.00     0.029 A 
ATOM     52  C   UNL A   1      42.755  32.418  29.905  1.00  0.00     0.049 A 
ATOM     53  H   UNL A   1      42.352  30.430  29.332  1.00  0.00     0.167 HD
ATOM     54  C   UNL A   1      44.894  31.636  28.918  1.00  0.00     0.074 A 
ATOM     55  C   UNL A   1      46.255  31.850  28.469  1.00  0.00     0.031 C 
ATOM     56  C   UNL A   1      44.127  32.588  29.504  1.00  0.00     0.034 A 
BRANCH  43  57
ATOM     57  C   UNL A   1      38.338  30.810  30.738  1.00  0.00     0.023 A 
ATOM     58  C   UNL A   1      38.005  30.487  32.069  1.00  0.00     0.012 A 
ATOM     59  C   UNL A   1      37.412  31.513  29.944  1.00  0.00     0.148 A 
ATOM     60  C   UNL A   1      36.761  30.835  32.592  1.00  0.00     0.002 A 
ATOM     61  C   UNL A   1      36.187  31.890  30.484  1.00  0.00     0.091 A 
ATOM     62  F   UNL A   1      37.736  31.785  28.671  1.00  0.00    -0.205 F 
ATOM     63  C   UNL A   1      35.857  31.545  31.804  1.00  0.00     0.022 A 
BRANCH  61  64
ATOM     64  S   UNL A   1      34.988  32.862  29.566  1.00  0.00     0.127 S 
ATOM     65  O   UNL A   1      34.448  31.868  28.639  1.00  0.00    -0.237 OA
ATOM     66  O   UNL A   1      34.059  33.283  30.616  1.00  0.00    -0.237 OA
ATOM     67  O   UNL A   1      35.741  33.949  28.954  1.00  0.00    -0.744 OA
ENDBRANCH  61  64
ENDBRANCH  43  57
BRANCH  44  68
ATOM     68  C   UNL A   1      47.158  28.030  26.889  1.00  0.00     0.023 A 
ATOM     69  C   UNL A   1      48.238  27.700  27.730  1.00  0.00     0.012 A 
ATOM     70  C   UNL A   1      47.321  27.935  25.493  1.00  0.00     0.148 A 
ATOM     71  C   UNL A   1      49.463  27.303  27.191  1.00  0.00     0.002 A 
ATOM     72  C   UNL A   1      48.526  27.484  24.964  1.00  0.00     0.091 A 
ATOM     73  F   UNL A   1      46.292  28.277  24.705  1.00  0.00    -0.205 F 
ATOM     74  C   UNL A   1      49.603  27.181  25.812  1.00  0.00     0.022 A 
BRANCH  72  75
ATOM     75  S   UNL A   1      48.737  27.167  23.208  1.00  0.00     0.127 S 
ATOM     76  O   UNL A   1      50.192  27.153  23.079  1.00  0.00    -0.237 OA
ATOM     77  O   UNL A   1      48.092  25.863  23.050  1.00  0.00    -0.237 OA
ATOM     78  O   UNL A   1      48.047  28.259  22.534  1.00  0.00    -0.744 OA
ENDBRANCH  72  75
ENDBRANCH  44  68
BRANCH  56  79
ATOM     79  C   UNL A   1      44.748  33.942  29.719  1.00  0.00     0.023 A 
ATOM     80  C   UNL A   1      45.468  34.194  30.903  1.00  0.00     0.012 A 
ATOM     81  C   UNL A   1      44.686  34.931  28.720  1.00  0.00     0.148 A 
ATOM     82  C   UNL A   1      46.099  35.423  31.098  1.00  0.00     0.002 A 
ATOM     83  C   UNL A   1      45.351  36.138  28.904  1.00  0.00     0.091 A 
ATOM     84  F   UNL A   1      43.976  34.678  27.610  1.00  0.00    -0.205 F 
ATOM     85  C   UNL A   1      46.051  36.389  30.096  1.00  0.00     0.022 A 
BRANCH  83  86
ATOM     86  S   UNL A   1      45.413  37.397  27.624  1.00  0.00     0.127 S 
ATOM     87  O   UNL A   1      43.999  37.727  27.461  1.00  0.00    -0.237 OA
ATOM     88  O   UNL A   1      46.216  38.447  28.254  1.00  0.00    -0.237 OA
ATOM     89  O   UNL A   1      46.050  36.765  26.477  1.00  0.00    -0.744 OA
ENDBRANCH  83  86
ENDBRANCH  56  79
ENDBRANCH  30  31
ENDBRANCH  23  25
ENDBRANCH  22  23
ENDBRANCH  21  22
ENDBRANCH   1  21
TORSDOF 17
ENDMDL
MODEL 3
REMARK VINA RESULT:     -11.3      5.292     10.297
REMARK SMILES CC[C@@H]1CCCN1C(=O)N[C@H]1C=C[C@@H](C(=O)OCCOC(=O)c2ccc(-c3c4nc(c(-c5cccc(S(=O)(=O)[O-])c5F)c5ccc([nH]5)c(-c5cccc(S(=O)(=O)[O-])c5F)c5nc(c(-c6cccc(S(=O)(=O)[O-])c6F)c6ccc3[nH]6)C=C5)C=C4)cc2)C1
REMARK SMILES IDX 18 1 17 2 15 3 16 4 14 5 11 6 12 7 86 8 13 9 10 10 8 11 9 12
REMARK SMILES IDX 7 14 3 15 4 16 5 17 6 18 2 19 1 20 19 21 20 22 21 23 22 24
REMARK SMILES IDX 23 25 24 26 85 27 25 28 84 29 26 30 27 31 28 32 78 33 29 34
REMARK SMILES IDX 83 35 77 36 79 37 30 38 82 39 76 40 75 41 31 43 63 44 43 45
REMARK SMILES IDX 62 46 44 47 47 48 61 49 80 50 45 51 46 52 60 54 81 55 48 56
REMARK SMILES IDX 32 57 33 58 41 59 34 60 36 61 42 62 35 63 37 64 38 65 39 66
REMARK SMILES IDX 40 67 64 68 65 69 73 70 66 71 68 72 74 73 67 74 69 75 70 76
REMARK SMILES IDX 71 77 72 78 49 79 50 80 58 81 51 82 53 83 59 84 52 85 54 86
REMARK SMILES IDX 55 87 56 88 57 89
REMARK H PARENT 10 13 79 42 47 53
REMARK Flexibility Score: inf
ROOT
ATOM      1  C   UNL A   1      36.433  20.117  24.877  1.00  0.00     0.274 C 
ENDROOT
BRANCH   1   2
ATOM      2  O   UNL A   1      35.948  21.440  24.597  1.00  0.00    -0.462 OA
BRANCH   2   3
ATOM      3  C   UNL A   1      35.053  21.896  25.508  1.00  0.00     0.312 C 
ATOM      4  O   UNL A   1      34.882  21.403  26.620  1.00  0.00    -0.252 OA
BRANCH   3   5
ATOM      5  C   UNL A   1      34.132  22.968  24.990  1.00  0.00     0.124 C 
ATOM      6  C   UNL A   1      33.619  24.793  23.566  1.00  0.00     0.107 C 
ATOM      7  C   UNL A   1      33.537  23.508  22.818  1.00  0.00    -0.006 C 
ATOM      8  C   UNL A   1      34.626  24.388  24.657  1.00  0.00     0.048 C 
ATOM      9  C   UNL A   1      33.703  22.475  23.641  1.00  0.00    -0.014 C 
BRANCH   6  10
ATOM     10  N   UNL A   1      33.940  25.841  22.670  1.00  0.00    -0.332 N 
ATOM     11  C   UNL A   1      33.606  27.145  22.675  1.00  0.00     0.318 C 
ATOM     12  O   UNL A   1      33.927  27.744  21.639  1.00  0.00    -0.249 OA
ATOM     13  H   UNL A   1      34.506  25.569  21.911  1.00  0.00     0.165 HD
BRANCH  11  14
ATOM     14  N   UNL A   1      32.855  27.756  23.662  1.00  0.00    -0.322 N 
ATOM     15  C   UNL A   1      31.420  27.663  24.107  1.00  0.00     0.086 C 
ATOM     16  C   UNL A   1      31.418  28.466  25.428  1.00  0.00     0.027 C 
ATOM     17  C   UNL A   1      32.758  28.151  26.033  1.00  0.00     0.024 C 
ATOM     18  C   UNL A   1      33.664  28.172  24.817  1.00  0.00     0.122 C 
BRANCH  15  19
ATOM     19  C   UNL A   1      30.158  28.093  23.323  1.00  0.00     0.022 C 
ATOM     20  C   UNL A   1      30.256  29.301  22.391  1.00  0.00     0.006 C 
ENDBRANCH  15  19
ENDBRANCH  11  14
ENDBRANCH   6  10
ENDBRANCH   3   5
ENDBRANCH   2   3
ENDBRANCH   1   2
BRANCH   1  21
ATOM     21  C   UNL A   1      37.958  20.051  25.007  1.00  0.00     0.275 C 
BRANCH  21  22
ATOM     22  O   UNL A   1      38.545  21.259  25.527  1.00  0.00    -0.458 OA
BRANCH  22  23
ATOM     23  C   UNL A   1      39.657  21.080  26.274  1.00  0.00     0.338 C 
ATOM     24  O   UNL A   1      40.319  20.052  26.377  1.00  0.00    -0.246 OA
BRANCH  23  25
ATOM     25  C   UNL A   1      40.084  22.346  26.882  1.00  0.00     0.060 A 
ATOM     26  C   UNL A   1      39.618  23.541  26.323  1.00  0.00     0.016 A 
ATOM     27  C   UNL A   1      41.038  22.363  27.897  1.00  0.00     0.016 A 
ATOM     28  C   UNL A   1      40.122  24.763  26.757  1.00  0.00     0.010 A 
ATOM     29  C   UNL A   1      41.540  23.592  28.338  1.00  0.00     0.010 A 
ATOM     30  C   UNL A   1      41.102  24.796  27.754  1.00  0.00    -0.014 A 
BRANCH  30  31
ATOM     31  C   UNL A   1      41.731  26.082  28.132  1.00  0.00     0.031 A 
ATOM     32  C   UNL A   1      40.908  27.126  28.832  1.00  0.00     0.074 A 
ATOM     33  C   UNL A   1      43.022  26.315  27.837  1.00  0.00     0.049 A 
ATOM     34  N   UNL A   1      41.208  28.368  29.104  1.00  0.00    -0.248 NA
ATOM     35  C   UNL A   1      39.564  26.718  29.277  1.00  0.00     0.031 C 
ATOM     36  C   UNL A   1      43.927  25.360  27.196  1.00  0.00     0.029 A 
ATOM     37  N   UNL A   1      43.790  27.438  28.014  1.00  0.00    -0.354 N 
ATOM     38  C   UNL A   1      40.071  28.910  29.693  1.00  0.00     0.074 A 
ATOM     39  C   UNL A   1      39.082  27.856  29.756  1.00  0.00     0.031 C 
ATOM     40  C   UNL A   1      45.122  25.945  27.014  1.00  0.00     0.029 A 
ATOM     41  C   UNL A   1      45.051  27.328  27.476  1.00  0.00     0.049 A 
ATOM     42  H   UNL A   1      43.471  28.244  28.482  1.00  0.00     0.167 HD
ATOM     43  C   UNL A   1      39.875  30.171  30.143  1.00  0.00     0.034 A 
ATOM     44  C   UNL A   1      46.022  28.251  27.335  1.00  0.00     0.034 A 
ATOM     45  C   UNL A   1      40.885  31.194  30.126  1.00  0.00     0.049 A 
ATOM     46  C   UNL A   1      45.775  29.648  27.840  1.00  0.00     0.074 A 
ATOM     47  C   UNL A   1      40.802  32.493  30.595  1.00  0.00     0.029 A 
ATOM     48  N   UNL A   1      42.166  31.030  29.621  1.00  0.00    -0.354 N 
ATOM     49  N   UNL A   1      44.719  30.130  28.449  1.00  0.00    -0.248 NA
ATOM     50  C   UNL A   1      46.859  30.623  27.651  1.00  0.00     0.031 C 
ATOM     51  C   UNL A   1      42.032  33.118  30.363  1.00  0.00     0.029 A 
ATOM     52  C   UNL A   1      42.884  32.204  29.762  1.00  0.00     0.049 A 
ATOM     53  H   UNL A   1      42.513  30.201  29.221  1.00  0.00     0.167 HD
ATOM     54  C   UNL A   1      45.019  31.456  28.740  1.00  0.00     0.074 A 
ATOM     55  C   UNL A   1      46.365  31.694  28.260  1.00  0.00     0.031 C 
ATOM     56  C   UNL A   1      44.244  32.399  29.330  1.00  0.00     0.034 A 
BRANCH  43  57
ATOM     57  C   UNL A   1      38.522  30.511  30.706  1.00  0.00     0.023 A 
ATOM     58  C   UNL A   1      38.236  30.232  32.057  1.00  0.00     0.012 A 
ATOM     59  C   UNL A   1      37.551  31.151  29.911  1.00  0.00     0.148 A 
ATOM     60  C   UNL A   1      36.996  30.560  32.602  1.00  0.00     0.002 A 
ATOM     61  C   UNL A   1      36.330  31.509  30.470  1.00  0.00     0.091 A 
ATOM     62  F   UNL A   1      37.831  31.381  28.620  1.00  0.00    -0.205 F 
ATOM     63  C   UNL A   1      36.048  31.208  31.812  1.00  0.00     0.022 A 
BRANCH  61  64
ATOM     64  S   UNL A   1      35.074  32.404  29.549  1.00  0.00     0.127 S 
ATOM     65  O   UNL A   1      34.079  32.669  30.587  1.00  0.00    -0.237 OA
ATOM     66  O   UNL A   1      35.806  33.586  29.092  1.00  0.00    -0.237 OA
ATOM     67  O   UNL A   1      34.648  31.507  28.483  1.00  0.00    -0.744 OA
ENDBRANCH  61  64
ENDBRANCH  43  57
BRANCH  44  68
ATOM     68  C   UNL A   1      47.319  27.875  26.708  1.00  0.00     0.023 A 
ATOM     69  C   UNL A   1      48.409  27.526  27.530  1.00  0.00     0.012 A 
ATOM     70  C   UNL A   1      47.471  27.818  25.308  1.00  0.00     0.148 A 
ATOM     71  C   UNL A   1      49.629  27.147  26.970  1.00  0.00     0.002 A 
ATOM     72  C   UNL A   1      48.672  27.386  24.757  1.00  0.00     0.091 A 
ATOM     73  F   UNL A   1      46.433  28.179  24.539  1.00  0.00    -0.205 F 
ATOM     74  C   UNL A   1      49.758  27.064  25.586  1.00  0.00     0.022 A 
BRANCH  72  75
ATOM     75  S   UNL A   1      48.869  27.118  22.991  1.00  0.00     0.127 S 
ATOM     76  O   UNL A   1      50.323  27.114  22.849  1.00  0.00    -0.237 OA
ATOM     77  O   UNL A   1      48.228  25.816  22.804  1.00  0.00    -0.237 OA
ATOM     78  O   UNL A   1      48.167  28.224  22.353  1.00  0.00    -0.744 OA
ENDBRANCH  72  75
ENDBRANCH  44  68
BRANCH  56  79
ATOM     79  C   UNL A   1      44.839  33.768  29.516  1.00  0.00     0.023 A 
ATOM     80  C   UNL A   1      45.589  34.048  30.675  1.00  0.00     0.012 A 
ATOM     81  C   UNL A   1      44.724  34.747  28.511  1.00  0.00     0.148 A 
ATOM     82  C   UNL A   1      46.196  35.292  30.842  1.00  0.00     0.002 A 
ATOM     83  C   UNL A   1      45.366  35.971  28.666  1.00  0.00     0.091 A 
ATOM     84  F   UNL A   1      43.987  34.469  27.426  1.00  0.00    -0.205 F 
ATOM     85  C   UNL A   1      46.095  36.248  29.834  1.00  0.00     0.022 A 
BRANCH  83  86
ATOM     86  S   UNL A   1      45.360  37.221  27.375  1.00  0.00     0.127 S 
ATOM     87  O   UNL A   1      46.055  38.328  28.028  1.00  0.00    -0.237 OA
ATOM     88  O   UNL A   1      46.119  36.571  26.304  1.00  0.00    -0.237 OA
ATOM     89  O   UNL A   1      43.958  37.455  27.057  1.00  0.00    -0.744 OA
ENDBRANCH  83  86
ENDBRANCH  56  79
ENDBRANCH  30  31
ENDBRANCH  23  25
ENDBRANCH  22  23
ENDBRANCH  21  22
ENDBRANCH   1  21
TORSDOF 17
ENDMDL
