MODEL 1
REMARK VINA RESULT:     -11.9      0.000      0.000
REMARK SMILES Cc1cc(F)cc(N[C@](C)(C(=O)OCCOC(=O)c2ccc(-c3c4nc(c(-c5cccc(S(=O)(=O)[O-])c5F)c5ccc([nH]5)c(-c5cccc(S(=O)(=O)[O-])c5F)c5nc(c(-c6cccc(S(=O)(=O)[O-])c6F)c6ccc3[nH]6)C=C5)C=C4)cc2)c2cccc(F)c2)c1
REMARK SMILES IDX 15 1 14 2 13 3 11 4 12 5 9 6 10 7 8 8 7 10 1 11 2 12 3 13
REMARK SMILES IDX 89 14 4 15 5 16 6 17 82 18 83 19 88 20 84 21 86 22 85 23
REMARK SMILES IDX 87 24 16 25 17 26 18 27 19 28 20 29 81 30 21 31 80 32 22 33
REMARK SMILES IDX 23 34 24 35 74 36 25 37 79 38 73 39 75 40 26 41 78 42 72 43
REMARK SMILES IDX 71 44 27 46 59 47 39 48 58 49 40 50 43 51 57 52 76 53 41 54
REMARK SMILES IDX 42 55 56 57 77 58 44 59 28 60 29 61 37 62 30 63 32 64 38 65
REMARK SMILES IDX 31 66 33 67 34 68 35 69 36 70 60 71 61 72 69 73 62 74 64 75
REMARK SMILES IDX 70 76 63 77 65 78 66 79 67 80 68 81 45 82 46 83 54 84 47 85
REMARK SMILES IDX 49 86 55 87 48 88 50 89 51 90 52 91 53 92
REMARK H PARENT 8 9 75 45 43 56
REMARK Flexibility Score: inf
ROOT
ATOM      1  C   UNL A   1      31.438  31.470  26.269  1.00  0.00     0.275 C 
ENDROOT
BRANCH   1   2
ATOM      2  C   UNL A   1      31.281  30.311  25.276  1.00  0.00     0.274 C 
BRANCH   2   3
ATOM      3  O   UNL A   1      32.112  29.174  25.593  1.00  0.00    -0.460 OA
BRANCH   3   4
ATOM      4  C   UNL A   1      32.531  28.434  24.517  1.00  0.00     0.336 C 
ATOM      5  O   UNL A   1      33.352  28.870  23.719  1.00  0.00    -0.249 OA
BRANCH   4   6
ATOM      6  C   UNL A   1      31.811  27.026  24.438  1.00  0.00     0.159 C 
ATOM      7  C   UNL A   1      31.029  26.751  25.742  1.00  0.00     0.053 C 
BRANCH   6   8
ATOM      8  N   UNL A   1      30.821  26.942  23.319  1.00  0.00    -0.366 N 
ATOM      9  H   UNL A   1      31.024  26.272  22.628  1.00  0.00     0.162 HD
BRANCH   8  10
ATOM     10  C   UNL A   1      29.657  27.670  23.113  1.00  0.00     0.038 A 
ATOM     11  C   UNL A   1      28.769  31.026  21.467  1.00  0.00     0.044 C 
ATOM     12  C   UNL A   1      28.636  29.742  22.234  1.00  0.00    -0.046 A 
ATOM     13  C   UNL A   1      27.411  29.384  22.794  1.00  0.00     0.042 A 
ATOM     14  C   UNL A   1      29.737  28.872  22.381  1.00  0.00     0.029 A 
ATOM     15  C   UNL A   1      27.312  28.196  23.500  1.00  0.00     0.125 A 
ATOM     16  F   UNL A   1      26.139  27.844  24.041  1.00  0.00    -0.207 F 
ATOM     17  C   UNL A   1      28.414  27.357  23.664  1.00  0.00     0.065 A 
ENDBRANCH   8  10
ENDBRANCH   6   8
BRANCH   6  18
ATOM     18  C   UNL A   1      32.895  25.917  24.240  1.00  0.00    -0.009 A 
ATOM     19  C   UNL A   1      33.926  25.690  25.174  1.00  0.00     0.007 A 
ATOM     20  C   UNL A   1      32.834  25.036  23.139  1.00  0.00     0.046 A 
ATOM     21  C   UNL A   1      34.854  24.653  25.008  1.00  0.00     0.003 A 
ATOM     22  C   UNL A   1      33.756  24.003  22.986  1.00  0.00     0.123 A 
ATOM     23  C   UNL A   1      34.770  23.806  23.909  1.00  0.00     0.039 A 
ATOM     24  F   UNL A   1      33.650  23.180  21.933  1.00  0.00    -0.207 F 
ENDBRANCH   6  18
ENDBRANCH   4   6
ENDBRANCH   3   4
ENDBRANCH   2   3
ENDBRANCH   1   2
BRANCH   1  25
ATOM     25  O   UNL A   1      32.509  31.243  27.204  1.00  0.00    -0.458 OA
BRANCH  25  26
ATOM     26  C   UNL A   1      33.309  32.310  27.439  1.00  0.00     0.338 C 
ATOM     27  O   UNL A   1      33.000  33.488  27.354  1.00  0.00    -0.246 OA
BRANCH  26  28
ATOM     28  C   UNL A   1      34.613  31.866  27.958  1.00  0.00     0.060 A 
ATOM     29  C   UNL A   1      34.727  30.533  28.357  1.00  0.00     0.016 A 
ATOM     30  C   UNL A   1      35.677  32.749  28.148  1.00  0.00     0.016 A 
ATOM     31  C   UNL A   1      35.890  30.074  28.962  1.00  0.00     0.010 A 
ATOM     32  C   UNL A   1      36.855  32.284  28.751  1.00  0.00     0.010 A 
ATOM     33  C   UNL A   1      36.960  30.947  29.175  1.00  0.00    -0.014 A 
BRANCH  33  34
ATOM     34  C   UNL A   1      38.153  30.444  29.895  1.00  0.00     0.031 A 
ATOM     35  C   UNL A   1      38.383  30.840  31.325  1.00  0.00     0.074 A 
ATOM     36  C   UNL A   1      38.984  29.574  29.292  1.00  0.00     0.049 A 
ATOM     37  N   UNL A   1      39.347  30.487  32.134  1.00  0.00    -0.248 NA
ATOM     38  C   UNL A   1      37.391  31.747  31.926  1.00  0.00     0.031 C 
ATOM     39  C   UNL A   1      38.835  29.081  27.923  1.00  0.00     0.029 A 
ATOM     40  N   UNL A   1      40.109  28.940  29.757  1.00  0.00    -0.354 N 
ATOM     41  C   UNL A   1      39.111  31.166  33.322  1.00  0.00     0.074 A 
ATOM     42  C   UNL A   1      37.898  31.933  33.138  1.00  0.00     0.031 C 
ATOM     43  C   UNL A   1      39.819  28.203  27.666  1.00  0.00     0.029 A 
ATOM     44  C   UNL A   1      40.683  28.093  28.839  1.00  0.00     0.049 A 
ATOM     45  H   UNL A   1      40.470  29.078  30.662  1.00  0.00     0.167 HD
ATOM     46  C   UNL A   1      39.841  31.154  34.462  1.00  0.00     0.034 A 
ATOM     47  C   UNL A   1      41.780  27.314  28.937  1.00  0.00     0.034 A 
ATOM     48  C   UNL A   1      41.035  30.375  34.653  1.00  0.00     0.049 A 
ATOM     49  C   UNL A   1      42.567  27.317  30.222  1.00  0.00     0.074 A 
ATOM     50  C   UNL A   1      41.855  30.316  35.767  1.00  0.00     0.029 A 
ATOM     51  N   UNL A   1      41.579  29.517  33.710  1.00  0.00    -0.354 N 
ATOM     52  N   UNL A   1      42.300  27.919  31.356  1.00  0.00    -0.248 NA
ATOM     53  C   UNL A   1      43.806  26.523  30.242  1.00  0.00     0.031 C 
ATOM     54  C   UNL A   1      42.902  29.429  35.491  1.00  0.00     0.029 A 
ATOM     55  C   UNL A   1      42.727  28.927  34.211  1.00  0.00     0.049 A 
ATOM     56  H   UNL A   1      41.205  29.353  32.814  1.00  0.00     0.167 HD
ATOM     57  C   UNL A   1      43.331  27.574  32.224  1.00  0.00     0.074 A 
ATOM     58  C   UNL A   1      44.203  26.672  31.499  1.00  0.00     0.031 C 
ATOM     59  C   UNL A   1      43.556  27.994  33.493  1.00  0.00     0.034 A 
BRANCH  46  60
ATOM     60  C   UNL A   1      39.368  32.023  35.593  1.00  0.00     0.023 A 
ATOM     61  C   UNL A   1      38.462  31.505  36.539  1.00  0.00     0.012 A 
ATOM     62  C   UNL A   1      39.846  33.340  35.738  1.00  0.00     0.148 A 
ATOM     63  C   UNL A   1      38.019  32.295  37.601  1.00  0.00     0.002 A 
ATOM     64  C   UNL A   1      39.425  34.110  36.815  1.00  0.00     0.091 A 
ATOM     65  F   UNL A   1      40.684  33.822  34.809  1.00  0.00    -0.205 F 
ATOM     66  C   UNL A   1      38.507  33.592  37.744  1.00  0.00     0.022 A 
BRANCH  64  67
ATOM     67  S   UNL A   1      40.047  35.770  37.107  1.00  0.00     0.127 S 
ATOM     68  O   UNL A   1      39.653  36.453  35.876  1.00  0.00    -0.237 OA
ATOM     69  O   UNL A   1      39.299  36.179  38.297  1.00  0.00    -0.237 OA
ATOM     70  O   UNL A   1      41.480  35.623  37.318  1.00  0.00    -0.744 OA
ENDBRANCH  64  67
ENDBRANCH  46  60
BRANCH  47  71
ATOM     71  C   UNL A   1      42.164  26.416  27.810  1.00  0.00     0.023 A 
ATOM     72  C   UNL A   1      43.067  26.889  26.837  1.00  0.00     0.012 A 
ATOM     73  C   UNL A   1      41.672  25.102  27.704  1.00  0.00     0.148 A 
ATOM     74  C   UNL A   1      43.457  26.078  25.772  1.00  0.00     0.002 A 
ATOM     75  C   UNL A   1      42.109  24.279  26.671  1.00  0.00     0.091 A 
ATOM     76  F   UNL A   1      40.786  24.676  28.616  1.00  0.00    -0.205 F 
ATOM     77  C   UNL A   1      42.989  24.769  25.695  1.00  0.00     0.022 A 
BRANCH  75  78
ATOM     78  S   UNL A   1      41.657  22.542  26.597  1.00  0.00     0.127 S 
ATOM     79  O   UNL A   1      42.202  22.035  27.853  1.00  0.00    -0.237 OA
ATOM     80  O   UNL A   1      40.196  22.602  26.540  1.00  0.00    -0.237 OA
ATOM     81  O   UNL A   1      42.278  22.041  25.377  1.00  0.00    -0.744 OA
ENDBRANCH  75  78
ENDBRANCH  47  71
BRANCH  59  82
ATOM     82  C   UNL A   1      44.799  27.495  34.183  1.00  0.00     0.023 A 
ATOM     83  C   UNL A   1      45.973  28.273  34.129  1.00  0.00     0.012 A 
ATOM     84  C   UNL A   1      44.786  26.314  34.951  1.00  0.00     0.148 A 
ATOM     85  C   UNL A   1      47.123  27.870  34.809  1.00  0.00     0.002 A 
ATOM     86  C   UNL A   1      45.924  25.941  35.658  1.00  0.00     0.091 A 
ATOM     87  F   UNL A   1      43.666  25.577  34.974  1.00  0.00    -0.205 F 
ATOM     88  C   UNL A   1      47.095  26.713  35.582  1.00  0.00     0.022 A 
BRANCH  86  89
ATOM     89  S   UNL A   1      45.948  24.512  36.749  1.00  0.00     0.127 S 
ATOM     90  O   UNL A   1      47.317  24.549  37.259  1.00  0.00    -0.237 OA
ATOM     91  O   UNL A   1      44.921  24.850  37.734  1.00  0.00    -0.237 OA
ATOM     92  O   UNL A   1      45.619  23.369  35.909  1.00  0.00    -0.744 OA
ENDBRANCH  86  89
ENDBRANCH  59  82
ENDBRANCH  33  34
ENDBRANCH  26  28
ENDBRANCH  25  26
ENDBRANCH   1  25
TORSDOF 17
ENDMDL
MODEL 2
REMARK VINA RESULT:     -11.8      5.112     10.464
REMARK SMILES Cc1cc(F)cc(N[C@](C)(C(=O)OCCOC(=O)c2ccc(-c3c4nc(c(-c5cccc(S(=O)(=O)[O-])c5F)c5ccc([nH]5)c(-c5cccc(S(=O)(=O)[O-])c5F)c5nc(c(-c6cccc(S(=O)(=O)[O-])c6F)c6ccc3[nH]6)C=C5)C=C4)cc2)c2cccc(F)c2)c1
REMARK SMILES IDX 15 1 14 2 13 3 11 4 12 5 9 6 10 7 8 8 7 10 1 11 2 12 3 13
REMARK SMILES IDX 89 14 4 15 5 16 6 17 82 18 83 19 88 20 84 21 86 22 85 23
REMARK SMILES IDX 87 24 16 25 17 26 18 27 19 28 20 29 81 30 21 31 80 32 22 33
REMARK SMILES IDX 23 34 24 35 74 36 25 37 79 38 73 39 75 40 26 41 78 42 72 43
REMARK SMILES IDX 71 44 27 46 59 47 39 48 58 49 40 50 43 51 57 52 76 53 41 54
REMARK SMILES IDX 42 55 56 57 77 58 44 59 28 60 29 61 37 62 30 63 32 64 38 65
REMARK SMILES IDX 31 66 33 67 34 68 35 69 36 70 60 71 61 72 69 73 62 74 64 75
REMARK SMILES IDX 70 76 63 77 65 78 66 79 67 80 68 81 45 82 46 83 54 84 47 85
REMARK SMILES IDX 49 86 55 87 48 88 50 89 51 90 52 91 53 92
REMARK H PARENT 8 9 75 45 43 56
REMARK Flexibility Score: inf
ROOT
ATOM      1  C   UNL A   1      37.336  20.152  24.904  1.00  0.00     0.275 C 
ENDROOT
BRANCH   1   2
ATOM      2  C   UNL A   1      35.887  20.402  25.343  1.00  0.00     0.274 C 
BRANCH   2   3
ATOM      3  O   UNL A   1      35.594  21.797  25.568  1.00  0.00    -0.460 OA
BRANCH   3   4
ATOM      4  C   UNL A   1      34.344  22.062  26.066  1.00  0.00     0.336 C 
ATOM      5  O   UNL A   1      34.062  21.852  27.240  1.00  0.00    -0.249 OA
BRANCH   4   6
ATOM      6  C   UNL A   1      33.358  22.612  24.955  1.00  0.00     0.159 C 
ATOM      7  C   UNL A   1      34.115  22.820  23.624  1.00  0.00     0.053 C 
BRANCH   6   8
ATOM      8  N   UNL A   1      32.230  21.673  24.664  1.00  0.00    -0.366 N 
ATOM      9  H   UNL A   1      31.331  22.026  24.853  1.00  0.00     0.162 HD
BRANCH   8  10
ATOM     10  C   UNL A   1      32.264  20.378  24.165  1.00  0.00     0.038 A 
ATOM     11  C   UNL A   1      33.016  16.897  25.605  1.00  0.00     0.044 C 
ATOM     12  C   UNL A   1      32.712  17.992  24.623  1.00  0.00    -0.046 A 
ATOM     13  C   UNL A   1      32.586  17.700  23.266  1.00  0.00     0.042 A 
ATOM     14  C   UNL A   1      32.528  19.321  25.058  1.00  0.00     0.029 A 
ATOM     15  C   UNL A   1      32.308  18.726  22.378  1.00  0.00     0.125 A 
ATOM     16  F   UNL A   1      32.184  18.456  21.072  1.00  0.00    -0.207 F 
ATOM     17  C   UNL A   1      32.156  20.042  22.815  1.00  0.00     0.065 A 
ENDBRANCH   8  10
ENDBRANCH   6   8
BRANCH   6  18
ATOM     18  C   UNL A   1      32.770  23.977  25.437  1.00  0.00    -0.009 A 
ATOM     19  C   UNL A   1      33.584  25.087  25.744  1.00  0.00     0.007 A 
ATOM     20  C   UNL A   1      31.375  24.179  25.507  1.00  0.00     0.046 A 
ATOM     21  C   UNL A   1      33.036  26.321  26.118  1.00  0.00     0.003 A 
ATOM     22  C   UNL A   1      30.838  25.412  25.871  1.00  0.00     0.123 A 
ATOM     23  C   UNL A   1      31.657  26.485  26.182  1.00  0.00     0.039 A 
ATOM     24  F   UNL A   1      29.507  25.563  25.909  1.00  0.00    -0.207 F 
ENDBRANCH   6  18
ENDBRANCH   4   6
ENDBRANCH   3   4
ENDBRANCH   2   3
ENDBRANCH   1   2
BRANCH   1  25
ATOM     25  O   UNL A   1      38.199  21.261  25.220  1.00  0.00    -0.458 OA
BRANCH  25  26
ATOM     26  C   UNL A   1      39.173  20.999  26.123  1.00  0.00     0.338 C 
ATOM     27  O   UNL A   1      39.650  19.907  26.388  1.00  0.00    -0.246 OA
BRANCH  26  28
ATOM     28  C   UNL A   1      39.704  22.254  26.679  1.00  0.00     0.060 A 
ATOM     29  C   UNL A   1      39.169  23.449  26.197  1.00  0.00     0.016 A 
ATOM     30  C   UNL A   1      40.771  22.275  27.578  1.00  0.00     0.016 A 
ATOM     31  C   UNL A   1      39.700  24.671  26.590  1.00  0.00     0.010 A 
ATOM     32  C   UNL A   1      41.303  23.510  27.982  1.00  0.00     0.010 A 
ATOM     33  C   UNL A   1      40.779  24.712  27.477  1.00  0.00    -0.014 A 
BRANCH  33  34
ATOM     34  C   UNL A   1      41.371  26.028  27.812  1.00  0.00     0.031 A 
ATOM     35  C   UNL A   1      42.739  26.381  27.304  1.00  0.00     0.074 A 
ATOM     36  C   UNL A   1      40.653  26.932  28.505  1.00  0.00     0.049 A 
ATOM     37  N   UNL A   1      43.418  27.486  27.463  1.00  0.00    -0.248 NA
ATOM     38  C   UNL A   1      43.430  25.357  26.503  1.00  0.00     0.031 C 
ATOM     39  C   UNL A   1      39.296  26.718  29.008  1.00  0.00     0.029 A 
ATOM     40  N   UNL A   1      40.957  28.213  28.890  1.00  0.00    -0.354 N 
ATOM     41  C   UNL A   1      44.636  27.276  26.829  1.00  0.00     0.074 A 
ATOM     42  C   UNL A   1      44.593  25.946  26.260  1.00  0.00     0.031 C 
ATOM     43  C   UNL A   1      38.876  27.839  29.618  1.00  0.00     0.029 A 
ATOM     44  C   UNL A   1      39.941  28.839  29.574  1.00  0.00     0.049 A 
ATOM     45  H   UNL A   1      41.820  28.644  28.695  1.00  0.00     0.167 HD
ATOM     46  C   UNL A   1      45.695  28.113  26.734  1.00  0.00     0.034 A 
ATOM     47  C   UNL A   1      39.878  30.079  30.099  1.00  0.00     0.034 A 
ATOM     48  C   UNL A   1      45.730  29.443  27.280  1.00  0.00     0.049 A 
ATOM     49  C   UNL A   1      41.070  30.991  29.969  1.00  0.00     0.074 A 
ATOM     50  C   UNL A   1      46.769  30.358  27.252  1.00  0.00     0.029 A 
ATOM     51  N   UNL A   1      44.680  30.050  27.951  1.00  0.00    -0.354 N 
ATOM     52  N   UNL A   1      42.192  30.799  29.317  1.00  0.00    -0.248 NA
ATOM     53  C   UNL A   1      40.983  32.296  30.642  1.00  0.00     0.031 C 
ATOM     54  C   UNL A   1      46.348  31.515  27.917  1.00  0.00     0.029 A 
ATOM     55  C   UNL A   1      45.044  31.326  28.348  1.00  0.00     0.049 A 
ATOM     56  H   UNL A   1      43.803  29.635  28.122  1.00  0.00     0.167 HD
ATOM     57  C   UNL A   1      42.941  31.958  29.497  1.00  0.00     0.074 A 
ATOM     58  C   UNL A   1      42.125  32.865  30.279  1.00  0.00     0.031 C 
ATOM     59  C   UNL A   1      44.202  32.234  29.083  1.00  0.00     0.034 A 
BRANCH  46  60
ATOM     60  C   UNL A   1      46.913  27.606  26.013  1.00  0.00     0.023 A 
ATOM     61  C   UNL A   1      47.064  27.857  24.636  1.00  0.00     0.012 A 
ATOM     62  C   UNL A   1      47.923  26.911  26.708  1.00  0.00     0.148 A 
ATOM     63  C   UNL A   1      48.192  27.400  23.953  1.00  0.00     0.002 A 
ATOM     64  C   UNL A   1      49.058  26.488  26.027  1.00  0.00     0.091 A 
ATOM     65  F   UNL A   1      47.744  26.658  28.011  1.00  0.00    -0.205 F 
ATOM     66  C   UNL A   1      49.191  26.726  24.650  1.00  0.00     0.022 A 
BRANCH  64  67
ATOM     67  S   UNL A   1      50.420  25.663  26.859  1.00  0.00     0.127 S 
ATOM     68  O   UNL A   1      51.356  25.455  25.755  1.00  0.00    -0.237 OA
ATOM     69  O   UNL A   1      50.844  26.667  27.836  1.00  0.00    -0.237 OA
ATOM     70  O   UNL A   1      49.853  24.455  27.443  1.00  0.00    -0.744 OA
ENDBRANCH  64  67
ENDBRANCH  46  60
BRANCH  47  71
ATOM     71  C   UNL A   1      38.619  30.558  30.740  1.00  0.00     0.023 A 
ATOM     72  C   UNL A   1      38.446  30.373  32.126  1.00  0.00     0.012 A 
ATOM     73  C   UNL A   1      37.612  31.212  30.006  1.00  0.00     0.148 A 
ATOM     74  C   UNL A   1      37.286  30.812  32.764  1.00  0.00     0.002 A 
ATOM     75  C   UNL A   1      36.484  31.699  30.659  1.00  0.00     0.091 A 
ATOM     76  F   UNL A   1      37.773  31.351  28.682  1.00  0.00    -0.205 F 
ATOM     77  C   UNL A   1      36.311  31.487  32.034  1.00  0.00     0.022 A 
BRANCH  75  78
ATOM     78  S   UNL A   1      35.261  32.700  29.804  1.00  0.00     0.127 S 
ATOM     79  O   UNL A   1      34.747  31.764  28.809  1.00  0.00    -0.237 OA
ATOM     80  O   UNL A   1      34.324  33.033  30.878  1.00  0.00    -0.237 OA
ATOM     81  O   UNL A   1      36.004  33.844  29.289  1.00  0.00    -0.744 OA
ENDBRANCH  75  78
ENDBRANCH  47  71
BRANCH  59  82
ATOM     82  C   UNL A   1      44.790  33.564  29.475  1.00  0.00     0.023 A 
ATOM     83  C   UNL A   1      45.501  33.671  30.687  1.00  0.00     0.012 A 
ATOM     84  C   UNL A   1      44.718  34.677  28.614  1.00  0.00     0.148 A 
ATOM     85  C   UNL A   1      46.110  34.872  31.049  1.00  0.00     0.002 A 
ATOM     86  C   UNL A   1      45.363  35.860  28.963  1.00  0.00     0.091 A 
ATOM     87  F   UNL A   1      44.021  34.563  27.475  1.00  0.00    -0.205 F 
ATOM     88  C   UNL A   1      46.051  35.962  30.183  1.00  0.00     0.022 A 
BRANCH  86  89
ATOM     89  S   UNL A   1      45.413  37.284  27.867  1.00  0.00     0.127 S 
ATOM     90  O   UNL A   1      46.175  38.245  28.661  1.00  0.00    -0.237 OA
ATOM     91  O   UNL A   1      46.122  36.758  26.700  1.00  0.00    -0.237 OA
ATOM     92  O   UNL A   1      44.022  37.636  27.615  1.00  0.00    -0.744 OA
ENDBRANCH  86  89
ENDBRANCH  59  82
ENDBRANCH  33  34
ENDBRANCH  26  28
ENDBRANCH  25  26
ENDBRANCH   1  25
TORSDOF 17
ENDMDL
MODEL 3
REMARK VINA RESULT:     -11.8      5.478      8.601
REMARK SMILES Cc1cc(F)cc(N[C@](C)(C(=O)OCCOC(=O)c2ccc(-c3c4nc(c(-c5cccc(S(=O)(=O)[O-])c5F)c5ccc([nH]5)c(-c5cccc(S(=O)(=O)[O-])c5F)c5nc(c(-c6cccc(S(=O)(=O)[O-])c6F)c6ccc3[nH]6)C=C5)C=C4)cc2)c2cccc(F)c2)c1
REMARK SMILES IDX 15 1 14 2 13 3 11 4 12 5 9 6 10 7 8 8 7 10 1 11 2 12 3 13
REMARK SMILES IDX 89 14 4 15 5 16 6 17 82 18 83 19 88 20 84 21 86 22 85 23
REMARK SMILES IDX 87 24 16 25 17 26 18 27 19 28 20 29 81 30 21 31 80 32 22 33
REMARK SMILES IDX 23 34 24 35 74 36 25 37 79 38 73 39 75 40 26 41 78 42 72 43
REMARK SMILES IDX 71 44 27 46 59 47 39 48 58 49 40 50 43 51 57 52 76 53 41 54
REMARK SMILES IDX 42 55 56 57 77 58 44 59 28 60 29 61 37 62 30 63 32 64 38 65
REMARK SMILES IDX 31 66 33 67 34 68 35 69 36 70 60 71 61 72 69 73 62 74 64 75
REMARK SMILES IDX 70 76 63 77 65 78 66 79 67 80 68 81 45 82 46 83 54 84 47 85
REMARK SMILES IDX 49 86 55 87 48 88 50 89 51 90 52 91 53 92
REMARK H PARENT 8 9 75 45 43 56
REMARK Flexibility Score: inf
ROOT
ATOM      1  C   UNL A   1      37.324  20.033  25.159  1.00  0.00     0.275 C 
ENDROOT
BRANCH   1   2
ATOM      2  C   UNL A   1      35.880  20.522  24.985  1.00  0.00     0.274 C 
BRANCH   2   3
ATOM      3  O   UNL A   1      35.673  21.866  25.467  1.00  0.00    -0.460 OA
BRANCH   3   4
ATOM      4  C   UNL A   1      34.443  22.108  26.024  1.00  0.00     0.336 C 
ATOM      5  O   UNL A   1      34.219  21.884  27.208  1.00  0.00    -0.249 OA
BRANCH   4   6
ATOM      6  C   UNL A   1      33.399  22.653  24.966  1.00  0.00     0.159 C 
ATOM      7  C   UNL A   1      34.088  22.877  23.601  1.00  0.00     0.053 C 
BRANCH   6   8
ATOM      8  N   UNL A   1      32.269  21.703  24.723  1.00  0.00    -0.366 N 
ATOM      9  H   UNL A   1      31.376  22.046  24.953  1.00  0.00     0.162 HD
BRANCH   8  10
ATOM     10  C   UNL A   1      32.294  20.409  24.221  1.00  0.00     0.038 A 
ATOM     11  C   UNL A   1      32.905  16.907  25.676  1.00  0.00     0.044 C 
ATOM     12  C   UNL A   1      32.667  18.012  24.687  1.00  0.00    -0.046 A 
ATOM     13  C   UNL A   1      32.592  17.727  23.325  1.00  0.00     0.042 A 
ATOM     14  C   UNL A   1      32.496  19.343  25.120  1.00  0.00     0.029 A 
ATOM     15  C   UNL A   1      32.375  18.762  22.430  1.00  0.00     0.125 A 
ATOM     16  F   UNL A   1      32.301  18.499  21.119  1.00  0.00    -0.207 F 
ATOM     17  C   UNL A   1      32.236  20.080  22.866  1.00  0.00     0.065 A 
ENDBRANCH   8  10
ENDBRANCH   6   8
BRANCH   6  18
ATOM     18  C   UNL A   1      32.820  24.009  25.483  1.00  0.00    -0.009 A 
ATOM     19  C   UNL A   1      33.628  25.143  25.706  1.00  0.00     0.007 A 
ATOM     20  C   UNL A   1      31.431  24.175  25.675  1.00  0.00     0.046 A 
ATOM     21  C   UNL A   1      33.082  26.367  26.114  1.00  0.00     0.003 A 
ATOM     22  C   UNL A   1      30.896  25.398  26.073  1.00  0.00     0.123 A 
ATOM     23  C   UNL A   1      31.710  26.496  26.299  1.00  0.00     0.039 A 
ATOM     24  F   UNL A   1      29.570  25.515  26.227  1.00  0.00    -0.207 F 
ENDBRANCH   6  18
ENDBRANCH   4   6
ENDBRANCH   3   4
ENDBRANCH   2   3
ENDBRANCH   1   2
BRANCH   1  25
ATOM     25  O   UNL A   1      38.253  21.124  25.309  1.00  0.00    -0.458 OA
BRANCH  25  26
ATOM     26  C   UNL A   1      39.293  20.890  26.143  1.00  0.00     0.338 C 
ATOM     27  O   UNL A   1      39.798  19.808  26.395  1.00  0.00    -0.246 OA
BRANCH  26  28
ATOM     28  C   UNL A   1      39.850  22.161  26.632  1.00  0.00     0.060 A 
ATOM     29  C   UNL A   1      39.324  23.341  26.104  1.00  0.00     0.016 A 
ATOM     30  C   UNL A   1      40.931  22.208  27.514  1.00  0.00     0.016 A 
ATOM     31  C   UNL A   1      39.878  24.572  26.432  1.00  0.00     0.010 A 
ATOM     32  C   UNL A   1      41.487  23.452  27.853  1.00  0.00     0.010 A 
ATOM     33  C   UNL A   1      40.972  24.638  27.300  1.00  0.00    -0.014 A 
BRANCH  33  34
ATOM     34  C   UNL A   1      41.588  25.958  27.565  1.00  0.00     0.031 A 
ATOM     35  C   UNL A   1      40.852  26.971  28.393  1.00  0.00     0.074 A 
ATOM     36  C   UNL A   1      42.836  26.217  27.130  1.00  0.00     0.049 A 
ATOM     37  N   UNL A   1      41.229  28.168  28.759  1.00  0.00    -0.248 NA
ATOM     38  C   UNL A   1      39.518  26.584  28.879  1.00  0.00     0.031 C 
ATOM     39  C   UNL A   1      43.665  25.291  26.359  1.00  0.00     0.029 A 
ATOM     40  N   UNL A   1      43.628  27.327  27.287  1.00  0.00    -0.354 N 
ATOM     41  C   UNL A   1      40.163  28.698  29.474  1.00  0.00     0.074 A 
ATOM     42  C   UNL A   1      39.133  27.683  29.513  1.00  0.00     0.031 C 
ATOM     43  C   UNL A   1      44.858  25.863  26.129  1.00  0.00     0.029 A 
ATOM     44  C   UNL A   1      44.869  27.203  26.710  1.00  0.00     0.049 A 
ATOM     45  H   UNL A   1      43.334  28.134  27.768  1.00  0.00     0.167 HD
ATOM     46  C   UNL A   1      40.052  29.922  30.043  1.00  0.00     0.034 A 
ATOM     47  C   UNL A   1      45.898  28.074  26.661  1.00  0.00     0.034 A 
ATOM     48  C   UNL A   1      41.084  30.923  30.023  1.00  0.00     0.049 A 
ATOM     49  C   UNL A   1      45.746  29.425  27.311  1.00  0.00     0.074 A 
ATOM     50  C   UNL A   1      41.053  32.201  30.554  1.00  0.00     0.029 A 
ATOM     51  N   UNL A   1      42.333  30.760  29.445  1.00  0.00    -0.354 N 
ATOM     52  N   UNL A   1      44.755  29.890  28.033  1.00  0.00    -0.248 NA
ATOM     53  C   UNL A   1      46.862  30.369  27.146  1.00  0.00     0.031 C 
ATOM     54  C   UNL A   1      42.283  32.814  30.286  1.00  0.00     0.029 A 
ATOM     55  C   UNL A   1      43.082  31.914  29.600  1.00  0.00     0.049 A 
ATOM     56  H   UNL A   1      42.642  29.944  28.989  1.00  0.00     0.167 HD
ATOM     57  C   UNL A   1      45.128  31.175  28.411  1.00  0.00     0.074 A 
ATOM     58  C   UNL A   1      46.457  31.398  27.879  1.00  0.00     0.031 C 
ATOM     59  C   UNL A   1      44.422  32.102  29.106  1.00  0.00     0.034 A 
BRANCH  46  60
ATOM     60  C   UNL A   1      38.755  30.247  30.731  1.00  0.00     0.023 A 
ATOM     61  C   UNL A   1      38.540  29.815  32.054  1.00  0.00     0.012 A 
ATOM     62  C   UNL A   1      37.766  31.009  30.079  1.00  0.00     0.148 A 
ATOM     63  C   UNL A   1      37.346  30.115  32.711  1.00  0.00     0.002 A 
ATOM     64  C   UNL A   1      36.593  31.331  30.751  1.00  0.00     0.091 A 
ATOM     65  F   UNL A   1      37.980  31.383  28.810  1.00  0.00    -0.205 F 
ATOM     66  C   UNL A   1      36.379  30.880  32.064  1.00  0.00     0.022 A 
BRANCH  64  67
ATOM     67  S   UNL A   1      35.319  32.360  30.013  1.00  0.00     0.127 S 
ATOM     68  O   UNL A   1      36.085  33.542  29.622  1.00  0.00    -0.237 OA
ATOM     69  O   UNL A   1      34.859  31.534  28.895  1.00  0.00    -0.237 OA
ATOM     70  O   UNL A   1      34.325  32.568  31.057  1.00  0.00    -0.744 OA
ENDBRANCH  64  67
ENDBRANCH  46  60
BRANCH  47  71
ATOM     71  C   UNL A   1      47.188  27.674  26.029  1.00  0.00     0.023 A 
ATOM     72  C   UNL A   1      48.190  27.091  26.830  1.00  0.00     0.012 A 
ATOM     73  C   UNL A   1      47.425  27.839  24.652  1.00  0.00     0.148 A 
ATOM     74  C   UNL A   1      49.408  26.698  26.275  1.00  0.00     0.002 A 
ATOM     75  C   UNL A   1      48.619  27.392  24.094  1.00  0.00     0.091 A 
ATOM     76  F   UNL A   1      46.478  28.428  23.906  1.00  0.00    -0.205 F 
ATOM     77  C   UNL A   1      49.618  26.835  24.906  1.00  0.00     0.022 A 
BRANCH  75  78
ATOM     78  S   UNL A   1      48.893  27.410  22.319  1.00  0.00     0.127 S 
ATOM     79  O   UNL A   1      50.328  27.665  22.237  1.00  0.00    -0.237 OA
ATOM     80  O   UNL A   1      48.484  26.060  21.927  1.00  0.00    -0.237 OA
ATOM     81  O   UNL A   1      48.022  28.463  21.813  1.00  0.00    -0.744 OA
ENDBRANCH  75  78
ENDBRANCH  47  71
BRANCH  59  82
ATOM     82  C   UNL A   1      45.061  33.448  29.324  1.00  0.00     0.023 A 
ATOM     83  C   UNL A   1      45.814  33.669  30.494  1.00  0.00     0.012 A 
ATOM     84  C   UNL A   1      44.994  34.457  28.343  1.00  0.00     0.148 A 
ATOM     85  C   UNL A   1      46.469  34.884  30.697  1.00  0.00     0.002 A 
ATOM     86  C   UNL A   1      45.684  35.649  28.534  1.00  0.00     0.091 A 
ATOM     87  F   UNL A   1      44.257  34.236  27.245  1.00  0.00    -0.205 F 
ATOM     88  C   UNL A   1      46.415  35.868  29.713  1.00  0.00     0.022 A 
BRANCH  86  89
ATOM     89  S   UNL A   1      45.739  36.936  27.280  1.00  0.00     0.127 S 
ATOM     90  O   UNL A   1      44.330  37.308  27.171  1.00  0.00    -0.237 OA
ATOM     91  O   UNL A   1      46.590  37.949  27.905  1.00  0.00    -0.237 OA
ATOM     92  O   UNL A   1      46.320  36.311  26.099  1.00  0.00    -0.744 OA
ENDBRANCH  86  89
ENDBRANCH  59  82
ENDBRANCH  33  34
ENDBRANCH  26  28
ENDBRANCH  25  26
ENDBRANCH   1  25
TORSDOF 17
ENDMDL
