MODEL 1
REMARK VINA RESULT:     -11.6      0.000      0.000
REMARK SMILES CC[C@@H]1CCCN1C(=O)N1CC[C@@H](C(=O)OCCOC(=O)c2ccc(-c3c4nc(c(-c5cccc(S(=O)(=O)[O-])c5F)c5ccc([nH]5)c(-c5cccc(S(=O)(=O)[O-])c5F)c5nc(c(-c6cccc(S(=O)(=O)[O-])c6F)c6ccc3[nH]6)C=C5)C=C4)cc2)[C@@H]1C
REMARK SMILES IDX 17 1 16 2 14 3 15 4 13 5 10 6 11 7 85 8 12 9 86 10 8 11 9 12
REMARK SMILES IDX 7 13 3 14 4 15 5 16 6 17 2 18 1 19 18 20 19 21 20 22 21 23
REMARK SMILES IDX 22 24 23 25 84 26 24 27 83 28 25 29 26 30 27 31 77 32 28 33
REMARK SMILES IDX 82 34 76 35 78 36 29 37 81 38 75 39 74 40 30 42 62 43 42 44
REMARK SMILES IDX 61 45 43 46 46 47 60 48 79 49 44 50 45 51 59 53 80 54 47 55
REMARK SMILES IDX 31 56 32 57 40 58 33 59 35 60 41 61 34 62 36 63 37 64 38 65
REMARK SMILES IDX 39 66 63 67 64 68 72 69 65 70 67 71 73 72 66 73 68 74 69 75
REMARK SMILES IDX 70 76 71 77 48 78 49 79 57 80 50 81 52 82 58 83 51 84 53 85
REMARK SMILES IDX 54 86 55 87 56 88
REMARK H PARENT 78 41 46 52
REMARK Flexibility Score: inf
ROOT
ATOM      1  C   UNL A   1      35.488  20.566  24.984  1.00  0.00     0.274 C 
ENDROOT
BRANCH   1   2
ATOM      2  O   UNL A   1      35.108  21.920  24.664  1.00  0.00    -0.462 OA
BRANCH   2   3
ATOM      3  C   UNL A   1      33.780  22.174  24.545  1.00  0.00     0.311 C 
ATOM      4  O   UNL A   1      32.900  21.330  24.655  1.00  0.00    -0.252 OA
BRANCH   3   5
ATOM      5  C   UNL A   1      33.478  23.621  24.220  1.00  0.00     0.123 C 
ATOM      6  N   UNL A   1      32.123  25.382  24.984  1.00  0.00    -0.321 N 
ATOM      7  C   UNL A   1      33.361  25.525  25.718  1.00  0.00     0.122 C 
ATOM      8  C   UNL A   1      32.032  23.979  24.612  1.00  0.00     0.098 C 
ATOM      9  C   UNL A   1      34.345  24.692  24.917  1.00  0.00     0.039 C 
ATOM     10  C   UNL A   1      31.000  23.673  23.530  1.00  0.00     0.032 C 
BRANCH   6  11
ATOM     11  C   UNL A   1      31.025  26.069  25.438  1.00  0.00     0.320 C 
ATOM     12  O   UNL A   1      30.387  25.676  26.412  1.00  0.00    -0.248 OA
BRANCH  11  13
ATOM     13  N   UNL A   1      30.732  27.248  24.786  1.00  0.00    -0.322 N 
ATOM     14  C   UNL A   1      31.448  28.536  24.790  1.00  0.00     0.086 C 
ATOM     15  C   UNL A   1      30.450  29.434  24.043  1.00  0.00     0.027 C 
ATOM     16  C   UNL A   1      29.936  28.524  22.939  1.00  0.00     0.024 C 
ATOM     17  C   UNL A   1      29.891  27.153  23.597  1.00  0.00     0.122 C 
BRANCH  14  18
ATOM     18  C   UNL A   1      31.883  29.219  26.091  1.00  0.00     0.022 C 
ATOM     19  C   UNL A   1      31.684  30.729  26.073  1.00  0.00     0.006 C 
ENDBRANCH  14  18
ENDBRANCH  11  13
ENDBRANCH   6  11
ENDBRANCH   3   5
ENDBRANCH   2   3
ENDBRANCH   1   2
BRANCH   1  20
ATOM     20  C   UNL A   1      37.000  20.406  24.885  1.00  0.00     0.275 C 
BRANCH  20  21
ATOM     21  O   UNL A   1      37.643  21.426  25.671  1.00  0.00    -0.458 OA
BRANCH  21  22
ATOM     22  C   UNL A   1      38.921  21.182  26.019  1.00  0.00     0.338 C 
ATOM     23  O   UNL A   1      39.548  20.143  25.861  1.00  0.00    -0.246 OA
BRANCH  22  24
ATOM     24  C   UNL A   1      39.506  22.397  26.601  1.00  0.00     0.060 A 
ATOM     25  C   UNL A   1      39.055  23.645  26.168  1.00  0.00     0.016 A 
ATOM     26  C   UNL A   1      40.585  22.305  27.481  1.00  0.00     0.016 A 
ATOM     27  C   UNL A   1      39.761  24.794  26.511  1.00  0.00     0.010 A 
ATOM     28  C   UNL A   1      41.204  23.475  27.928  1.00  0.00     0.010 A 
ATOM     29  C   UNL A   1      40.826  24.730  27.419  1.00  0.00    -0.014 A 
BRANCH  29  30
ATOM     30  C   UNL A   1      41.541  25.970  27.841  1.00  0.00     0.031 A 
ATOM     31  C   UNL A   1      40.835  27.015  28.662  1.00  0.00     0.074 A 
ATOM     32  C   UNL A   1      42.812  26.183  27.446  1.00  0.00     0.049 A 
ATOM     33  N   UNL A   1      41.195  28.246  28.917  1.00  0.00    -0.248 NA
ATOM     34  C   UNL A   1      39.539  26.636  29.249  1.00  0.00     0.031 C 
ATOM     35  C   UNL A   1      43.618  25.258  26.647  1.00  0.00     0.029 A 
ATOM     36  N   UNL A   1      43.646  27.257  27.648  1.00  0.00    -0.354 N 
ATOM     37  C   UNL A   1      40.133  28.817  29.609  1.00  0.00     0.074 A 
ATOM     38  C   UNL A   1      39.121  27.791  29.749  1.00  0.00     0.031 C 
ATOM     39  C   UNL A   1      44.829  25.791  26.441  1.00  0.00     0.029 A 
ATOM     40  C   UNL A   1      44.860  27.131  27.014  1.00  0.00     0.049 A 
ATOM     41  H   UNL A   1      43.398  28.039  28.191  1.00  0.00     0.167 HD
ATOM     42  C   UNL A   1      40.019  30.077  30.093  1.00  0.00     0.034 A 
ATOM     43  C   UNL A   1      45.874  28.006  26.864  1.00  0.00     0.034 A 
ATOM     44  C   UNL A   1      41.072  31.058  30.050  1.00  0.00     0.049 A 
ATOM     45  C   UNL A   1      45.753  29.374  27.467  1.00  0.00     0.074 A 
ATOM     46  C   UNL A   1      41.079  32.340  30.572  1.00  0.00     0.029 A 
ATOM     47  N   UNL A   1      42.318  30.856  29.473  1.00  0.00    -0.354 N 
ATOM     48  N   UNL A   1      44.758  29.886  28.150  1.00  0.00    -0.248 NA
ATOM     49  C   UNL A   1      46.893  30.283  27.291  1.00  0.00     0.031 C 
ATOM     50  C   UNL A   1      42.330  32.913  30.314  1.00  0.00     0.029 A 
ATOM     51  C   UNL A   1      43.103  31.986  29.632  1.00  0.00     0.049 A 
ATOM     52  H   UNL A   1      42.603  30.031  29.018  1.00  0.00     0.167 HD
ATOM     53  C   UNL A   1      45.150  31.174  28.489  1.00  0.00     0.074 A 
ATOM     54  C   UNL A   1      46.491  31.352  27.966  1.00  0.00     0.031 C 
ATOM     55  C   UNL A   1      44.452  32.131  29.146  1.00  0.00     0.034 A 
BRANCH  42  56
ATOM     56  C   UNL A   1      38.717  30.460  30.749  1.00  0.00     0.023 A 
ATOM     57  C   UNL A   1      38.509  30.168  32.112  1.00  0.00     0.012 A 
ATOM     58  C   UNL A   1      37.718  31.145  30.030  1.00  0.00     0.148 A 
ATOM     59  C   UNL A   1      37.315  30.524  32.739  1.00  0.00     0.002 A 
ATOM     60  C   UNL A   1      36.546  31.531  30.673  1.00  0.00     0.091 A 
ATOM     61  F   UNL A   1      37.917  31.393  28.727  1.00  0.00    -0.205 F 
ATOM     62  C   UNL A   1      36.338  31.212  32.023  1.00  0.00     0.022 A 
BRANCH  60  63
ATOM     63  S   UNL A   1      35.277  32.489  29.833  1.00  0.00     0.127 S 
ATOM     64  O   UNL A   1      34.269  32.635  30.880  1.00  0.00    -0.237 OA
ATOM     65  O   UNL A   1      35.984  33.725  29.494  1.00  0.00    -0.237 OA
ATOM     66  O   UNL A   1      34.890  31.688  28.680  1.00  0.00    -0.744 OA
ENDBRANCH  60  63
ENDBRANCH  42  56
BRANCH  43  67
ATOM     67  C   UNL A   1      47.091  27.579  26.117  1.00  0.00     0.023 A 
ATOM     68  C   UNL A   1      48.018  26.724  26.743  1.00  0.00     0.012 A 
ATOM     69  C   UNL A   1      47.272  27.917  24.762  1.00  0.00     0.148 A 
ATOM     70  C   UNL A   1      49.103  26.214  26.030  1.00  0.00     0.002 A 
ATOM     71  C   UNL A   1      48.317  27.354  24.041  1.00  0.00     0.091 A 
ATOM     72  F   UNL A   1      46.390  28.750  24.191  1.00  0.00    -0.205 F 
ATOM     73  C   UNL A   1      49.242  26.511  24.676  1.00  0.00     0.022 A 
BRANCH  71  74
ATOM     74  S   UNL A   1      48.464  27.547  22.259  1.00  0.00     0.127 S 
ATOM     75  O   UNL A   1      49.605  28.452  22.149  1.00  0.00    -0.237 OA
ATOM     76  O   UNL A   1      48.721  26.175  21.822  1.00  0.00    -0.237 OA
ATOM     77  O   UNL A   1      47.183  28.082  21.819  1.00  0.00    -0.744 OA
ENDBRANCH  71  74
ENDBRANCH  43  67
BRANCH  55  78
ATOM     78  C   UNL A   1      45.124  33.464  29.340  1.00  0.00     0.023 A 
ATOM     79  C   UNL A   1      45.824  33.712  30.538  1.00  0.00     0.012 A 
ATOM     80  C   UNL A   1      45.119  34.437  28.325  1.00  0.00     0.148 A 
ATOM     81  C   UNL A   1      46.492  34.920  30.729  1.00  0.00     0.002 A 
ATOM     82  C   UNL A   1      45.819  35.626  28.508  1.00  0.00     0.091 A 
ATOM     83  F   UNL A   1      44.427  34.192  27.202  1.00  0.00    -0.205 F 
ATOM     84  C   UNL A   1      46.499  35.871  29.712  1.00  0.00     0.022 A 
BRANCH  82  85
ATOM     85  S   UNL A   1      45.939  36.871  27.217  1.00  0.00     0.127 S 
ATOM     86  O   UNL A   1      44.585  37.421  27.206  1.00  0.00    -0.237 OA
ATOM     87  O   UNL A   1      46.960  37.776  27.747  1.00  0.00    -0.237 OA
ATOM     88  O   UNL A   1      46.340  36.154  26.014  1.00  0.00    -0.744 OA
ENDBRANCH  82  85
ENDBRANCH  55  78
ENDBRANCH  29  30
ENDBRANCH  22  24
ENDBRANCH  21  22
ENDBRANCH  20  21
ENDBRANCH   1  20
TORSDOF 17
ENDMDL
MODEL 2
REMARK VINA RESULT:     -11.6      5.089     10.136
REMARK SMILES CC[C@@H]1CCCN1C(=O)N1CC[C@@H](C(=O)OCCOC(=O)c2ccc(-c3c4nc(c(-c5cccc(S(=O)(=O)[O-])c5F)c5ccc([nH]5)c(-c5cccc(S(=O)(=O)[O-])c5F)c5nc(c(-c6cccc(S(=O)(=O)[O-])c6F)c6ccc3[nH]6)C=C5)C=C4)cc2)[C@@H]1C
REMARK SMILES IDX 17 1 16 2 14 3 15 4 13 5 10 6 11 7 85 8 12 9 86 10 8 11 9 12
REMARK SMILES IDX 7 13 3 14 4 15 5 16 6 17 2 18 1 19 18 20 19 21 20 22 21 23
REMARK SMILES IDX 22 24 23 25 84 26 24 27 83 28 25 29 26 30 27 31 77 32 28 33
REMARK SMILES IDX 82 34 76 35 78 36 29 37 81 38 75 39 74 40 30 42 62 43 42 44
REMARK SMILES IDX 61 45 43 46 46 47 60 48 79 49 44 50 45 51 59 53 80 54 47 55
REMARK SMILES IDX 31 56 32 57 40 58 33 59 35 60 41 61 34 62 36 63 37 64 38 65
REMARK SMILES IDX 39 66 63 67 64 68 72 69 65 70 67 71 73 72 66 73 68 74 69 75
REMARK SMILES IDX 70 76 71 77 48 78 49 79 57 80 50 81 52 82 58 83 51 84 53 85
REMARK SMILES IDX 54 86 55 87 56 88
REMARK H PARENT 78 41 46 52
REMARK Flexibility Score: inf
ROOT
ATOM      1  C   UNL A   1      31.710  28.743  24.301  1.00  0.00     0.274 C 
ENDROOT
BRANCH   1   2
ATOM      2  O   UNL A   1      31.227  27.847  25.321  1.00  0.00    -0.462 OA
BRANCH   2   3
ATOM      3  C   UNL A   1      30.661  26.686  24.903  1.00  0.00     0.311 C 
ATOM      4  O   UNL A   1      29.609  26.613  24.280  1.00  0.00    -0.252 OA
BRANCH   3   5
ATOM      5  C   UNL A   1      31.444  25.458  25.317  1.00  0.00     0.123 C 
ATOM      6  N   UNL A   1      33.226  24.132  24.554  1.00  0.00    -0.321 N 
ATOM      7  C   UNL A   1      33.847  25.138  25.386  1.00  0.00     0.122 C 
ATOM      8  C   UNL A   1      31.977  24.709  24.082  1.00  0.00     0.098 C 
ATOM      9  C   UNL A   1      32.690  25.687  26.201  1.00  0.00     0.039 C 
ATOM     10  C   UNL A   1      30.994  23.703  23.492  1.00  0.00     0.032 C 
BRANCH   6  11
ATOM     11  C   UNL A   1      34.034  23.404  23.716  1.00  0.00     0.320 C 
ATOM     12  O   UNL A   1      34.396  23.855  22.632  1.00  0.00    -0.248 OA
BRANCH  11  13
ATOM     13  N   UNL A   1      34.464  22.184  24.193  1.00  0.00    -0.322 N 
ATOM     14  C   UNL A   1      35.599  21.859  25.075  1.00  0.00     0.086 C 
ATOM     15  C   UNL A   1      35.605  20.324  24.998  1.00  0.00     0.027 C 
ATOM     16  C   UNL A   1      34.126  19.977  25.022  1.00  0.00     0.024 C 
ATOM     17  C   UNL A   1      33.480  21.108  24.235  1.00  0.00     0.122 C 
BRANCH  14  18
ATOM     18  C   UNL A   1      37.011  22.395  24.813  1.00  0.00     0.022 C 
ATOM     19  C   UNL A   1      37.301  23.701  25.539  1.00  0.00     0.006 C 
ENDBRANCH  14  18
ENDBRANCH  11  13
ENDBRANCH   6  11
ENDBRANCH   3   5
ENDBRANCH   2   3
ENDBRANCH   1   2
BRANCH   1  20
ATOM     20  C   UNL A   1      32.720  29.720  24.892  1.00  0.00     0.275 C 
BRANCH  20  21
ATOM     21  O   UNL A   1      32.475  29.868  26.302  1.00  0.00    -0.458 OA
BRANCH  21  22
ATOM     22  C   UNL A   1      32.912  31.015  26.857  1.00  0.00     0.338 C 
ATOM     23  O   UNL A   1      32.307  32.076  26.943  1.00  0.00    -0.246 OA
BRANCH  22  24
ATOM     24  C   UNL A   1      34.256  30.806  27.411  1.00  0.00     0.060 A 
ATOM     25  C   UNL A   1      34.673  29.509  27.715  1.00  0.00     0.016 A 
ATOM     26  C   UNL A   1      35.056  31.899  27.744  1.00  0.00     0.016 A 
ATOM     27  C   UNL A   1      35.826  29.311  28.467  1.00  0.00     0.010 A 
ATOM     28  C   UNL A   1      36.281  31.680  28.381  1.00  0.00     0.010 A 
ATOM     29  C   UNL A   1      36.663  30.389  28.786  1.00  0.00    -0.014 A 
BRANCH  29  30
ATOM     30  C   UNL A   1      37.935  30.170  29.533  1.00  0.00     0.031 A 
ATOM     31  C   UNL A   1      39.019  29.302  28.954  1.00  0.00     0.074 A 
ATOM     32  C   UNL A   1      38.099  30.711  30.756  1.00  0.00     0.049 A 
ATOM     33  N   UNL A   1      40.074  28.799  29.541  1.00  0.00    -0.248 NA
ATOM     34  C   UNL A   1      38.885  28.925  27.538  1.00  0.00     0.031 C 
ATOM     35  C   UNL A   1      37.132  31.571  31.440  1.00  0.00     0.029 A 
ATOM     36  N   UNL A   1      39.135  30.602  31.654  1.00  0.00    -0.354 N 
ATOM     37  C   UNL A   1      40.676  27.972  28.599  1.00  0.00     0.074 A 
ATOM     38  C   UNL A   1      39.875  28.055  27.395  1.00  0.00     0.031 C 
ATOM     39  C   UNL A   1      37.622  31.925  32.636  1.00  0.00     0.029 A 
ATOM     40  C   UNL A   1      38.897  31.249  32.844  1.00  0.00     0.049 A 
ATOM     41  H   UNL A   1      39.965  30.109  31.464  1.00  0.00     0.167 HD
ATOM     42  C   UNL A   1      41.798  27.224  28.724  1.00  0.00     0.034 A 
ATOM     43  C   UNL A   1      39.594  31.265  33.996  1.00  0.00     0.034 A 
ATOM     44  C   UNL A   1      42.650  27.233  29.883  1.00  0.00     0.049 A 
ATOM     45  C   UNL A   1      40.869  30.482  34.089  1.00  0.00     0.074 A 
ATOM     46  C   UNL A   1      43.844  26.561  30.082  1.00  0.00     0.029 A 
ATOM     47  N   UNL A   1      42.413  27.971  31.034  1.00  0.00    -0.354 N 
ATOM     48  N   UNL A   1      41.444  29.736  33.177  1.00  0.00    -0.248 NA
ATOM     49  C   UNL A   1      41.602  30.549  35.361  1.00  0.00     0.031 C 
ATOM     50  C   UNL A   1      44.331  26.896  31.350  1.00  0.00     0.029 A 
ATOM     51  C   UNL A   1      43.441  27.778  31.943  1.00  0.00     0.049 A 
ATOM     52  H   UNL A   1      41.630  28.549  31.183  1.00  0.00     0.167 HD
ATOM     53  C   UNL A   1      42.605  29.245  33.760  1.00  0.00     0.074 A 
ATOM     54  C   UNL A   1      42.671  29.809  35.094  1.00  0.00     0.031 C 
ATOM     55  C   UNL A   1      43.516  28.383  33.248  1.00  0.00     0.034 A 
BRANCH  42  56
ATOM     56  C   UNL A   1      42.193  26.356  27.557  1.00  0.00     0.023 A 
ATOM     57  C   UNL A   1      42.964  26.899  26.510  1.00  0.00     0.012 A 
ATOM     58  C   UNL A   1      41.839  24.992  27.517  1.00  0.00     0.148 A 
ATOM     59  C   UNL A   1      43.348  26.108  25.427  1.00  0.00     0.002 A 
ATOM     60  C   UNL A   1      42.259  24.201  26.452  1.00  0.00     0.091 A 
ATOM     61  F   UNL A   1      41.083  24.493  28.505  1.00  0.00    -0.205 F 
ATOM     62  C   UNL A   1      43.004  24.759  25.402  1.00  0.00     0.022 A 
BRANCH  60  63
ATOM     63  S   UNL A   1      41.919  22.436  26.392  1.00  0.00     0.127 S 
ATOM     64  O   UNL A   1      42.537  21.970  27.631  1.00  0.00    -0.237 OA
ATOM     65  O   UNL A   1      40.456  22.394  26.391  1.00  0.00    -0.237 OA
ATOM     66  O   UNL A   1      42.530  21.967  25.157  1.00  0.00    -0.744 OA
ENDBRANCH  60  63
ENDBRANCH  42  56
BRANCH  43  67
ATOM     67  C   UNL A   1      39.082  32.076  35.138  1.00  0.00     0.023 A 
ATOM     68  C   UNL A   1      38.188  31.490  36.053  1.00  0.00     0.012 A 
ATOM     69  C   UNL A   1      39.566  33.376  35.384  1.00  0.00     0.148 A 
ATOM     70  C   UNL A   1      37.786  32.185  37.194  1.00  0.00     0.002 A 
ATOM     71  C   UNL A   1      39.214  34.036  36.555  1.00  0.00     0.091 A 
ATOM     72  F   UNL A   1      40.400  33.925  34.489  1.00  0.00    -0.205 F 
ATOM     73  C   UNL A   1      38.314  33.447  37.456  1.00  0.00     0.022 A 
BRANCH  71  74
ATOM     74  S   UNL A   1      39.982  35.585  37.048  1.00  0.00     0.127 S 
ATOM     75  O   UNL A   1      39.652  36.455  35.922  1.00  0.00    -0.237 OA
ATOM     76  O   UNL A   1      39.278  35.893  38.292  1.00  0.00    -0.237 OA
ATOM     77  O   UNL A   1      41.395  35.279  37.224  1.00  0.00    -0.744 OA
ENDBRANCH  71  74
ENDBRANCH  43  67
BRANCH  55  78
ATOM     78  C   UNL A   1      44.668  27.992  34.133  1.00  0.00     0.023 A 
ATOM     79  C   UNL A   1      45.779  28.853  34.233  1.00  0.00     0.012 A 
ATOM     80  C   UNL A   1      44.628  26.819  34.908  1.00  0.00     0.148 A 
ATOM     81  C   UNL A   1      46.843  28.540  35.077  1.00  0.00     0.002 A 
ATOM     82  C   UNL A   1      45.676  26.531  35.775  1.00  0.00     0.091 A 
ATOM     83  F   UNL A   1      43.573  26.000  34.780  1.00  0.00    -0.205 F 
ATOM     84  C   UNL A   1      46.788  27.386  35.856  1.00  0.00     0.022 A 
BRANCH  82  85
ATOM     85  S   UNL A   1      45.647  25.104  36.867  1.00  0.00     0.127 S 
ATOM     86  O   UNL A   1      45.644  23.997  35.912  1.00  0.00    -0.237 OA
ATOM     87  O   UNL A   1      46.893  25.256  37.619  1.00  0.00    -0.237 OA
ATOM     88  O   UNL A   1      44.440  25.247  37.671  1.00  0.00    -0.744 OA
ENDBRANCH  82  85
ENDBRANCH  55  78
ENDBRANCH  29  30
ENDBRANCH  22  24
ENDBRANCH  21  22
ENDBRANCH  20  21
ENDBRANCH   1  20
TORSDOF 17
ENDMDL
MODEL 3
REMARK VINA RESULT:     -11.4      5.271     10.106
REMARK SMILES CC[C@@H]1CCCN1C(=O)N1CC[C@@H](C(=O)OCCOC(=O)c2ccc(-c3c4nc(c(-c5cccc(S(=O)(=O)[O-])c5F)c5ccc([nH]5)c(-c5cccc(S(=O)(=O)[O-])c5F)c5nc(c(-c6cccc(S(=O)(=O)[O-])c6F)c6ccc3[nH]6)C=C5)C=C4)cc2)[C@@H]1C
REMARK SMILES IDX 17 1 16 2 14 3 15 4 13 5 10 6 11 7 85 8 12 9 86 10 8 11 9 12
REMARK SMILES IDX 7 13 3 14 4 15 5 16 6 17 2 18 1 19 18 20 19 21 20 22 21 23
REMARK SMILES IDX 22 24 23 25 84 26 24 27 83 28 25 29 26 30 27 31 77 32 28 33
REMARK SMILES IDX 82 34 76 35 78 36 29 37 81 38 75 39 74 40 30 42 62 43 42 44
REMARK SMILES IDX 61 45 43 46 46 47 60 48 79 49 44 50 45 51 59 53 80 54 47 55
REMARK SMILES IDX 31 56 32 57 40 58 33 59 35 60 41 61 34 62 36 63 37 64 38 65
REMARK SMILES IDX 39 66 63 67 64 68 72 69 65 70 67 71 73 72 66 73 68 74 69 75
REMARK SMILES IDX 70 76 71 77 48 78 49 79 57 80 50 81 52 82 58 83 51 84 53 85
REMARK SMILES IDX 54 86 55 87 56 88
REMARK H PARENT 78 41 46 52
REMARK Flexibility Score: inf
ROOT
ATOM      1  C   UNL A   1      31.298  29.896  24.992  1.00  0.00     0.274 C 
ENDROOT
BRANCH   1   2
ATOM      2  O   UNL A   1      31.615  28.669  24.303  1.00  0.00    -0.462 OA
BRANCH   2   3
ATOM      3  C   UNL A   1      31.074  28.499  23.071  1.00  0.00     0.311 C 
ATOM      4  O   UNL A   1      30.991  29.378  22.222  1.00  0.00    -0.252 OA
BRANCH   3   5
ATOM      5  C   UNL A   1      30.535  27.102  22.845  1.00  0.00     0.123 C 
ATOM      6  N   UNL A   1      31.093  24.870  23.320  1.00  0.00    -0.321 N 
ATOM      7  C   UNL A   1      30.281  25.293  24.440  1.00  0.00     0.122 C 
ATOM      8  C   UNL A   1      31.683  26.079  22.768  1.00  0.00     0.098 C 
ATOM      9  C   UNL A   1      29.582  26.536  23.921  1.00  0.00     0.039 C 
ATOM     10  C   UNL A   1      32.280  25.916  21.373  1.00  0.00     0.032 C 
BRANCH   6  11
ATOM     11  C   UNL A   1      31.829  23.719  23.458  1.00  0.00     0.320 C 
ATOM     12  O   UNL A   1      31.352  22.622  23.177  1.00  0.00    -0.248 OA
BRANCH  11  13
ATOM     13  N   UNL A   1      33.139  23.879  23.857  1.00  0.00    -0.322 N 
ATOM     14  C   UNL A   1      33.701  24.094  25.202  1.00  0.00     0.086 C 
ATOM     15  C   UNL A   1      35.168  24.402  24.866  1.00  0.00     0.027 C 
ATOM     16  C   UNL A   1      35.474  23.420  23.748  1.00  0.00     0.024 C 
ATOM     17  C   UNL A   1      34.167  23.344  22.971  1.00  0.00     0.122 C 
BRANCH  14  18
ATOM     18  C   UNL A   1      33.151  25.167  26.149  1.00  0.00     0.022 C 
ATOM     19  C   UNL A   1      33.691  26.561  25.856  1.00  0.00     0.006 C 
ENDBRANCH  14  18
ENDBRANCH  11  13
ENDBRANCH   6  11
ENDBRANCH   3   5
ENDBRANCH   2   3
ENDBRANCH   1   2
BRANCH   1  20
ATOM     20  C   UNL A   1      31.916  29.893  26.385  1.00  0.00     0.275 C 
BRANCH  20  21
ATOM     21  O   UNL A   1      33.287  30.321  26.304  1.00  0.00    -0.458 OA
BRANCH  21  22
ATOM     22  C   UNL A   1      33.665  31.254  27.199  1.00  0.00     0.338 C 
ATOM     23  O   UNL A   1      33.008  32.204  27.605  1.00  0.00    -0.246 OA
BRANCH  22  24
ATOM     24  C   UNL A   1      35.018  30.944  27.680  1.00  0.00     0.060 A 
ATOM     25  C   UNL A   1      35.353  29.620  27.967  1.00  0.00     0.016 A 
ATOM     26  C   UNL A   1      35.915  31.975  27.965  1.00  0.00     0.016 A 
ATOM     27  C   UNL A   1      36.528  29.336  28.655  1.00  0.00     0.010 A 
ATOM     28  C   UNL A   1      37.152  31.665  28.535  1.00  0.00     0.010 A 
ATOM     29  C   UNL A   1      37.458  30.349  28.924  1.00  0.00    -0.014 A 
BRANCH  29  30
ATOM     30  C   UNL A   1      38.749  30.036  29.602  1.00  0.00     0.031 A 
ATOM     31  C   UNL A   1      39.723  29.072  28.980  1.00  0.00     0.074 A 
ATOM     32  C   UNL A   1      39.029  30.580  30.803  1.00  0.00     0.049 A 
ATOM     33  N   UNL A   1      40.765  28.491  29.516  1.00  0.00    -0.248 NA
ATOM     34  C   UNL A   1      39.475  28.686  27.581  1.00  0.00     0.031 C 
ATOM     35  C   UNL A   1      38.177  31.527  31.524  1.00  0.00     0.029 A 
ATOM     36  N   UNL A   1      40.103  30.398  31.643  1.00  0.00    -0.354 N 
ATOM     37  C   UNL A   1      41.240  27.603  28.557  1.00  0.00     0.074 A 
ATOM     38  C   UNL A   1      40.381  27.734  27.400  1.00  0.00     0.031 C 
ATOM     39  C   UNL A   1      38.764  31.857  32.682  1.00  0.00     0.029 A 
ATOM     40  C   UNL A   1      39.988  31.080  32.831  1.00  0.00     0.049 A 
ATOM     41  H   UNL A   1      40.877  29.834  31.415  1.00  0.00     0.167 HD
ATOM     42  C   UNL A   1      42.302  26.765  28.633  1.00  0.00     0.034 A 
ATOM     43  C   UNL A   1      40.750  31.055  33.942  1.00  0.00     0.034 A 
ATOM     44  C   UNL A   1      43.218  26.720  29.742  1.00  0.00     0.049 A 
ATOM     45  C   UNL A   1      41.960  30.169  33.977  1.00  0.00     0.074 A 
ATOM     46  C   UNL A   1      44.362  25.954  29.886  1.00  0.00     0.029 A 
ATOM     47  N   UNL A   1      43.110  27.493  30.889  1.00  0.00    -0.354 N 
ATOM     48  N   UNL A   1      42.416  29.364  33.049  1.00  0.00    -0.248 NA
ATOM     49  C   UNL A   1      42.768  30.194  35.204  1.00  0.00     0.031 C 
ATOM     50  C   UNL A   1      44.948  26.266  31.118  1.00  0.00     0.029 A 
ATOM     51  C   UNL A   1      44.170  27.228  31.742  1.00  0.00     0.049 A 
ATOM     52  H   UNL A   1      42.387  28.136  31.072  1.00  0.00     0.167 HD
ATOM     53  C   UNL A   1      43.565  28.787  33.575  1.00  0.00     0.074 A 
ATOM     54  C   UNL A   1      43.755  29.363  34.892  1.00  0.00     0.031 C 
ATOM     55  C   UNL A   1      44.370  27.844  33.029  1.00  0.00     0.034 A 
BRANCH  42  56
ATOM     56  C   UNL A   1      42.555  25.850  27.463  1.00  0.00     0.023 A 
ATOM     57  C   UNL A   1      43.319  26.306  26.370  1.00  0.00     0.012 A 
ATOM     58  C   UNL A   1      42.075  24.524  27.464  1.00  0.00     0.148 A 
ATOM     59  C   UNL A   1      43.573  25.469  25.283  1.00  0.00     0.002 A 
ATOM     60  C   UNL A   1      42.366  23.684  26.393  1.00  0.00     0.091 A 
ATOM     61  F   UNL A   1      41.327  24.110  28.496  1.00  0.00    -0.205 F 
ATOM     62  C   UNL A   1      43.105  24.157  25.298  1.00  0.00     0.022 A 
BRANCH  60  63
ATOM     63  S   UNL A   1      41.861  21.959  26.381  1.00  0.00     0.127 S 
ATOM     64  O   UNL A   1      40.422  22.069  26.154  1.00  0.00    -0.237 OA
ATOM     65  O   UNL A   1      42.613  21.415  25.248  1.00  0.00    -0.237 OA
ATOM     66  O   UNL A   1      42.266  21.430  27.675  1.00  0.00    -0.744 OA
ENDBRANCH  60  63
ENDBRANCH  42  56
BRANCH  43  67
ATOM     67  C   UNL A   1      40.375  31.923  35.094  1.00  0.00     0.023 A 
ATOM     68  C   UNL A   1      40.885  33.233  35.164  1.00  0.00     0.012 A 
ATOM     69  C   UNL A   1      39.429  31.500  36.049  1.00  0.00     0.148 A 
ATOM     70  C   UNL A   1      40.459  34.106  36.165  1.00  0.00     0.002 A 
ATOM     71  C   UNL A   1      38.960  32.395  37.002  1.00  0.00     0.091 A 
ATOM     72  F   UNL A   1      38.972  30.242  35.977  1.00  0.00    -0.205 F 
ATOM     73  C   UNL A   1      39.483  33.696  37.071  1.00  0.00     0.022 A 
BRANCH  71  74
ATOM     74  S   UNL A   1      37.584  32.000  38.090  1.00  0.00     0.127 S 
ATOM     75  O   UNL A   1      36.555  32.922  37.617  1.00  0.00    -0.237 OA
ATOM     76  O   UNL A   1      37.341  30.592  37.777  1.00  0.00    -0.237 OA
ATOM     77  O   UNL A   1      38.076  32.233  39.440  1.00  0.00    -0.744 OA
ENDBRANCH  71  74
ENDBRANCH  43  67
BRANCH  55  78
ATOM     78  C   UNL A   1      45.536  27.371  33.855  1.00  0.00     0.023 A 
ATOM     79  C   UNL A   1      46.753  28.079  33.792  1.00  0.00     0.012 A 
ATOM     80  C   UNL A   1      45.413  26.279  34.733  1.00  0.00     0.148 A 
ATOM     81  C   UNL A   1      47.837  27.692  34.577  1.00  0.00     0.002 A 
ATOM     82  C   UNL A   1      46.488  25.921  35.540  1.00  0.00     0.091 A 
ATOM     83  F   UNL A   1      44.254  25.604  34.760  1.00  0.00    -0.205 F 
ATOM     84  C   UNL A   1      47.703  26.622  35.458  1.00  0.00     0.022 A 
BRANCH  82  85
ATOM     85  S   UNL A   1      46.371  24.602  36.754  1.00  0.00     0.127 S 
ATOM     86  O   UNL A   1      45.254  25.055  37.582  1.00  0.00    -0.237 OA
ATOM     87  O   UNL A   1      46.077  23.433  35.923  1.00  0.00    -0.237 OA
ATOM     88  O   UNL A   1      47.668  24.557  37.414  1.00  0.00    -0.744 OA
ENDBRANCH  82  85
ENDBRANCH  55  78
ENDBRANCH  29  30
ENDBRANCH  22  24
ENDBRANCH  21  22
ENDBRANCH  20  21
ENDBRANCH   1  20
TORSDOF 17
ENDMDL
