MODEL 1
REMARK VINA RESULT:     -11.4      0.000      0.000
REMARK SMILES CCC[C@H](CNC(=O)N1C[C@H]2CCC[N@H+]2C[C@@H]1C)C(=O)OCCOC(=O)c1ccc(-c2c3nc(c(-c4cccc(S(=O)(=O)[O-])c4F)c4ccc([nH]4)c(-c4cccc(S(=O)(=O)[O-])c4F)c4nc(c(-c5cccc(S(=O)(=O)[O-])c5F)c5ccc2[nH]5)C=C4)C=C3)cc1
REMARK SMILES IDX 22 1 21 2 19 3 20 4 4 5 3 6 2 7 1 8 5 9 6 10 7 11 8 13 9 14
REMARK SMILES IDX 10 15 17 16 11 17 16 18 18 19 12 20 15 21 13 22 14 23 23 25
REMARK SMILES IDX 24 26 25 27 26 28 27 29 28 30 89 31 29 32 88 33 30 34 31 35
REMARK SMILES IDX 32 36 82 37 33 38 87 39 81 40 83 41 34 42 86 43 80 44 79 45
REMARK SMILES IDX 35 47 67 48 47 49 66 50 48 51 51 52 65 53 84 54 49 55 50 56
REMARK SMILES IDX 64 58 85 59 52 60 36 61 37 62 45 63 38 64 40 65 46 66 39 67
REMARK SMILES IDX 41 68 42 69 43 70 44 71 68 72 69 73 77 74 70 75 72 76 78 77
REMARK SMILES IDX 71 78 73 79 74 80 75 81 76 82 53 83 54 84 62 85 55 86 57 87
REMARK SMILES IDX 63 88 56 89 58 90 59 91 60 92 61 93
REMARK H PARENT 6 12 15 24 83 46 51 57
REMARK Flexibility Score: inf
ROOT
ATOM      1  C   UNL A   1      31.966  28.266  25.133  1.00  0.00     0.274 C 
ENDROOT
BRANCH   1   2
ATOM      2  O   UNL A   1      31.570  27.289  26.115  1.00  0.00    -0.462 OA
BRANCH   2   3
ATOM      3  C   UNL A   1      30.651  26.377  25.709  1.00  0.00     0.310 C 
ATOM      4  O   UNL A   1      30.095  25.583  26.459  1.00  0.00    -0.252 OA
BRANCH   3   5
ATOM      5  C   UNL A   1      30.351  26.437  24.216  1.00  0.00     0.118 C 
BRANCH   5   6
ATOM      6  C   UNL A   1      28.880  26.797  23.946  1.00  0.00     0.017 C 
BRANCH   6   7
ATOM      7  C   UNL A   1      28.653  28.084  23.132  1.00  0.00    -0.002 C 
ATOM      8  C   UNL A   1      29.909  28.629  22.464  1.00  0.00     0.004 C 
ENDBRANCH   6   7
ENDBRANCH   5   6
BRANCH   5   9
ATOM      9  C   UNL A   1      30.922  25.223  23.445  1.00  0.00     0.133 C 
BRANCH   9  10
ATOM     10  N   UNL A   1      31.762  25.550  22.310  1.00  0.00    -0.337 N 
ATOM     11  C   UNL A   1      33.064  25.286  22.065  1.00  0.00     0.318 C 
ATOM     12  H   UNL A   1      31.305  26.051  21.594  1.00  0.00     0.165 HD
ATOM     13  O   UNL A   1      33.650  26.061  21.306  1.00  0.00    -0.249 OA
BRANCH  11  14
ATOM     14  N   UNL A   1      33.700  24.251  22.692  1.00  0.00    -0.311 N 
ATOM     15  C   UNL A   1      33.225  22.902  22.393  1.00  0.00     0.186 C 
ATOM     16  C   UNL A   1      34.631  24.348  23.851  1.00  0.00     0.139 C 
ATOM     17  C   UNL A   1      32.652  22.219  23.643  1.00  0.00     0.204 C 
ATOM     18  C   UNL A   1      34.785  22.975  24.592  1.00  0.00     0.287 C 
ATOM     19  C   UNL A   1      34.218  25.421  24.864  1.00  0.00     0.037 C 
ATOM     20  C   UNL A   1      32.395  20.732  23.419  1.00  0.00     0.073 C 
ATOM     21  N   UNL A   1      33.501  22.302  24.858  1.00  0.00    -0.329 N 
ATOM     22  C   UNL A   1      32.524  20.149  24.810  1.00  0.00     0.068 C 
ATOM     23  C   UNL A   1      33.677  20.947  25.394  1.00  0.00     0.262 C 
ATOM     24  H   UNL A   1      33.038  22.881  25.559  1.00  0.00     0.348 HD
ENDBRANCH  11  14
ENDBRANCH   9  10
ENDBRANCH   5   9
ENDBRANCH   3   5
ENDBRANCH   2   3
ENDBRANCH   1   2
BRANCH   1  25
ATOM     25  C   UNL A   1      31.763  29.703  25.634  1.00  0.00     0.275 C 
BRANCH  25  26
ATOM     26  O   UNL A   1      32.360  29.930  26.927  1.00  0.00    -0.458 OA
BRANCH  26  27
ATOM     27  C   UNL A   1      33.007  31.111  27.067  1.00  0.00     0.338 C 
ATOM     28  O   UNL A   1      32.540  32.226  26.899  1.00  0.00    -0.246 OA
BRANCH  27  29
ATOM     29  C   UNL A   1      34.357  30.903  27.617  1.00  0.00     0.060 A 
ATOM     30  C   UNL A   1      34.685  29.615  28.043  1.00  0.00     0.016 A 
ATOM     31  C   UNL A   1      35.247  31.958  27.817  1.00  0.00     0.016 A 
ATOM     32  C   UNL A   1      35.891  29.367  28.685  1.00  0.00     0.010 A 
ATOM     33  C   UNL A   1      36.468  31.707  28.456  1.00  0.00     0.010 A 
ATOM     34  C   UNL A   1      36.789  30.413  28.907  1.00  0.00    -0.014 A 
BRANCH  34  35
ATOM     35  C   UNL A   1      38.045  30.140  29.646  1.00  0.00     0.031 A 
ATOM     36  C   UNL A   1      39.082  29.231  29.052  1.00  0.00     0.074 A 
ATOM     37  C   UNL A   1      38.258  30.727  30.839  1.00  0.00     0.049 A 
ATOM     38  N   UNL A   1      40.212  28.823  29.568  1.00  0.00    -0.248 NA
ATOM     39  C   UNL A   1      38.816  28.713  27.700  1.00  0.00     0.031 C 
ATOM     40  C   UNL A   1      37.332  31.646  31.502  1.00  0.00     0.029 A 
ATOM     41  N   UNL A   1      39.311  30.624  31.711  1.00  0.00    -0.354 N 
ATOM     42  C   UNL A   1      40.769  27.963  28.630  1.00  0.00     0.074 A 
ATOM     43  C   UNL A   1      39.856  27.915  27.507  1.00  0.00     0.031 C 
ATOM     44  C   UNL A   1      37.849  32.009  32.686  1.00  0.00     0.029 A 
ATOM     45  C   UNL A   1      39.120  31.319  32.883  1.00  0.00     0.049 A 
ATOM     46  H   UNL A   1      40.125  30.105  31.518  1.00  0.00     0.167 HD
ATOM     47  C   UNL A   1      41.938  27.284  28.696  1.00  0.00     0.034 A 
ATOM     48  C   UNL A   1      39.871  31.368  34.000  1.00  0.00     0.034 A 
ATOM     49  C   UNL A   1      42.863  27.372  29.795  1.00  0.00     0.049 A 
ATOM     50  C   UNL A   1      41.163  30.600  34.047  1.00  0.00     0.074 A 
ATOM     51  C   UNL A   1      44.094  26.758  29.932  1.00  0.00     0.029 A 
ATOM     52  N   UNL A   1      42.657  28.120  30.943  1.00  0.00    -0.354 N 
ATOM     53  N   UNL A   1      41.719  29.865  33.114  1.00  0.00    -0.248 NA
ATOM     54  C   UNL A   1      41.944  30.686  35.289  1.00  0.00     0.031 C 
ATOM     55  C   UNL A   1      44.630  27.126  31.172  1.00  0.00     0.029 A 
ATOM     56  C   UNL A   1      43.736  27.978  31.800  1.00  0.00     0.049 A 
ATOM     57  H   UNL A   1      41.862  28.671  31.124  1.00  0.00     0.167 HD
ATOM     58  C   UNL A   1      42.923  29.421  33.647  1.00  0.00     0.074 A 
ATOM     59  C   UNL A   1      43.029  29.990  34.975  1.00  0.00     0.031 C 
ATOM     60  C   UNL A   1      43.849  28.597  33.096  1.00  0.00     0.034 A 
BRANCH  47  61
ATOM     61  C   UNL A   1      42.299  26.401  27.533  1.00  0.00     0.023 A 
ATOM     62  C   UNL A   1      43.074  26.922  26.478  1.00  0.00     0.012 A 
ATOM     63  C   UNL A   1      41.924  25.044  27.515  1.00  0.00     0.148 A 
ATOM     64  C   UNL A   1      43.450  26.110  25.408  1.00  0.00     0.002 A 
ATOM     65  C   UNL A   1      42.332  24.232  26.462  1.00  0.00     0.091 A 
ATOM     66  F   UNL A   1      41.165  24.575  28.514  1.00  0.00    -0.205 F 
ATOM     67  C   UNL A   1      43.089  24.765  25.404  1.00  0.00     0.022 A 
BRANCH  65  68
ATOM     68  S   UNL A   1      41.970  22.474  26.406  1.00  0.00     0.127 S 
ATOM     69  O   UNL A   1      40.510  22.475  26.353  1.00  0.00    -0.237 OA
ATOM     70  O   UNL A   1      42.624  22.060  25.164  1.00  0.00    -0.237 OA
ATOM     71  O   UNL A   1      42.556  21.908  27.613  1.00  0.00    -0.744 OA
ENDBRANCH  65  68
ENDBRANCH  47  61
BRANCH  48  72
ATOM     72  C   UNL A   1      39.423  32.196  35.156  1.00  0.00     0.023 A 
ATOM     73  C   UNL A   1      39.639  33.587  35.137  1.00  0.00     0.012 A 
ATOM     74  C   UNL A   1      38.751  31.619  36.251  1.00  0.00     0.148 A 
ATOM     75  C   UNL A   1      39.211  34.385  36.199  1.00  0.00     0.002 A 
ATOM     76  C   UNL A   1      38.278  32.427  37.278  1.00  0.00     0.091 A 
ATOM     77  F   UNL A   1      38.578  30.288  36.263  1.00  0.00    -0.205 F 
ATOM     78  C   UNL A   1      38.519  33.808  37.262  1.00  0.00     0.022 A 
BRANCH  76  79
ATOM     79  S   UNL A   1      37.262  31.776  38.609  1.00  0.00     0.127 S 
ATOM     80  O   UNL A   1      37.025  30.406  38.164  1.00  0.00    -0.237 OA
ATOM     81  O   UNL A   1      38.150  31.904  39.765  1.00  0.00    -0.237 OA
ATOM     82  O   UNL A   1      36.091  32.644  38.660  1.00  0.00    -0.744 OA
ENDBRANCH  76  79
ENDBRANCH  48  72
BRANCH  60  83
ATOM     83  C   UNL A   1      45.070  28.276  33.915  1.00  0.00     0.023 A 
ATOM     84  C   UNL A   1      46.208  29.099  33.816  1.00  0.00     0.012 A 
ATOM     85  C   UNL A   1      45.063  27.210  34.836  1.00  0.00     0.148 A 
ATOM     86  C   UNL A   1      47.331  28.853  34.604  1.00  0.00     0.002 A 
ATOM     87  C   UNL A   1      46.170  26.996  35.649  1.00  0.00     0.091 A 
ATOM     88  F   UNL A   1      43.978  26.424  34.900  1.00  0.00    -0.205 F 
ATOM     89  C   UNL A   1      47.308  27.809  35.528  1.00  0.00     0.022 A 
BRANCH  87  90
ATOM     90  S   UNL A   1      46.188  25.732  36.925  1.00  0.00     0.127 S 
ATOM     91  O   UNL A   1      45.849  24.532  36.163  1.00  0.00    -0.237 OA
ATOM     92  O   UNL A   1      47.571  25.783  37.400  1.00  0.00    -0.237 OA
ATOM     93  O   UNL A   1      45.200  26.152  37.912  1.00  0.00    -0.744 OA
ENDBRANCH  87  90
ENDBRANCH  60  83
ENDBRANCH  34  35
ENDBRANCH  27  29
ENDBRANCH  26  27
ENDBRANCH  25  26
ENDBRANCH   1  25
TORSDOF 19
ENDMDL
MODEL 2
REMARK VINA RESULT:     -11.3      5.193      9.981
REMARK SMILES CCC[C@H](CNC(=O)N1C[C@H]2CCC[N@H+]2C[C@@H]1C)C(=O)OCCOC(=O)c1ccc(-c2c3nc(c(-c4cccc(S(=O)(=O)[O-])c4F)c4ccc([nH]4)c(-c4cccc(S(=O)(=O)[O-])c4F)c4nc(c(-c5cccc(S(=O)(=O)[O-])c5F)c5ccc2[nH]5)C=C4)C=C3)cc1
REMARK SMILES IDX 22 1 21 2 19 3 20 4 4 5 3 6 2 7 1 8 5 9 6 10 7 11 8 13 9 14
REMARK SMILES IDX 10 15 17 16 11 17 16 18 18 19 12 20 15 21 13 22 14 23 23 25
REMARK SMILES IDX 24 26 25 27 26 28 27 29 28 30 89 31 29 32 88 33 30 34 31 35
REMARK SMILES IDX 32 36 82 37 33 38 87 39 81 40 83 41 34 42 86 43 80 44 79 45
REMARK SMILES IDX 35 47 67 48 47 49 66 50 48 51 51 52 65 53 84 54 49 55 50 56
REMARK SMILES IDX 64 58 85 59 52 60 36 61 37 62 45 63 38 64 40 65 46 66 39 67
REMARK SMILES IDX 41 68 42 69 43 70 44 71 68 72 69 73 77 74 70 75 72 76 78 77
REMARK SMILES IDX 71 78 73 79 74 80 75 81 76 82 53 83 54 84 62 85 55 86 57 87
REMARK SMILES IDX 63 88 56 89 58 90 59 91 60 92 61 93
REMARK H PARENT 6 12 15 24 83 46 51 57
REMARK Flexibility Score: inf
ROOT
ATOM      1  C   UNL A   1      35.275  20.239  25.041  1.00  0.00     0.274 C 
ENDROOT
BRANCH   1   2
ATOM      2  O   UNL A   1      34.518  21.413  25.396  1.00  0.00    -0.462 OA
BRANCH   2   3
ATOM      3  C   UNL A   1      33.858  22.024  24.379  1.00  0.00     0.310 C 
ATOM      4  O   UNL A   1      34.338  22.916  23.689  1.00  0.00    -0.252 OA
BRANCH   3   5
ATOM      5  C   UNL A   1      32.450  21.484  24.154  1.00  0.00     0.118 C 
BRANCH   5   6
ATOM      6  C   UNL A   1      32.423  20.416  23.048  1.00  0.00     0.017 C 
BRANCH   6   7
ATOM      7  C   UNL A   1      32.541  18.959  23.533  1.00  0.00    -0.002 C 
ATOM      8  C   UNL A   1      32.398  17.920  22.428  1.00  0.00     0.004 C 
ENDBRANCH   6   7
ENDBRANCH   5   6
BRANCH   5   9
ATOM      9  C   UNL A   1      31.390  22.607  24.063  1.00  0.00     0.133 C 
BRANCH   9  10
ATOM     10  N   UNL A   1      30.882  23.083  25.334  1.00  0.00    -0.337 N 
ATOM     11  C   UNL A   1      31.147  24.212  26.028  1.00  0.00     0.318 C 
ATOM     12  H   UNL A   1      30.233  22.481  25.766  1.00  0.00     0.165 HD
ATOM     13  O   UNL A   1      30.990  24.158  27.249  1.00  0.00    -0.249 OA
BRANCH  11  14
ATOM     14  N   UNL A   1      31.634  25.324  25.399  1.00  0.00    -0.311 N 
ATOM     15  C   UNL A   1      32.778  25.989  26.019  1.00  0.00     0.186 C 
ATOM     16  C   UNL A   1      30.968  26.099  24.314  1.00  0.00     0.139 C 
ATOM     17  C   UNL A   1      32.423  27.413  26.471  1.00  0.00     0.204 C 
ATOM     18  C   UNL A   1      31.567  27.541  24.174  1.00  0.00     0.287 C 
ATOM     19  C   UNL A   1      29.449  26.203  24.497  1.00  0.00     0.037 C 
ATOM     20  C   UNL A   1      33.657  28.212  26.876  1.00  0.00     0.073 C 
ATOM     21  N   UNL A   1      31.719  28.243  25.461  1.00  0.00    -0.329 N 
ATOM     22  C   UNL A   1      33.241  29.643  26.608  1.00  0.00     0.068 C 
ATOM     23  C   UNL A   1      32.438  29.515  25.325  1.00  0.00     0.262 C 
ATOM     24  H   UNL A   1      30.767  28.430  25.776  1.00  0.00     0.348 HD
ENDBRANCH  11  14
ENDBRANCH   9  10
ENDBRANCH   5   9
ENDBRANCH   3   5
ENDBRANCH   2   3
ENDBRANCH   1   2
BRANCH   1  25
ATOM     25  C   UNL A   1      36.740  20.571  24.726  1.00  0.00     0.275 C 
BRANCH  25  26
ATOM     26  O   UNL A   1      37.342  21.427  25.718  1.00  0.00    -0.458 OA
BRANCH  26  27
ATOM     27  C   UNL A   1      38.643  21.172  25.991  1.00  0.00     0.338 C 
ATOM     28  O   UNL A   1      39.261  20.154  25.724  1.00  0.00    -0.246 OA
BRANCH  27  29
ATOM     29  C   UNL A   1      39.304  22.368  26.539  1.00  0.00     0.060 A 
ATOM     30  C   UNL A   1      38.823  23.612  26.126  1.00  0.00     0.016 A 
ATOM     31  C   UNL A   1      40.437  22.286  27.346  1.00  0.00     0.016 A 
ATOM     32  C   UNL A   1      39.471  24.782  26.499  1.00  0.00     0.010 A 
ATOM     33  C   UNL A   1      41.086  23.466  27.732  1.00  0.00     0.010 A 
ATOM     34  C   UNL A   1      40.616  24.719  27.298  1.00  0.00    -0.014 A 
BRANCH  34  35
ATOM     35  C   UNL A   1      41.328  25.973  27.637  1.00  0.00     0.031 A 
ATOM     36  C   UNL A   1      40.636  27.034  28.443  1.00  0.00     0.074 A 
ATOM     37  C   UNL A   1      42.602  26.147  27.237  1.00  0.00     0.049 A 
ATOM     38  N   UNL A   1      41.067  28.219  28.788  1.00  0.00    -0.248 NA
ATOM     39  C   UNL A   1      39.281  26.722  28.927  1.00  0.00     0.031 C 
ATOM     40  C   UNL A   1      43.383  25.175  26.470  1.00  0.00     0.029 A 
ATOM     41  N   UNL A   1      43.457  27.206  27.406  1.00  0.00    -0.354 N 
ATOM     42  C   UNL A   1      40.023  28.815  29.485  1.00  0.00     0.074 A 
ATOM     43  C   UNL A   1      38.939  27.856  29.523  1.00  0.00     0.031 C 
ATOM     44  C   UNL A   1      44.595  25.691  26.217  1.00  0.00     0.029 A 
ATOM     45  C   UNL A   1      44.664  27.041  26.768  1.00  0.00     0.049 A 
ATOM     46  H   UNL A   1      43.229  28.006  27.932  1.00  0.00     0.167 HD
ATOM     47  C   UNL A   1      39.978  30.044  30.049  1.00  0.00     0.034 A 
ATOM     48  C   UNL A   1      45.696  27.894  26.619  1.00  0.00     0.034 A 
ATOM     49  C   UNL A   1      41.075  30.975  30.048  1.00  0.00     0.049 A 
ATOM     50  C   UNL A   1      45.617  29.255  27.254  1.00  0.00     0.074 A 
ATOM     51  C   UNL A   1      41.140  32.227  30.633  1.00  0.00     0.029 A 
ATOM     52  N   UNL A   1      42.297  30.756  29.433  1.00  0.00    -0.354 N 
ATOM     53  N   UNL A   1      44.658  29.768  27.988  1.00  0.00    -0.248 NA
ATOM     54  C   UNL A   1      46.768  30.148  27.060  1.00  0.00     0.031 C 
ATOM     55  C   UNL A   1      42.401  32.771  30.361  1.00  0.00     0.029 A 
ATOM     56  C   UNL A   1      43.123  31.853  29.616  1.00  0.00     0.049 A 
ATOM     57  H   UNL A   1      42.542  29.942  28.938  1.00  0.00     0.167 HD
ATOM     58  C   UNL A   1      45.099  31.031  28.363  1.00  0.00     0.074 A 
ATOM     59  C   UNL A   1      46.422  31.196  27.797  1.00  0.00     0.031 C 
ATOM     60  C   UNL A   1      44.459  31.978  29.092  1.00  0.00     0.034 A 
BRANCH  47  61
ATOM     61  C   UNL A   1      38.704  30.449  30.740  1.00  0.00     0.023 A 
ATOM     62  C   UNL A   1      38.537  30.172  32.111  1.00  0.00     0.012 A 
ATOM     63  C   UNL A   1      37.702  31.155  30.048  1.00  0.00     0.148 A 
ATOM     64  C   UNL A   1      37.380  30.570  32.779  1.00  0.00     0.002 A 
ATOM     65  C   UNL A   1      36.565  31.580  30.728  1.00  0.00     0.091 A 
ATOM     66  F   UNL A   1      37.868  31.385  28.738  1.00  0.00    -0.205 F 
ATOM     67  C   UNL A   1      36.399  31.282  32.091  1.00  0.00     0.022 A 
BRANCH  65  68
ATOM     68  S   UNL A   1      35.282  32.559  29.941  1.00  0.00     0.127 S 
ATOM     69  O   UNL A   1      34.368  32.798  31.057  1.00  0.00    -0.237 OA
ATOM     70  O   UNL A   1      36.022  33.742  29.496  1.00  0.00    -0.237 OA
ATOM     71  O   UNL A   1      34.757  31.735  28.862  1.00  0.00    -0.744 OA
ENDBRANCH  65  68
ENDBRANCH  47  61
BRANCH  48  72
ATOM     72  C   UNL A   1      46.902  27.469  25.854  1.00  0.00     0.023 A 
ATOM     73  C   UNL A   1      46.986  27.754  24.478  1.00  0.00     0.012 A 
ATOM     74  C   UNL A   1      47.980  26.822  26.489  1.00  0.00     0.148 A 
ATOM     75  C   UNL A   1      48.114  27.384  23.744  1.00  0.00     0.002 A 
ATOM     76  C   UNL A   1      49.123  26.507  25.765  1.00  0.00     0.091 A 
ATOM     77  F   UNL A   1      47.870  26.536  27.796  1.00  0.00    -0.205 F 
ATOM     78  C   UNL A   1      49.188  26.773  24.390  1.00  0.00     0.022 A 
BRANCH  76  79
ATOM     79  S   UNL A   1      50.596  25.845  26.553  1.00  0.00     0.127 S 
ATOM     80  O   UNL A   1      50.098  24.595  27.119  1.00  0.00    -0.237 OA
ATOM     81  O   UNL A   1      51.508  25.688  25.419  1.00  0.00    -0.237 OA
ATOM     82  O   UNL A   1      51.010  26.862  27.513  1.00  0.00    -0.744 OA
ENDBRANCH  76  79
ENDBRANCH  48  72
BRANCH  60  83
ATOM     83  C   UNL A   1      45.184  33.273  29.340  1.00  0.00     0.023 A 
ATOM     84  C   UNL A   1      46.031  33.389  30.459  1.00  0.00     0.012 A 
ATOM     85  C   UNL A   1      45.088  34.343  28.429  1.00  0.00     0.148 A 
ATOM     86  C   UNL A   1      46.754  34.560  30.680  1.00  0.00     0.002 A 
ATOM     87  C   UNL A   1      45.844  35.491  28.633  1.00  0.00     0.091 A 
ATOM     88  F   UNL A   1      44.258  34.221  27.382  1.00  0.00    -0.205 F 
ATOM     89  C   UNL A   1      46.670  35.605  29.762  1.00  0.00     0.022 A 
BRANCH  87  90
ATOM     90  S   UNL A   1      45.862  36.845  27.453  1.00  0.00     0.127 S 
ATOM     91  O   UNL A   1      44.479  37.315  27.515  1.00  0.00    -0.237 OA
ATOM     92  O   UNL A   1      46.844  37.760  28.037  1.00  0.00    -0.237 OA
ATOM     93  O   UNL A   1      46.272  36.258  26.183  1.00  0.00    -0.744 OA
ENDBRANCH  87  90
ENDBRANCH  60  83
ENDBRANCH  34  35
ENDBRANCH  27  29
ENDBRANCH  26  27
ENDBRANCH  25  26
ENDBRANCH   1  25
TORSDOF 19
ENDMDL
MODEL 3
REMARK VINA RESULT:     -11.3      1.590      2.135
REMARK SMILES CCC[C@H](CNC(=O)N1C[C@H]2CCC[N@H+]2C[C@@H]1C)C(=O)OCCOC(=O)c1ccc(-c2c3nc(c(-c4cccc(S(=O)(=O)[O-])c4F)c4ccc([nH]4)c(-c4cccc(S(=O)(=O)[O-])c4F)c4nc(c(-c5cccc(S(=O)(=O)[O-])c5F)c5ccc2[nH]5)C=C4)C=C3)cc1
REMARK SMILES IDX 22 1 21 2 19 3 20 4 4 5 3 6 2 7 1 8 5 9 6 10 7 11 8 13 9 14
REMARK SMILES IDX 10 15 17 16 11 17 16 18 18 19 12 20 15 21 13 22 14 23 23 25
REMARK SMILES IDX 24 26 25 27 26 28 27 29 28 30 89 31 29 32 88 33 30 34 31 35
REMARK SMILES IDX 32 36 82 37 33 38 87 39 81 40 83 41 34 42 86 43 80 44 79 45
REMARK SMILES IDX 35 47 67 48 47 49 66 50 48 51 51 52 65 53 84 54 49 55 50 56
REMARK SMILES IDX 64 58 85 59 52 60 36 61 37 62 45 63 38 64 40 65 46 66 39 67
REMARK SMILES IDX 41 68 42 69 43 70 44 71 68 72 69 73 77 74 70 75 72 76 78 77
REMARK SMILES IDX 71 78 73 79 74 80 75 81 76 82 53 83 54 84 62 85 55 86 57 87
REMARK SMILES IDX 63 88 56 89 58 90 59 91 60 92 61 93
REMARK H PARENT 6 12 15 24 83 46 51 57
REMARK Flexibility Score: inf
ROOT
ATOM      1  C   UNL A   1      31.894  28.092  26.949  1.00  0.00     0.274 C 
ENDROOT
BRANCH   1   2
ATOM      2  O   UNL A   1      31.596  27.089  25.957  1.00  0.00    -0.462 OA
BRANCH   2   3
ATOM      3  C   UNL A   1      32.659  26.396  25.475  1.00  0.00     0.310 C 
ATOM      4  O   UNL A   1      33.610  26.038  26.160  1.00  0.00    -0.252 OA
BRANCH   3   5
ATOM      5  C   UNL A   1      32.558  26.080  23.988  1.00  0.00     0.118 C 
BRANCH   5   6
ATOM      6  C   UNL A   1      32.227  27.334  23.162  1.00  0.00     0.017 C 
BRANCH   6   7
ATOM      7  C   UNL A   1      30.880  27.299  22.416  1.00  0.00    -0.002 C 
ATOM      8  C   UNL A   1      29.753  28.035  23.129  1.00  0.00     0.004 C 
ENDBRANCH   6   7
ENDBRANCH   5   6
BRANCH   5   9
ATOM      9  C   UNL A   1      31.709  24.818  23.705  1.00  0.00     0.133 C 
BRANCH   9  10
ATOM     10  N   UNL A   1      31.217  24.126  24.880  1.00  0.00    -0.337 N 
ATOM     11  C   UNL A   1      31.402  22.856  25.303  1.00  0.00     0.318 C 
ATOM     12  H   UNL A   1      30.651  24.675  25.470  1.00  0.00     0.165 HD
ATOM     13  O   UNL A   1      30.521  22.381  26.022  1.00  0.00    -0.249 OA
BRANCH  11  14
ATOM     14  N   UNL A   1      32.481  22.127  24.886  1.00  0.00    -0.311 N 
ATOM     15  C   UNL A   1      32.226  21.052  23.931  1.00  0.00     0.186 C 
ATOM     16  C   UNL A   1      33.841  22.116  25.497  1.00  0.00     0.139 C 
ATOM     17  C   UNL A   1      32.573  19.679  24.526  1.00  0.00     0.204 C 
ATOM     18  C   UNL A   1      34.659  20.847  25.077  1.00  0.00     0.287 C 
ATOM     19  C   UNL A   1      33.811  22.211  27.027  1.00  0.00     0.037 C 
ATOM     20  C   UNL A   1      32.564  18.577  23.471  1.00  0.00     0.073 C 
ATOM     21  N   UNL A   1      33.897  19.591  25.191  1.00  0.00    -0.329 N 
ATOM     22  C   UNL A   1      33.539  17.562  24.030  1.00  0.00     0.068 C 
ATOM     23  C   UNL A   1      34.620  18.442  24.632  1.00  0.00     0.262 C 
ATOM     24  H   UNL A   1      33.767  19.448  26.193  1.00  0.00     0.348 HD
ENDBRANCH  11  14
ENDBRANCH   9  10
ENDBRANCH   5   9
ENDBRANCH   3   5
ENDBRANCH   2   3
ENDBRANCH   1   2
BRANCH   1  25
ATOM     25  C   UNL A   1      31.690  29.515  26.411  1.00  0.00     0.275 C 
BRANCH  25  26
ATOM     26  O   UNL A   1      32.931  30.161  26.065  1.00  0.00    -0.458 OA
BRANCH  26  27
ATOM     27  C   UNL A   1      33.288  31.196  26.862  1.00  0.00     0.338 C 
ATOM     28  O   UNL A   1      32.604  32.164  27.155  1.00  0.00    -0.246 OA
BRANCH  27  29
ATOM     29  C   UNL A   1      34.597  30.944  27.489  1.00  0.00     0.060 A 
ATOM     30  C   UNL A   1      34.907  29.623  27.817  1.00  0.00     0.016 A 
ATOM     31  C   UNL A   1      35.457  31.979  27.852  1.00  0.00     0.016 A 
ATOM     32  C   UNL A   1      36.065  29.321  28.521  1.00  0.00     0.010 A 
ATOM     33  C   UNL A   1      36.631  31.675  28.553  1.00  0.00     0.010 A 
ATOM     34  C   UNL A   1      36.933  30.346  28.905  1.00  0.00    -0.014 A 
BRANCH  34  35
ATOM     35  C   UNL A   1      38.133  30.011  29.706  1.00  0.00     0.031 A 
ATOM     36  C   UNL A   1      39.178  29.091  29.144  1.00  0.00     0.074 A 
ATOM     37  C   UNL A   1      38.291  30.552  30.929  1.00  0.00     0.049 A 
ATOM     38  N   UNL A   1      40.263  28.632  29.711  1.00  0.00    -0.248 NA
ATOM     39  C   UNL A   1      38.978  28.625  27.762  1.00  0.00     0.031 C 
ATOM     40  C   UNL A   1      37.355  31.478  31.568  1.00  0.00     0.029 A 
ATOM     41  N   UNL A   1      39.288  30.390  31.858  1.00  0.00    -0.354 N 
ATOM     42  C   UNL A   1      40.849  27.785  28.779  1.00  0.00     0.074 A 
ATOM     43  C   UNL A   1      40.005  27.802  27.603  1.00  0.00     0.031 C 
ATOM     44  C   UNL A   1      37.811  31.786  32.792  1.00  0.00     0.029 A 
ATOM     45  C   UNL A   1      39.047  31.051  33.039  1.00  0.00     0.049 A 
ATOM     46  H   UNL A   1      40.096  29.852  31.695  1.00  0.00     0.167 HD
ATOM     47  C   UNL A   1      41.993  27.070  28.890  1.00  0.00     0.034 A 
ATOM     48  C   UNL A   1      39.731  31.041  34.199  1.00  0.00     0.034 A 
ATOM     49  C   UNL A   1      42.852  27.094  30.043  1.00  0.00     0.049 A 
ATOM     50  C   UNL A   1      40.996  30.233  34.296  1.00  0.00     0.074 A 
ATOM     51  C   UNL A   1      44.055  26.437  30.232  1.00  0.00     0.029 A 
ATOM     52  N   UNL A   1      42.600  27.810  31.203  1.00  0.00    -0.354 N 
ATOM     53  N   UNL A   1      41.585  29.512  33.373  1.00  0.00    -0.248 NA
ATOM     54  C   UNL A   1      41.703  30.255  35.584  1.00  0.00     0.031 C 
ATOM     55  C   UNL A   1      44.527  26.749  31.513  1.00  0.00     0.029 A 
ATOM     56  C   UNL A   1      43.621  27.607  32.116  1.00  0.00     0.049 A 
ATOM     57  H   UNL A   1      41.812  28.379  31.355  1.00  0.00     0.167 HD
ATOM     58  C   UNL A   1      42.742  29.014  33.960  1.00  0.00     0.074 A 
ATOM     59  C   UNL A   1      42.784  29.537  35.310  1.00  0.00     0.031 C 
ATOM     60  C   UNL A   1      43.675  28.180  33.436  1.00  0.00     0.034 A 
BRANCH  47  61
ATOM     61  C   UNL A   1      42.397  26.213  27.721  1.00  0.00     0.023 A 
ATOM     62  C   UNL A   1      43.261  26.739  26.739  1.00  0.00     0.012 A 
ATOM     63  C   UNL A   1      41.973  24.875  27.627  1.00  0.00     0.148 A 
ATOM     64  C   UNL A   1      43.676  25.951  25.666  1.00  0.00     0.002 A 
ATOM     65  C   UNL A   1      42.419  24.084  26.573  1.00  0.00     0.091 A 
ATOM     66  F   UNL A   1      41.131  24.402  28.556  1.00  0.00    -0.205 F 
ATOM     67  C   UNL A   1      43.265  24.622  25.588  1.00  0.00     0.022 A 
BRANCH  65  68
ATOM     68  S   UNL A   1      41.995  22.345  26.427  1.00  0.00     0.127 S 
ATOM     69  O   UNL A   1      42.334  21.847  27.760  1.00  0.00    -0.237 OA
ATOM     70  O   UNL A   1      40.560  22.397  26.144  1.00  0.00    -0.237 OA
ATOM     71  O   UNL A   1      42.808  21.827  25.336  1.00  0.00    -0.744 OA
ENDBRANCH  65  68
ENDBRANCH  47  61
BRANCH  48  72
ATOM     72  C   UNL A   1      39.239  31.845  35.354  1.00  0.00     0.023 A 
ATOM     73  C   UNL A   1      38.377  31.251  36.296  1.00  0.00     0.012 A 
ATOM     74  C   UNL A   1      39.653  33.177  35.546  1.00  0.00     0.148 A 
ATOM     75  C   UNL A   1      37.919  31.978  37.396  1.00  0.00     0.002 A 
ATOM     76  C   UNL A   1      39.239  33.877  36.673  1.00  0.00     0.091 A 
ATOM     77  F   UNL A   1      40.454  33.734  34.625  1.00  0.00    -0.205 F 
ATOM     78  C   UNL A   1      38.361  33.285  37.592  1.00  0.00     0.022 A 
BRANCH  76  79
ATOM     79  S   UNL A   1      39.872  35.512  37.064  1.00  0.00     0.127 S 
ATOM     80  O   UNL A   1      39.074  35.871  38.233  1.00  0.00    -0.237 OA
ATOM     81  O   UNL A   1      41.283  35.238  37.342  1.00  0.00    -0.237 OA
ATOM     82  O   UNL A   1      39.646  36.310  35.865  1.00  0.00    -0.744 OA
ENDBRANCH  76  79
ENDBRANCH  48  72
BRANCH  60  83
ATOM     83  C   UNL A   1      44.835  27.795  34.314  1.00  0.00     0.023 A 
ATOM     84  C   UNL A   1      45.988  28.604  34.334  1.00  0.00     0.012 A 
ATOM     85  C   UNL A   1      44.754  26.682  35.174  1.00  0.00     0.148 A 
ATOM     86  C   UNL A   1      47.053  28.297  35.179  1.00  0.00     0.002 A 
ATOM     87  C   UNL A   1      45.802  26.407  36.044  1.00  0.00     0.091 A 
ATOM     88  F   UNL A   1      43.657  25.912  35.124  1.00  0.00    -0.205 F 
ATOM     89  C   UNL A   1      46.956  27.206  36.041  1.00  0.00     0.022 A 
BRANCH  87  90
ATOM     90  S   UNL A   1      45.719  25.076  37.248  1.00  0.00     0.127 S 
ATOM     91  O   UNL A   1      44.406  25.299  37.850  1.00  0.00    -0.237 OA
ATOM     92  O   UNL A   1      45.810  23.883  36.406  1.00  0.00    -0.237 OA
ATOM     93  O   UNL A   1      46.860  25.273  38.134  1.00  0.00    -0.744 OA
ENDBRANCH  87  90
ENDBRANCH  60  83
ENDBRANCH  34  35
ENDBRANCH  27  29
ENDBRANCH  26  27
ENDBRANCH  25  26
ENDBRANCH   1  25
TORSDOF 19
ENDMDL
