MODEL 1
REMARK VINA RESULT:     -12.1      0.000      0.000
REMARK SMILES O=CN1CC[NH+](C[C@@H](CC(=O)Nc2ccc(C(F)(F)F)nc2)C(=O)OCCOC(=O)c2ccc(-c3c4nc(c(-c5cccc(S(=O)(=O)[O-])c5F)c5ccc([nH]5)c(-c5cccc(S(=O)(=O)[O-])c5F)c5nc(c(-c6cccc(S(=O)(=O)[O-])c6F)c6ccc3[nH]6)C=C5)C=C4)cc2)CC1
REMARK SMILES IDX 26 1 25 2 23 3 24 4 8 5 7 6 6 7 1 8 2 9 3 10 4 11 95 12 5 13
REMARK SMILES IDX 94 14 9 16 10 17 11 18 12 19 13 21 14 22 22 23 15 24 21 25
REMARK SMILES IDX 16 26 17 27 18 28 19 29 20 30 27 31 28 32 29 33 30 34 31 35
REMARK SMILES IDX 32 36 93 37 33 38 92 39 34 40 35 41 36 42 86 43 37 44 91 45
REMARK SMILES IDX 85 46 87 47 38 48 90 49 84 50 83 51 39 53 71 54 51 55 70 56
REMARK SMILES IDX 52 57 55 58 69 59 88 60 53 61 54 62 68 64 89 65 56 66 40 67
REMARK SMILES IDX 41 68 49 69 42 70 44 71 50 72 43 73 45 74 46 75 47 76 48 77
REMARK SMILES IDX 72 78 73 79 81 80 74 81 76 82 82 83 75 84 77 85 78 86 79 87
REMARK SMILES IDX 80 88 57 89 58 90 66 91 59 92 61 93 67 94 60 95 62 96 63 97
REMARK SMILES IDX 64 98 65 99
REMARK H PARENT 6 15 12 20 87 52 55 63
REMARK Flexibility Score: inf
ROOT
ATOM      1  C   UNL A   1      36.130  20.864  24.675  1.00  0.00     0.274 C 
ENDROOT
BRANCH   1   2
ATOM      2  O   UNL A   1      35.692  21.982  25.480  1.00  0.00    -0.462 OA
BRANCH   2   3
ATOM      3  C   UNL A   1      35.180  23.042  24.801  1.00  0.00     0.315 C 
ATOM      4  O   UNL A   1      35.335  23.239  23.601  1.00  0.00    -0.252 OA
BRANCH   3   5
ATOM      5  C   UNL A   1      34.364  23.988  25.678  1.00  0.00     0.163 C 
BRANCH   5   6
ATOM      6  C   UNL A   1      33.619  25.004  24.797  1.00  0.00     0.278 C 
BRANCH   6   7
ATOM      7  N   UNL A   1      32.977  24.709  23.501  1.00  0.00    -0.331 N 
ATOM      8  O   UNL A   1      30.407  28.876  21.998  1.00  0.00    -0.279 OA
ATOM      9  C   UNL A   1      30.143  27.801  22.513  1.00  0.00     0.340 C 
ATOM     10  N   UNL A   1      31.043  26.800  22.809  1.00  0.00    -0.334 N 
ATOM     11  C   UNL A   1      30.629  25.656  23.605  1.00  0.00     0.180 C 
ATOM     12  C   UNL A   1      32.477  27.034  22.619  1.00  0.00     0.180 C 
ATOM     13  C   UNL A   1      31.541  24.438  23.419  1.00  0.00     0.284 C 
ATOM     14  C   UNL A   1      33.294  25.733  22.470  1.00  0.00     0.284 C 
ATOM     15  H   UNL A   1      33.407  23.799  23.333  1.00  0.00     0.348 HD
ENDBRANCH   6   7
ENDBRANCH   5   6
BRANCH   5  16
ATOM     16  C   UNL A   1      33.630  23.227  26.787  1.00  0.00     0.121 C 
BRANCH  16  17
ATOM     17  C   UNL A   1      32.128  23.024  26.714  1.00  0.00     0.225 C 
ATOM     18  O   UNL A   1      31.373  23.758  27.361  1.00  0.00    -0.275 OA
ATOM     19  N   UNL A   1      31.554  22.098  25.889  1.00  0.00    -0.325 N 
ATOM     20  H   UNL A   1      30.618  22.263  25.631  1.00  0.00     0.169 HD
BRANCH  19  21
ATOM     21  C   UNL A   1      32.146  20.945  25.371  1.00  0.00     0.059 A 
ATOM     22  C   UNL A   1      32.175  20.767  23.994  1.00  0.00     0.030 A 
ATOM     23  C   UNL A   1      32.798  20.014  26.166  1.00  0.00     0.137 A 
ATOM     24  C   UNL A   1      32.710  19.592  23.469  1.00  0.00     0.035 A 
ATOM     25  N   UNL A   1      33.371  18.884  25.683  1.00  0.00    -0.250 NA
ATOM     26  C   UNL A   1      33.270  18.650  24.337  1.00  0.00     0.144 A 
BRANCH  26  27
ATOM     27  C   UNL A   1      33.779  17.338  23.748  1.00  0.00     0.433 C 
ATOM     28  F   UNL A   1      34.986  16.971  24.274  1.00  0.00    -0.165 F 
ATOM     29  F   UNL A   1      32.949  16.274  23.947  1.00  0.00    -0.165 F 
ATOM     30  F   UNL A   1      33.978  17.402  22.398  1.00  0.00    -0.165 F 
ENDBRANCH  26  27
ENDBRANCH  19  21
ENDBRANCH  16  17
ENDBRANCH   5  16
ENDBRANCH   3   5
ENDBRANCH   2   3
ENDBRANCH   1   2
BRANCH   1  31
ATOM     31  C   UNL A   1      37.582  20.476  24.954  1.00  0.00     0.275 C 
BRANCH  31  32
ATOM     32  O   UNL A   1      38.378  21.615  25.321  1.00  0.00    -0.458 OA
BRANCH  32  33
ATOM     33  C   UNL A   1      39.403  21.340  26.149  1.00  0.00     0.338 C 
ATOM     34  O   UNL A   1      39.961  20.254  26.301  1.00  0.00    -0.246 OA
BRANCH  33  35
ATOM     35  C   UNL A   1      39.881  22.563  26.797  1.00  0.00     0.060 A 
ATOM     36  C   UNL A   1      39.361  23.775  26.351  1.00  0.00     0.016 A 
ATOM     37  C   UNL A   1      40.922  22.540  27.724  1.00  0.00     0.016 A 
ATOM     38  C   UNL A   1      39.955  24.972  26.719  1.00  0.00     0.010 A 
ATOM     39  C   UNL A   1      41.458  23.753  28.170  1.00  0.00     0.010 A 
ATOM     40  C   UNL A   1      41.007  24.976  27.640  1.00  0.00    -0.014 A 
BRANCH  40  41
ATOM     41  C   UNL A   1      41.623  26.266  28.035  1.00  0.00     0.031 A 
ATOM     42  C   UNL A   1      40.815  27.297  28.771  1.00  0.00     0.074 A 
ATOM     43  C   UNL A   1      42.914  26.504  27.730  1.00  0.00     0.049 A 
ATOM     44  N   UNL A   1      41.143  28.517  29.103  1.00  0.00    -0.248 NA
ATOM     45  C   UNL A   1      39.454  26.910  29.180  1.00  0.00     0.031 C 
ATOM     46  C   UNL A   1      43.801  25.573  27.029  1.00  0.00     0.029 A 
ATOM     47  N   UNL A   1      43.700  27.605  27.958  1.00  0.00    -0.354 N 
ATOM     48  C   UNL A   1      40.016  29.065  29.702  1.00  0.00     0.074 A 
ATOM     49  C   UNL A   1      38.993  28.042  29.693  1.00  0.00     0.031 C 
ATOM     50  C   UNL A   1      45.006  26.142  26.881  1.00  0.00     0.029 A 
ATOM     51  C   UNL A   1      44.959  27.496  27.417  1.00  0.00     0.049 A 
ATOM     52  H   UNL A   1      43.393  28.395  28.459  1.00  0.00     0.167 HD
ATOM     53  C   UNL A   1      39.853  30.305  30.222  1.00  0.00     0.034 A 
ATOM     54  C   UNL A   1      45.954  28.398  27.325  1.00  0.00     0.034 A 
ATOM     55  C   UNL A   1      40.895  31.297  30.278  1.00  0.00     0.049 A 
ATOM     56  C   UNL A   1      45.751  29.763  27.919  1.00  0.00     0.074 A 
ATOM     57  C   UNL A   1      40.845  32.565  30.828  1.00  0.00     0.029 A 
ATOM     58  N   UNL A   1      42.174  31.129  29.770  1.00  0.00    -0.354 N 
ATOM     59  N   UNL A   1      44.704  30.239  28.549  1.00  0.00    -0.248 NA
ATOM     60  C   UNL A   1      46.870  30.707  27.810  1.00  0.00     0.031 C 
ATOM     61  C   UNL A   1      42.093  33.172  30.638  1.00  0.00     0.029 A 
ATOM     62  C   UNL A   1      42.923  32.274  29.984  1.00  0.00     0.049 A 
ATOM     63  H   UNL A   1      42.502  30.316  29.323  1.00  0.00     0.167 HD
ATOM     64  C   UNL A   1      45.044  31.530  28.932  1.00  0.00     0.074 A 
ATOM     65  C   UNL A   1      46.405  31.752  28.483  1.00  0.00     0.031 C 
ATOM     66  C   UNL A   1      44.292  32.457  29.574  1.00  0.00     0.034 A 
BRANCH  53  67
ATOM     67  C   UNL A   1      38.503  30.651  30.792  1.00  0.00     0.023 A 
ATOM     68  C   UNL A   1      38.197  30.310  32.124  1.00  0.00     0.012 A 
ATOM     69  C   UNL A   1      37.553  31.350  30.022  1.00  0.00     0.148 A 
ATOM     70  C   UNL A   1      36.955  30.630  32.671  1.00  0.00     0.002 A 
ATOM     71  C   UNL A   1      36.331  31.700  30.587  1.00  0.00     0.091 A 
ATOM     72  F   UNL A   1      37.849  31.643  28.748  1.00  0.00    -0.205 F 
ATOM     73  C   UNL A   1      36.027  31.333  31.907  1.00  0.00     0.022 A 
BRANCH  71  74
ATOM     74  S   UNL A   1      35.102  32.665  29.699  1.00  0.00     0.127 S 
ATOM     75  O   UNL A   1      34.190  33.043  30.777  1.00  0.00    -0.237 OA
ATOM     76  O   UNL A   1      35.900  33.768  29.162  1.00  0.00    -0.237 OA
ATOM     77  O   UNL A   1      34.550  31.773  28.690  1.00  0.00    -0.744 OA
ENDBRANCH  71  74
ENDBRANCH  53  67
BRANCH  54  78
ATOM     78  C   UNL A   1      47.229  28.021  26.653  1.00  0.00     0.023 A 
ATOM     79  C   UNL A   1      48.332  27.620  27.430  1.00  0.00     0.012 A 
ATOM     80  C   UNL A   1      47.333  27.998  25.248  1.00  0.00     0.148 A 
ATOM     81  C   UNL A   1      49.522  27.222  26.819  1.00  0.00     0.002 A 
ATOM     82  C   UNL A   1      48.501  27.544  24.646  1.00  0.00     0.091 A 
ATOM     83  F   UNL A   1      46.277  28.401  24.524  1.00  0.00    -0.205 F 
ATOM     84  C   UNL A   1      49.602  27.169  25.430  1.00  0.00     0.022 A 
BRANCH  82  85
ATOM     85  S   UNL A   1      48.632  27.309  22.869  1.00  0.00     0.127 S 
ATOM     86  O   UNL A   1      50.029  27.657  22.624  1.00  0.00    -0.237 OA
ATOM     87  O   UNL A   1      48.317  25.887  22.724  1.00  0.00    -0.237 OA
ATOM     88  O   UNL A   1      47.642  28.203  22.283  1.00  0.00    -0.744 OA
ENDBRANCH  82  85
ENDBRANCH  54  78
BRANCH  66  89
ATOM     89  C   UNL A   1      44.928  33.793  29.849  1.00  0.00     0.023 A 
ATOM     90  C   UNL A   1      45.701  33.967  31.015  1.00  0.00     0.012 A 
ATOM     91  C   UNL A   1      44.819  34.849  28.925  1.00  0.00     0.148 A 
ATOM     92  C   UNL A   1      46.335  35.183  31.268  1.00  0.00     0.002 A 
ATOM     93  C   UNL A   1      45.490  36.044  29.162  1.00  0.00     0.091 A 
ATOM     94  F   UNL A   1      44.060  34.671  27.833  1.00  0.00    -0.205 F 
ATOM     95  C   UNL A   1      46.240  36.215  30.338  1.00  0.00     0.022 A 
BRANCH  93  96
ATOM     96  S   UNL A   1      45.498  37.391  27.975  1.00  0.00     0.127 S 
ATOM     97  O   UNL A   1      44.079  37.736  27.907  1.00  0.00    -0.237 OA
ATOM     98  O   UNL A   1      46.336  38.389  28.640  1.00  0.00    -0.237 OA
ATOM     99  O   UNL A   1      46.071  36.842  26.754  1.00  0.00    -0.744 OA
ENDBRANCH  93  96
ENDBRANCH  66  89
ENDBRANCH  40  41
ENDBRANCH  33  35
ENDBRANCH  32  33
ENDBRANCH  31  32
ENDBRANCH   1  31
TORSDOF 20
ENDMDL
MODEL 2
REMARK VINA RESULT:     -12.0      5.451     10.454
REMARK SMILES O=CN1CC[NH+](C[C@@H](CC(=O)Nc2ccc(C(F)(F)F)nc2)C(=O)OCCOC(=O)c2ccc(-c3c4nc(c(-c5cccc(S(=O)(=O)[O-])c5F)c5ccc([nH]5)c(-c5cccc(S(=O)(=O)[O-])c5F)c5nc(c(-c6cccc(S(=O)(=O)[O-])c6F)c6ccc3[nH]6)C=C5)C=C4)cc2)CC1
REMARK SMILES IDX 26 1 25 2 23 3 24 4 8 5 7 6 6 7 1 8 2 9 3 10 4 11 95 12 5 13
REMARK SMILES IDX 94 14 9 16 10 17 11 18 12 19 13 21 14 22 22 23 15 24 21 25
REMARK SMILES IDX 16 26 17 27 18 28 19 29 20 30 27 31 28 32 29 33 30 34 31 35
REMARK SMILES IDX 32 36 93 37 33 38 92 39 34 40 35 41 36 42 86 43 37 44 91 45
REMARK SMILES IDX 85 46 87 47 38 48 90 49 84 50 83 51 39 53 71 54 51 55 70 56
REMARK SMILES IDX 52 57 55 58 69 59 88 60 53 61 54 62 68 64 89 65 56 66 40 67
REMARK SMILES IDX 41 68 49 69 42 70 44 71 50 72 43 73 45 74 46 75 47 76 48 77
REMARK SMILES IDX 72 78 73 79 81 80 74 81 76 82 82 83 75 84 77 85 78 86 79 87
REMARK SMILES IDX 80 88 57 89 58 90 66 91 59 92 61 93 67 94 60 95 62 96 63 97
REMARK SMILES IDX 64 98 65 99
REMARK H PARENT 6 15 12 20 87 52 55 63
REMARK Flexibility Score: inf
ROOT
ATOM      1  C   UNL A   1      31.529  28.690  26.222  1.00  0.00     0.274 C 
ENDROOT
BRANCH   1   2
ATOM      2  O   UNL A   1      32.464  27.653  26.597  1.00  0.00    -0.462 OA
BRANCH   2   3
ATOM      3  C   UNL A   1      32.181  26.403  26.146  1.00  0.00     0.315 C 
ATOM      4  O   UNL A   1      31.159  25.783  26.413  1.00  0.00    -0.252 OA
BRANCH   3   5
ATOM      5  C   UNL A   1      33.268  25.823  25.244  1.00  0.00     0.163 C 
BRANCH   5   6
ATOM      6  C   UNL A   1      33.042  24.313  25.061  1.00  0.00     0.278 C 
BRANCH   6   7
ATOM      7  N   UNL A   1      31.846  23.691  24.460  1.00  0.00    -0.331 N 
ATOM      8  O   UNL A   1      32.169  18.624  25.129  1.00  0.00    -0.279 OA
ATOM      9  C   UNL A   1      32.361  19.419  24.222  1.00  0.00     0.340 C 
ATOM     10  N   UNL A   1      32.175  20.783  24.288  1.00  0.00    -0.334 N 
ATOM     11  C   UNL A   1      32.634  21.636  23.203  1.00  0.00     0.180 C 
ATOM     12  C   UNL A   1      31.829  21.408  25.567  1.00  0.00     0.180 C 
ATOM     13  C   UNL A   1      31.928  22.996  23.174  1.00  0.00     0.284 C 
ATOM     14  C   UNL A   1      31.148  22.784  25.410  1.00  0.00     0.284 C 
ATOM     15  H   UNL A   1      31.335  24.546  24.244  1.00  0.00     0.348 HD
ENDBRANCH   6   7
ENDBRANCH   5   6
BRANCH   5  16
ATOM     16  C   UNL A   1      33.534  26.728  24.037  1.00  0.00     0.121 C 
BRANCH  16  17
ATOM     17  C   UNL A   1      33.205  26.252  22.634  1.00  0.00     0.225 C 
ATOM     18  O   UNL A   1      34.034  25.596  21.994  1.00  0.00    -0.275 OA
ATOM     19  N   UNL A   1      31.980  26.451  22.062  1.00  0.00    -0.325 N 
ATOM     20  H   UNL A   1      31.729  25.831  21.340  1.00  0.00     0.169 HD
BRANCH  19  21
ATOM     21  C   UNL A   1      31.046  27.435  22.387  1.00  0.00     0.059 A 
ATOM     22  C   UNL A   1      29.936  27.083  23.144  1.00  0.00     0.030 A 
ATOM     23  C   UNL A   1      31.226  28.775  22.073  1.00  0.00     0.137 A 
ATOM     24  C   UNL A   1      28.968  28.045  23.424  1.00  0.00     0.035 A 
ATOM     25  N   UNL A   1      30.326  29.744  22.372  1.00  0.00    -0.250 NA
ATOM     26  C   UNL A   1      29.168  29.360  22.996  1.00  0.00     0.144 A 
BRANCH  26  27
ATOM     27  C   UNL A   1      28.060  30.378  23.244  1.00  0.00     0.433 C 
ATOM     28  F   UNL A   1      28.404  31.291  24.201  1.00  0.00    -0.165 F 
ATOM     29  F   UNL A   1      27.709  31.106  22.146  1.00  0.00    -0.165 F 
ATOM     30  F   UNL A   1      26.902  29.807  23.692  1.00  0.00    -0.165 F 
ENDBRANCH  26  27
ENDBRANCH  19  21
ENDBRANCH  16  17
ENDBRANCH   5  16
ENDBRANCH   3   5
ENDBRANCH   2   3
ENDBRANCH   1   2
BRANCH   1  31
ATOM     31  C   UNL A   1      31.770  29.997  26.978  1.00  0.00     0.275 C 
BRANCH  31  32
ATOM     32  O   UNL A   1      32.796  30.790  26.358  1.00  0.00    -0.458 OA
BRANCH  32  33
ATOM     33  C   UNL A   1      33.278  31.784  27.128  1.00  0.00     0.338 C 
ATOM     34  O   UNL A   1      32.695  32.815  27.458  1.00  0.00    -0.246 OA
BRANCH  33  35
ATOM     35  C   UNL A   1      34.599  31.430  27.653  1.00  0.00     0.060 A 
ATOM     36  C   UNL A   1      34.847  30.086  27.925  1.00  0.00     0.016 A 
ATOM     37  C   UNL A   1      35.530  32.404  28.007  1.00  0.00     0.016 A 
ATOM     38  C   UNL A   1      35.956  29.713  28.667  1.00  0.00     0.010 A 
ATOM     39  C   UNL A   1      36.698  32.016  28.671  1.00  0.00     0.010 A 
ATOM     40  C   UNL A   1      36.900  30.674  29.044  1.00  0.00    -0.014 A 
BRANCH  40  41
ATOM     41  C   UNL A   1      38.090  30.257  29.825  1.00  0.00     0.031 A 
ATOM     42  C   UNL A   1      39.114  29.343  29.215  1.00  0.00     0.074 A 
ATOM     43  C   UNL A   1      38.245  30.707  31.086  1.00  0.00     0.049 A 
ATOM     44  N   UNL A   1      40.157  28.786  29.772  1.00  0.00    -0.248 NA
ATOM     45  C   UNL A   1      38.940  29.000  27.793  1.00  0.00     0.031 C 
ATOM     46  C   UNL A   1      37.322  31.608  31.780  1.00  0.00     0.029 A 
ATOM     47  N   UNL A   1      39.225  30.458  32.012  1.00  0.00    -0.354 N 
ATOM     48  C   UNL A   1      40.727  27.981  28.794  1.00  0.00     0.074 A 
ATOM     49  C   UNL A   1      39.918  28.125  27.603  1.00  0.00     0.031 C 
ATOM     50  C   UNL A   1      37.777  31.834  33.020  1.00  0.00     0.029 A 
ATOM     51  C   UNL A   1      38.984  31.045  33.231  1.00  0.00     0.049 A 
ATOM     52  H   UNL A   1      40.022  29.911  31.823  1.00  0.00     0.167 HD
ATOM     53  C   UNL A   1      41.832  27.203  28.878  1.00  0.00     0.034 A 
ATOM     54  C   UNL A   1      39.638  30.933  34.403  1.00  0.00     0.034 A 
ATOM     55  C   UNL A   1      42.664  27.111  30.049  1.00  0.00     0.049 A 
ATOM     56  C   UNL A   1      40.866  30.070  34.466  1.00  0.00     0.074 A 
ATOM     57  C   UNL A   1      43.832  26.388  30.220  1.00  0.00     0.029 A 
ATOM     58  N   UNL A   1      42.419  27.766  31.246  1.00  0.00    -0.354 N 
ATOM     59  N   UNL A   1      41.435  29.376  33.510  1.00  0.00    -0.248 NA
ATOM     60  C   UNL A   1      41.556  29.992  35.760  1.00  0.00     0.031 C 
ATOM     61  C   UNL A   1      44.284  26.594  31.528  1.00  0.00     0.029 A 
ATOM     62  C   UNL A   1      43.407  27.458  32.166  1.00  0.00     0.049 A 
ATOM     63  H   UNL A   1      41.654  28.361  31.418  1.00  0.00     0.167 HD
ATOM     64  C   UNL A   1      42.561  28.795  34.078  1.00  0.00     0.074 A 
ATOM     65  C   UNL A   1      42.607  29.240  35.457  1.00  0.00     0.031 C 
ATOM     66  C   UNL A   1      43.462  27.951  33.519  1.00  0.00     0.034 A 
BRANCH  53  67
ATOM     67  C   UNL A   1      42.217  26.404  27.661  1.00  0.00     0.023 A 
ATOM     68  C   UNL A   1      42.945  27.017  26.622  1.00  0.00     0.012 A 
ATOM     69  C   UNL A   1      41.895  25.036  27.565  1.00  0.00     0.148 A 
ATOM     70  C   UNL A   1      43.317  26.291  25.491  1.00  0.00     0.002 A 
ATOM     71  C   UNL A   1      42.304  24.308  26.452  1.00  0.00     0.091 A 
ATOM     72  F   UNL A   1      41.179  24.474  28.549  1.00  0.00    -0.205 F 
ATOM     73  C   UNL A   1      43.005  24.935  25.411  1.00  0.00     0.022 A 
BRANCH  71  74
ATOM     74  S   UNL A   1      42.007  22.543  26.295  1.00  0.00     0.127 S 
ATOM     75  O   UNL A   1      42.627  22.254  25.003  1.00  0.00    -0.237 OA
ATOM     76  O   UNL A   1      42.725  22.001  27.449  1.00  0.00    -0.237 OA
ATOM     77  O   UNL A   1      40.561  22.377  26.352  1.00  0.00    -0.744 OA
ENDBRANCH  71  74
ENDBRANCH  53  67
BRANCH  54  78
ATOM     78  C   UNL A   1      39.140  31.670  35.597  1.00  0.00     0.023 A 
ATOM     79  C   UNL A   1      38.182  31.068  36.435  1.00  0.00     0.012 A 
ATOM     80  C   UNL A   1      39.656  32.936  35.940  1.00  0.00     0.148 A 
ATOM     81  C   UNL A   1      37.733  31.724  37.582  1.00  0.00     0.002 A 
ATOM     82  C   UNL A   1      39.248  33.556  37.115  1.00  0.00     0.091 A 
ATOM     83  F   UNL A   1      40.554  33.501  35.120  1.00  0.00    -0.205 F 
ATOM     84  C   UNL A   1      38.275  32.959  37.931  1.00  0.00     0.022 A 
BRANCH  82  85
ATOM     85  S   UNL A   1      40.003  35.075  37.707  1.00  0.00     0.127 S 
ATOM     86  O   UNL A   1      39.628  36.023  36.661  1.00  0.00    -0.237 OA
ATOM     87  O   UNL A   1      39.326  35.275  38.989  1.00  0.00    -0.237 OA
ATOM     88  O   UNL A   1      41.426  34.785  37.822  1.00  0.00    -0.744 OA
ENDBRANCH  82  85
ENDBRANCH  54  78
BRANCH  66  89
ATOM     89  C   UNL A   1      44.588  27.465  34.391  1.00  0.00     0.023 A 
ATOM     90  C   UNL A   1      45.791  28.199  34.445  1.00  0.00     0.012 A 
ATOM     91  C   UNL A   1      44.433  26.327  35.206  1.00  0.00     0.148 A 
ATOM     92  C   UNL A   1      46.831  27.792  35.279  1.00  0.00     0.002 A 
ATOM     93  C   UNL A   1      45.457  25.953  36.068  1.00  0.00     0.091 A 
ATOM     94  F   UNL A   1      43.290  25.631  35.123  1.00  0.00    -0.205 F 
ATOM     95  C   UNL A   1      46.660  26.678  36.097  1.00  0.00     0.022 A 
BRANCH  93  96
ATOM     96  S   UNL A   1      45.287  24.588  37.223  1.00  0.00     0.127 S 
ATOM     97  O   UNL A   1      45.085  23.457  36.319  1.00  0.00    -0.237 OA
ATOM     98  O   UNL A   1      46.579  24.596  37.910  1.00  0.00    -0.237 OA
ATOM     99  O   UNL A   1      44.153  24.924  38.072  1.00  0.00    -0.744 OA
ENDBRANCH  93  96
ENDBRANCH  66  89
ENDBRANCH  40  41
ENDBRANCH  33  35
ENDBRANCH  32  33
ENDBRANCH  31  32
ENDBRANCH   1  31
TORSDOF 20
ENDMDL
MODEL 3
REMARK VINA RESULT:     -11.7      0.717      7.274
REMARK SMILES O=CN1CC[NH+](C[C@@H](CC(=O)Nc2ccc(C(F)(F)F)nc2)C(=O)OCCOC(=O)c2ccc(-c3c4nc(c(-c5cccc(S(=O)(=O)[O-])c5F)c5ccc([nH]5)c(-c5cccc(S(=O)(=O)[O-])c5F)c5nc(c(-c6cccc(S(=O)(=O)[O-])c6F)c6ccc3[nH]6)C=C5)C=C4)cc2)CC1
REMARK SMILES IDX 26 1 25 2 23 3 24 4 8 5 7 6 6 7 1 8 2 9 3 10 4 11 95 12 5 13
REMARK SMILES IDX 94 14 9 16 10 17 11 18 12 19 13 21 14 22 22 23 15 24 21 25
REMARK SMILES IDX 16 26 17 27 18 28 19 29 20 30 27 31 28 32 29 33 30 34 31 35
REMARK SMILES IDX 32 36 93 37 33 38 92 39 34 40 35 41 36 42 86 43 37 44 91 45
REMARK SMILES IDX 85 46 87 47 38 48 90 49 84 50 83 51 39 53 71 54 51 55 70 56
REMARK SMILES IDX 52 57 55 58 69 59 88 60 53 61 54 62 68 64 89 65 56 66 40 67
REMARK SMILES IDX 41 68 49 69 42 70 44 71 50 72 43 73 45 74 46 75 47 76 48 77
REMARK SMILES IDX 72 78 73 79 81 80 74 81 76 82 82 83 75 84 77 85 78 86 79 87
REMARK SMILES IDX 80 88 57 89 58 90 66 91 59 92 61 93 67 94 60 95 62 96 63 97
REMARK SMILES IDX 64 98 65 99
REMARK H PARENT 6 15 12 20 87 52 55 63
REMARK Flexibility Score: inf
ROOT
ATOM      1  C   UNL A   1      36.182  20.511  24.643  1.00  0.00     0.274 C 
ENDROOT
BRANCH   1   2
ATOM      2  O   UNL A   1      35.512  21.533  25.416  1.00  0.00    -0.462 OA
BRANCH   2   3
ATOM      3  C   UNL A   1      35.100  22.628  24.725  1.00  0.00     0.315 C 
ATOM      4  O   UNL A   1      35.269  22.796  23.523  1.00  0.00    -0.252 OA
BRANCH   3   5
ATOM      5  C   UNL A   1      34.379  23.656  25.593  1.00  0.00     0.163 C 
BRANCH   5   6
ATOM      6  C   UNL A   1      33.705  24.712  24.700  1.00  0.00     0.278 C 
BRANCH   6   7
ATOM      7  N   UNL A   1      32.994  24.439  23.436  1.00  0.00    -0.331 N 
ATOM      8  O   UNL A   1      30.575  28.720  22.003  1.00  0.00    -0.279 OA
ATOM      9  C   UNL A   1      30.279  27.664  22.540  1.00  0.00     0.340 C 
ATOM     10  N   UNL A   1      31.140  26.621  22.807  1.00  0.00    -0.334 N 
ATOM     11  C   UNL A   1      30.703  25.506  23.632  1.00  0.00     0.180 C 
ATOM     12  C   UNL A   1      32.574  26.780  22.553  1.00  0.00     0.180 C 
ATOM     13  C   UNL A   1      31.543  24.242  23.419  1.00  0.00     0.284 C 
ATOM     14  C   UNL A   1      33.316  25.438  22.382  1.00  0.00     0.284 C 
ATOM     15  H   UNL A   1      33.369  23.508  23.260  1.00  0.00     0.348 HD
ENDBRANCH   6   7
ENDBRANCH   5   6
BRANCH   5  16
ATOM     16  C   UNL A   1      33.603  22.983  26.729  1.00  0.00     0.121 C 
BRANCH  16  17
ATOM     17  C   UNL A   1      32.102  22.789  26.625  1.00  0.00     0.225 C 
ATOM     18  O   UNL A   1      31.339  23.531  27.252  1.00  0.00    -0.275 OA
ATOM     19  N   UNL A   1      31.540  21.862  25.793  1.00  0.00    -0.325 N 
ATOM     20  H   UNL A   1      30.611  22.032  25.513  1.00  0.00     0.169 HD
BRANCH  19  21
ATOM     21  C   UNL A   1      32.135  20.702  25.294  1.00  0.00     0.059 A 
ATOM     22  C   UNL A   1      32.245  20.543  23.919  1.00  0.00     0.030 A 
ATOM     23  C   UNL A   1      32.714  19.744  26.113  1.00  0.00     0.137 A 
ATOM     24  C   UNL A   1      32.784  19.364  23.409  1.00  0.00     0.035 A 
ATOM     25  N   UNL A   1      33.289  18.607  25.647  1.00  0.00    -0.250 NA
ATOM     26  C   UNL A   1      33.266  18.395  24.294  1.00  0.00     0.144 A 
BRANCH  26  27
ATOM     27  C   UNL A   1      33.778  17.080  23.717  1.00  0.00     0.433 C 
ATOM     28  F   UNL A   1      34.961  16.695  24.284  1.00  0.00    -0.165 F 
ATOM     29  F   UNL A   1      32.928  16.026  23.879  1.00  0.00    -0.165 F 
ATOM     30  F   UNL A   1      34.028  17.148  22.376  1.00  0.00    -0.165 F 
ENDBRANCH  26  27
ENDBRANCH  19  21
ENDBRANCH  16  17
ENDBRANCH   5  16
ENDBRANCH   3   5
ENDBRANCH   2   3
ENDBRANCH   1   2
BRANCH   1  31
ATOM     31  C   UNL A   1      37.664  20.384  25.000  1.00  0.00     0.275 C 
BRANCH  31  32
ATOM     32  O   UNL A   1      38.097  21.450  25.861  1.00  0.00    -0.458 OA
BRANCH  32  33
ATOM     33  C   UNL A   1      39.354  21.317  26.328  1.00  0.00     0.338 C 
ATOM     34  O   UNL A   1      40.057  20.309  26.286  1.00  0.00    -0.246 OA
BRANCH  33  35
ATOM     35  C   UNL A   1      39.859  22.604  26.812  1.00  0.00     0.060 A 
ATOM     36  C   UNL A   1      39.262  23.760  26.314  1.00  0.00     0.016 A 
ATOM     37  C   UNL A   1      40.988  22.687  27.625  1.00  0.00     0.016 A 
ATOM     38  C   UNL A   1      39.855  24.997  26.511  1.00  0.00     0.010 A 
ATOM     39  C   UNL A   1      41.531  23.946  27.904  1.00  0.00     0.010 A 
ATOM     40  C   UNL A   1      40.994  25.106  27.315  1.00  0.00    -0.014 A 
BRANCH  40  41
ATOM     41  C   UNL A   1      41.609  26.439  27.528  1.00  0.00     0.031 A 
ATOM     42  C   UNL A   1      42.977  26.738  26.983  1.00  0.00     0.074 A 
ATOM     43  C   UNL A   1      40.929  27.379  28.213  1.00  0.00     0.049 A 
ATOM     44  N   UNL A   1      43.719  27.799  27.157  1.00  0.00    -0.248 NA
ATOM     45  C   UNL A   1      43.598  25.705  26.137  1.00  0.00     0.031 C 
ATOM     46  C   UNL A   1      39.589  27.208  28.779  1.00  0.00     0.029 A 
ATOM     47  N   UNL A   1      41.276  28.659  28.562  1.00  0.00    -0.354 N 
ATOM     48  C   UNL A   1      44.915  27.539  26.499  1.00  0.00     0.074 A 
ATOM     49  C   UNL A   1      44.799  26.221  25.916  1.00  0.00     0.031 C 
ATOM     50  C   UNL A   1      39.229  28.337  29.406  1.00  0.00     0.029 A 
ATOM     51  C   UNL A   1      40.333  29.286  29.341  1.00  0.00     0.049 A 
ATOM     52  H   UNL A   1      42.117  29.088  28.281  1.00  0.00     0.167 HD
ATOM     53  C   UNL A   1      46.006  28.334  26.383  1.00  0.00     0.034 A 
ATOM     54  C   UNL A   1      40.367  30.476  29.971  1.00  0.00     0.034 A 
ATOM     55  C   UNL A   1      46.089  29.667  26.919  1.00  0.00     0.049 A 
ATOM     56  C   UNL A   1      41.585  31.341  29.818  1.00  0.00     0.074 A 
ATOM     57  C   UNL A   1      47.131  30.572  26.814  1.00  0.00     0.029 A 
ATOM     58  N   UNL A   1      45.092  30.288  27.655  1.00  0.00    -0.354 N 
ATOM     59  N   UNL A   1      42.677  31.112  29.128  1.00  0.00    -0.248 NA
ATOM     60  C   UNL A   1      41.569  32.637  30.508  1.00  0.00     0.031 C 
ATOM     61  C   UNL A   1      46.769  31.736  27.502  1.00  0.00     0.029 A 
ATOM     62  C   UNL A   1      45.495  31.561  28.020  1.00  0.00     0.049 A 
ATOM     63  H   UNL A   1      44.225  29.883  27.884  1.00  0.00     0.167 HD
ATOM     64  C   UNL A   1      43.470  32.242  29.283  1.00  0.00     0.074 A 
ATOM     65  C   UNL A   1      42.720  33.165  30.112  1.00  0.00     0.031 C 
ATOM     66  C   UNL A   1      44.714  32.485  28.804  1.00  0.00     0.034 A 
BRANCH  53  67
ATOM     67  C   UNL A   1      47.189  27.789  25.630  1.00  0.00     0.023 A 
ATOM     68  C   UNL A   1      48.160  27.025  26.309  1.00  0.00     0.012 A 
ATOM     69  C   UNL A   1      47.320  27.997  24.243  1.00  0.00     0.148 A 
ATOM     70  C   UNL A   1      49.259  26.505  25.626  1.00  0.00     0.002 A 
ATOM     71  C   UNL A   1      48.398  27.442  23.561  1.00  0.00     0.091 A 
ATOM     72  F   UNL A   1      46.403  28.748  23.618  1.00  0.00    -0.205 F 
ATOM     73  C   UNL A   1      49.373  26.705  24.252  1.00  0.00     0.022 A 
BRANCH  71  74
ATOM     74  S   UNL A   1      48.590  27.590  21.781  1.00  0.00     0.127 S 
ATOM     75  O   UNL A   1      47.273  28.084  21.383  1.00  0.00    -0.237 OA
ATOM     76  O   UNL A   1      49.670  28.571  21.663  1.00  0.00    -0.237 OA
ATOM     77  O   UNL A   1      48.934  26.256  21.307  1.00  0.00    -0.744 OA
ENDBRANCH  71  74
ENDBRANCH  53  67
BRANCH  54  78
ATOM     78  C   UNL A   1      39.199  30.908  30.788  1.00  0.00     0.023 A 
ATOM     79  C   UNL A   1      39.247  30.780  32.189  1.00  0.00     0.012 A 
ATOM     80  C   UNL A   1      38.070  31.502  30.190  1.00  0.00     0.148 A 
ATOM     81  C   UNL A   1      38.182  31.219  32.978  1.00  0.00     0.002 A 
ATOM     82  C   UNL A   1      37.040  31.990  30.985  1.00  0.00     0.091 A 
ATOM     83  F   UNL A   1      38.035  31.600  28.853  1.00  0.00    -0.205 F 
ATOM     84  C   UNL A   1      37.086  31.836  32.379  1.00  0.00     0.022 A 
BRANCH  82  85
ATOM     85  S   UNL A   1      35.666  32.926  30.302  1.00  0.00     0.127 S 
ATOM     86  O   UNL A   1      35.062  31.951  29.397  1.00  0.00    -0.237 OA
ATOM     87  O   UNL A   1      34.876  33.226  31.498  1.00  0.00    -0.237 OA
ATOM     88  O   UNL A   1      36.264  34.095  29.673  1.00  0.00    -0.744 OA
ENDBRANCH  82  85
ENDBRANCH  54  78
BRANCH  66  89
ATOM     89  C   UNL A   1      45.340  33.810  29.147  1.00  0.00     0.023 A 
ATOM     90  C   UNL A   1      46.124  33.926  30.313  1.00  0.00     0.012 A 
ATOM     91  C   UNL A   1      45.213  34.914  28.283  1.00  0.00     0.148 A 
ATOM     92  C   UNL A   1      46.750  35.132  30.627  1.00  0.00     0.002 A 
ATOM     93  C   UNL A   1      45.876  36.100  28.580  1.00  0.00     0.091 A 
ATOM     94  F   UNL A   1      44.445  34.789  27.191  1.00  0.00    -0.205 F 
ATOM     95  C   UNL A   1      46.636  36.212  29.756  1.00  0.00     0.022 A 
BRANCH  93  96
ATOM     96  S   UNL A   1      45.860  37.511  27.470  1.00  0.00     0.127 S 
ATOM     97  O   UNL A   1      46.276  36.902  26.208  1.00  0.00    -0.237 OA
ATOM     98  O   UNL A   1      44.457  37.927  27.512  1.00  0.00    -0.237 OA
ATOM     99  O   UNL A   1      46.790  38.476  28.039  1.00  0.00    -0.744 OA
ENDBRANCH  93  96
ENDBRANCH  66  89
ENDBRANCH  40  41
ENDBRANCH  33  35
ENDBRANCH  32  33
ENDBRANCH  31  32
ENDBRANCH   1  31
TORSDOF 20
ENDMDL
