MODEL 1
REMARK VINA RESULT:     -13.0      0.000      0.000
REMARK SMILES C[C@@H]1CC[C@H](C)[N@H+]1Cc1cc2c(cc1Cl)C=C(C(=O)OCCOC(=O)c1ccc(-c3c4nc(c(-c5cccc(S(=O)(=O)[O-])c5F)c5ccc([nH]5)c(-c5cccc(S(=O)(=O)[O-])c5F)c5nc(c(-c6cccc(S(=O)(=O)[O-])c6F)c6ccc3[nH]6)C=C5)C=C4)cc1)[C@@H](C(F)(F)F)O2
REMARK SMILES IDX 22 1 21 2 20 3 18 4 19 5 17 6 9 7 10 8 14 9 11 10 13 11
REMARK SMILES IDX 15 12 12 13 94 14 16 15 89 16 8 17 7 18 6 19 5 20 4 21 3 22
REMARK SMILES IDX 2 23 1 25 90 26 91 27 92 28 93 29 23 30 24 31 25 32 26 33
REMARK SMILES IDX 27 34 88 35 28 36 87 37 29 38 30 39 31 40 81 41 32 42 86 43
REMARK SMILES IDX 80 44 82 45 33 46 85 47 79 48 78 49 34 51 66 52 46 53 65 54
REMARK SMILES IDX 47 55 50 56 64 57 83 58 48 59 49 60 63 62 84 63 51 64 35 65
REMARK SMILES IDX 36 66 44 67 37 68 39 69 45 70 38 71 40 72 41 73 42 74 43 75
REMARK SMILES IDX 67 76 68 77 76 78 69 79 71 80 77 81 70 82 72 83 73 84 74 85
REMARK SMILES IDX 75 86 52 87 53 88 61 89 54 90 56 91 62 92 55 93 57 94 58 95
REMARK SMILES IDX 59 96 60 97
REMARK H PARENT 7 24 82 50 50 61
REMARK Flexibility Score: inf
ROOT
ATOM      1  C   UNL A   1      37.398  20.553  24.862  1.00  0.00     0.275 C 
ENDROOT
BRANCH   1   2
ATOM      2  C   UNL A   1      35.890  20.736  25.041  1.00  0.00     0.275 C 
BRANCH   2   3
ATOM      3  O   UNL A   1      35.390  21.875  24.304  1.00  0.00    -0.459 OA
BRANCH   3   4
ATOM      4  C   UNL A   1      34.960  22.896  25.078  1.00  0.00     0.338 C 
ATOM      5  O   UNL A   1      35.163  23.023  26.277  1.00  0.00    -0.246 OA
BRANCH   4   6
ATOM      6  C   UNL A   1      34.222  23.903  24.297  1.00  0.00     0.087 C 
ATOM      7  C   UNL A   1      31.767  28.137  23.108  1.00  0.00     0.029 A 
ATOM      8  C   UNL A   1      31.916  26.877  22.469  1.00  0.00     0.058 A 
ATOM      9  C   UNL A   1      32.344  28.304  24.376  1.00  0.00     0.050 A 
ATOM     10  C   UNL A   1      32.688  25.864  23.043  1.00  0.00     0.128 A 
ATOM     11  C   UNL A   1      33.206  27.341  24.886  1.00  0.00     0.033 A 
ATOM     12  Cl  UNL A   1      31.949  29.602  25.444  1.00  0.00    -0.084 Cl
ATOM     13  C   UNL A   1      33.387  26.136  24.209  1.00  0.00     0.019 A 
ATOM     14  O   UNL A   1      32.753  24.643  22.418  1.00  0.00    -0.475 OA
ATOM     15  C   UNL A   1      34.278  25.152  24.767  1.00  0.00     0.027 C 
ATOM     16  C   UNL A   1      33.276  23.513  23.200  1.00  0.00     0.316 C 
BRANCH   7  17
ATOM     17  C   UNL A   1      31.022  29.253  22.397  1.00  0.00     0.301 C 
BRANCH  17  18
ATOM     18  N   UNL A   1      29.670  29.577  22.886  1.00  0.00    -0.327 N 
ATOM     19  C   UNL A   1      28.446  27.575  23.642  1.00  0.00     0.075 C 
ATOM     20  C   UNL A   1      28.603  28.623  22.550  1.00  0.00     0.181 C 
ATOM     21  C   UNL A   1      27.340  29.469  22.394  1.00  0.00     0.071 C 
ATOM     22  C   UNL A   1      27.881  30.777  21.862  1.00  0.00     0.071 C 
ATOM     23  C   UNL A   1      29.193  30.943  22.619  1.00  0.00     0.181 C 
ATOM     24  H   UNL A   1      29.850  29.495  23.886  1.00  0.00     0.348 HD
ATOM     25  C   UNL A   1      29.001  31.677  23.946  1.00  0.00     0.075 C 
ENDBRANCH  17  18
ENDBRANCH   7  17
BRANCH  16  26
ATOM     26  C   UNL A   1      32.121  22.668  23.766  1.00  0.00     0.430 C 
ATOM     27  F   UNL A   1      31.896  22.943  25.073  1.00  0.00    -0.167 F 
ATOM     28  F   UNL A   1      30.960  22.930  23.115  1.00  0.00    -0.167 F 
ATOM     29  F   UNL A   1      32.349  21.340  23.663  1.00  0.00    -0.167 F 
ENDBRANCH  16  26
ENDBRANCH   4   6
ENDBRANCH   3   4
ENDBRANCH   2   3
ENDBRANCH   1   2
BRANCH   1  30
ATOM     30  O   UNL A   1      38.119  21.722  25.296  1.00  0.00    -0.458 OA
BRANCH  30  31
ATOM     31  C   UNL A   1      39.222  21.472  26.039  1.00  0.00     0.338 C 
ATOM     32  O   UNL A   1      39.845  20.426  26.100  1.00  0.00    -0.246 OA
BRANCH  31  33
ATOM     33  C   UNL A   1      39.637  22.684  26.764  1.00  0.00     0.060 A 
ATOM     34  C   UNL A   1      40.682  22.645  27.680  1.00  0.00     0.016 A 
ATOM     35  C   UNL A   1      39.101  23.907  26.380  1.00  0.00     0.016 A 
ATOM     36  C   UNL A   1      41.183  23.846  28.198  1.00  0.00     0.010 A 
ATOM     37  C   UNL A   1      39.716  25.099  26.760  1.00  0.00     0.010 A 
ATOM     38  C   UNL A   1      40.748  25.096  27.705  1.00  0.00    -0.014 A 
BRANCH  38  39
ATOM     39  C   UNL A   1      41.374  26.371  28.176  1.00  0.00     0.031 A 
ATOM     40  C   UNL A   1      42.792  26.750  27.797  1.00  0.00     0.074 A 
ATOM     41  C   UNL A   1      40.676  27.199  28.984  1.00  0.00     0.049 A 
ATOM     42  N   UNL A   1      43.446  27.851  28.071  1.00  0.00    -0.248 NA
ATOM     43  C   UNL A   1      43.599  25.762  27.060  1.00  0.00     0.031 C 
ATOM     44  C   UNL A   1      39.362  26.908  29.567  1.00  0.00     0.029 A 
ATOM     45  N   UNL A   1      40.958  28.465  29.441  1.00  0.00    -0.354 N 
ATOM     46  C   UNL A   1      44.736  27.666  27.586  1.00  0.00     0.074 A 
ATOM     47  C   UNL A   1      44.797  26.329  27.048  1.00  0.00     0.031 C 
ATOM     48  C   UNL A   1      38.920  27.987  30.229  1.00  0.00     0.029 A 
ATOM     49  C   UNL A   1      39.923  29.044  30.141  1.00  0.00     0.049 A 
ATOM     50  H   UNL A   1      41.820  28.915  29.284  1.00  0.00     0.167 HD
ATOM     51  C   UNL A   1      45.765  28.544  27.530  1.00  0.00     0.034 A 
ATOM     52  C   UNL A   1      39.773  30.294  30.627  1.00  0.00     0.034 A 
ATOM     53  C   UNL A   1      45.677  29.914  27.948  1.00  0.00     0.049 A 
ATOM     54  C   UNL A   1      40.862  31.305  30.404  1.00  0.00     0.074 A 
ATOM     55  C   UNL A   1      46.627  30.913  27.821  1.00  0.00     0.029 A 
ATOM     56  N   UNL A   1      44.566  30.486  28.543  1.00  0.00    -0.354 N 
ATOM     57  N   UNL A   1      42.015  31.147  29.803  1.00  0.00    -0.248 NA
ATOM     58  C   UNL A   1      40.620  32.672  30.892  1.00  0.00     0.031 C 
ATOM     59  C   UNL A   1      46.081  32.096  28.323  1.00  0.00     0.029 A 
ATOM     60  C   UNL A   1      44.796  31.831  28.767  1.00  0.00     0.049 A 
ATOM     61  H   UNL A   1      43.736  30.008  28.771  1.00  0.00     0.167 HD
ATOM     62  C   UNL A   1      42.629  32.393  29.824  1.00  0.00     0.074 A 
ATOM     63  C   UNL A   1      41.715  33.303  30.480  1.00  0.00     0.031 C 
ATOM     64  C   UNL A   1      43.853  32.740  29.359  1.00  0.00     0.034 A 
BRANCH  51  65
ATOM     65  C   UNL A   1      47.045  28.099  26.873  1.00  0.00     0.023 A 
ATOM     66  C   UNL A   1      48.086  27.605  27.685  1.00  0.00     0.012 A 
ATOM     67  C   UNL A   1      47.182  28.066  25.472  1.00  0.00     0.148 A 
ATOM     68  C   UNL A   1      49.254  27.103  27.116  1.00  0.00     0.002 A 
ATOM     69  C   UNL A   1      48.337  27.533  24.910  1.00  0.00     0.091 A 
ATOM     70  F   UNL A   1      46.181  28.543  24.721  1.00  0.00    -0.205 F 
ATOM     71  C   UNL A   1      49.375  27.058  25.730  1.00  0.00     0.022 A 
BRANCH  69  72
ATOM     72  S   UNL A   1      48.578  27.365  23.137  1.00  0.00     0.127 S 
ATOM     73  O   UNL A   1      47.471  28.164  22.611  1.00  0.00    -0.237 OA
ATOM     74  O   UNL A   1      49.901  27.960  22.952  1.00  0.00    -0.237 OA
ATOM     75  O   UNL A   1      48.499  25.940  22.851  1.00  0.00    -0.744 OA
ENDBRANCH  69  72
ENDBRANCH  51  65
BRANCH  52  76
ATOM     76  C   UNL A   1      38.475  30.682  31.247  1.00  0.00     0.023 A 
ATOM     77  C   UNL A   1      38.300  30.498  32.633  1.00  0.00     0.012 A 
ATOM     78  C   UNL A   1      37.459  31.306  30.500  1.00  0.00     0.148 A 
ATOM     79  C   UNL A   1      37.131  30.921  33.265  1.00  0.00     0.002 A 
ATOM     80  C   UNL A   1      36.313  31.762  31.144  1.00  0.00     0.091 A 
ATOM     81  F   UNL A   1      37.646  31.464  29.184  1.00  0.00    -0.205 F 
ATOM     82  C   UNL A   1      36.143  31.563  32.523  1.00  0.00     0.022 A 
BRANCH  80  83
ATOM     83  S   UNL A   1      35.039  32.704  30.297  1.00  0.00     0.127 S 
ATOM     84  O   UNL A   1      34.092  32.966  31.378  1.00  0.00    -0.237 OA
ATOM     85  O   UNL A   1      35.786  33.874  29.835  1.00  0.00    -0.237 OA
ATOM     86  O   UNL A   1      34.553  31.840  29.230  1.00  0.00    -0.744 OA
ENDBRANCH  80  83
ENDBRANCH  52  76
BRANCH  64  87
ATOM     87  C   UNL A   1      44.301  34.164  29.516  1.00  0.00     0.023 A 
ATOM     88  C   UNL A   1      44.933  34.554  30.712  1.00  0.00     0.012 A 
ATOM     89  C   UNL A   1      44.254  35.054  28.426  1.00  0.00     0.148 A 
ATOM     90  C   UNL A   1      45.517  35.813  30.822  1.00  0.00     0.002 A 
ATOM     91  C   UNL A   1      44.865  36.298  28.533  1.00  0.00     0.091 A 
ATOM     92  F   UNL A   1      43.643  34.654  27.302  1.00  0.00    -0.205 F 
ATOM     93  C   UNL A   1      45.495  36.679  29.729  1.00  0.00     0.022 A 
BRANCH  91  94
ATOM     94  S   UNL A   1      44.959  37.453  27.160  1.00  0.00     0.127 S 
ATOM     95  O   UNL A   1      43.568  37.497  26.713  1.00  0.00    -0.237 OA
ATOM     96  O   UNL A   1      45.430  38.672  27.815  1.00  0.00    -0.237 OA
ATOM     97  O   UNL A   1      45.895  36.873  26.205  1.00  0.00    -0.744 OA
ENDBRANCH  91  94
ENDBRANCH  64  87
ENDBRANCH  38  39
ENDBRANCH  31  33
ENDBRANCH  30  31
ENDBRANCH   1  30
TORSDOF 17
ENDMDL
MODEL 2
REMARK VINA RESULT:     -12.8      5.238     10.400
REMARK SMILES C[C@@H]1CC[C@H](C)[N@H+]1Cc1cc2c(cc1Cl)C=C(C(=O)OCCOC(=O)c1ccc(-c3c4nc(c(-c5cccc(S(=O)(=O)[O-])c5F)c5ccc([nH]5)c(-c5cccc(S(=O)(=O)[O-])c5F)c5nc(c(-c6cccc(S(=O)(=O)[O-])c6F)c6ccc3[nH]6)C=C5)C=C4)cc1)[C@@H](C(F)(F)F)O2
REMARK SMILES IDX 22 1 21 2 20 3 18 4 19 5 17 6 9 7 10 8 14 9 11 10 13 11
REMARK SMILES IDX 15 12 12 13 94 14 16 15 89 16 8 17 7 18 6 19 5 20 4 21 3 22
REMARK SMILES IDX 2 23 1 25 90 26 91 27 92 28 93 29 23 30 24 31 25 32 26 33
REMARK SMILES IDX 27 34 88 35 28 36 87 37 29 38 30 39 31 40 81 41 32 42 86 43
REMARK SMILES IDX 80 44 82 45 33 46 85 47 79 48 78 49 34 51 66 52 46 53 65 54
REMARK SMILES IDX 47 55 50 56 64 57 83 58 48 59 49 60 63 62 84 63 51 64 35 65
REMARK SMILES IDX 36 66 44 67 37 68 39 69 45 70 38 71 40 72 41 73 42 74 43 75
REMARK SMILES IDX 67 76 68 77 76 78 69 79 71 80 77 81 70 82 72 83 73 84 74 85
REMARK SMILES IDX 75 86 52 87 53 88 61 89 54 90 56 91 62 92 55 93 57 94 58 95
REMARK SMILES IDX 59 96 60 97
REMARK H PARENT 7 24 82 50 50 61
REMARK Flexibility Score: inf
ROOT
ATOM      1  C   UNL A   1      32.367  30.014  25.683  1.00  0.00     0.275 C 
ENDROOT
BRANCH   1   2
ATOM      2  C   UNL A   1      31.071  30.376  24.957  1.00  0.00     0.275 C 
BRANCH   2   3
ATOM      3  O   UNL A   1      30.376  29.204  24.471  1.00  0.00    -0.459 OA
BRANCH   3   4
ATOM      4  C   UNL A   1      30.539  28.967  23.150  1.00  0.00     0.338 C 
ATOM      5  O   UNL A   1      30.347  29.769  22.247  1.00  0.00    -0.246 OA
BRANCH   4   6
ATOM      6  C   UNL A   1      31.029  27.602  22.894  1.00  0.00     0.087 C 
ATOM      7  C   UNL A   1      32.060  22.717  23.553  1.00  0.00     0.029 A 
ATOM      8  C   UNL A   1      32.493  23.693  22.617  1.00  0.00     0.058 A 
ATOM      9  C   UNL A   1      31.209  23.131  24.590  1.00  0.00     0.050 A 
ATOM     10  C   UNL A   1      32.018  25.005  22.670  1.00  0.00     0.128 A 
ATOM     11  C   UNL A   1      30.647  24.401  24.569  1.00  0.00     0.033 A 
ATOM     12  Cl  UNL A   1      30.899  22.194  26.006  1.00  0.00    -0.084 Cl
ATOM     13  C   UNL A   1      31.039  25.323  23.600  1.00  0.00     0.019 A 
ATOM     14  O   UNL A   1      32.510  25.928  21.780  1.00  0.00    -0.475 OA
ATOM     15  C   UNL A   1      30.448  26.637  23.610  1.00  0.00     0.027 C 
ATOM     16  C   UNL A   1      32.259  27.346  22.073  1.00  0.00     0.316 C 
BRANCH   7  17
ATOM     17  C   UNL A   1      32.504  21.274  23.390  1.00  0.00     0.301 C 
BRANCH  17  18
ATOM     18  N   UNL A   1      33.331  20.699  24.466  1.00  0.00    -0.327 N 
ATOM     19  C   UNL A   1      34.693  22.406  25.611  1.00  0.00     0.075 C 
ATOM     20  C   UNL A   1      34.685  21.250  24.621  1.00  0.00     0.181 C 
ATOM     21  C   UNL A   1      35.542  20.083  25.110  1.00  0.00     0.071 C 
ATOM     22  C   UNL A   1      34.887  18.891  24.448  1.00  0.00     0.071 C 
ATOM     23  C   UNL A   1      33.404  19.230  24.515  1.00  0.00     0.181 C 
ATOM     24  H   UNL A   1      32.779  21.015  25.263  1.00  0.00     0.348 HD
ATOM     25  C   UNL A   1      32.760  18.738  25.812  1.00  0.00     0.075 C 
ENDBRANCH  17  18
ENDBRANCH   7  17
BRANCH  16  26
ATOM     26  C   UNL A   1      33.489  27.986  22.741  1.00  0.00     0.430 C 
ATOM     27  F   UNL A   1      33.415  29.338  22.728  1.00  0.00    -0.167 F 
ATOM     28  F   UNL A   1      33.581  27.621  24.045  1.00  0.00    -0.167 F 
ATOM     29  F   UNL A   1      34.648  27.636  22.142  1.00  0.00    -0.167 F 
ENDBRANCH  16  26
ENDBRANCH   4   6
ENDBRANCH   3   4
ENDBRANCH   2   3
ENDBRANCH   1   2
BRANCH   1  30
ATOM     30  O   UNL A   1      32.337  30.457  27.053  1.00  0.00    -0.458 OA
BRANCH  30  31
ATOM     31  C   UNL A   1      33.044  31.582  27.308  1.00  0.00     0.338 C 
ATOM     32  O   UNL A   1      32.629  32.730  27.294  1.00  0.00    -0.246 OA
BRANCH  31  33
ATOM     33  C   UNL A   1      34.430  31.247  27.671  1.00  0.00     0.060 A 
ATOM     34  C   UNL A   1      35.370  32.245  27.897  1.00  0.00     0.016 A 
ATOM     35  C   UNL A   1      34.738  29.927  27.976  1.00  0.00     0.016 A 
ATOM     36  C   UNL A   1      36.617  31.901  28.436  1.00  0.00     0.010 A 
ATOM     37  C   UNL A   1      35.905  29.616  28.673  1.00  0.00     0.010 A 
ATOM     38  C   UNL A   1      36.885  30.590  28.887  1.00  0.00    -0.014 A 
BRANCH  38  39
ATOM     39  C   UNL A   1      38.174  30.259  29.573  1.00  0.00     0.031 A 
ATOM     40  C   UNL A   1      38.472  30.735  30.981  1.00  0.00     0.074 A 
ATOM     41  C   UNL A   1      39.114  29.543  28.917  1.00  0.00     0.049 A 
ATOM     42  N   UNL A   1      39.513  30.470  31.730  1.00  0.00    -0.248 NA
ATOM     43  C   UNL A   1      37.515  31.656  31.618  1.00  0.00     0.031 C 
ATOM     44  C   UNL A   1      39.048  29.145  27.508  1.00  0.00     0.029 A 
ATOM     45  N   UNL A   1      40.301  29.000  29.351  1.00  0.00    -0.354 N 
ATOM     46  C   UNL A   1      39.356  31.222  32.890  1.00  0.00     0.074 A 
ATOM     47  C   UNL A   1      38.149  31.997  32.730  1.00  0.00     0.031 C 
ATOM     48  C   UNL A   1      40.096  28.358  27.219  1.00  0.00     0.029 A 
ATOM     49  C   UNL A   1      40.924  28.210  28.410  1.00  0.00     0.049 A 
ATOM     50  H   UNL A   1      40.671  29.162  30.249  1.00  0.00     0.167 HD
ATOM     51  C   UNL A   1      40.106  31.226  34.017  1.00  0.00     0.034 A 
ATOM     52  C   UNL A   1      42.015  27.421  28.500  1.00  0.00     0.034 A 
ATOM     53  C   UNL A   1      41.235  30.367  34.235  1.00  0.00     0.049 A 
ATOM     54  C   UNL A   1      42.736  27.309  29.814  1.00  0.00     0.074 A 
ATOM     55  C   UNL A   1      41.985  30.213  35.388  1.00  0.00     0.029 A 
ATOM     56  N   UNL A   1      41.756  29.497  33.294  1.00  0.00    -0.354 N 
ATOM     57  N   UNL A   1      42.474  27.915  30.946  1.00  0.00    -0.248 NA
ATOM     58  C   UNL A   1      43.878  26.384  29.878  1.00  0.00     0.031 C 
ATOM     59  C   UNL A   1      42.950  29.232  35.148  1.00  0.00     0.029 A 
ATOM     60  C   UNL A   1      42.802  28.783  33.846  1.00  0.00     0.049 A 
ATOM     61  H   UNL A   1      41.429  29.400  32.370  1.00  0.00     0.167 HD
ATOM     62  C   UNL A   1      43.403  27.434  31.859  1.00  0.00     0.074 A 
ATOM     63  C   UNL A   1      44.225  26.471  31.158  1.00  0.00     0.031 C 
ATOM     64  C   UNL A   1      43.569  27.781  33.158  1.00  0.00     0.034 A 
BRANCH  51  65
ATOM     65  C   UNL A   1      39.657  32.090  35.167  1.00  0.00     0.023 A 
ATOM     66  C   UNL A   1      39.928  33.472  35.120  1.00  0.00     0.012 A 
ATOM     67  C   UNL A   1      38.888  31.568  36.225  1.00  0.00     0.148 A 
ATOM     68  C   UNL A   1      39.458  34.323  36.117  1.00  0.00     0.002 A 
ATOM     69  C   UNL A   1      38.394  32.429  37.199  1.00  0.00     0.091 A 
ATOM     70  F   UNL A   1      38.645  30.251  36.250  1.00  0.00    -0.205 F 
ATOM     71  C   UNL A   1      38.684  33.803  37.150  1.00  0.00     0.022 A 
BRANCH  69  72
ATOM     72  S   UNL A   1      37.333  31.883  38.543  1.00  0.00     0.127 S 
ATOM     73  O   UNL A   1      36.206  32.807  38.424  1.00  0.00    -0.237 OA
ATOM     74  O   UNL A   1      37.034  30.504  38.154  1.00  0.00    -0.237 OA
ATOM     75  O   UNL A   1      38.118  32.022  39.761  1.00  0.00    -0.744 OA
ENDBRANCH  69  72
ENDBRANCH  51  65
BRANCH  52  76
ATOM     76  C   UNL A   1      42.397  26.573  27.336  1.00  0.00     0.023 A 
ATOM     77  C   UNL A   1      43.215  27.124  26.331  1.00  0.00     0.012 A 
ATOM     78  C   UNL A   1      42.033  25.216  27.264  1.00  0.00     0.148 A 
ATOM     79  C   UNL A   1      43.659  26.339  25.266  1.00  0.00     0.002 A 
ATOM     80  C   UNL A   1      42.513  24.429  26.222  1.00  0.00     0.091 A 
ATOM     81  F   UNL A   1      41.250  24.717  28.229  1.00  0.00    -0.205 F 
ATOM     82  C   UNL A   1      43.318  24.990  25.218  1.00  0.00     0.022 A 
BRANCH  80  83
ATOM     83  S   UNL A   1      42.226  22.658  26.136  1.00  0.00     0.127 S 
ATOM     84  O   UNL A   1      40.767  22.593  26.106  1.00  0.00    -0.237 OA
ATOM     85  O   UNL A   1      42.884  22.307  24.877  1.00  0.00    -0.237 OA
ATOM     86  O   UNL A   1      42.857  22.098  27.322  1.00  0.00    -0.744 OA
ENDBRANCH  80  83
ENDBRANCH  52  76
BRANCH  64  87
ATOM     87  C   UNL A   1      44.668  27.122  33.940  1.00  0.00     0.023 A 
ATOM     88  C   UNL A   1      45.903  27.783  34.073  1.00  0.00     0.012 A 
ATOM     89  C   UNL A   1      44.419  25.948  34.677  1.00  0.00     0.148 A 
ATOM     90  C   UNL A   1      46.879  27.286  34.934  1.00  0.00     0.002 A 
ATOM     91  C   UNL A   1      45.386  25.474  35.556  1.00  0.00     0.091 A 
ATOM     92  F   UNL A   1      43.234  25.340  34.526  1.00  0.00    -0.205 F 
ATOM     93  C   UNL A   1      46.616  26.141  35.684  1.00  0.00     0.022 A 
BRANCH  91  94
ATOM     94  S   UNL A   1      45.114  24.056  36.623  1.00  0.00     0.127 S 
ATOM     95  O   UNL A   1      46.484  23.670  36.959  1.00  0.00    -0.237 OA
ATOM     96  O   UNL A   1      44.357  24.642  37.728  1.00  0.00    -0.237 OA
ATOM     97  O   UNL A   1      44.378  23.082  35.827  1.00  0.00    -0.744 OA
ENDBRANCH  91  94
ENDBRANCH  64  87
ENDBRANCH  38  39
ENDBRANCH  31  33
ENDBRANCH  30  31
ENDBRANCH   1  30
TORSDOF 17
ENDMDL
MODEL 3
REMARK VINA RESULT:     -12.7      5.234     10.336
REMARK SMILES C[C@@H]1CC[C@H](C)[N@H+]1Cc1cc2c(cc1Cl)C=C(C(=O)OCCOC(=O)c1ccc(-c3c4nc(c(-c5cccc(S(=O)(=O)[O-])c5F)c5ccc([nH]5)c(-c5cccc(S(=O)(=O)[O-])c5F)c5nc(c(-c6cccc(S(=O)(=O)[O-])c6F)c6ccc3[nH]6)C=C5)C=C4)cc1)[C@@H](C(F)(F)F)O2
REMARK SMILES IDX 22 1 21 2 20 3 18 4 19 5 17 6 9 7 10 8 14 9 11 10 13 11
REMARK SMILES IDX 15 12 12 13 94 14 16 15 89 16 8 17 7 18 6 19 5 20 4 21 3 22
REMARK SMILES IDX 2 23 1 25 90 26 91 27 92 28 93 29 23 30 24 31 25 32 26 33
REMARK SMILES IDX 27 34 88 35 28 36 87 37 29 38 30 39 31 40 81 41 32 42 86 43
REMARK SMILES IDX 80 44 82 45 33 46 85 47 79 48 78 49 34 51 66 52 46 53 65 54
REMARK SMILES IDX 47 55 50 56 64 57 83 58 48 59 49 60 63 62 84 63 51 64 35 65
REMARK SMILES IDX 36 66 44 67 37 68 39 69 45 70 38 71 40 72 41 73 42 74 43 75
REMARK SMILES IDX 67 76 68 77 76 78 69 79 71 80 77 81 70 82 72 83 73 84 74 85
REMARK SMILES IDX 75 86 52 87 53 88 61 89 54 90 56 91 62 92 55 93 57 94 58 95
REMARK SMILES IDX 59 96 60 97
REMARK H PARENT 7 24 82 50 50 61
REMARK Flexibility Score: inf
ROOT
ATOM      1  C   UNL A   1      31.568  30.088  25.460  1.00  0.00     0.275 C 
ENDROOT
BRANCH   1   2
ATOM      2  C   UNL A   1      31.308  28.807  24.667  1.00  0.00     0.275 C 
BRANCH   2   3
ATOM      3  O   UNL A   1      31.663  27.623  25.417  1.00  0.00    -0.459 OA
BRANCH   3   4
ATOM      4  C   UNL A   1      32.593  26.843  24.821  1.00  0.00     0.338 C 
ATOM      5  O   UNL A   1      33.519  27.235  24.125  1.00  0.00    -0.246 OA
BRANCH   4   6
ATOM      6  C   UNL A   1      32.396  25.418  25.135  1.00  0.00     0.087 C 
ATOM      7  C   UNL A   1      33.349  20.516  25.787  1.00  0.00     0.029 A 
ATOM      8  C   UNL A   1      32.155  21.281  25.708  1.00  0.00     0.058 A 
ATOM      9  C   UNL A   1      34.570  21.179  25.590  1.00  0.00     0.050 A 
ATOM     10  C   UNL A   1      32.195  22.666  25.529  1.00  0.00     0.128 A 
ATOM     11  C   UNL A   1      34.612  22.566  25.533  1.00  0.00     0.033 A 
ATOM     12  Cl  UNL A   1      36.060  20.367  25.274  1.00  0.00    -0.084 Cl
ATOM     13  C   UNL A   1      33.428  23.302  25.521  1.00  0.00     0.019 A 
ATOM     14  O   UNL A   1      31.015  23.354  25.398  1.00  0.00    -0.475 OA
ATOM     15  C   UNL A   1      33.502  24.738  25.449  1.00  0.00     0.027 C 
ATOM     16  C   UNL A   1      31.090  24.726  24.876  1.00  0.00     0.316 C 
BRANCH   7  17
ATOM     17  C   UNL A   1      33.268  19.033  26.104  1.00  0.00     0.301 C 
BRANCH  17  18
ATOM     18  N   UNL A   1      32.948  18.124  24.989  1.00  0.00    -0.327 N 
ATOM     19  C   UNL A   1      32.170  15.920  25.774  1.00  0.00     0.075 C 
ATOM     20  C   UNL A   1      33.317  16.712  25.164  1.00  0.00     0.181 C 
ATOM     21  C   UNL A   1      33.667  16.210  23.763  1.00  0.00     0.071 C 
ATOM     22  C   UNL A   1      34.239  17.444  23.102  1.00  0.00     0.071 C 
ATOM     23  C   UNL A   1      33.366  18.566  23.649  1.00  0.00     0.181 C 
ATOM     24  H   UNL A   1      31.930  18.182  25.037  1.00  0.00     0.348 HD
ATOM     25  C   UNL A   1      32.126  18.801  22.787  1.00  0.00     0.075 C 
ENDBRANCH  17  18
ENDBRANCH   7  17
BRANCH  16  26
ATOM     26  C   UNL A   1      30.761  24.752  23.374  1.00  0.00     0.430 C 
ATOM     27  F   UNL A   1      31.878  24.639  22.616  1.00  0.00    -0.167 F 
ATOM     28  F   UNL A   1      29.961  23.710  23.032  1.00  0.00    -0.167 F 
ATOM     29  F   UNL A   1      30.127  25.885  22.998  1.00  0.00    -0.167 F 
ENDBRANCH  16  26
ENDBRANCH   4   6
ENDBRANCH   3   4
ENDBRANCH   2   3
ENDBRANCH   1   2
BRANCH   1  30
ATOM     30  O   UNL A   1      32.965  30.227  25.782  1.00  0.00    -0.458 OA
BRANCH  30  31
ATOM     31  C   UNL A   1      33.234  31.024  26.842  1.00  0.00     0.338 C 
ATOM     32  O   UNL A   1      32.461  31.780  27.408  1.00  0.00    -0.246 OA
BRANCH  31  33
ATOM     33  C   UNL A   1      34.623  30.830  27.290  1.00  0.00     0.060 A 
ATOM     34  C   UNL A   1      35.374  31.898  27.767  1.00  0.00     0.016 A 
ATOM     35  C   UNL A   1      35.108  29.535  27.414  1.00  0.00     0.016 A 
ATOM     36  C   UNL A   1      36.612  31.647  28.372  1.00  0.00     0.010 A 
ATOM     37  C   UNL A   1      36.251  29.278  28.171  1.00  0.00     0.010 A 
ATOM     38  C   UNL A   1      37.046  30.330  28.636  1.00  0.00    -0.014 A 
BRANCH  38  39
ATOM     39  C   UNL A   1      38.312  30.072  29.392  1.00  0.00     0.031 A 
ATOM     40  C   UNL A   1      38.511  30.576  30.808  1.00  0.00     0.074 A 
ATOM     41  C   UNL A   1      39.321  29.400  28.794  1.00  0.00     0.049 A 
ATOM     42  N   UNL A   1      39.524  30.371  31.613  1.00  0.00    -0.248 NA
ATOM     43  C   UNL A   1      37.476  31.451  31.383  1.00  0.00     0.031 C 
ATOM     44  C   UNL A   1      39.350  28.986  27.388  1.00  0.00     0.029 A 
ATOM     45  N   UNL A   1      40.510  28.923  29.296  1.00  0.00    -0.354 N 
ATOM     46  C   UNL A   1      39.267  31.124  32.755  1.00  0.00     0.074 A 
ATOM     47  C   UNL A   1      38.032  31.834  32.523  1.00  0.00     0.031 C 
ATOM     48  C   UNL A   1      40.450  28.253  27.163  1.00  0.00     0.029 A 
ATOM     49  C   UNL A   1      41.221  28.158  28.398  1.00  0.00     0.049 A 
ATOM     50  H   UNL A   1      40.824  29.112  30.209  1.00  0.00     0.167 HD
ATOM     51  C   UNL A   1      39.956  31.177  33.919  1.00  0.00     0.034 A 
ATOM     52  C   UNL A   1      42.345  27.428  28.553  1.00  0.00     0.034 A 
ATOM     53  C   UNL A   1      41.114  30.380  34.205  1.00  0.00     0.049 A 
ATOM     54  C   UNL A   1      43.001  27.365  29.904  1.00  0.00     0.074 A 
ATOM     55  C   UNL A   1      41.810  30.275  35.397  1.00  0.00     0.029 A 
ATOM     56  N   UNL A   1      41.728  29.530  33.303  1.00  0.00    -0.354 N 
ATOM     57  N   UNL A   1      42.648  27.966  31.013  1.00  0.00    -0.248 NA
ATOM     58  C   UNL A   1      44.183  26.500  30.038  1.00  0.00     0.031 C 
ATOM     59  C   UNL A   1      42.835  29.343  35.220  1.00  0.00     0.029 A 
ATOM     60  C   UNL A   1      42.779  28.876  33.917  1.00  0.00     0.049 A 
ATOM     61  H   UNL A   1      41.456  29.408  32.364  1.00  0.00     0.167 HD
ATOM     62  C   UNL A   1      43.552  27.542  31.980  1.00  0.00     0.074 A 
ATOM     63  C   UNL A   1      44.458  26.617  31.333  1.00  0.00     0.031 C 
ATOM     64  C   UNL A   1      43.631  27.908  33.281  1.00  0.00     0.034 A 
BRANCH  51  65
ATOM     65  C   UNL A   1      39.404  32.027  35.034  1.00  0.00     0.023 A 
ATOM     66  C   UNL A   1      38.461  31.458  35.914  1.00  0.00     0.012 A 
ATOM     67  C   UNL A   1      39.885  33.327  35.277  1.00  0.00     0.148 A 
ATOM     68  C   UNL A   1      37.988  32.177  37.010  1.00  0.00     0.002 A 
ATOM     69  C   UNL A   1      39.434  34.026  36.392  1.00  0.00     0.091 A 
ATOM     70  F   UNL A   1      40.780  33.847  34.426  1.00  0.00    -0.205 F 
ATOM     71  C   UNL A   1      38.481  33.455  37.253  1.00  0.00     0.022 A 
BRANCH  69  72
ATOM     72  S   UNL A   1      40.045  35.655  36.842  1.00  0.00     0.127 S 
ATOM     73  O   UNL A   1      39.585  36.465  35.715  1.00  0.00    -0.237 OA
ATOM     74  O   UNL A   1      39.343  35.906  38.101  1.00  0.00    -0.237 OA
ATOM     75  O   UNL A   1      41.490  35.526  36.959  1.00  0.00    -0.744 OA
ENDBRANCH  69  72
ENDBRANCH  51  65
BRANCH  52  76
ATOM     76  C   UNL A   1      42.830  26.590  27.421  1.00  0.00     0.023 A 
ATOM     77  C   UNL A   1      43.822  27.109  26.565  1.00  0.00     0.012 A 
ATOM     78  C   UNL A   1      42.387  25.267  27.241  1.00  0.00     0.148 A 
ATOM     79  C   UNL A   1      44.358  26.327  25.542  1.00  0.00     0.002 A 
ATOM     80  C   UNL A   1      42.956  24.480  26.245  1.00  0.00     0.091 A 
ATOM     81  F   UNL A   1      41.440  24.799  28.063  1.00  0.00    -0.205 F 
ATOM     82  C   UNL A   1      43.934  25.010  25.389  1.00  0.00     0.022 A 
BRANCH  80  83
ATOM     83  S   UNL A   1      42.561  22.739  26.046  1.00  0.00     0.127 S 
ATOM     84  O   UNL A   1      43.191  22.434  24.763  1.00  0.00    -0.237 OA
ATOM     85  O   UNL A   1      43.219  22.145  27.211  1.00  0.00    -0.237 OA
ATOM     86  O   UNL A   1      41.108  22.658  26.068  1.00  0.00    -0.744 OA
ENDBRANCH  80  83
ENDBRANCH  52  76
BRANCH  64  87
ATOM     87  C   UNL A   1      44.720  27.314  34.127  1.00  0.00     0.023 A 
ATOM     88  C   UNL A   1      45.957  27.979  34.214  1.00  0.00     0.012 A 
ATOM     89  C   UNL A   1      44.459  26.209  34.959  1.00  0.00     0.148 A 
ATOM     90  C   UNL A   1      46.923  27.554  35.123  1.00  0.00     0.002 A 
ATOM     91  C   UNL A   1      45.415  25.808  35.885  1.00  0.00     0.091 A 
ATOM     92  F   UNL A   1      43.272  25.595  34.850  1.00  0.00    -0.205 F 
ATOM     93  C   UNL A   1      46.648  26.479  35.966  1.00  0.00     0.022 A 
BRANCH  91  94
ATOM     94  S   UNL A   1      45.128  24.487  37.067  1.00  0.00     0.127 S 
ATOM     95  O   UNL A   1      43.847  24.885  37.651  1.00  0.00    -0.237 OA
ATOM     96  O   UNL A   1      45.065  23.309  36.203  1.00  0.00    -0.237 OA
ATOM     97  O   UNL A   1      46.258  24.511  37.986  1.00  0.00    -0.744 OA
ENDBRANCH  91  94
ENDBRANCH  64  87
ENDBRANCH  38  39
ENDBRANCH  31  33
ENDBRANCH  30  31
ENDBRANCH   1  30
TORSDOF 17
ENDMDL
