MODEL 1
REMARK VINA RESULT:     -13.1      0.000      0.000
REMARK SMILES CC(C)Nc1ncc(C(=O)N2CCC[C@H](c3cccc(C(=O)OCCOC(=O)c4ccc(-c5c6nc(c(-c7cccc(S(=O)(=O)[O-])c7F)c7ccc([nH]7)c(-c7cccc(S(=O)(=O)[O-])c7F)c7nc(c(-c8cccc(S(=O)(=O)[O-])c8F)c8ccc5[nH]8)C=C7)C=C6)cc4)c3)C2)cn1
REMARK SMILES IDX 24 1 23 2 21 3 22 4 20 5 16 6 17 7 92 8 18 9 19 10 15 11
REMARK SMILES IDX 11 12 12 13 93 14 13 15 14 16 9 17 10 18 8 19 5 20 6 21
REMARK SMILES IDX 95 22 7 23 94 24 4 25 2 27 1 28 3 29 25 30 26 31 27 32 28 33
REMARK SMILES IDX 29 34 30 35 91 36 31 37 90 38 32 39 33 40 34 41 84 42 35 43
REMARK SMILES IDX 89 44 83 45 85 46 36 47 88 48 82 49 81 50 37 52 69 53 49 54
REMARK SMILES IDX 68 55 50 56 53 57 67 58 86 59 51 60 52 61 66 63 87 64 54 65
REMARK SMILES IDX 38 66 39 67 47 68 40 69 42 70 48 71 41 72 43 73 44 74 45 75
REMARK SMILES IDX 46 76 70 77 71 78 79 79 72 80 74 81 80 82 73 83 75 84 76 85
REMARK SMILES IDX 77 86 78 87 55 88 56 89 64 90 57 91 59 92 65 93 58 94 60 95
REMARK SMILES IDX 61 96 62 97 63 98
REMARK H PARENT 4 26 85 51 53 62
REMARK Flexibility Score: inf
ROOT
ATOM      1  C   UNL A   1      35.121  20.354  25.083  1.00  0.00     0.275 C 
ENDROOT
BRANCH   1   2
ATOM      2  O   UNL A   1      34.379  19.265  24.499  1.00  0.00    -0.458 OA
BRANCH   2   3
ATOM      3  C   UNL A   1      33.045  19.251  24.762  1.00  0.00     0.338 C 
ATOM      4  O   UNL A   1      32.418  18.353  25.281  1.00  0.00    -0.246 OA
BRANCH   3   5
ATOM      5  C   UNL A   1      32.447  20.571  24.430  1.00  0.00     0.060 A 
ATOM      6  C   UNL A   1      31.528  22.729  25.075  1.00  0.00    -0.042 A 
ATOM      7  C   UNL A   1      31.285  22.996  23.719  1.00  0.00     0.004 A 
ATOM      8  C   UNL A   1      31.999  21.447  25.420  1.00  0.00     0.019 A 
ATOM      9  C   UNL A   1      31.736  22.130  22.730  1.00  0.00     0.001 A 
ATOM     10  C   UNL A   1      32.392  20.962  23.090  1.00  0.00     0.016 A 
BRANCH   6  11
ATOM     11  C   UNL A   1      31.436  23.818  26.148  1.00  0.00     0.039 C 
ATOM     12  N   UNL A   1      32.610  25.712  24.973  1.00  0.00    -0.338 N 
ATOM     13  C   UNL A   1      33.842  25.512  25.732  1.00  0.00     0.120 C 
ATOM     14  C   UNL A   1      31.354  25.280  25.619  1.00  0.00     0.128 C 
ATOM     15  C   UNL A   1      33.953  24.118  26.329  1.00  0.00     0.022 C 
ATOM     16  C   UNL A   1      32.674  23.750  27.085  1.00  0.00     0.012 C 
BRANCH  12  17
ATOM     17  C   UNL A   1      32.720  26.209  23.676  1.00  0.00     0.257 C 
ATOM     18  O   UNL A   1      33.567  25.819  22.878  1.00  0.00    -0.269 OA
BRANCH  17  19
ATOM     19  C   UNL A   1      31.880  27.341  23.258  1.00  0.00     0.076 A 
ATOM     20  C   UNL A   1      30.528  29.420  22.130  1.00  0.00     0.222 A 
ATOM     21  N   UNL A   1      31.658  29.690  22.802  1.00  0.00    -0.221 NA
ATOM     22  N   UNL A   1      30.021  28.186  21.992  1.00  0.00    -0.221 NA
ATOM     23  C   UNL A   1      32.311  28.642  23.348  1.00  0.00     0.130 A 
ATOM     24  C   UNL A   1      30.723  27.164  22.537  1.00  0.00     0.130 A 
BRANCH  20  25
ATOM     25  N   UNL A   1      29.924  30.502  21.561  1.00  0.00    -0.352 N 
ATOM     26  H   UNL A   1      30.465  31.091  20.986  1.00  0.00     0.163 HD
BRANCH  25  27
ATOM     27  C   UNL A   1      28.530  30.829  21.756  1.00  0.00     0.076 C 
ATOM     28  C   UNL A   1      28.346  31.223  23.222  1.00  0.00     0.030 C 
ATOM     29  C   UNL A   1      28.129  31.981  20.841  1.00  0.00     0.030 C 
ENDBRANCH  25  27
ENDBRANCH  20  25
ENDBRANCH  17  19
ENDBRANCH  12  17
ENDBRANCH   6  11
ENDBRANCH   3   5
ENDBRANCH   2   3
ENDBRANCH   1   2
BRANCH   1  30
ATOM     30  C   UNL A   1      36.619  20.177  24.838  1.00  0.00     0.275 C 
BRANCH  30  31
ATOM     31  O   UNL A   1      37.351  21.234  25.485  1.00  0.00    -0.458 OA
BRANCH  31  32
ATOM     32  C   UNL A   1      38.627  20.943  25.827  1.00  0.00     0.338 C 
ATOM     33  O   UNL A   1      39.239  19.911  25.609  1.00  0.00    -0.246 OA
BRANCH  32  34
ATOM     34  C   UNL A   1      39.245  22.120  26.458  1.00  0.00     0.060 A 
ATOM     35  C   UNL A   1      38.759  23.374  26.113  1.00  0.00     0.016 A 
ATOM     36  C   UNL A   1      40.374  22.011  27.261  1.00  0.00     0.016 A 
ATOM     37  C   UNL A   1      39.457  24.527  26.456  1.00  0.00     0.010 A 
ATOM     38  C   UNL A   1      41.003  23.178  27.718  1.00  0.00     0.010 A 
ATOM     39  C   UNL A   1      40.581  24.452  27.286  1.00  0.00    -0.014 A 
BRANCH  39  40
ATOM     40  C   UNL A   1      41.314  25.691  27.686  1.00  0.00     0.031 A 
ATOM     41  C   UNL A   1      40.626  26.747  28.517  1.00  0.00     0.074 A 
ATOM     42  C   UNL A   1      42.592  25.889  27.298  1.00  0.00     0.049 A 
ATOM     43  N   UNL A   1      41.019  27.963  28.801  1.00  0.00    -0.248 NA
ATOM     44  C   UNL A   1      39.315  26.397  29.088  1.00  0.00     0.031 C 
ATOM     45  C   UNL A   1      43.397  24.952  26.512  1.00  0.00     0.029 A 
ATOM     46  N   UNL A   1      43.438  26.955  27.499  1.00  0.00    -0.354 N 
ATOM     47  C   UNL A   1      39.973  28.548  29.507  1.00  0.00     0.074 A 
ATOM     48  C   UNL A   1      38.932  27.550  29.619  1.00  0.00     0.031 C 
ATOM     49  C   UNL A   1      44.617  25.471  26.313  1.00  0.00     0.029 A 
ATOM     50  C   UNL A   1      44.657  26.816  26.873  1.00  0.00     0.049 A 
ATOM     51  H   UNL A   1      43.196  27.742  28.039  1.00  0.00     0.167 HD
ATOM     52  C   UNL A   1      39.889  29.800  30.020  1.00  0.00     0.034 A 
ATOM     53  C   UNL A   1      45.675  27.683  26.713  1.00  0.00     0.034 A 
ATOM     54  C   UNL A   1      40.956  30.765  29.977  1.00  0.00     0.049 A 
ATOM     55  C   UNL A   1      45.558  29.064  27.294  1.00  0.00     0.074 A 
ATOM     56  C   UNL A   1      40.984  32.039  30.517  1.00  0.00     0.029 A 
ATOM     57  N   UNL A   1      42.185  30.563  29.369  1.00  0.00    -0.354 N 
ATOM     58  N   UNL A   1      44.580  29.583  27.996  1.00  0.00    -0.248 NA
ATOM     59  C   UNL A   1      46.688  29.976  27.070  1.00  0.00     0.031 C 
ATOM     60  C   UNL A   1      42.223  32.616  30.216  1.00  0.00     0.029 A 
ATOM     61  C   UNL A   1      42.977  31.690  29.513  1.00  0.00     0.049 A 
ATOM     62  H   UNL A   1      42.456  29.738  28.903  1.00  0.00     0.167 HD
ATOM     63  C   UNL A   1      44.986  30.873  28.316  1.00  0.00     0.074 A 
ATOM     64  C   UNL A   1      46.310  31.046  27.756  1.00  0.00     0.031 C 
ATOM     65  C   UNL A   1      44.313  31.834  28.996  1.00  0.00     0.034 A 
BRANCH  52  66
ATOM     66  C   UNL A   1      38.600  30.202  30.693  1.00  0.00     0.023 A 
ATOM     67  C   UNL A   1      38.380  29.880  32.046  1.00  0.00     0.012 A 
ATOM     68  C   UNL A   1      37.633  30.955  29.996  1.00  0.00     0.148 A 
ATOM     69  C   UNL A   1      37.203  30.271  32.686  1.00  0.00     0.002 A 
ATOM     70  C   UNL A   1      36.484  31.380  30.652  1.00  0.00     0.091 A 
ATOM     71  F   UNL A   1      37.851  31.237  28.703  1.00  0.00    -0.205 F 
ATOM     72  C   UNL A   1      36.262  31.029  31.994  1.00  0.00     0.022 A 
BRANCH  70  73
ATOM     73  S   UNL A   1      35.251  32.427  29.870  1.00  0.00     0.127 S 
ATOM     74  O   UNL A   1      34.310  32.646  30.967  1.00  0.00    -0.237 OA
ATOM     75  O   UNL A   1      36.039  33.605  29.500  1.00  0.00    -0.237 OA
ATOM     76  O   UNL A   1      34.733  31.666  28.742  1.00  0.00    -0.744 OA
ENDBRANCH  70  73
ENDBRANCH  52  66
BRANCH  53  77
ATOM     77  C   UNL A   1      46.897  27.268  25.964  1.00  0.00     0.023 A 
ATOM     78  C   UNL A   1      47.849  26.442  26.591  1.00  0.00     0.012 A 
ATOM     79  C   UNL A   1      47.101  27.654  24.623  1.00  0.00     0.148 A 
ATOM     80  C   UNL A   1      48.993  26.028  25.906  1.00  0.00     0.002 A 
ATOM     81  C   UNL A   1      48.208  27.186  23.928  1.00  0.00     0.091 A 
ATOM     82  F   UNL A   1      46.195  28.459  24.050  1.00  0.00    -0.205 F 
ATOM     83  C   UNL A   1      49.165  26.388  24.572  1.00  0.00     0.022 A 
BRANCH  81  84
ATOM     84  S   UNL A   1      48.431  27.482  22.169  1.00  0.00     0.127 S 
ATOM     85  O   UNL A   1      49.642  28.297  22.154  1.00  0.00    -0.237 OA
ATOM     86  O   UNL A   1      48.596  26.121  21.652  1.00  0.00    -0.237 OA
ATOM     87  O   UNL A   1      47.213  28.145  21.726  1.00  0.00    -0.744 OA
ENDBRANCH  81  84
ENDBRANCH  53  77
BRANCH  65  88
ATOM     88  C   UNL A   1      45.008  33.153  29.207  1.00  0.00     0.023 A 
ATOM     89  C   UNL A   1      45.796  33.354  30.357  1.00  0.00     0.012 A 
ATOM     90  C   UNL A   1      44.936  34.167  28.232  1.00  0.00     0.148 A 
ATOM     91  C   UNL A   1      46.475  34.557  30.550  1.00  0.00     0.002 A 
ATOM     92  C   UNL A   1      45.653  35.343  28.407  1.00  0.00     0.091 A 
ATOM     93  F   UNL A   1      44.164  33.963  27.153  1.00  0.00    -0.205 F 
ATOM     94  C   UNL A   1      46.414  35.545  29.570  1.00  0.00     0.022 A 
BRANCH  92  95
ATOM     95  S   UNL A   1      45.711  36.632  27.157  1.00  0.00     0.127 S 
ATOM     96  O   UNL A   1      46.629  37.595  27.764  1.00  0.00    -0.237 OA
ATOM     97  O   UNL A   1      46.252  35.919  25.999  1.00  0.00    -0.237 OA
ATOM     98  O   UNL A   1      44.339  37.096  26.993  1.00  0.00    -0.744 OA
ENDBRANCH  92  95
ENDBRANCH  65  88
ENDBRANCH  39  40
ENDBRANCH  32  34
ENDBRANCH  31  32
ENDBRANCH  30  31
ENDBRANCH   1  30
TORSDOF 19
ENDMDL
MODEL 2
REMARK VINA RESULT:     -12.7      0.695      7.302
REMARK SMILES CC(C)Nc1ncc(C(=O)N2CCC[C@H](c3cccc(C(=O)OCCOC(=O)c4ccc(-c5c6nc(c(-c7cccc(S(=O)(=O)[O-])c7F)c7ccc([nH]7)c(-c7cccc(S(=O)(=O)[O-])c7F)c7nc(c(-c8cccc(S(=O)(=O)[O-])c8F)c8ccc5[nH]8)C=C7)C=C6)cc4)c3)C2)cn1
REMARK SMILES IDX 24 1 23 2 21 3 22 4 20 5 16 6 17 7 92 8 18 9 19 10 15 11
REMARK SMILES IDX 11 12 12 13 93 14 13 15 14 16 9 17 10 18 8 19 5 20 6 21
REMARK SMILES IDX 95 22 7 23 94 24 4 25 2 27 1 28 3 29 25 30 26 31 27 32 28 33
REMARK SMILES IDX 29 34 30 35 91 36 31 37 90 38 32 39 33 40 34 41 84 42 35 43
REMARK SMILES IDX 89 44 83 45 85 46 36 47 88 48 82 49 81 50 37 52 69 53 49 54
REMARK SMILES IDX 68 55 50 56 53 57 67 58 86 59 51 60 52 61 66 63 87 64 54 65
REMARK SMILES IDX 38 66 39 67 47 68 40 69 42 70 48 71 41 72 43 73 44 74 45 75
REMARK SMILES IDX 46 76 70 77 71 78 79 79 72 80 74 81 80 82 73 83 75 84 76 85
REMARK SMILES IDX 77 86 78 87 55 88 56 89 64 90 57 91 59 92 65 93 58 94 60 95
REMARK SMILES IDX 61 96 62 97 63 98
REMARK H PARENT 4 26 85 51 53 62
REMARK Flexibility Score: inf
ROOT
ATOM      1  C   UNL A   1      35.380  20.362  25.086  1.00  0.00     0.275 C 
ENDROOT
BRANCH   1   2
ATOM      2  O   UNL A   1      34.596  19.395  24.359  1.00  0.00    -0.458 OA
BRANCH   2   3
ATOM      3  C   UNL A   1      33.290  19.299  24.725  1.00  0.00     0.338 C 
ATOM      4  O   UNL A   1      32.768  18.375  25.312  1.00  0.00    -0.246 OA
BRANCH   3   5
ATOM      5  C   UNL A   1      32.578  20.565  24.411  1.00  0.00     0.060 A 
ATOM      6  C   UNL A   1      31.364  22.563  25.084  1.00  0.00    -0.042 A 
ATOM      7  C   UNL A   1      31.216  22.892  23.728  1.00  0.00     0.004 A 
ATOM      8  C   UNL A   1      31.946  21.319  25.401  1.00  0.00     0.019 A 
ATOM      9  C   UNL A   1      31.850  22.147  22.740  1.00  0.00     0.001 A 
ATOM     10  C   UNL A   1      32.600  21.036  23.096  1.00  0.00     0.016 A 
BRANCH   6  11
ATOM     11  C   UNL A   1      31.053  23.562  26.202  1.00  0.00     0.039 C 
ATOM     12  N   UNL A   1      32.011  25.669  25.208  1.00  0.00    -0.338 N 
ATOM     13  C   UNL A   1      33.211  25.598  26.038  1.00  0.00     0.120 C 
ATOM     14  C   UNL A   1      30.793  25.028  25.744  1.00  0.00     0.128 C 
ATOM     15  C   UNL A   1      33.485  24.200  26.570  1.00  0.00     0.022 C 
ATOM     16  C   UNL A   1      32.228  23.612  27.217  1.00  0.00     0.012 C 
BRANCH  12  17
ATOM     17  C   UNL A   1      32.126  26.254  23.948  1.00  0.00     0.257 C 
ATOM     18  O   UNL A   1      32.978  25.919  23.129  1.00  0.00    -0.269 OA
BRANCH  17  19
ATOM     19  C   UNL A   1      31.287  27.411  23.604  1.00  0.00     0.076 A 
ATOM     20  C   UNL A   1      30.079  29.730  22.841  1.00  0.00     0.222 A 
ATOM     21  N   UNL A   1      30.543  29.641  24.098  1.00  0.00    -0.221 NA
ATOM     22  N   UNL A   1      30.166  28.737  21.944  1.00  0.00    -0.221 NA
ATOM     23  C   UNL A   1      31.140  28.483  24.449  1.00  0.00     0.130 A 
ATOM     24  C   UNL A   1      30.795  27.603  22.335  1.00  0.00     0.130 A 
BRANCH  20  25
ATOM     25  N   UNL A   1      29.519  30.930  22.516  1.00  0.00    -0.352 N 
ATOM     26  H   UNL A   1      29.586  31.240  21.584  1.00  0.00     0.163 HD
BRANCH  25  27
ATOM     27  C   UNL A   1      28.835  31.773  23.469  1.00  0.00     0.076 C 
ATOM     28  C   UNL A   1      28.833  33.197  22.914  1.00  0.00     0.030 C 
ATOM     29  C   UNL A   1      27.406  31.279  23.673  1.00  0.00     0.030 C 
ENDBRANCH  25  27
ENDBRANCH  20  25
ENDBRANCH  17  19
ENDBRANCH  12  17
ENDBRANCH   6  11
ENDBRANCH   3   5
ENDBRANCH   2   3
ENDBRANCH   1   2
BRANCH   1  30
ATOM     30  C   UNL A   1      36.870  20.046  24.965  1.00  0.00     0.275 C 
BRANCH  30  31
ATOM     31  O   UNL A   1      37.648  21.218  25.267  1.00  0.00    -0.458 OA
BRANCH  31  32
ATOM     32  C   UNL A   1      38.852  20.995  25.841  1.00  0.00     0.338 C 
ATOM     33  O   UNL A   1      39.485  19.953  25.860  1.00  0.00    -0.246 OA
BRANCH  32  34
ATOM     34  C   UNL A   1      39.368  22.255  26.399  1.00  0.00     0.060 A 
ATOM     35  C   UNL A   1      38.751  23.439  26.016  1.00  0.00     0.016 A 
ATOM     36  C   UNL A   1      40.525  22.294  27.169  1.00  0.00     0.016 A 
ATOM     37  C   UNL A   1      39.342  24.669  26.285  1.00  0.00     0.010 A 
ATOM     38  C   UNL A   1      41.049  23.537  27.553  1.00  0.00     0.010 A 
ATOM     39  C   UNL A   1      40.491  24.742  27.080  1.00  0.00    -0.014 A 
BRANCH  39  40
ATOM     40  C   UNL A   1      41.109  26.064  27.402  1.00  0.00     0.031 A 
ATOM     41  C   UNL A   1      42.518  26.373  26.956  1.00  0.00     0.074 A 
ATOM     42  C   UNL A   1      40.424  26.990  28.106  1.00  0.00     0.049 A 
ATOM     43  N   UNL A   1      43.294  27.372  27.296  1.00  0.00    -0.248 NA
ATOM     44  C   UNL A   1      43.146  25.426  26.020  1.00  0.00     0.031 C 
ATOM     45  C   UNL A   1      39.049  26.846  28.587  1.00  0.00     0.029 A 
ATOM     46  N   UNL A   1      40.797  28.235  28.555  1.00  0.00    -0.354 N 
ATOM     47  C   UNL A   1      44.520  27.129  26.687  1.00  0.00     0.074 A 
ATOM     48  C   UNL A   1      44.384  25.894  25.946  1.00  0.00     0.031 C 
ATOM     49  C   UNL A   1      38.688  27.957  29.244  1.00  0.00     0.029 A 
ATOM     50  C   UNL A   1      39.832  28.857  29.316  1.00  0.00     0.049 A 
ATOM     51  H   UNL A   1      41.670  28.643  28.353  1.00  0.00     0.167 HD
ATOM     52  C   UNL A   1      45.655  27.869  26.735  1.00  0.00     0.034 A 
ATOM     53  C   UNL A   1      39.870  29.993  30.040  1.00  0.00     0.034 A 
ATOM     54  C   UNL A   1      45.766  29.137  27.407  1.00  0.00     0.049 A 
ATOM     55  C   UNL A   1      41.139  30.796  30.074  1.00  0.00     0.074 A 
ATOM     56  C   UNL A   1      46.857  29.987  27.465  1.00  0.00     0.029 A 
ATOM     57  N   UNL A   1      44.750  29.744  28.128  1.00  0.00    -0.354 N 
ATOM     58  N   UNL A   1      42.274  30.573  29.457  1.00  0.00    -0.248 NA
ATOM     59  C   UNL A   1      41.132  32.013  30.899  1.00  0.00     0.031 C 
ATOM     60  C   UNL A   1      46.508  31.097  28.240  1.00  0.00     0.029 A 
ATOM     61  C   UNL A   1      45.190  30.953  28.642  1.00  0.00     0.049 A 
ATOM     62  H   UNL A   1      43.847  29.372  28.256  1.00  0.00     0.167 HD
ATOM     63  C   UNL A   1      43.106  31.631  29.798  1.00  0.00     0.074 A 
ATOM     64  C   UNL A   1      42.336  32.511  30.654  1.00  0.00     0.031 C 
ATOM     65  C   UNL A   1      44.399  31.845  29.450  1.00  0.00     0.034 A 
BRANCH  52  66
ATOM     66  C   UNL A   1      46.875  27.337  26.026  1.00  0.00     0.023 A 
ATOM     67  C   UNL A   1      47.695  26.380  26.655  1.00  0.00     0.012 A 
ATOM     68  C   UNL A   1      47.173  27.743  24.709  1.00  0.00     0.148 A 
ATOM     69  C   UNL A   1      48.811  25.860  25.998  1.00  0.00     0.002 A 
ATOM     70  C   UNL A   1      48.260  27.188  24.045  1.00  0.00     0.091 A 
ATOM     71  F   UNL A   1      46.393  28.669  24.133  1.00  0.00    -0.205 F 
ATOM     72  C   UNL A   1      49.087  26.255  24.692  1.00  0.00     0.022 A 
BRANCH  70  73
ATOM     73  S   UNL A   1      48.649  27.572  22.333  1.00  0.00     0.127 S 
ATOM     74  O   UNL A   1      48.772  26.236  21.751  1.00  0.00    -0.237 OA
ATOM     75  O   UNL A   1      47.462  28.314  21.906  1.00  0.00    -0.237 OA
ATOM     76  O   UNL A   1      49.875  28.356  22.365  1.00  0.00    -0.744 OA
ENDBRANCH  70  73
ENDBRANCH  52  66
BRANCH  53  77
ATOM     77  C   UNL A   1      38.662  30.434  30.796  1.00  0.00     0.023 A 
ATOM     78  C   UNL A   1      38.573  30.175  32.177  1.00  0.00     0.012 A 
ATOM     79  C   UNL A   1      37.619  31.142  30.163  1.00  0.00     0.148 A 
ATOM     80  C   UNL A   1      37.460  30.592  32.909  1.00  0.00     0.002 A 
ATOM     81  C   UNL A   1      36.546  31.610  30.909  1.00  0.00     0.091 A 
ATOM     82  F   UNL A   1      37.710  31.360  28.843  1.00  0.00    -0.205 F 
ATOM     83  C   UNL A   1      36.454  31.320  32.279  1.00  0.00     0.022 A 
BRANCH  81  84
ATOM     84  S   UNL A   1      35.282  32.677  30.208  1.00  0.00     0.127 S 
ATOM     85  O   UNL A   1      34.458  32.974  31.376  1.00  0.00    -0.237 OA
ATOM     86  O   UNL A   1      36.077  33.803  29.712  1.00  0.00    -0.237 OA
ATOM     87  O   UNL A   1      34.642  31.892  29.162  1.00  0.00    -0.744 OA
ENDBRANCH  81  84
ENDBRANCH  53  77
BRANCH  65  88
ATOM     88  C   UNL A   1      45.060  33.097  29.963  1.00  0.00     0.023 A 
ATOM     89  C   UNL A   1      45.754  33.072  31.188  1.00  0.00     0.012 A 
ATOM     90  C   UNL A   1      45.049  34.281  29.198  1.00  0.00     0.148 A 
ATOM     91  C   UNL A   1      46.401  34.214  31.660  1.00  0.00     0.002 A 
ATOM     92  C   UNL A   1      45.737  35.400  29.650  1.00  0.00     0.091 A 
ATOM     93  F   UNL A   1      44.366  34.290  28.043  1.00  0.00    -0.205 F 
ATOM     94  C   UNL A   1      46.403  35.372  30.886  1.00  0.00     0.022 A 
BRANCH  92  95
ATOM     95  S   UNL A   1      45.874  36.904  28.679  1.00  0.00     0.127 S 
ATOM     96  O   UNL A   1      46.494  36.410  27.450  1.00  0.00    -0.237 OA
ATOM     97  O   UNL A   1      44.475  37.311  28.537  1.00  0.00    -0.237 OA
ATOM     98  O   UNL A   1      46.692  37.819  29.466  1.00  0.00    -0.744 OA
ENDBRANCH  92  95
ENDBRANCH  65  88
ENDBRANCH  39  40
ENDBRANCH  32  34
ENDBRANCH  31  32
ENDBRANCH  30  31
ENDBRANCH   1  30
TORSDOF 19
ENDMDL
MODEL 3
REMARK VINA RESULT:     -12.5      5.111      8.180
REMARK SMILES CC(C)Nc1ncc(C(=O)N2CCC[C@H](c3cccc(C(=O)OCCOC(=O)c4ccc(-c5c6nc(c(-c7cccc(S(=O)(=O)[O-])c7F)c7ccc([nH]7)c(-c7cccc(S(=O)(=O)[O-])c7F)c7nc(c(-c8cccc(S(=O)(=O)[O-])c8F)c8ccc5[nH]8)C=C7)C=C6)cc4)c3)C2)cn1
REMARK SMILES IDX 24 1 23 2 21 3 22 4 20 5 16 6 17 7 92 8 18 9 19 10 15 11
REMARK SMILES IDX 11 12 12 13 93 14 13 15 14 16 9 17 10 18 8 19 5 20 6 21
REMARK SMILES IDX 95 22 7 23 94 24 4 25 2 27 1 28 3 29 25 30 26 31 27 32 28 33
REMARK SMILES IDX 29 34 30 35 91 36 31 37 90 38 32 39 33 40 34 41 84 42 35 43
REMARK SMILES IDX 89 44 83 45 85 46 36 47 88 48 82 49 81 50 37 52 69 53 49 54
REMARK SMILES IDX 68 55 50 56 53 57 67 58 86 59 51 60 52 61 66 63 87 64 54 65
REMARK SMILES IDX 38 66 39 67 47 68 40 69 42 70 48 71 41 72 43 73 44 74 45 75
REMARK SMILES IDX 46 76 70 77 71 78 79 79 72 80 74 81 80 82 73 83 75 84 76 85
REMARK SMILES IDX 77 86 78 87 55 88 56 89 64 90 57 91 59 92 65 93 58 94 60 95
REMARK SMILES IDX 61 96 62 97 63 98
REMARK H PARENT 4 26 85 51 53 62
REMARK Flexibility Score: inf
ROOT
ATOM      1  C   UNL A   1      31.634  31.378  26.758  1.00  0.00     0.275 C 
ENDROOT
BRANCH   1   2
ATOM      2  O   UNL A   1      32.385  30.612  25.794  1.00  0.00    -0.458 OA
BRANCH   2   3
ATOM      3  C   UNL A   1      33.331  29.782  26.307  1.00  0.00     0.338 C 
ATOM      4  O   UNL A   1      34.408  30.103  26.762  1.00  0.00    -0.246 OA
BRANCH   3   5
ATOM      5  C   UNL A   1      32.815  28.389  26.354  1.00  0.00     0.060 A 
ATOM      6  C   UNL A   1      32.956  26.032  25.767  1.00  0.00    -0.042 A 
ATOM      7  C   UNL A   1      31.749  25.822  26.450  1.00  0.00     0.004 A 
ATOM      8  C   UNL A   1      33.410  27.359  25.624  1.00  0.00     0.019 A 
ATOM      9  C   UNL A   1      31.157  26.843  27.184  1.00  0.00     0.001 A 
ATOM     10  C   UNL A   1      31.742  28.101  27.201  1.00  0.00     0.016 A 
BRANCH   6  11
ATOM     11  C   UNL A   1      33.846  24.872  25.311  1.00  0.00     0.039 C 
ATOM     12  N   UNL A   1      33.185  24.720  22.885  1.00  0.00    -0.338 N 
ATOM     13  C   UNL A   1      32.333  23.557  23.118  1.00  0.00     0.120 C 
ATOM     14  C   UNL A   1      34.308  24.920  23.825  1.00  0.00     0.128 C 
ATOM     15  C   UNL A   1      31.899  23.418  24.568  1.00  0.00     0.022 C 
ATOM     16  C   UNL A   1      33.104  23.521  25.506  1.00  0.00     0.012 C 
BRANCH  12  17
ATOM     17  C   UNL A   1      32.829  25.592  21.858  1.00  0.00     0.257 C 
ATOM     18  O   UNL A   1      33.223  25.461  20.702  1.00  0.00    -0.269 OA
BRANCH  17  19
ATOM     19  C   UNL A   1      32.052  26.800  22.165  1.00  0.00     0.076 A 
ATOM     20  C   UNL A   1      30.733  28.985  23.119  1.00  0.00     0.222 A 
ATOM     21  N   UNL A   1      30.091  27.806  23.123  1.00  0.00    -0.221 NA
ATOM     22  N   UNL A   1      31.983  29.150  22.661  1.00  0.00    -0.221 NA
ATOM     23  C   UNL A   1      30.767  26.739  22.648  1.00  0.00     0.130 A 
ATOM     24  C   UNL A   1      32.631  28.046  22.217  1.00  0.00     0.130 A 
BRANCH  20  25
ATOM     25  N   UNL A   1      30.028  30.028  23.644  1.00  0.00    -0.352 N 
ATOM     26  H   UNL A   1      30.011  30.134  24.623  1.00  0.00     0.163 HD
BRANCH  25  27
ATOM     27  C   UNL A   1      29.304  30.984  22.839  1.00  0.00     0.076 C 
ATOM     28  C   UNL A   1      28.804  30.257  21.590  1.00  0.00     0.030 C 
ATOM     29  C   UNL A   1      28.130  31.552  23.630  1.00  0.00     0.030 C 
ENDBRANCH  25  27
ENDBRANCH  20  25
ENDBRANCH  17  19
ENDBRANCH  12  17
ENDBRANCH   6  11
ENDBRANCH   3   5
ENDBRANCH   2   3
ENDBRANCH   1   2
BRANCH   1  30
ATOM     30  C   UNL A   1      31.946  32.868  26.622  1.00  0.00     0.275 C 
BRANCH  30  31
ATOM     31  O   UNL A   1      32.241  33.428  27.914  1.00  0.00    -0.458 OA
BRANCH  31  32
ATOM     32  C   UNL A   1      33.354  34.193  27.985  1.00  0.00     0.338 C 
ATOM     33  O   UNL A   1      33.446  35.393  27.789  1.00  0.00    -0.246 OA
BRANCH  32  34
ATOM     34  C   UNL A   1      34.487  33.366  28.430  1.00  0.00     0.060 A 
ATOM     35  C   UNL A   1      34.208  32.213  29.152  1.00  0.00     0.016 A 
ATOM     36  C   UNL A   1      35.803  33.784  28.275  1.00  0.00     0.016 A 
ATOM     37  C   UNL A   1      35.217  31.534  29.827  1.00  0.00     0.010 A 
ATOM     38  C   UNL A   1      36.835  33.025  28.846  1.00  0.00     0.010 A 
ATOM     39  C   UNL A   1      36.554  31.914  29.668  1.00  0.00    -0.014 A 
BRANCH  39  40
ATOM     40  C   UNL A   1      37.644  31.166  30.363  1.00  0.00     0.031 A 
ATOM     41  C   UNL A   1      37.971  31.465  31.807  1.00  0.00     0.074 A 
ATOM     42  C   UNL A   1      38.360  30.227  29.709  1.00  0.00     0.049 A 
ATOM     43  N   UNL A   1      38.992  31.070  32.524  1.00  0.00    -0.248 NA
ATOM     44  C   UNL A   1      37.036  32.339  32.535  1.00  0.00     0.031 C 
ATOM     45  C   UNL A   1      38.149  29.813  28.320  1.00  0.00     0.029 A 
ATOM     46  N   UNL A   1      39.424  29.458  30.119  1.00  0.00    -0.354 N 
ATOM     47  C   UNL A   1      38.869  31.710  33.752  1.00  0.00     0.074 A 
ATOM     48  C   UNL A   1      37.666  32.513  33.689  1.00  0.00     0.031 C 
ATOM     49  C   UNL A   1      39.035  28.859  28.000  1.00  0.00     0.029 A 
ATOM     50  C   UNL A   1      39.941  28.658  29.125  1.00  0.00     0.049 A 
ATOM     51  H   UNL A   1      39.782  29.478  31.036  1.00  0.00     0.167 HD
ATOM     52  C   UNL A   1      39.679  31.634  34.836  1.00  0.00     0.034 A 
ATOM     53  C   UNL A   1      41.046  27.889  29.091  1.00  0.00     0.034 A 
ATOM     54  C   UNL A   1      40.831  30.775  34.926  1.00  0.00     0.049 A 
ATOM     55  C   UNL A   1      41.926  27.820  30.307  1.00  0.00     0.074 A 
ATOM     56  C   UNL A   1      41.682  30.588  36.002  1.00  0.00     0.029 A 
ATOM     57  N   UNL A   1      41.290  29.954  33.909  1.00  0.00    -0.354 N 
ATOM     58  N   UNL A   1      41.769  28.398  31.473  1.00  0.00    -0.248 NA
ATOM     59  C   UNL A   1      43.132  26.985  30.207  1.00  0.00     0.031 C 
ATOM     60  C   UNL A   1      42.668  29.670  35.627  1.00  0.00     0.029 A 
ATOM     61  C   UNL A   1      42.415  29.263  34.327  1.00  0.00     0.049 A 
ATOM     62  H   UNL A   1      40.876  29.871  33.019  1.00  0.00     0.167 HD
ATOM     63  C   UNL A   1      42.841  27.979  32.252  1.00  0.00     0.074 A 
ATOM     64  C   UNL A   1      43.625  27.076  31.434  1.00  0.00     0.031 C 
ATOM     65  C   UNL A   1      43.158  28.328  33.523  1.00  0.00     0.034 A 
BRANCH  52  66
ATOM     66  C   UNL A   1      39.344  32.493  36.030  1.00  0.00     0.023 A 
ATOM     67  C   UNL A   1      39.839  33.808  36.115  1.00  0.00     0.012 A 
ATOM     68  C   UNL A   1      38.485  32.012  37.039  1.00  0.00     0.148 A 
ATOM     69  C   UNL A   1      39.513  34.621  37.201  1.00  0.00     0.002 A 
ATOM     70  C   UNL A   1      38.128  32.843  38.095  1.00  0.00     0.091 A 
ATOM     71  F   UNL A   1      38.038  30.750  36.952  1.00  0.00    -0.205 F 
ATOM     72  C   UNL A   1      38.651  34.143  38.184  1.00  0.00     0.022 A 
BRANCH  70  73
ATOM     73  S   UNL A   1      36.960  32.346  39.367  1.00  0.00     0.127 S 
ATOM     74  O   UNL A   1      35.683  32.512  38.676  1.00  0.00    -0.237 OA
ATOM     75  O   UNL A   1      37.344  30.954  39.611  1.00  0.00    -0.237 OA
ATOM     76  O   UNL A   1      37.184  33.242  40.492  1.00  0.00    -0.744 OA
ENDBRANCH  70  73
ENDBRANCH  52  66
BRANCH  53  77
ATOM     77  C   UNL A   1      41.384  27.124  27.856  1.00  0.00     0.023 A 
ATOM     78  C   UNL A   1      41.932  27.800  26.748  1.00  0.00     0.012 A 
ATOM     79  C   UNL A   1      41.202  25.728  27.785  1.00  0.00     0.148 A 
ATOM     80  C   UNL A   1      42.270  27.104  25.587  1.00  0.00     0.002 A 
ATOM     81  C   UNL A   1      41.600  25.033  26.650  1.00  0.00     0.091 A 
ATOM     82  F   UNL A   1      40.657  25.104  28.840  1.00  0.00    -0.205 F 
ATOM     83  C   UNL A   1      42.118  25.721  25.542  1.00  0.00     0.022 A 
BRANCH  81  84
ATOM     84  S   UNL A   1      41.573  23.238  26.566  1.00  0.00     0.127 S 
ATOM     85  O   UNL A   1      40.145  22.966  26.431  1.00  0.00    -0.237 OA
ATOM     86  O   UNL A   1      42.367  22.980  25.363  1.00  0.00    -0.237 OA
ATOM     87  O   UNL A   1      42.193  22.779  27.801  1.00  0.00    -0.744 OA
ENDBRANCH  81  84
ENDBRANCH  53  77
BRANCH  65  88
ATOM     88  C   UNL A   1      44.388  27.705  34.129  1.00  0.00     0.023 A 
ATOM     89  C   UNL A   1      45.629  28.364  34.028  1.00  0.00     0.012 A 
ATOM     90  C   UNL A   1      44.301  26.502  34.856  1.00  0.00     0.148 A 
ATOM     91  C   UNL A   1      46.771  27.818  34.613  1.00  0.00     0.002 A 
ATOM     92  C   UNL A   1      45.432  25.989  35.478  1.00  0.00     0.091 A 
ATOM     93  F   UNL A   1      43.113  25.881  34.925  1.00  0.00    -0.205 F 
ATOM     94  C   UNL A   1      46.670  26.639  35.349  1.00  0.00     0.022 A 
BRANCH  92  95
ATOM     95  S   UNL A   1      45.378  24.529  36.523  1.00  0.00     0.127 S 
ATOM     96  O   UNL A   1      46.785  24.379  36.897  1.00  0.00    -0.237 OA
ATOM     97  O   UNL A   1      44.500  24.958  37.612  1.00  0.00    -0.237 OA
ATOM     98  O   UNL A   1      44.835  23.460  35.695  1.00  0.00    -0.744 OA
ENDBRANCH  92  95
ENDBRANCH  65  88
ENDBRANCH  39  40
ENDBRANCH  32  34
ENDBRANCH  31  32
ENDBRANCH  30  31
ENDBRANCH   1  30
TORSDOF 19
ENDMDL
