MODEL 1
REMARK VINA RESULT:     -11.2      0.000      0.000
REMARK SMILES O=C(Cn1cnnn1)Nc1cccc(F)c1C(=O)OCCOC(=O)c1ccc(-c2c3nc(c(-c4cccc(S(=O)(=O)[O-])c4F)c4ccc([nH]4)c(-c4cccc(S(=O)(=O)[O-])c4F)c4nc(c(-c5cccc(S(=O)(=O)[O-])c5F)c5ccc2[nH]5)C=C4)C=C3)cc1
REMARK SMILES IDX 20 1 19 2 17 3 18 4 16 5 10 6 11 7 12 8 14 9 13 10 15 11
REMARK SMILES IDX 9 12 1 13 2 14 3 16 4 17 5 18 8 19 6 20 7 21 21 22 22 23
REMARK SMILES IDX 23 24 24 25 25 26 26 27 87 28 27 29 86 30 28 31 29 32 30 33
REMARK SMILES IDX 80 34 31 35 85 36 79 37 81 38 32 39 84 40 78 41 77 42 33 44
REMARK SMILES IDX 65 45 45 46 64 47 46 48 49 49 63 50 82 51 47 52 48 53 62 55
REMARK SMILES IDX 83 56 50 57 34 58 35 59 43 60 36 61 38 62 44 63 37 64 39 65
REMARK SMILES IDX 40 66 41 67 42 68 66 69 67 70 75 71 68 72 70 73 76 74 69 75
REMARK SMILES IDX 71 76 72 77 73 78 74 79 51 80 52 81 60 82 53 83 55 84 61 85
REMARK SMILES IDX 54 86 56 87 57 88 58 89 59 90
REMARK H PARENT 9 15 81 43 49 54
REMARK Flexibility Score: inf
ROOT
ATOM      1  C   UNL A   1      34.840  34.733  28.586  1.00  0.00     0.275 C 
ENDROOT
BRANCH   1   2
ATOM      2  O   UNL A   1      35.409  34.287  29.832  1.00  0.00    -0.458 OA
BRANCH   2   3
ATOM      3  C   UNL A   1      34.528  33.852  30.771  1.00  0.00     0.343 C 
ATOM      4  O   UNL A   1      34.095  32.725  30.855  1.00  0.00    -0.246 OA
BRANCH   3   5
ATOM      5  C   UNL A   1      34.241  34.887  31.809  1.00  0.00     0.119 A 
ATOM      6  C   UNL A   1      34.864  34.797  33.082  1.00  0.00     0.058 A 
ATOM      7  C   UNL A   1      34.611  35.802  34.029  1.00  0.00     0.027 A 
ATOM      8  C   UNL A   1      33.762  36.872  33.738  1.00  0.00     0.005 A 
ATOM      9  C   UNL A   1      33.388  35.967  31.541  1.00  0.00     0.139 A 
ATOM     10  C   UNL A   1      33.151  36.953  32.494  1.00  0.00     0.040 A 
ATOM     11  F   UNL A   1      32.751  36.094  30.366  1.00  0.00    -0.206 F 
BRANCH   6  12
ATOM     12  N   UNL A   1      35.770  33.732  33.363  1.00  0.00    -0.324 N 
ATOM     13  O   UNL A   1      37.777  34.861  33.606  1.00  0.00    -0.273 OA
ATOM     14  C   UNL A   1      37.142  33.808  33.527  1.00  0.00     0.246 C 
ATOM     15  H   UNL A   1      35.371  32.837  33.452  1.00  0.00     0.170 HD
BRANCH  14  16
ATOM     16  C   UNL A   1      37.895  32.493  33.478  1.00  0.00     0.248 C 
BRANCH  16  17
ATOM     17  N   UNL A   1      37.956  31.791  34.733  1.00  0.00    -0.223 N 
ATOM     18  C   UNL A   1      38.656  30.668  35.040  1.00  0.00     0.246 A 
ATOM     19  N   UNL A   1      37.332  32.256  35.826  1.00  0.00    -0.045 NA
ATOM     20  N   UNL A   1      38.466  30.404  36.312  1.00  0.00    -0.117 NA
ATOM     21  N   UNL A   1      37.646  31.399  36.788  1.00  0.00    -0.024 NA
ENDBRANCH  16  17
ENDBRANCH  14  16
ENDBRANCH   6  12
ENDBRANCH   3   5
ENDBRANCH   2   3
ENDBRANCH   1   2
BRANCH   1  22
ATOM     22  C   UNL A   1      34.517  33.555  27.675  1.00  0.00     0.275 C 
BRANCH  22  23
ATOM     23  O   UNL A   1      35.613  32.644  27.592  1.00  0.00    -0.458 OA
BRANCH  23  24
ATOM     24  C   UNL A   1      35.329  31.362  27.889  1.00  0.00     0.338 C 
ATOM     25  O   UNL A   1      34.280  30.765  27.674  1.00  0.00    -0.246 OA
BRANCH  24  26
ATOM     26  C   UNL A   1      36.428  30.775  28.659  1.00  0.00     0.060 A 
ATOM     27  C   UNL A   1      37.461  31.631  29.057  1.00  0.00     0.016 A 
ATOM     28  C   UNL A   1      36.548  29.381  28.743  1.00  0.00     0.016 A 
ATOM     29  C   UNL A   1      38.690  31.085  29.367  1.00  0.00     0.010 A 
ATOM     30  C   UNL A   1      37.774  28.839  29.051  1.00  0.00     0.010 A 
ATOM     31  C   UNL A   1      38.849  29.702  29.272  1.00  0.00    -0.014 A 
BRANCH  31  32
ATOM     32  C   UNL A   1      40.194  29.162  29.356  1.00  0.00     0.031 A 
ATOM     33  C   UNL A   1      40.736  29.000  30.725  1.00  0.00     0.074 A 
ATOM     34  C   UNL A   1      40.809  28.689  28.254  1.00  0.00     0.049 A 
ATOM     35  N   UNL A   1      41.850  29.447  31.208  1.00  0.00    -0.248 NA
ATOM     36  C   UNL A   1      39.878  28.321  31.709  1.00  0.00     0.031 C 
ATOM     37  C   UNL A   1      40.219  28.486  26.924  1.00  0.00     0.029 A 
ATOM     38  N   UNL A   1      42.032  28.105  28.146  1.00  0.00    -0.354 N 
ATOM     39  C   UNL A   1      41.918  28.947  32.506  1.00  0.00     0.074 A 
ATOM     40  C   UNL A   1      40.624  28.391  32.809  1.00  0.00     0.031 C 
ATOM     41  C   UNL A   1      40.961  27.577  26.256  1.00  0.00     0.029 A 
ATOM     42  C   UNL A   1      42.125  27.247  27.057  1.00  0.00     0.049 A 
ATOM     43  H   UNL A   1      42.774  28.273  28.772  1.00  0.00     0.167 HD
ATOM     44  C   UNL A   1      43.086  28.841  33.194  1.00  0.00     0.034 A 
ATOM     45  C   UNL A   1      43.020  26.241  26.910  1.00  0.00     0.034 A 
ATOM     46  C   UNL A   1      44.141  29.619  32.615  1.00  0.00     0.049 A 
ATOM     47  C   UNL A   1      44.133  26.482  27.858  1.00  0.00     0.074 A 
ATOM     48  C   UNL A   1      44.337  30.963  32.372  1.00  0.00     0.029 A 
ATOM     49  N   UNL A   1      45.086  28.957  31.871  1.00  0.00    -0.354 N 
ATOM     50  N   UNL A   1      44.968  27.480  27.768  1.00  0.00    -0.248 NA
ATOM     51  C   UNL A   1      44.083  25.822  29.152  1.00  0.00     0.031 C 
ATOM     52  C   UNL A   1      45.065  31.013  31.149  1.00  0.00     0.029 A 
ATOM     53  C   UNL A   1      45.287  29.698  30.735  1.00  0.00     0.049 A 
ATOM     54  H   UNL A   1      45.534  28.113  32.108  1.00  0.00     0.167 HD
ATOM     55  C   UNL A   1      45.228  27.840  29.085  1.00  0.00     0.074 A 
ATOM     56  C   UNL A   1      44.755  26.714  29.885  1.00  0.00     0.031 C 
ATOM     57  C   UNL A   1      45.530  29.129  29.425  1.00  0.00     0.034 A 
BRANCH  44  58
ATOM     58  C   UNL A   1      43.340  27.814  34.261  1.00  0.00     0.023 A 
ATOM     59  C   UNL A   1      43.602  28.260  35.573  1.00  0.00     0.012 A 
ATOM     60  C   UNL A   1      43.544  26.443  33.990  1.00  0.00     0.148 A 
ATOM     61  C   UNL A   1      44.043  27.379  36.566  1.00  0.00     0.002 A 
ATOM     62  C   UNL A   1      43.888  25.557  35.003  1.00  0.00     0.091 A 
ATOM     63  F   UNL A   1      43.530  26.004  32.725  1.00  0.00    -0.205 F 
ATOM     64  C   UNL A   1      44.165  26.022  36.288  1.00  0.00     0.022 A 
BRANCH  62  65
ATOM     65  S   UNL A   1      43.948  23.790  34.689  1.00  0.00     0.127 S 
ATOM     66  O   UNL A   1      44.696  23.307  35.845  1.00  0.00    -0.237 OA
ATOM     67  O   UNL A   1      42.529  23.433  34.674  1.00  0.00    -0.237 OA
ATOM     68  O   UNL A   1      44.601  23.670  33.391  1.00  0.00    -0.744 OA
ENDBRANCH  62  65
ENDBRANCH  44  58
BRANCH  45  69
ATOM     69  C   UNL A   1      42.811  24.930  26.255  1.00  0.00     0.023 A 
ATOM     70  C   UNL A   1      43.753  24.465  25.318  1.00  0.00     0.012 A 
ATOM     71  C   UNL A   1      41.833  24.021  26.725  1.00  0.00     0.148 A 
ATOM     72  C   UNL A   1      43.734  23.136  24.877  1.00  0.00     0.002 A 
ATOM     73  C   UNL A   1      41.806  22.707  26.269  1.00  0.00     0.091 A 
ATOM     74  F   UNL A   1      40.992  24.415  27.691  1.00  0.00    -0.205 F 
ATOM     75  C   UNL A   1      42.763  22.257  25.352  1.00  0.00     0.022 A 
BRANCH  73  76
ATOM     76  S   UNL A   1      40.580  21.527  26.848  1.00  0.00     0.127 S 
ATOM     77  O   UNL A   1      40.950  20.316  26.114  1.00  0.00    -0.237 OA
ATOM     78  O   UNL A   1      40.856  21.483  28.280  1.00  0.00    -0.237 OA
ATOM     79  O   UNL A   1      39.288  22.084  26.462  1.00  0.00    -0.744 OA
ENDBRANCH  73  76
ENDBRANCH  45  69
BRANCH  57  80
ATOM     80  C   UNL A   1      45.808  30.123  28.320  1.00  0.00     0.023 A 
ATOM     81  C   UNL A   1      44.771  30.865  27.716  1.00  0.00     0.012 A 
ATOM     82  C   UNL A   1      47.140  30.480  28.044  1.00  0.00     0.148 A 
ATOM     83  C   UNL A   1      45.052  31.922  26.847  1.00  0.00     0.002 A 
ATOM     84  C   UNL A   1      47.415  31.566  27.220  1.00  0.00     0.091 A 
ATOM     85  F   UNL A   1      48.123  29.774  28.624  1.00  0.00    -0.205 F 
ATOM     86  C   UNL A   1      46.374  32.284  26.611  1.00  0.00     0.022 A 
BRANCH  84  87
ATOM     87  S   UNL A   1      49.093  32.173  27.013  1.00  0.00     0.127 S 
ATOM     88  O   UNL A   1      49.474  32.501  28.384  1.00  0.00    -0.237 OA
ATOM     89  O   UNL A   1      49.787  31.014  26.447  1.00  0.00    -0.237 OA
ATOM     90  O   UNL A   1      48.988  33.301  26.095  1.00  0.00    -0.744 OA
ENDBRANCH  84  87
ENDBRANCH  57  80
ENDBRANCH  31  32
ENDBRANCH  24  26
ENDBRANCH  23  24
ENDBRANCH  22  23
ENDBRANCH   1  22
TORSDOF 17
ENDMDL
MODEL 2
REMARK VINA RESULT:     -11.0      5.556     11.610
REMARK SMILES O=C(Cn1cnnn1)Nc1cccc(F)c1C(=O)OCCOC(=O)c1ccc(-c2c3nc(c(-c4cccc(S(=O)(=O)[O-])c4F)c4ccc([nH]4)c(-c4cccc(S(=O)(=O)[O-])c4F)c4nc(c(-c5cccc(S(=O)(=O)[O-])c5F)c5ccc2[nH]5)C=C4)C=C3)cc1
REMARK SMILES IDX 20 1 19 2 17 3 18 4 16 5 10 6 11 7 12 8 14 9 13 10 15 11
REMARK SMILES IDX 9 12 1 13 2 14 3 16 4 17 5 18 8 19 6 20 7 21 21 22 22 23
REMARK SMILES IDX 23 24 24 25 25 26 26 27 87 28 27 29 86 30 28 31 29 32 30 33
REMARK SMILES IDX 80 34 31 35 85 36 79 37 81 38 32 39 84 40 78 41 77 42 33 44
REMARK SMILES IDX 65 45 45 46 64 47 46 48 49 49 63 50 82 51 47 52 48 53 62 55
REMARK SMILES IDX 83 56 50 57 34 58 35 59 43 60 36 61 38 62 44 63 37 64 39 65
REMARK SMILES IDX 40 66 41 67 42 68 66 69 67 70 75 71 68 72 70 73 76 74 69 75
REMARK SMILES IDX 71 76 72 77 73 78 74 79 51 80 52 81 60 82 53 83 55 84 61 85
REMARK SMILES IDX 54 86 56 87 57 88 58 89 59 90
REMARK H PARENT 9 15 81 43 49 54
REMARK Flexibility Score: inf
ROOT
ATOM      1  C   UNL A   1      37.747  22.125  25.777  1.00  0.00     0.275 C 
ENDROOT
BRANCH   1   2
ATOM      2  O   UNL A   1      36.316  21.983  25.855  1.00  0.00    -0.458 OA
BRANCH   2   3
ATOM      3  C   UNL A   1      35.743  21.177  24.922  1.00  0.00     0.343 C 
ATOM      4  O   UNL A   1      36.055  20.028  24.703  1.00  0.00    -0.246 OA
BRANCH   3   5
ATOM      5  C   UNL A   1      34.560  21.812  24.267  1.00  0.00     0.119 A 
ATOM      6  C   UNL A   1      33.288  21.188  24.358  1.00  0.00     0.058 A 
ATOM      7  C   UNL A   1      32.181  21.822  23.769  1.00  0.00     0.027 A 
ATOM      8  C   UNL A   1      32.318  23.040  23.100  1.00  0.00     0.005 A 
ATOM      9  C   UNL A   1      34.675  23.032  23.587  1.00  0.00     0.139 A 
ATOM     10  C   UNL A   1      33.565  23.644  23.010  1.00  0.00     0.040 A 
ATOM     11  F   UNL A   1      35.853  23.658  23.446  1.00  0.00    -0.206 F 
BRANCH   6  12
ATOM     12  N   UNL A   1      33.137  19.969  25.083  1.00  0.00    -0.324 N 
ATOM     13  O   UNL A   1      32.894  18.423  23.377  1.00  0.00    -0.273 OA
ATOM     14  C   UNL A   1      32.879  18.707  24.575  1.00  0.00     0.246 C 
ATOM     15  H   UNL A   1      33.228  20.033  26.061  1.00  0.00     0.170 HD
BRANCH  14  16
ATOM     16  C   UNL A   1      32.432  17.662  25.578  1.00  0.00     0.248 C 
BRANCH  16  17
ATOM     17  N   UNL A   1      33.117  16.400  25.473  1.00  0.00    -0.223 N 
ATOM     18  C   UNL A   1      34.454  16.167  25.412  1.00  0.00     0.246 A 
ATOM     19  N   UNL A   1      32.448  15.237  25.498  1.00  0.00    -0.045 NA
ATOM     20  N   UNL A   1      34.640  14.867  25.378  1.00  0.00    -0.117 NA
ATOM     21  N   UNL A   1      33.388  14.303  25.435  1.00  0.00    -0.024 NA
ENDBRANCH  16  17
ENDBRANCH  14  16
ENDBRANCH   6  12
ENDBRANCH   3   5
ENDBRANCH   2   3
ENDBRANCH   1   2
BRANCH   1  22
ATOM     22  C   UNL A   1      38.190  23.505  26.247  1.00  0.00     0.275 C 
BRANCH  22  23
ATOM     23  O   UNL A   1      39.186  23.414  27.266  1.00  0.00    -0.458 OA
BRANCH  23  24
ATOM     24  C   UNL A   1      40.462  23.450  26.836  1.00  0.00     0.338 C 
ATOM     25  O   UNL A   1      41.112  22.526  26.361  1.00  0.00    -0.246 OA
BRANCH  24  26
ATOM     26  C   UNL A   1      41.053  24.754  27.145  1.00  0.00     0.060 A 
ATOM     27  C   UNL A   1      41.898  24.828  28.258  1.00  0.00     0.016 A 
ATOM     28  C   UNL A   1      40.567  25.903  26.506  1.00  0.00     0.016 A 
ATOM     29  C   UNL A   1      42.108  26.058  28.848  1.00  0.00     0.010 A 
ATOM     30  C   UNL A   1      40.777  27.128  27.097  1.00  0.00     0.010 A 
ATOM     31  C   UNL A   1      41.471  27.176  28.307  1.00  0.00    -0.014 A 
BRANCH  31  32
ATOM     32  C   UNL A   1      41.494  28.410  29.070  1.00  0.00     0.031 A 
ATOM     33  C   UNL A   1      42.481  29.421  28.624  1.00  0.00     0.074 A 
ATOM     34  C   UNL A   1      40.551  28.655  30.001  1.00  0.00     0.049 A 
ATOM     35  N   UNL A   1      43.388  30.023  29.323  1.00  0.00    -0.248 NA
ATOM     36  C   UNL A   1      42.513  29.737  27.188  1.00  0.00     0.031 C 
ATOM     37  C   UNL A   1      39.336  27.872  30.264  1.00  0.00     0.029 A 
ATOM     38  N   UNL A   1      40.380  29.764  30.770  1.00  0.00    -0.354 N 
ATOM     39  C   UNL A   1      43.985  30.932  28.451  1.00  0.00     0.074 A 
ATOM     40  C   UNL A   1      43.515  30.612  27.128  1.00  0.00     0.031 C 
ATOM     41  C   UNL A   1      38.438  28.663  30.889  1.00  0.00     0.029 A 
ATOM     42  C   UNL A   1      39.063  29.942  31.174  1.00  0.00     0.049 A 
ATOM     43  H   UNL A   1      41.112  30.376  31.014  1.00  0.00     0.167 HD
ATOM     44  C   UNL A   1      44.681  32.017  28.882  1.00  0.00     0.034 A 
ATOM     45  C   UNL A   1      38.503  31.107  31.578  1.00  0.00     0.034 A 
ATOM     46  C   UNL A   1      45.047  31.926  30.265  1.00  0.00     0.049 A 
ATOM     47  C   UNL A   1      39.601  32.036  31.936  1.00  0.00     0.074 A 
ATOM     48  C   UNL A   1      45.820  31.060  31.010  1.00  0.00     0.029 A 
ATOM     49  N   UNL A   1      44.310  32.650  31.168  1.00  0.00    -0.354 N 
ATOM     50  N   UNL A   1      40.405  31.863  32.948  1.00  0.00    -0.248 NA
ATOM     51  C   UNL A   1      40.060  32.975  30.925  1.00  0.00     0.031 C 
ATOM     52  C   UNL A   1      45.169  30.980  32.274  1.00  0.00     0.029 A 
ATOM     53  C   UNL A   1      44.053  31.818  32.227  1.00  0.00     0.049 A 
ATOM     54  H   UNL A   1      44.021  33.586  31.074  1.00  0.00     0.167 HD
ATOM     55  C   UNL A   1      41.636  32.330  32.503  1.00  0.00     0.074 A 
ATOM     56  C   UNL A   1      41.334  33.107  31.303  1.00  0.00     0.031 C 
ATOM     57  C   UNL A   1      42.809  31.807  32.970  1.00  0.00     0.034 A 
BRANCH  44  58
ATOM     58  C   UNL A   1      44.808  33.294  28.102  1.00  0.00     0.023 A 
ATOM     59  C   UNL A   1      43.634  34.006  27.781  1.00  0.00     0.012 A 
ATOM     60  C   UNL A   1      46.008  33.714  27.486  1.00  0.00     0.148 A 
ATOM     61  C   UNL A   1      43.658  35.086  26.892  1.00  0.00     0.002 A 
ATOM     62  C   UNL A   1      46.042  34.845  26.680  1.00  0.00     0.091 A 
ATOM     63  F   UNL A   1      47.104  32.949  27.572  1.00  0.00    -0.205 F 
ATOM     64  C   UNL A   1      44.866  35.521  26.358  1.00  0.00     0.022 A 
BRANCH  62  65
ATOM     65  S   UNL A   1      47.604  35.484  26.067  1.00  0.00     0.127 S 
ATOM     66  O   UNL A   1      47.235  36.836  25.664  1.00  0.00    -0.237 OA
ATOM     67  O   UNL A   1      48.457  35.399  27.253  1.00  0.00    -0.237 OA
ATOM     68  O   UNL A   1      47.983  34.564  25.000  1.00  0.00    -0.744 OA
ENDBRANCH  62  65
ENDBRANCH  44  58
BRANCH  45  69
ATOM     69  C   UNL A   1      37.116  31.573  31.353  1.00  0.00     0.023 A 
ATOM     70  C   UNL A   1      36.353  32.030  32.444  1.00  0.00     0.012 A 
ATOM     71  C   UNL A   1      36.623  31.811  30.048  1.00  0.00     0.148 A 
ATOM     72  C   UNL A   1      35.149  32.715  32.243  1.00  0.00     0.002 A 
ATOM     73  C   UNL A   1      35.417  32.475  29.854  1.00  0.00     0.091 A 
ATOM     74  F   UNL A   1      37.383  31.474  28.997  1.00  0.00    -0.205 F 
ATOM     75  C   UNL A   1      34.681  32.939  30.950  1.00  0.00     0.022 A 
BRANCH  73  76
ATOM     76  S   UNL A   1      34.764  32.795  28.210  1.00  0.00     0.127 S 
ATOM     77  O   UNL A   1      35.870  33.515  27.576  1.00  0.00    -0.237 OA
ATOM     78  O   UNL A   1      34.542  31.444  27.704  1.00  0.00    -0.237 OA
ATOM     79  O   UNL A   1      33.569  33.606  28.414  1.00  0.00    -0.744 OA
ENDBRANCH  73  76
ENDBRANCH  45  69
BRANCH  57  80
ATOM     80  C   UNL A   1      42.762  30.870  34.156  1.00  0.00     0.023 A 
ATOM     81  C   UNL A   1      42.773  31.354  35.481  1.00  0.00     0.012 A 
ATOM     82  C   UNL A   1      42.476  29.510  33.938  1.00  0.00     0.148 A 
ATOM     83  C   UNL A   1      42.524  30.505  36.561  1.00  0.00     0.002 A 
ATOM     84  C   UNL A   1      42.177  28.679  35.013  1.00  0.00     0.091 A 
ATOM     85  F   UNL A   1      42.463  29.055  32.676  1.00  0.00    -0.205 F 
ATOM     86  C   UNL A   1      42.209  29.171  36.328  1.00  0.00     0.022 A 
BRANCH  84  87
ATOM     87  S   UNL A   1      41.607  26.995  34.754  1.00  0.00     0.127 S 
ATOM     88  O   UNL A   1      40.487  27.186  33.837  1.00  0.00    -0.237 OA
ATOM     89  O   UNL A   1      42.779  26.347  34.160  1.00  0.00    -0.237 OA
ATOM     90  O   UNL A   1      41.266  26.492  36.079  1.00  0.00    -0.744 OA
ENDBRANCH  84  87
ENDBRANCH  57  80
ENDBRANCH  31  32
ENDBRANCH  24  26
ENDBRANCH  23  24
ENDBRANCH  22  23
ENDBRANCH   1  22
TORSDOF 17
ENDMDL
MODEL 3
REMARK VINA RESULT:     -10.9      4.164      6.217
REMARK SMILES O=C(Cn1cnnn1)Nc1cccc(F)c1C(=O)OCCOC(=O)c1ccc(-c2c3nc(c(-c4cccc(S(=O)(=O)[O-])c4F)c4ccc([nH]4)c(-c4cccc(S(=O)(=O)[O-])c4F)c4nc(c(-c5cccc(S(=O)(=O)[O-])c5F)c5ccc2[nH]5)C=C4)C=C3)cc1
REMARK SMILES IDX 20 1 19 2 17 3 18 4 16 5 10 6 11 7 12 8 14 9 13 10 15 11
REMARK SMILES IDX 9 12 1 13 2 14 3 16 4 17 5 18 8 19 6 20 7 21 21 22 22 23
REMARK SMILES IDX 23 24 24 25 25 26 26 27 87 28 27 29 86 30 28 31 29 32 30 33
REMARK SMILES IDX 80 34 31 35 85 36 79 37 81 38 32 39 84 40 78 41 77 42 33 44
REMARK SMILES IDX 65 45 45 46 64 47 46 48 49 49 63 50 82 51 47 52 48 53 62 55
REMARK SMILES IDX 83 56 50 57 34 58 35 59 43 60 36 61 38 62 44 63 37 64 39 65
REMARK SMILES IDX 40 66 41 67 42 68 66 69 67 70 75 71 68 72 70 73 76 74 69 75
REMARK SMILES IDX 71 76 72 77 73 78 74 79 51 80 52 81 60 82 53 83 55 84 61 85
REMARK SMILES IDX 54 86 56 87 57 88 58 89 59 90
REMARK H PARENT 9 15 81 43 49 54
REMARK Flexibility Score: inf
ROOT
ATOM      1  C   UNL A   1      33.017  29.399  26.187  1.00  0.00     0.275 C 
ENDROOT
BRANCH   1   2
ATOM      2  O   UNL A   1      31.678  29.412  25.657  1.00  0.00    -0.458 OA
BRANCH   2   3
ATOM      3  C   UNL A   1      31.571  29.478  24.303  1.00  0.00     0.343 C 
ATOM      4  O   UNL A   1      32.459  29.235  23.518  1.00  0.00    -0.246 OA
BRANCH   3   5
ATOM      5  C   UNL A   1      30.172  29.751  23.854  1.00  0.00     0.119 A 
ATOM      6  C   UNL A   1      29.438  28.734  23.188  1.00  0.00     0.058 A 
ATOM      7  C   UNL A   1      28.112  28.998  22.809  1.00  0.00     0.027 A 
ATOM      8  C   UNL A   1      27.517  30.234  23.072  1.00  0.00     0.005 A 
ATOM      9  C   UNL A   1      29.557  30.985  24.103  1.00  0.00     0.139 A 
ATOM     10  C   UNL A   1      28.241  31.226  23.720  1.00  0.00     0.040 A 
ATOM     11  F   UNL A   1      30.207  31.993  24.706  1.00  0.00    -0.206 F 
BRANCH   6  12
ATOM     12  N   UNL A   1      30.027  27.455  22.962  1.00  0.00    -0.324 N 
ATOM     13  O   UNL A   1      29.023  26.168  24.604  1.00  0.00    -0.273 OA
ATOM     14  C   UNL A   1      29.854  26.299  23.705  1.00  0.00     0.246 C 
ATOM     15  H   UNL A   1      30.627  27.386  22.186  1.00  0.00     0.170 HD
BRANCH  14  16
ATOM     16  C   UNL A   1      30.851  25.186  23.450  1.00  0.00     0.248 C 
BRANCH  16  17
ATOM     17  N   UNL A   1      31.973  25.563  22.631  1.00  0.00    -0.223 N 
ATOM     18  C   UNL A   1      33.231  25.894  23.020  1.00  0.00     0.246 A 
ATOM     19  N   UNL A   1      31.894  25.554  21.291  1.00  0.00    -0.045 NA
ATOM     20  N   UNL A   1      33.948  26.116  21.942  1.00  0.00    -0.117 NA
ATOM     21  N   UNL A   1      33.107  25.898  20.877  1.00  0.00    -0.024 NA
ENDBRANCH  16  17
ENDBRANCH  14  16
ENDBRANCH   6  12
ENDBRANCH   3   5
ENDBRANCH   2   3
ENDBRANCH   1   2
BRANCH   1  22
ATOM     22  C   UNL A   1      33.314  30.677  26.963  1.00  0.00     0.275 C 
BRANCH  22  23
ATOM     23  O   UNL A   1      34.301  30.458  27.970  1.00  0.00    -0.458 OA
BRANCH  23  24
ATOM     24  C   UNL A   1      35.236  31.421  28.088  1.00  0.00     0.338 C 
ATOM     25  O   UNL A   1      35.221  32.536  27.580  1.00  0.00    -0.246 OA
BRANCH  24  26
ATOM     26  C   UNL A   1      36.393  30.902  28.821  1.00  0.00     0.060 A 
ATOM     27  C   UNL A   1      37.420  31.804  29.119  1.00  0.00     0.016 A 
ATOM     28  C   UNL A   1      36.558  29.518  28.964  1.00  0.00     0.016 A 
ATOM     29  C   UNL A   1      38.680  31.307  29.385  1.00  0.00     0.010 A 
ATOM     30  C   UNL A   1      37.815  29.025  29.228  1.00  0.00     0.010 A 
ATOM     31  C   UNL A   1      38.875  29.926  29.347  1.00  0.00    -0.014 A 
BRANCH  31  32
ATOM     32  C   UNL A   1      40.237  29.427  29.380  1.00  0.00     0.031 A 
ATOM     33  C   UNL A   1      40.837  29.289  30.728  1.00  0.00     0.074 A 
ATOM     34  C   UNL A   1      40.823  28.967  28.257  1.00  0.00     0.049 A 
ATOM     35  N   UNL A   1      41.955  29.771  31.164  1.00  0.00    -0.248 NA
ATOM     36  C   UNL A   1      40.040  28.590  31.747  1.00  0.00     0.031 C 
ATOM     37  C   UNL A   1      40.188  28.739  26.952  1.00  0.00     0.029 A 
ATOM     38  N   UNL A   1      42.058  28.420  28.103  1.00  0.00    -0.354 N 
ATOM     39  C   UNL A   1      42.090  29.280  32.461  1.00  0.00     0.074 A 
ATOM     40  C   UNL A   1      40.826  28.688  32.817  1.00  0.00     0.031 C 
ATOM     41  C   UNL A   1      40.930  27.849  26.259  1.00  0.00     0.029 A 
ATOM     42  C   UNL A   1      42.134  27.558  27.015  1.00  0.00     0.049 A 
ATOM     43  H   UNL A   1      42.818  28.613  28.699  1.00  0.00     0.167 HD
ATOM     44  C   UNL A   1      43.286  29.213  33.103  1.00  0.00     0.034 A 
ATOM     45  C   UNL A   1      43.052  26.579  26.837  1.00  0.00     0.034 A 
ATOM     46  C   UNL A   1      44.294  30.020  32.480  1.00  0.00     0.049 A 
ATOM     47  C   UNL A   1      44.194  26.859  27.740  1.00  0.00     0.074 A 
ATOM     48  C   UNL A   1      44.439  31.368  32.223  1.00  0.00     0.029 A 
ATOM     49  N   UNL A   1      45.229  29.383  31.702  1.00  0.00    -0.354 N 
ATOM     50  N   UNL A   1      44.994  27.881  27.613  1.00  0.00    -0.248 NA
ATOM     51  C   UNL A   1      44.215  26.204  29.038  1.00  0.00     0.031 C 
ATOM     52  C   UNL A   1      45.117  31.433  30.973  1.00  0.00     0.029 A 
ATOM     53  C   UNL A   1      45.362  30.123  30.556  1.00  0.00     0.049 A 
ATOM     54  H   UNL A   1      45.710  28.554  31.924  1.00  0.00     0.167 HD
ATOM     55  C   UNL A   1      45.295  28.256  28.917  1.00  0.00     0.074 A 
ATOM     56  C   UNL A   1      44.887  27.120  29.740  1.00  0.00     0.031 C 
ATOM     57  C   UNL A   1      45.571  29.555  29.240  1.00  0.00     0.034 A 
BRANCH  44  58
ATOM     58  C   UNL A   1      43.613  28.201  34.163  1.00  0.00     0.023 A 
ATOM     59  C   UNL A   1      44.009  28.664  35.435  1.00  0.00     0.012 A 
ATOM     60  C   UNL A   1      43.755  26.820  33.905  1.00  0.00     0.148 A 
ATOM     61  C   UNL A   1      44.517  27.790  36.401  1.00  0.00     0.002 A 
ATOM     62  C   UNL A   1      44.170  25.944  34.899  1.00  0.00     0.091 A 
ATOM     63  F   UNL A   1      43.611  26.358  32.656  1.00  0.00    -0.205 F 
ATOM     64  C   UNL A   1      44.577  26.425  36.142  1.00  0.00     0.022 A 
BRANCH  62  65
ATOM     65  S   UNL A   1      44.154  24.170  34.619  1.00  0.00     0.127 S 
ATOM     66  O   UNL A   1      45.140  24.027  33.554  1.00  0.00    -0.237 OA
ATOM     67  O   UNL A   1      44.569  23.650  35.923  1.00  0.00    -0.237 OA
ATOM     68  O   UNL A   1      42.770  23.865  34.275  1.00  0.00    -0.744 OA
ENDBRANCH  62  65
ENDBRANCH  44  58
BRANCH  45  69
ATOM     69  C   UNL A   1      42.858  25.259  26.196  1.00  0.00     0.023 A 
ATOM     70  C   UNL A   1      43.732  24.850  25.171  1.00  0.00     0.012 A 
ATOM     71  C   UNL A   1      41.983  24.295  26.751  1.00  0.00     0.148 A 
ATOM     72  C   UNL A   1      43.747  23.523  24.726  1.00  0.00     0.002 A 
ATOM     73  C   UNL A   1      41.988  22.982  26.291  1.00  0.00     0.091 A 
ATOM     74  F   UNL A   1      41.216  24.639  27.794  1.00  0.00    -0.205 F 
ATOM     75  C   UNL A   1      42.878  22.589  25.285  1.00  0.00     0.022 A 
BRANCH  73  76
ATOM     76  S   UNL A   1      40.891  21.733  26.976  1.00  0.00     0.127 S 
ATOM     77  O   UNL A   1      39.606  22.433  26.999  1.00  0.00    -0.237 OA
ATOM     78  O   UNL A   1      40.991  20.667  25.984  1.00  0.00    -0.237 OA
ATOM     79  O   UNL A   1      41.425  21.427  28.298  1.00  0.00    -0.744 OA
ENDBRANCH  73  76
ENDBRANCH  45  69
BRANCH  57  80
ATOM     80  C   UNL A   1      45.775  30.551  28.120  1.00  0.00     0.023 A 
ATOM     81  C   UNL A   1      44.684  31.126  27.435  1.00  0.00     0.012 A 
ATOM     82  C   UNL A   1      47.060  31.083  27.908  1.00  0.00     0.148 A 
ATOM     83  C   UNL A   1      44.868  32.190  26.549  1.00  0.00     0.002 A 
ATOM     84  C   UNL A   1      47.232  32.176  27.066  1.00  0.00     0.091 A 
ATOM     85  F   UNL A   1      48.093  30.535  28.565  1.00  0.00    -0.205 F 
ATOM     86  C   UNL A   1      46.140  32.727  26.377  1.00  0.00     0.022 A 
BRANCH  84  87
ATOM     87  S   UNL A   1      48.819  33.007  26.934  1.00  0.00     0.127 S 
ATOM     88  O   UNL A   1      49.658  31.974  26.330  1.00  0.00    -0.237 OA
ATOM     89  O   UNL A   1      48.518  34.139  26.055  1.00  0.00    -0.237 OA
ATOM     90  O   UNL A   1      49.169  33.396  28.294  1.00  0.00    -0.744 OA
ENDBRANCH  84  87
ENDBRANCH  57  80
ENDBRANCH  31  32
ENDBRANCH  24  26
ENDBRANCH  23  24
ENDBRANCH  22  23
ENDBRANCH   1  22
TORSDOF 17
ENDMDL
