MODEL 1
REMARK VINA RESULT:     -12.7      0.000      0.000
REMARK SMILES Cc1cc(F)ccc1OC1(C(=O)OCCOC(=O)c2ccc(-c3c4nc(c(-c5cccc(S(=O)(=O)[O-])c5F)c5ccc([nH]5)c(-c5cccc(S(=O)(=O)[O-])c5F)c5nc(c(-c6cccc(S(=O)(=O)[O-])c6F)c6ccc3[nH]6)C=C5)C=C4)cc2)CCN(C(=O)[C@H]2CCOC2)CC1
REMARK SMILES IDX 15 1 14 2 13 3 11 4 12 5 10 6 82 7 93 8 83 9 92 10 84 11
REMARK SMILES IDX 85 12 86 13 9 14 8 15 1 16 2 17 3 18 4 19 7 20 5 21 6 22
REMARK SMILES IDX 87 23 88 24 91 25 89 26 90 27 16 28 17 29 18 30 19 31 20 32
REMARK SMILES IDX 81 33 21 34 80 35 22 36 23 37 24 38 74 39 25 40 79 41 73 42
REMARK SMILES IDX 75 43 26 44 78 45 72 46 71 47 27 49 59 50 39 51 58 52 40 53
REMARK SMILES IDX 43 54 57 55 76 56 41 57 42 58 56 60 77 61 44 62 28 63 29 64
REMARK SMILES IDX 37 65 30 66 32 67 38 68 31 69 33 70 34 71 35 72 36 73 60 74
REMARK SMILES IDX 61 75 69 76 62 77 64 78 70 79 63 80 65 81 66 82 67 83 68 84
REMARK SMILES IDX 45 85 46 86 54 87 47 88 49 89 55 90 48 91 50 92 51 93 52 94
REMARK SMILES IDX 53 95
REMARK H PARENT 75 48 43 59
REMARK Flexibility Score: inf
ROOT
ATOM      1  C   UNL A   1      31.681  29.642  26.183  1.00  0.00     0.275 C 
ENDROOT
BRANCH   1   2
ATOM      2  C   UNL A   1      31.710  28.513  27.212  1.00  0.00     0.274 C 
BRANCH   2   3
ATOM      3  O   UNL A   1      32.414  27.369  26.683  1.00  0.00    -0.459 OA
BRANCH   3   4
ATOM      4  C   UNL A   1      31.649  26.302  26.301  1.00  0.00     0.350 C 
ATOM      5  O   UNL A   1      30.571  26.024  26.816  1.00  0.00    -0.247 OA
BRANCH   4   6
ATOM      6  C   UNL A   1      32.356  25.423  25.223  1.00  0.00     0.209 C 
ATOM      7  C   UNL A   1      33.844  25.288  25.548  1.00  0.00     0.082 C 
ATOM      8  C   UNL A   1      31.551  24.122  25.299  1.00  0.00     0.082 C 
ATOM      9  C   UNL A   1      34.204  23.893  26.065  1.00  0.00     0.124 C 
ATOM     10  C   UNL A   1      32.302  22.968  24.693  1.00  0.00     0.124 C 
ATOM     11  N   UNL A   1      33.595  22.764  25.343  1.00  0.00    -0.342 N 
ATOM     12  C   UNL A   1      34.221  21.521  25.439  1.00  0.00     0.228 C 
ATOM     13  O   UNL A   1      35.232  21.364  26.124  1.00  0.00    -0.274 OA
BRANCH   6  14
ATOM     14  O   UNL A   1      32.029  26.063  23.985  1.00  0.00    -0.475 OA
BRANCH  14  15
ATOM     15  C   UNL A   1      31.260  27.071  23.519  1.00  0.00     0.124 A 
ATOM     16  C   UNL A   1      28.747  26.469  23.944  1.00  0.00     0.048 C 
ATOM     17  C   UNL A   1      29.880  27.292  23.413  1.00  0.00    -0.006 A 
ATOM     18  C   UNL A   1      29.429  28.447  22.718  1.00  0.00     0.046 A 
ATOM     19  C   UNL A   1      30.307  29.392  22.209  1.00  0.00     0.123 A 
ATOM     20  C   UNL A   1      32.118  28.093  23.047  1.00  0.00     0.050 A 
ATOM     21  F   UNL A   1      29.829  30.465  21.570  1.00  0.00    -0.207 F 
ATOM     22  C   UNL A   1      31.661  29.237  22.389  1.00  0.00     0.043 A 
ENDBRANCH  14  15
ENDBRANCH   6  14
BRANCH  12  23
ATOM     23  C   UNL A   1      33.621  20.359  24.657  1.00  0.00     0.107 C 
ATOM     24  C   UNL A   1      34.530  19.150  24.612  1.00  0.00     0.044 C 
ATOM     25  C   UNL A   1      32.382  19.784  25.317  1.00  0.00     0.173 C 
ATOM     26  C   UNL A   1      33.562  18.004  24.395  1.00  0.00     0.161 C 
ATOM     27  O   UNL A   1      32.275  18.426  24.864  1.00  0.00    -0.381 OA
ENDBRANCH  12  23
ENDBRANCH   4   6
ENDBRANCH   3   4
ENDBRANCH   2   3
ENDBRANCH   1   2
BRANCH   1  28
ATOM     28  O   UNL A   1      32.991  30.224  26.079  1.00  0.00    -0.458 OA
BRANCH  28  29
ATOM     29  C   UNL A   1      33.280  31.230  26.933  1.00  0.00     0.338 C 
ATOM     30  O   UNL A   1      32.589  32.205  27.195  1.00  0.00    -0.246 OA
BRANCH  29  31
ATOM     31  C   UNL A   1      34.577  30.951  27.567  1.00  0.00     0.060 A 
ATOM     32  C   UNL A   1      34.881  29.641  27.922  1.00  0.00     0.016 A 
ATOM     33  C   UNL A   1      35.462  31.984  27.880  1.00  0.00     0.016 A 
ATOM     34  C   UNL A   1      36.044  29.365  28.630  1.00  0.00     0.010 A 
ATOM     35  C   UNL A   1      36.662  31.689  28.543  1.00  0.00     0.010 A 
ATOM     36  C   UNL A   1      36.951  30.378  28.955  1.00  0.00    -0.014 A 
BRANCH  36  37
ATOM     37  C   UNL A   1      38.138  30.043  29.791  1.00  0.00     0.031 A 
ATOM     38  C   UNL A   1      39.256  29.218  29.211  1.00  0.00     0.074 A 
ATOM     39  C   UNL A   1      38.265  30.538  31.039  1.00  0.00     0.049 A 
ATOM     40  N   UNL A   1      40.313  28.727  29.805  1.00  0.00    -0.248 NA
ATOM     41  C   UNL A   1      39.171  28.895  27.778  1.00  0.00     0.031 C 
ATOM     42  C   UNL A   1      37.294  31.406  31.707  1.00  0.00     0.029 A 
ATOM     43  N   UNL A   1      39.274  30.404  31.961  1.00  0.00    -0.354 N 
ATOM     44  C   UNL A   1      40.966  27.965  28.845  1.00  0.00     0.074 A 
ATOM     45  C   UNL A   1      40.203  28.079  27.622  1.00  0.00     0.031 C 
ATOM     46  C   UNL A   1      37.779  31.772  32.903  1.00  0.00     0.029 A 
ATOM     47  C   UNL A   1      39.053  31.096  33.129  1.00  0.00     0.049 A 
ATOM     48  H   UNL A   1      40.081  29.862  31.801  1.00  0.00     0.167 HD
ATOM     49  C   UNL A   1      42.102  27.239  28.969  1.00  0.00     0.034 A 
ATOM     50  C   UNL A   1      39.774  31.159  34.267  1.00  0.00     0.034 A 
ATOM     51  C   UNL A   1      42.919  27.204  30.153  1.00  0.00     0.049 A 
ATOM     52  C   UNL A   1      41.038  30.352  34.378  1.00  0.00     0.074 A 
ATOM     53  C   UNL A   1      44.097  26.511  30.366  1.00  0.00     0.029 A 
ATOM     54  N   UNL A   1      42.654  27.911  31.315  1.00  0.00    -0.354 N 
ATOM     55  N   UNL A   1      41.636  29.627  33.464  1.00  0.00    -0.248 NA
ATOM     56  C   UNL A   1      41.720  30.363  35.680  1.00  0.00     0.031 C 
ATOM     57  C   UNL A   1      44.546  26.799  31.659  1.00  0.00     0.029 A 
ATOM     58  C   UNL A   1      43.648  27.673  32.251  1.00  0.00     0.049 A 
ATOM     59  H   UNL A   1      41.876  28.496  31.456  1.00  0.00     0.167 HD
ATOM     60  C   UNL A   1      42.765  29.096  34.077  1.00  0.00     0.074 A 
ATOM     61  C   UNL A   1      42.788  29.615  35.430  1.00  0.00     0.031 C 
ATOM     62  C   UNL A   1      43.682  28.232  33.577  1.00  0.00     0.034 A 
BRANCH  49  63
ATOM     63  C   UNL A   1      42.533  26.424  27.781  1.00  0.00     0.023 A 
ATOM     64  C   UNL A   1      43.397  26.980  26.819  1.00  0.00     0.012 A 
ATOM     65  C   UNL A   1      42.098  25.091  27.634  1.00  0.00     0.148 A 
ATOM     66  C   UNL A   1      43.799  26.232  25.712  1.00  0.00     0.002 A 
ATOM     67  C   UNL A   1      42.532  24.341  26.548  1.00  0.00     0.091 A 
ATOM     68  F   UNL A   1      41.248  24.588  28.541  1.00  0.00    -0.205 F 
ATOM     69  C   UNL A   1      43.374  24.911  25.582  1.00  0.00     0.022 A 
BRANCH  67  70
ATOM     70  S   UNL A   1      42.079  22.613  26.356  1.00  0.00     0.127 S 
ATOM     71  O   UNL A   1      40.619  22.687  26.339  1.00  0.00    -0.237 OA
ATOM     72  O   UNL A   1      42.684  22.265  25.068  1.00  0.00    -0.237 OA
ATOM     73  O   UNL A   1      42.670  21.929  27.497  1.00  0.00    -0.744 OA
ENDBRANCH  67  70
ENDBRANCH  49  63
BRANCH  50  74
ATOM     74  C   UNL A   1      39.326  32.040  35.383  1.00  0.00     0.023 A 
ATOM     75  C   UNL A   1      38.506  31.506  36.395  1.00  0.00     0.012 A 
ATOM     76  C   UNL A   1      39.752  33.379  35.483  1.00  0.00     0.148 A 
ATOM     77  C   UNL A   1      38.115  32.288  37.483  1.00  0.00     0.002 A 
ATOM     78  C   UNL A   1      39.415  34.133  36.602  1.00  0.00     0.091 A 
ATOM     79  F   UNL A   1      40.501  33.885  34.493  1.00  0.00    -0.205 F 
ATOM     80  C   UNL A   1      38.585  33.595  37.596  1.00  0.00     0.022 A 
BRANCH  78  81
ATOM     81  S   UNL A   1      40.112  35.763  36.897  1.00  0.00     0.127 S 
ATOM     82  O   UNL A   1      39.620  36.513  35.746  1.00  0.00    -0.237 OA
ATOM     83  O   UNL A   1      39.505  36.128  38.178  1.00  0.00    -0.237 OA
ATOM     84  O   UNL A   1      41.553  35.560  36.960  1.00  0.00    -0.744 OA
ENDBRANCH  78  81
ENDBRANCH  50  74
BRANCH  62  85
ATOM     85  C   UNL A   1      44.788  27.784  34.494  1.00  0.00     0.023 A 
ATOM     86  C   UNL A   1      45.972  28.544  34.564  1.00  0.00     0.012 A 
ATOM     87  C   UNL A   1      44.632  26.665  35.333  1.00  0.00     0.148 A 
ATOM     88  C   UNL A   1      46.994  28.184  35.440  1.00  0.00     0.002 A 
ATOM     89  C   UNL A   1      45.641  26.333  36.232  1.00  0.00     0.091 A 
ATOM     90  F   UNL A   1      43.507  25.941  35.235  1.00  0.00    -0.205 F 
ATOM     91  C   UNL A   1      46.824  27.087  36.282  1.00  0.00     0.022 A 
BRANCH  89  92
ATOM     92  S   UNL A   1      45.465  24.984  37.406  1.00  0.00     0.127 S 
ATOM     93  O   UNL A   1      46.727  25.061  38.140  1.00  0.00    -0.237 OA
ATOM     94  O   UNL A   1      44.287  25.385  38.176  1.00  0.00    -0.237 OA
ATOM     95  O   UNL A   1      45.275  23.784  36.601  1.00  0.00    -0.744 OA
ENDBRANCH  89  92
ENDBRANCH  62  85
ENDBRANCH  36  37
ENDBRANCH  29  31
ENDBRANCH  28  29
ENDBRANCH   1  28
TORSDOF 17
ENDMDL
MODEL 2
REMARK VINA RESULT:     -12.5      4.882     10.178
REMARK SMILES Cc1cc(F)ccc1OC1(C(=O)OCCOC(=O)c2ccc(-c3c4nc(c(-c5cccc(S(=O)(=O)[O-])c5F)c5ccc([nH]5)c(-c5cccc(S(=O)(=O)[O-])c5F)c5nc(c(-c6cccc(S(=O)(=O)[O-])c6F)c6ccc3[nH]6)C=C5)C=C4)cc2)CCN(C(=O)[C@H]2CCOC2)CC1
REMARK SMILES IDX 15 1 14 2 13 3 11 4 12 5 10 6 82 7 93 8 83 9 92 10 84 11
REMARK SMILES IDX 85 12 86 13 9 14 8 15 1 16 2 17 3 18 4 19 7 20 5 21 6 22
REMARK SMILES IDX 87 23 88 24 91 25 89 26 90 27 16 28 17 29 18 30 19 31 20 32
REMARK SMILES IDX 81 33 21 34 80 35 22 36 23 37 24 38 74 39 25 40 79 41 73 42
REMARK SMILES IDX 75 43 26 44 78 45 72 46 71 47 27 49 59 50 39 51 58 52 40 53
REMARK SMILES IDX 43 54 57 55 76 56 41 57 42 58 56 60 77 61 44 62 28 63 29 64
REMARK SMILES IDX 37 65 30 66 32 67 38 68 31 69 33 70 34 71 35 72 36 73 60 74
REMARK SMILES IDX 61 75 69 76 62 77 64 78 70 79 63 80 65 81 66 82 67 83 68 84
REMARK SMILES IDX 45 85 46 86 54 87 47 88 49 89 55 90 48 91 50 92 51 93 52 94
REMARK SMILES IDX 53 95
REMARK H PARENT 75 48 43 59
REMARK Flexibility Score: inf
ROOT
ATOM      1  C   UNL A   1      36.517  21.324  24.378  1.00  0.00     0.275 C 
ENDROOT
BRANCH   1   2
ATOM      2  C   UNL A   1      36.557  22.579  23.507  1.00  0.00     0.274 C 
BRANCH   2   3
ATOM      3  O   UNL A   1      35.568  23.532  23.953  1.00  0.00    -0.459 OA
BRANCH   3   4
ATOM      4  C   UNL A   1      34.444  23.655  23.184  1.00  0.00     0.350 C 
ATOM      5  O   UNL A   1      34.400  23.348  21.998  1.00  0.00    -0.247 OA
BRANCH   4   6
ATOM      6  C   UNL A   1      33.270  24.332  23.957  1.00  0.00     0.209 C 
ATOM      7  C   UNL A   1      33.818  25.328  24.979  1.00  0.00     0.082 C 
ATOM      8  C   UNL A   1      32.456  24.950  22.816  1.00  0.00     0.082 C 
ATOM      9  C   UNL A   1      33.593  26.783  24.556  1.00  0.00     0.124 C 
ATOM     10  C   UNL A   1      31.533  26.029  23.313  1.00  0.00     0.124 C 
ATOM     11  N   UNL A   1      32.265  27.090  24.002  1.00  0.00    -0.342 N 
ATOM     12  C   UNL A   1      31.838  28.418  24.043  1.00  0.00     0.228 C 
ATOM     13  O   UNL A   1      32.556  29.308  24.502  1.00  0.00    -0.274 OA
BRANCH   6  14
ATOM     14  O   UNL A   1      32.518  23.232  24.479  1.00  0.00    -0.475 OA
BRANCH  14  15
ATOM     15  C   UNL A   1      32.679  21.925  24.780  1.00  0.00     0.124 A 
ATOM     16  C   UNL A   1      33.714  21.742  27.178  1.00  0.00     0.048 C 
ATOM     17  C   UNL A   1      33.222  21.221  25.863  1.00  0.00    -0.006 A 
ATOM     18  C   UNL A   1      33.348  19.809  25.760  1.00  0.00     0.046 A 
ATOM     19  C   UNL A   1      32.885  19.105  24.659  1.00  0.00     0.123 A 
ATOM     20  C   UNL A   1      32.156  21.162  23.707  1.00  0.00     0.050 A 
ATOM     21  F   UNL A   1      33.022  17.775  24.618  1.00  0.00    -0.207 F 
ATOM     22  C   UNL A   1      32.262  19.771  23.631  1.00  0.00     0.043 A 
ENDBRANCH  14  15
ENDBRANCH   6  14
BRANCH  12  23
ATOM     23  C   UNL A   1      30.446  28.735  23.513  1.00  0.00     0.107 C 
ATOM     24  C   UNL A   1      29.948  30.098  23.946  1.00  0.00     0.044 C 
ATOM     25  C   UNL A   1      30.408  28.864  22.001  1.00  0.00     0.173 C 
ATOM     26  C   UNL A   1      28.946  30.453  22.867  1.00  0.00     0.161 C 
ATOM     27  O   UNL A   1      29.281  29.700  21.695  1.00  0.00    -0.381 OA
ENDBRANCH  12  23
ENDBRANCH   4   6
ENDBRANCH   3   4
ENDBRANCH   2   3
ENDBRANCH   1   2
BRANCH   1  28
ATOM     28  O   UNL A   1      37.049  21.630  25.677  1.00  0.00    -0.458 OA
BRANCH  28  29
ATOM     29  C   UNL A   1      38.342  21.304  25.898  1.00  0.00     0.338 C 
ATOM     30  O   UNL A   1      38.886  20.232  25.675  1.00  0.00    -0.246 OA
BRANCH  29  31
ATOM     31  C   UNL A   1      39.042  22.485  26.424  1.00  0.00     0.060 A 
ATOM     32  C   UNL A   1      38.523  23.747  26.152  1.00  0.00     0.016 A 
ATOM     33  C   UNL A   1      40.246  22.358  27.118  1.00  0.00     0.016 A 
ATOM     34  C   UNL A   1      39.226  24.883  26.531  1.00  0.00     0.010 A 
ATOM     35  C   UNL A   1      40.920  23.509  27.548  1.00  0.00     0.010 A 
ATOM     36  C   UNL A   1      40.433  24.788  27.231  1.00  0.00    -0.014 A 
BRANCH  36  37
ATOM     37  C   UNL A   1      41.191  26.034  27.536  1.00  0.00     0.031 A 
ATOM     38  C   UNL A   1      40.583  27.083  28.427  1.00  0.00     0.074 A 
ATOM     39  C   UNL A   1      42.453  26.201  27.090  1.00  0.00     0.049 A 
ATOM     40  N   UNL A   1      41.029  28.278  28.719  1.00  0.00    -0.248 NA
ATOM     41  C   UNL A   1      39.300  26.751  29.068  1.00  0.00     0.031 C 
ATOM     42  C   UNL A   1      43.195  25.240  26.273  1.00  0.00     0.029 A 
ATOM     43  N   UNL A   1      43.345  27.228  27.279  1.00  0.00    -0.354 N 
ATOM     44  C   UNL A   1      40.044  28.870  29.499  1.00  0.00     0.074 A 
ATOM     45  C   UNL A   1      38.987  27.895  29.658  1.00  0.00     0.031 C 
ATOM     46  C   UNL A   1      44.442  25.694  26.082  1.00  0.00     0.029 A 
ATOM     47  C   UNL A   1      44.567  27.017  26.683  1.00  0.00     0.049 A 
ATOM     48  H   UNL A   1      43.129  28.040  27.795  1.00  0.00     0.167 HD
ATOM     49  C   UNL A   1      40.022  30.111  30.038  1.00  0.00     0.034 A 
ATOM     50  C   UNL A   1      45.655  27.809  26.601  1.00  0.00     0.034 A 
ATOM     51  C   UNL A   1      41.113  31.047  29.968  1.00  0.00     0.049 A 
ATOM     52  C   UNL A   1      45.612  29.180  27.216  1.00  0.00     0.074 A 
ATOM     53  C   UNL A   1      41.190  32.321  30.500  1.00  0.00     0.029 A 
ATOM     54  N   UNL A   1      42.327  30.798  29.348  1.00  0.00    -0.354 N 
ATOM     55  N   UNL A   1      44.667  29.729  27.940  1.00  0.00    -0.248 NA
ATOM     56  C   UNL A   1      46.780  30.045  26.994  1.00  0.00     0.031 C 
ATOM     57  C   UNL A   1      42.451  32.845  30.200  1.00  0.00     0.029 A 
ATOM     58  C   UNL A   1      43.162  31.895  29.484  1.00  0.00     0.049 A 
ATOM     59  H   UNL A   1      42.562  29.965  28.880  1.00  0.00     0.167 HD
ATOM     60  C   UNL A   1      45.125  31.002  28.262  1.00  0.00     0.074 A 
ATOM     61  C   UNL A   1      46.448  31.128  27.687  1.00  0.00     0.031 C 
ATOM     62  C   UNL A   1      44.494  31.989  28.945  1.00  0.00     0.034 A 
BRANCH  49  63
ATOM     63  C   UNL A   1      38.771  30.528  30.762  1.00  0.00     0.023 A 
ATOM     64  C   UNL A   1      38.645  30.295  32.145  1.00  0.00     0.012 A 
ATOM     65  C   UNL A   1      37.728  31.175  30.070  1.00  0.00     0.148 A 
ATOM     66  C   UNL A   1      37.486  30.675  32.823  1.00  0.00     0.002 A 
ATOM     67  C   UNL A   1      36.593  31.583  30.760  1.00  0.00     0.091 A 
ATOM     68  F   UNL A   1      37.849  31.358  28.747  1.00  0.00    -0.205 F 
ATOM     69  C   UNL A   1      36.466  31.327  32.133  1.00  0.00     0.022 A 
BRANCH  67  70
ATOM     70  S   UNL A   1      35.271  32.488  29.947  1.00  0.00     0.127 S 
ATOM     71  O   UNL A   1      34.344  32.721  31.053  1.00  0.00    -0.237 OA
ATOM     72  O   UNL A   1      35.956  33.689  29.465  1.00  0.00    -0.237 OA
ATOM     73  O   UNL A   1      34.794  31.609  28.888  1.00  0.00    -0.744 OA
ENDBRANCH  67  70
ENDBRANCH  49  63
BRANCH  50  74
ATOM     74  C   UNL A   1      46.888  27.309  25.927  1.00  0.00     0.023 A 
ATOM     75  C   UNL A   1      47.080  27.574  24.557  1.00  0.00     0.012 A 
ATOM     76  C   UNL A   1      47.896  26.630  26.641  1.00  0.00     0.148 A 
ATOM     77  C   UNL A   1      48.248  27.169  23.910  1.00  0.00     0.002 A 
ATOM     78  C   UNL A   1      49.085  26.289  26.006  1.00  0.00     0.091 A 
ATOM     79  F   UNL A   1      47.683  26.352  27.934  1.00  0.00    -0.205 F 
ATOM     80  C   UNL A   1      49.258  26.544  24.638  1.00  0.00     0.022 A 
BRANCH  78  81
ATOM     81  S   UNL A   1      50.492  25.631  26.911  1.00  0.00     0.127 S 
ATOM     82  O   UNL A   1      50.814  26.734  27.810  1.00  0.00    -0.237 OA
ATOM     83  O   UNL A   1      49.914  24.454  27.560  1.00  0.00    -0.237 OA
ATOM     84  O   UNL A   1      51.491  25.319  25.897  1.00  0.00    -0.744 OA
ENDBRANCH  78  81
ENDBRANCH  50  74
BRANCH  62  85
ATOM     85  C   UNL A   1      45.220  33.297  29.105  1.00  0.00     0.023 A 
ATOM     86  C   UNL A   1      46.059  33.484  30.220  1.00  0.00     0.012 A 
ATOM     87  C   UNL A   1      45.131  34.305  28.126  1.00  0.00     0.148 A 
ATOM     88  C   UNL A   1      46.785  34.664  30.371  1.00  0.00     0.002 A 
ATOM     89  C   UNL A   1      45.887  35.465  28.265  1.00  0.00     0.091 A 
ATOM     90  F   UNL A   1      44.308  34.118  27.084  1.00  0.00    -0.205 F 
ATOM     91  C   UNL A   1      46.708  35.650  29.388  1.00  0.00     0.022 A 
BRANCH  89  92
ATOM     92  S   UNL A   1      45.905  36.746  27.004  1.00  0.00     0.127 S 
ATOM     93  O   UNL A   1      46.835  37.717  27.578  1.00  0.00    -0.237 OA
ATOM     94  O   UNL A   1      46.417  36.031  25.834  1.00  0.00    -0.237 OA
ATOM     95  O   UNL A   1      44.524  37.192  26.876  1.00  0.00    -0.744 OA
ENDBRANCH  89  92
ENDBRANCH  62  85
ENDBRANCH  36  37
ENDBRANCH  29  31
ENDBRANCH  28  29
ENDBRANCH   1  28
TORSDOF 17
ENDMDL
MODEL 3
REMARK VINA RESULT:     -12.5      1.314      1.572
REMARK SMILES Cc1cc(F)ccc1OC1(C(=O)OCCOC(=O)c2ccc(-c3c4nc(c(-c5cccc(S(=O)(=O)[O-])c5F)c5ccc([nH]5)c(-c5cccc(S(=O)(=O)[O-])c5F)c5nc(c(-c6cccc(S(=O)(=O)[O-])c6F)c6ccc3[nH]6)C=C5)C=C4)cc2)CCN(C(=O)[C@H]2CCOC2)CC1
REMARK SMILES IDX 15 1 14 2 13 3 11 4 12 5 10 6 82 7 93 8 83 9 92 10 84 11
REMARK SMILES IDX 85 12 86 13 9 14 8 15 1 16 2 17 3 18 4 19 7 20 5 21 6 22
REMARK SMILES IDX 87 23 88 24 91 25 89 26 90 27 16 28 17 29 18 30 19 31 20 32
REMARK SMILES IDX 81 33 21 34 80 35 22 36 23 37 24 38 74 39 25 40 79 41 73 42
REMARK SMILES IDX 75 43 26 44 78 45 72 46 71 47 27 49 59 50 39 51 58 52 40 53
REMARK SMILES IDX 43 54 57 55 76 56 41 57 42 58 56 60 77 61 44 62 28 63 29 64
REMARK SMILES IDX 37 65 30 66 32 67 38 68 31 69 33 70 34 71 35 72 36 73 60 74
REMARK SMILES IDX 61 75 69 76 62 77 64 78 70 79 63 80 65 81 66 82 67 83 68 84
REMARK SMILES IDX 45 85 46 86 54 87 47 88 49 89 55 90 48 91 50 92 51 93 52 94
REMARK SMILES IDX 53 95
REMARK H PARENT 75 48 43 59
REMARK Flexibility Score: inf
ROOT
ATOM      1  C   UNL A   1      31.946  29.837  26.502  1.00  0.00     0.275 C 
ENDROOT
BRANCH   1   2
ATOM      2  C   UNL A   1      32.020  28.667  27.483  1.00  0.00     0.274 C 
BRANCH   2   3
ATOM      3  O   UNL A   1      32.424  27.462  26.797  1.00  0.00    -0.459 OA
BRANCH   3   4
ATOM      4  C   UNL A   1      31.424  26.619  26.398  1.00  0.00     0.350 C 
ATOM      5  O   UNL A   1      30.297  26.631  26.883  1.00  0.00    -0.247 OA
BRANCH   4   6
ATOM      6  C   UNL A   1      31.915  25.576  25.348  1.00  0.00     0.209 C 
ATOM      7  C   UNL A   1      33.386  25.236  25.590  1.00  0.00     0.082 C 
ATOM      8  C   UNL A   1      30.934  24.420  25.569  1.00  0.00     0.082 C 
ATOM      9  C   UNL A   1      33.572  23.838  26.187  1.00  0.00     0.124 C 
ATOM     10  C   UNL A   1      31.460  23.128  25.006  1.00  0.00     0.124 C 
ATOM     11  N   UNL A   1      32.752  22.771  25.589  1.00  0.00    -0.342 N 
ATOM     12  C   UNL A   1      33.192  21.456  25.738  1.00  0.00     0.228 C 
ATOM     13  O   UNL A   1      34.216  21.191  26.370  1.00  0.00    -0.274 OA
BRANCH   6  14
ATOM     14  O   UNL A   1      31.598  26.177  24.087  1.00  0.00    -0.475 OA
BRANCH  14  15
ATOM     15  C   UNL A   1      30.871  27.200  23.589  1.00  0.00     0.124 A 
ATOM     16  C   UNL A   1      28.331  26.650  23.903  1.00  0.00     0.048 C 
ATOM     17  C   UNL A   1      29.502  27.450  23.423  1.00  0.00    -0.006 A 
ATOM     18  C   UNL A   1      29.106  28.614  22.711  1.00  0.00     0.046 A 
ATOM     19  C   UNL A   1      30.025  29.541  22.242  1.00  0.00     0.123 A 
ATOM     20  C   UNL A   1      31.770  28.205  23.156  1.00  0.00     0.050 A 
ATOM     21  F   UNL A   1      29.597  30.624  21.583  1.00  0.00    -0.207 F 
ATOM     22  C   UNL A   1      31.366  29.358  22.480  1.00  0.00     0.043 A 
ENDBRANCH  14  15
ENDBRANCH   6  14
BRANCH  12  23
ATOM     23  C   UNL A   1      32.373  20.352  25.083  1.00  0.00     0.107 C 
ATOM     24  C   UNL A   1      32.712  20.157  23.621  1.00  0.00     0.044 C 
ATOM     25  C   UNL A   1      32.676  18.979  25.652  1.00  0.00     0.173 C 
ATOM     26  C   UNL A   1      32.315  18.716  23.369  1.00  0.00     0.161 C 
ATOM     27  O   UNL A   1      32.335  18.032  24.628  1.00  0.00    -0.381 OA
ENDBRANCH  12  23
ENDBRANCH   4   6
ENDBRANCH   3   4
ENDBRANCH   2   3
ENDBRANCH   1   2
BRANCH   1  28
ATOM     28  O   UNL A   1      33.261  30.385  26.316  1.00  0.00    -0.458 OA
BRANCH  28  29
ATOM     29  C   UNL A   1      33.640  31.363  27.167  1.00  0.00     0.338 C 
ATOM     30  O   UNL A   1      33.007  32.361  27.481  1.00  0.00    -0.246 OA
BRANCH  29  31
ATOM     31  C   UNL A   1      34.957  31.019  27.723  1.00  0.00     0.060 A 
ATOM     32  C   UNL A   1      35.213  29.696  28.068  1.00  0.00     0.016 A 
ATOM     33  C   UNL A   1      35.911  32.005  27.974  1.00  0.00     0.016 A 
ATOM     34  C   UNL A   1      36.401  29.362  28.706  1.00  0.00     0.010 A 
ATOM     35  C   UNL A   1      37.132  31.651  28.565  1.00  0.00     0.010 A 
ATOM     36  C   UNL A   1      37.378  30.327  28.968  1.00  0.00    -0.014 A 
BRANCH  36  37
ATOM     37  C   UNL A   1      38.595  29.934  29.733  1.00  0.00     0.031 A 
ATOM     38  C   UNL A   1      39.634  29.055  29.090  1.00  0.00     0.074 A 
ATOM     39  C   UNL A   1      38.820  30.422  30.970  1.00  0.00     0.049 A 
ATOM     40  N   UNL A   1      40.699  28.512  29.621  1.00  0.00    -0.248 NA
ATOM     41  C   UNL A   1      39.447  28.737  27.665  1.00  0.00     0.031 C 
ATOM     42  C   UNL A   1      37.935  31.336  31.692  1.00  0.00     0.029 A 
ATOM     43  N   UNL A   1      39.874  30.237  31.830  1.00  0.00    -0.354 N 
ATOM     44  C   UNL A   1      41.255  27.719  28.626  1.00  0.00     0.074 A 
ATOM     45  C   UNL A   1      40.427  27.871  27.450  1.00  0.00     0.031 C 
ATOM     46  C   UNL A   1      38.507  31.677  32.856  1.00  0.00     0.029 A 
ATOM     47  C   UNL A   1      39.757  30.939  33.008  1.00  0.00     0.049 A 
ATOM     48  H   UNL A   1      40.642  29.656  31.624  1.00  0.00     0.167 HD
ATOM     49  C   UNL A   1      42.360  26.938  28.684  1.00  0.00     0.034 A 
ATOM     50  C   UNL A   1      40.547  30.966  34.100  1.00  0.00     0.034 A 
ATOM     51  C   UNL A   1      43.242  26.861  29.817  1.00  0.00     0.049 A 
ATOM     52  C   UNL A   1      41.774  30.097  34.138  1.00  0.00     0.074 A 
ATOM     53  C   UNL A   1      44.395  26.112  29.961  1.00  0.00     0.029 A 
ATOM     54  N   UNL A   1      43.083  27.580  30.991  1.00  0.00    -0.354 N 
ATOM     55  N   UNL A   1      42.280  29.344  33.192  1.00  0.00    -0.248 NA
ATOM     56  C   UNL A   1      42.532  30.074  35.397  1.00  0.00     0.031 C 
ATOM     57  C   UNL A   1      44.934  26.376  31.224  1.00  0.00     0.029 A 
ATOM     58  C   UNL A   1      44.117  27.293  31.866  1.00  0.00     0.049 A 
ATOM     59  H   UNL A   1      42.344  28.203  31.176  1.00  0.00     0.167 HD
ATOM     60  C   UNL A   1      43.416  28.758  33.739  1.00  0.00     0.074 A 
ATOM     61  C   UNL A   1      43.545  29.274  35.086  1.00  0.00     0.031 C 
ATOM     62  C   UNL A   1      44.258  27.849  33.187  1.00  0.00     0.034 A 
BRANCH  49  63
ATOM     63  C   UNL A   1      42.678  26.102  27.474  1.00  0.00     0.023 A 
ATOM     64  C   UNL A   1      43.428  26.650  26.416  1.00  0.00     0.012 A 
ATOM     65  C   UNL A   1      42.252  24.761  27.401  1.00  0.00     0.148 A 
ATOM     66  C   UNL A   1      43.725  25.883  25.289  1.00  0.00     0.002 A 
ATOM     67  C   UNL A   1      42.583  23.993  26.291  1.00  0.00     0.091 A 
ATOM     68  F   UNL A   1      41.509  24.266  28.401  1.00  0.00    -0.205 F 
ATOM     69  C   UNL A   1      43.311  24.553  25.231  1.00  0.00     0.022 A 
BRANCH  67  70
ATOM     70  S   UNL A   1      42.141  22.255  26.183  1.00  0.00     0.127 S 
ATOM     71  O   UNL A   1      42.886  21.831  24.999  1.00  0.00    -0.237 OA
ATOM     72  O   UNL A   1      42.650  21.717  27.446  1.00  0.00    -0.237 OA
ATOM     73  O   UNL A   1      40.690  22.231  26.066  1.00  0.00    -0.744 OA
ENDBRANCH  67  70
ENDBRANCH  49  63
BRANCH  50  74
ATOM     74  C   UNL A   1      40.210  31.868  35.239  1.00  0.00     0.023 A 
ATOM     75  C   UNL A   1      40.776  33.156  35.287  1.00  0.00     0.012 A 
ATOM     76  C   UNL A   1      39.291  31.486  36.237  1.00  0.00     0.148 A 
ATOM     77  C   UNL A   1      40.437  34.045  36.309  1.00  0.00     0.002 A 
ATOM     78  C   UNL A   1      38.907  32.398  37.213  1.00  0.00     0.091 A 
ATOM     79  F   UNL A   1      38.790  30.243  36.198  1.00  0.00    -0.205 F 
ATOM     80  C   UNL A   1      39.490  33.673  37.260  1.00  0.00     0.022 A 
BRANCH  78  81
ATOM     81  S   UNL A   1      37.578  32.051  38.371  1.00  0.00     0.127 S 
ATOM     82  O   UNL A   1      38.231  32.279  39.656  1.00  0.00    -0.237 OA
ATOM     83  O   UNL A   1      36.579  33.054  37.999  1.00  0.00    -0.237 OA
ATOM     84  O   UNL A   1      37.173  30.679  38.093  1.00  0.00    -0.744 OA
ENDBRANCH  78  81
ENDBRANCH  50  74
BRANCH  62  85
ATOM     85  C   UNL A   1      45.393  27.347  34.038  1.00  0.00     0.023 A 
ATOM     86  C   UNL A   1      46.618  28.042  34.028  1.00  0.00     0.012 A 
ATOM     87  C   UNL A   1      45.229  26.242  34.894  1.00  0.00     0.148 A 
ATOM     88  C   UNL A   1      47.671  27.632  34.843  1.00  0.00     0.002 A 
ATOM     89  C   UNL A   1      46.273  25.861  35.731  1.00  0.00     0.091 A 
ATOM     90  F   UNL A   1      44.064  25.579  34.871  1.00  0.00    -0.205 F 
ATOM     91  C   UNL A   1      47.496  26.550  35.702  1.00  0.00     0.022 A 
BRANCH  89  92
ATOM     92  S   UNL A   1      46.099  24.528  36.924  1.00  0.00     0.127 S 
ATOM     93  O   UNL A   1      47.406  24.541  37.580  1.00  0.00    -0.237 OA
ATOM     94  O   UNL A   1      44.993  24.996  37.762  1.00  0.00    -0.237 OA
ATOM     95  O   UNL A   1      45.796  23.337  36.143  1.00  0.00    -0.744 OA
ENDBRANCH  89  92
ENDBRANCH  62  85
ENDBRANCH  36  37
ENDBRANCH  29  31
ENDBRANCH  28  29
ENDBRANCH   1  28
TORSDOF 17
ENDMDL
