MODEL 1
REMARK VINA RESULT:     -13.1      0.000      0.000
REMARK SMILES C[C@@]12CC[C@@H]3c4ccc(O)cc4/C(=N/OCC(=O)OCCOC(=O)c4ccc(-c5c6nc(c(-c7cccc(S(=O)(=O)[O-])c7F)c7ccc([nH]7)c(-c7cccc(S(=O)(=O)[O-])c7F)c7nc(c(-c8cccc(S(=O)(=O)[O-])c8F)c8ccc5[nH]8)C=C7)C=C6)cc4)C[C@H]3[C@@H]1C[C@@H](O)[C@@H]2O
REMARK SMILES IDX 20 1 19 2 17 3 18 4 16 5 15 6 14 7 1 8 2 9 3 10 90 11 94 12
REMARK SMILES IDX 4 13 89 14 91 15 92 16 5 17 88 18 6 19 13 20 7 21 12 22 8 23
REMARK SMILES IDX 11 24 9 25 95 26 93 28 10 30 21 32 22 33 23 34 24 35 25 36
REMARK SMILES IDX 26 37 87 38 27 39 86 40 28 41 29 42 30 43 80 44 31 45 85 46
REMARK SMILES IDX 79 47 81 48 32 49 84 50 78 51 77 52 33 54 65 55 45 56 64 57
REMARK SMILES IDX 46 58 49 59 63 60 82 61 47 62 48 63 62 65 83 66 50 67 34 68
REMARK SMILES IDX 35 69 43 70 36 71 38 72 44 73 37 74 39 75 40 76 41 77 42 78
REMARK SMILES IDX 66 79 67 80 75 81 68 82 70 83 76 84 69 85 71 86 72 87 73 88
REMARK SMILES IDX 74 89 51 90 52 91 60 92 53 93 55 94 61 95 54 96 56 97 57 98
REMARK SMILES IDX 58 99 59 100
REMARK H PARENT 95 27 93 29 10 31 81 53 49 64
REMARK Flexibility Score: inf
ROOT
ATOM      1  C   UNL A   1      42.223  20.740  26.143  1.00  0.00     0.274 C 
ENDROOT
BRANCH   1   2
ATOM      2  O   UNL A   1      41.038  21.512  26.383  1.00  0.00    -0.459 OA
BRANCH   2   3
ATOM      3  C   UNL A   1      39.854  20.913  26.078  1.00  0.00     0.347 C 
ATOM      4  O   UNL A   1      39.731  19.744  25.729  1.00  0.00    -0.248 OA
BRANCH   3   5
ATOM      5  C   UNL A   1      38.699  21.888  26.159  1.00  0.00     0.386 C 
BRANCH   5   6
ATOM      6  O   UNL A   1      38.052  22.105  24.906  1.00  0.00    -0.383 OA
BRANCH   6   7
ATOM      7  N   UNL A   1      36.916  21.295  24.878  1.00  0.00    -0.090 NA
ATOM      8  C   UNL A   1      33.704  27.533  23.009  1.00  0.00     0.014 C 
ATOM      9  C   UNL A   1      33.236  26.152  23.549  1.00  0.00    -0.001 C 
ATOM     10  C   UNL A   1      33.060  25.285  22.304  1.00  0.00     0.010 C 
ATOM     11  C   UNL A   1      34.277  25.617  24.563  1.00  0.00     0.004 C 
ATOM     12  C   UNL A   1      31.955  26.284  24.424  1.00  0.00     0.149 C 
ATOM     13  C   UNL A   1      32.774  23.840  22.605  1.00  0.00     0.009 C 
ATOM     14  C   UNL A   1      34.277  24.051  24.741  1.00  0.00     0.006 C 
ATOM     15  C   UNL A   1      33.911  26.439  25.855  1.00  0.00     0.039 C 
ATOM     16  C   UNL A   1      32.460  26.973  25.691  1.00  0.00     0.144 C 
ATOM     17  C   UNL A   1      33.877  23.249  23.467  1.00  0.00     0.024 C 
ATOM     18  C   UNL A   1      35.673  23.483  25.162  1.00  0.00     0.065 C 
ATOM     19  C   UNL A   1      33.605  21.814  23.876  1.00  0.00    -0.035 A 
ATOM     20  C   UNL A   1      35.801  21.957  24.960  1.00  0.00     0.088 C 
ATOM     21  C   UNL A   1      32.509  21.064  23.424  1.00  0.00     0.008 A 
ATOM     22  C   UNL A   1      34.564  21.182  24.679  1.00  0.00     0.006 A 
ATOM     23  C   UNL A   1      32.392  19.715  23.750  1.00  0.00     0.046 A 
ATOM     24  C   UNL A   1      34.458  19.825  25.007  1.00  0.00     0.056 A 
ATOM     25  C   UNL A   1      33.369  19.105  24.526  1.00  0.00     0.116 A 
BRANCH  12  26
ATOM     26  O   UNL A   1      31.359  25.046  24.802  1.00  0.00    -0.390 OA
ATOM     27  H   UNL A   1      32.025  24.482  25.227  1.00  0.00     0.211 HD
ENDBRANCH  12  26
BRANCH  16  28
ATOM     28  O   UNL A   1      32.426  28.390  25.539  1.00  0.00    -0.390 OA
ATOM     29  H   UNL A   1      33.183  28.676  25.004  1.00  0.00     0.211 HD
ENDBRANCH  16  28
BRANCH  25  30
ATOM     30  O   UNL A   1      33.228  17.771  24.757  1.00  0.00    -0.508 OA
ATOM     31  H   UNL A   1      33.151  17.176  24.038  1.00  0.00     0.293 HD
ENDBRANCH  25  30
ENDBRANCH   6   7
ENDBRANCH   5   6
ENDBRANCH   3   5
ENDBRANCH   2   3
ENDBRANCH   1   2
BRANCH   1  32
ATOM     32  C   UNL A   1      43.261  21.579  25.399  1.00  0.00     0.275 C 
BRANCH  32  33
ATOM     33  O   UNL A   1      42.707  22.853  25.027  1.00  0.00    -0.458 OA
BRANCH  33  34
ATOM     34  C   UNL A   1      43.550  23.908  25.049  1.00  0.00     0.338 C 
ATOM     35  O   UNL A   1      44.533  24.098  24.341  1.00  0.00    -0.246 OA
BRANCH  34  36
ATOM     36  C   UNL A   1      43.096  24.838  26.088  1.00  0.00     0.060 A 
ATOM     37  C   UNL A   1      42.318  24.355  27.142  1.00  0.00     0.016 A 
ATOM     38  C   UNL A   1      43.464  26.186  26.030  1.00  0.00     0.016 A 
ATOM     39  C   UNL A   1      41.878  25.237  28.128  1.00  0.00     0.010 A 
ATOM     40  C   UNL A   1      43.035  27.063  27.031  1.00  0.00     0.010 A 
ATOM     41  C   UNL A   1      42.229  26.599  28.082  1.00  0.00    -0.014 A 
BRANCH  41  42
ATOM     42  C   UNL A   1      41.775  27.511  29.163  1.00  0.00     0.031 A 
ATOM     43  C   UNL A   1      40.475  28.261  29.052  1.00  0.00     0.074 A 
ATOM     44  C   UNL A   1      42.540  27.654  30.264  1.00  0.00     0.049 A 
ATOM     45  N   UNL A   1      39.887  29.014  29.945  1.00  0.00    -0.248 NA
ATOM     46  C   UNL A   1      39.742  28.156  27.780  1.00  0.00     0.031 C 
ATOM     47  C   UNL A   1      43.844  27.020  30.471  1.00  0.00     0.029 A 
ATOM     48  N   UNL A   1      42.331  28.369  31.417  1.00  0.00    -0.354 N 
ATOM     49  C   UNL A   1      38.727  29.487  29.344  1.00  0.00     0.074 A 
ATOM     50  C   UNL A   1      38.700  28.950  28.001  1.00  0.00     0.031 C 
ATOM     51  C   UNL A   1      44.303  27.349  31.688  1.00  0.00     0.029 A 
ATOM     52  C   UNL A   1      43.338  28.228  32.343  1.00  0.00     0.049 A 
ATOM     53  H   UNL A   1      41.536  28.929  31.568  1.00  0.00     0.167 HD
ATOM     54  C   UNL A   1      37.762  30.274  29.873  1.00  0.00     0.034 A 
ATOM     55  C   UNL A   1      43.465  28.731  33.587  1.00  0.00     0.034 A 
ATOM     56  C   UNL A   1      37.769  30.774  31.221  1.00  0.00     0.049 A 
ATOM     57  C   UNL A   1      42.367  29.584  34.156  1.00  0.00     0.074 A 
ATOM     58  C   UNL A   1      36.791  31.515  31.863  1.00  0.00     0.029 A 
ATOM     59  N   UNL A   1      38.798  30.594  32.130  1.00  0.00    -0.354 N 
ATOM     60  N   UNL A   1      41.217  29.909  33.616  1.00  0.00    -0.248 NA
ATOM     61  C   UNL A   1      42.568  30.119  35.511  1.00  0.00     0.031 C 
ATOM     62  C   UNL A   1      37.236  31.797  33.158  1.00  0.00     0.029 A 
ATOM     63  C   UNL A   1      38.483  31.217  33.325  1.00  0.00     0.049 A 
ATOM     64  H   UNL A   1      39.628  30.097  31.953  1.00  0.00     0.167 HD
ATOM     65  C   UNL A   1      40.549  30.664  34.573  1.00  0.00     0.074 A 
ATOM     66  C   UNL A   1      41.414  30.739  35.730  1.00  0.00     0.031 C 
ATOM     67  C   UNL A   1      39.330  31.249  34.488  1.00  0.00     0.034 A 
BRANCH  54  68
ATOM     68  C   UNL A   1      36.561  30.603  29.028  1.00  0.00     0.023 A 
ATOM     69  C   UNL A   1      35.817  29.550  28.461  1.00  0.00     0.012 A 
ATOM     70  C   UNL A   1      36.091  31.926  28.920  1.00  0.00     0.148 A 
ATOM     71  C   UNL A   1      34.620  29.809  27.796  1.00  0.00     0.002 A 
ATOM     72  C   UNL A   1      34.881  32.173  28.281  1.00  0.00     0.091 A 
ATOM     73  F   UNL A   1      36.820  32.909  29.468  1.00  0.00    -0.205 F 
ATOM     74  C   UNL A   1      34.147  31.116  27.717  1.00  0.00     0.022 A 
BRANCH  72  75
ATOM     75  S   UNL A   1      34.150  33.810  28.172  1.00  0.00     0.127 S 
ATOM     76  O   UNL A   1      32.815  33.504  27.658  1.00  0.00    -0.237 OA
ATOM     77  O   UNL A   1      34.181  34.252  29.566  1.00  0.00    -0.237 OA
ATOM     78  O   UNL A   1      34.997  34.573  27.265  1.00  0.00    -0.744 OA
ENDBRANCH  72  75
ENDBRANCH  54  68
BRANCH  55  79
ATOM     79  C   UNL A   1      44.647  28.359  34.409  1.00  0.00     0.023 A 
ATOM     80  C   UNL A   1      45.788  29.184  34.381  1.00  0.00     0.012 A 
ATOM     81  C   UNL A   1      44.625  27.236  35.259  1.00  0.00     0.148 A 
ATOM     82  C   UNL A   1      46.893  28.893  35.181  1.00  0.00     0.002 A 
ATOM     83  C   UNL A   1      45.716  26.971  36.079  1.00  0.00     0.091 A 
ATOM     84  F   UNL A   1      43.527  26.468  35.263  1.00  0.00    -0.205 F 
ATOM     85  C   UNL A   1      46.853  27.794  36.036  1.00  0.00     0.022 A 
BRANCH  83  86
ATOM     86  S   UNL A   1      45.729  25.633  37.275  1.00  0.00     0.127 S 
ATOM     87  O   UNL A   1      45.962  24.471  36.419  1.00  0.00    -0.237 OA
ATOM     88  O   UNL A   1      46.860  26.006  38.127  1.00  0.00    -0.237 OA
ATOM     89  O   UNL A   1      44.432  25.674  37.932  1.00  0.00    -0.744 OA
ENDBRANCH  83  86
ENDBRANCH  55  79
BRANCH  67  90
ATOM     90  C   UNL A   1      38.828  32.023  35.675  1.00  0.00     0.023 A 
ATOM     91  C   UNL A   1      38.857  33.430  35.643  1.00  0.00     0.012 A 
ATOM     92  C   UNL A   1      38.201  31.362  36.750  1.00  0.00     0.148 A 
ATOM     93  C   UNL A   1      38.274  34.171  36.670  1.00  0.00     0.002 A 
ATOM     94  C   UNL A   1      37.592  32.107  37.753  1.00  0.00     0.091 A 
ATOM     95  F   UNL A   1      38.192  30.021  36.756  1.00  0.00    -0.205 F 
ATOM     96  C   UNL A   1      37.631  33.511  37.717  1.00  0.00     0.022 A 
BRANCH  94  97
ATOM     97  S   UNL A   1      36.674  31.352  39.100  1.00  0.00     0.127 S 
ATOM     98  O   UNL A   1      37.670  31.350  40.172  1.00  0.00    -0.237 OA
ATOM     99  O   UNL A   1      35.575  32.298  39.292  1.00  0.00    -0.237 OA
ATOM    100  O   UNL A   1      36.271  30.035  38.629  1.00  0.00    -0.744 OA
ENDBRANCH  94  97
ENDBRANCH  67  90
ENDBRANCH  41  42
ENDBRANCH  34  36
ENDBRANCH  33  34
ENDBRANCH  32  33
ENDBRANCH   1  32
TORSDOF 19
ENDMDL
MODEL 2
REMARK VINA RESULT:     -12.6      5.088      8.992
REMARK SMILES C[C@@]12CC[C@@H]3c4ccc(O)cc4/C(=N/OCC(=O)OCCOC(=O)c4ccc(-c5c6nc(c(-c7cccc(S(=O)(=O)[O-])c7F)c7ccc([nH]7)c(-c7cccc(S(=O)(=O)[O-])c7F)c7nc(c(-c8cccc(S(=O)(=O)[O-])c8F)c8ccc5[nH]8)C=C7)C=C6)cc4)C[C@H]3[C@@H]1C[C@@H](O)[C@@H]2O
REMARK SMILES IDX 20 1 19 2 17 3 18 4 16 5 15 6 14 7 1 8 2 9 3 10 90 11 94 12
REMARK SMILES IDX 4 13 89 14 91 15 92 16 5 17 88 18 6 19 13 20 7 21 12 22 8 23
REMARK SMILES IDX 11 24 9 25 95 26 93 28 10 30 21 32 22 33 23 34 24 35 25 36
REMARK SMILES IDX 26 37 87 38 27 39 86 40 28 41 29 42 30 43 80 44 31 45 85 46
REMARK SMILES IDX 79 47 81 48 32 49 84 50 78 51 77 52 33 54 65 55 45 56 64 57
REMARK SMILES IDX 46 58 49 59 63 60 82 61 47 62 48 63 62 65 83 66 50 67 34 68
REMARK SMILES IDX 35 69 43 70 36 71 38 72 44 73 37 74 39 75 40 76 41 77 42 78
REMARK SMILES IDX 66 79 67 80 75 81 68 82 70 83 76 84 69 85 71 86 72 87 73 88
REMARK SMILES IDX 74 89 51 90 52 91 60 92 53 93 55 94 61 95 54 96 56 97 57 98
REMARK SMILES IDX 58 99 59 100
REMARK H PARENT 95 27 93 29 10 31 81 53 49 64
REMARK Flexibility Score: inf
ROOT
ATOM      1  C   UNL A   1      38.938  20.971  25.778  1.00  0.00     0.274 C 
ENDROOT
BRANCH   1   2
ATOM      2  O   UNL A   1      37.877  21.062  24.817  1.00  0.00    -0.459 OA
BRANCH   2   3
ATOM      3  C   UNL A   1      37.412  22.313  24.547  1.00  0.00     0.347 C 
ATOM      4  O   UNL A   1      36.970  22.678  23.463  1.00  0.00    -0.248 OA
BRANCH   3   5
ATOM      5  C   UNL A   1      37.564  23.234  25.739  1.00  0.00     0.386 C 
BRANCH   5   6
ATOM      6  O   UNL A   1      36.365  23.378  26.500  1.00  0.00    -0.383 OA
BRANCH   6   7
ATOM      7  N   UNL A   1      35.394  22.574  25.904  1.00  0.00    -0.090 NA
ATOM      8  C   UNL A   1      33.528  28.842  22.751  1.00  0.00     0.014 C 
ATOM      9  C   UNL A   1      32.855  27.458  22.973  1.00  0.00    -0.001 C 
ATOM     10  C   UNL A   1      33.320  26.604  21.797  1.00  0.00     0.010 C 
ATOM     11  C   UNL A   1      33.255  26.909  24.365  1.00  0.00     0.004 C 
ATOM     12  C   UNL A   1      31.308  27.588  23.098  1.00  0.00     0.149 C 
ATOM     13  C   UNL A   1      32.925  25.157  21.901  1.00  0.00     0.009 C 
ATOM     14  C   UNL A   1      33.168  25.341  24.503  1.00  0.00     0.006 C 
ATOM     15  C   UNL A   1      32.295  27.721  25.313  1.00  0.00     0.039 C 
ATOM     16  C   UNL A   1      31.117  28.263  24.456  1.00  0.00     0.144 C 
ATOM     17  C   UNL A   1      33.454  24.553  23.190  1.00  0.00     0.024 C 
ATOM     18  C   UNL A   1      34.172  24.764  25.556  1.00  0.00     0.065 C 
ATOM     19  C   UNL A   1      33.017  23.115  23.395  1.00  0.00    -0.035 A 
ATOM     20  C   UNL A   1      34.385  23.239  25.428  1.00  0.00     0.088 C 
ATOM     21  C   UNL A   1      32.290  22.374  22.452  1.00  0.00     0.008 A 
ATOM     22  C   UNL A   1      33.451  22.472  24.562  1.00  0.00     0.006 A 
ATOM     23  C   UNL A   1      32.028  21.023  22.663  1.00  0.00     0.046 A 
ATOM     24  C   UNL A   1      33.197  21.113  24.780  1.00  0.00     0.056 A 
ATOM     25  C   UNL A   1      32.492  20.402  23.815  1.00  0.00     0.116 A 
BRANCH  12  26
ATOM     26  O   UNL A   1      30.604  26.348  23.118  1.00  0.00    -0.390 OA
ATOM     27  H   UNL A   1      30.883  25.804  22.365  1.00  0.00     0.211 HD
ENDBRANCH  12  26
BRANCH  16  28
ATOM     28  O   UNL A   1      31.162  29.681  24.321  1.00  0.00    -0.390 OA
ATOM     29  H   UNL A   1      31.932  29.931  23.789  1.00  0.00     0.211 HD
ENDBRANCH  16  28
BRANCH  25  30
ATOM     30  O   UNL A   1      32.255  19.067  23.932  1.00  0.00    -0.508 OA
ATOM     31  H   UNL A   1      32.601  18.472  23.295  1.00  0.00     0.293 HD
ENDBRANCH  25  30
ENDBRANCH   6   7
ENDBRANCH   5   6
ENDBRANCH   3   5
ENDBRANCH   2   3
ENDBRANCH   1   2
BRANCH   1  32
ATOM     32  C   UNL A   1      39.559  19.575  25.751  1.00  0.00     0.275 C 
BRANCH  32  33
ATOM     33  O   UNL A   1      40.737  19.531  26.575  1.00  0.00    -0.458 OA
BRANCH  33  34
ATOM     34  C   UNL A   1      41.893  19.925  25.999  1.00  0.00     0.338 C 
ATOM     35  O   UNL A   1      42.616  19.277  25.249  1.00  0.00    -0.246 OA
BRANCH  34  36
ATOM     36  C   UNL A   1      42.168  21.304  26.414  1.00  0.00     0.060 A 
ATOM     37  C   UNL A   1      42.263  21.600  27.775  1.00  0.00     0.016 A 
ATOM     38  C   UNL A   1      42.357  22.300  25.450  1.00  0.00     0.016 A 
ATOM     39  C   UNL A   1      42.517  22.911  28.174  1.00  0.00     0.010 A 
ATOM     40  C   UNL A   1      42.630  23.610  25.855  1.00  0.00     0.010 A 
ATOM     41  C   UNL A   1      42.701  23.929  27.221  1.00  0.00    -0.014 A 
BRANCH  41  42
ATOM     42  C   UNL A   1      43.004  25.312  27.672  1.00  0.00     0.031 A 
ATOM     43  C   UNL A   1      44.394  25.878  27.560  1.00  0.00     0.074 A 
ATOM     44  C   UNL A   1      42.009  26.068  28.177  1.00  0.00     0.049 A 
ATOM     45  N   UNL A   1      44.803  27.095  27.812  1.00  0.00    -0.248 NA
ATOM     46  C   UNL A   1      45.460  24.969  27.111  1.00  0.00     0.031 C 
ATOM     47  C   UNL A   1      40.631  25.619  28.382  1.00  0.00     0.029 A 
ATOM     48  N   UNL A   1      42.000  27.374  28.601  1.00  0.00    -0.354 N 
ATOM     49  C   UNL A   1      46.171  27.097  27.571  1.00  0.00     0.074 A 
ATOM     50  C   UNL A   1      46.529  25.754  27.168  1.00  0.00     0.031 C 
ATOM     51  C   UNL A   1      39.904  26.639  28.864  1.00  0.00     0.029 A 
ATOM     52  C   UNL A   1      40.763  27.810  29.016  1.00  0.00     0.049 A 
ATOM     53  H   UNL A   1      42.802  27.945  28.608  1.00  0.00     0.167 HD
ATOM     54  C   UNL A   1      47.042  28.129  27.653  1.00  0.00     0.034 A 
ATOM     55  C   UNL A   1      40.359  29.019  29.452  1.00  0.00     0.034 A 
ATOM     56  C   UNL A   1      46.678  29.473  28.014  1.00  0.00     0.049 A 
ATOM     57  C   UNL A   1      41.343  30.152  29.512  1.00  0.00     0.074 A 
ATOM     58  C   UNL A   1      47.485  30.597  28.046  1.00  0.00     0.029 A 
ATOM     59  N   UNL A   1      45.414  29.874  28.410  1.00  0.00    -0.354 N 
ATOM     60  N   UNL A   1      42.603  30.163  29.152  1.00  0.00    -0.248 NA
ATOM     61  C   UNL A   1      40.848  31.444  30.010  1.00  0.00     0.031 C 
ATOM     62  C   UNL A   1      46.711  31.678  28.478  1.00  0.00     0.029 A 
ATOM     63  C   UNL A   1      45.420  31.228  28.697  1.00  0.00     0.049 A 
ATOM     64  H   UNL A   1      44.628  29.286  28.477  1.00  0.00     0.167 HD
ATOM     65  C   UNL A   1      43.045  31.465  29.358  1.00  0.00     0.074 A 
ATOM     66  C   UNL A   1      41.917  32.218  29.861  1.00  0.00     0.031 C 
ATOM     67  C   UNL A   1      44.281  31.980  29.155  1.00  0.00     0.034 A 
BRANCH  54  68
ATOM     68  C   UNL A   1      48.479  27.887  27.280  1.00  0.00     0.023 A 
ATOM     69  C   UNL A   1      49.384  27.482  28.282  1.00  0.00     0.012 A 
ATOM     70  C   UNL A   1      48.895  27.915  25.935  1.00  0.00     0.148 A 
ATOM     71  C   UNL A   1      50.685  27.108  27.949  1.00  0.00     0.002 A 
ATOM     72  C   UNL A   1      50.185  27.514  25.608  1.00  0.00     0.091 A 
ATOM     73  F   UNL A   1      48.014  28.307  25.003  1.00  0.00    -0.205 F 
ATOM     74  C   UNL A   1      51.081  27.113  26.613  1.00  0.00     0.022 A 
BRANCH  72  75
ATOM     75  S   UNL A   1      50.781  27.426  23.916  1.00  0.00     0.127 S 
ATOM     76  O   UNL A   1      49.686  26.716  23.253  1.00  0.00    -0.237 OA
ATOM     77  O   UNL A   1      50.896  28.839  23.558  1.00  0.00    -0.237 OA
ATOM     78  O   UNL A   1      52.042  26.699  23.967  1.00  0.00    -0.744 OA
ENDBRANCH  72  75
ENDBRANCH  54  68
BRANCH  55  79
ATOM     79  C   UNL A   1      38.924  29.235  29.780  1.00  0.00     0.023 A 
ATOM     80  C   UNL A   1      38.472  28.970  31.087  1.00  0.00     0.012 A 
ATOM     81  C   UNL A   1      38.025  29.757  28.829  1.00  0.00     0.148 A 
ATOM     82  C   UNL A   1      37.146  29.214  31.442  1.00  0.00     0.002 A 
ATOM     83  C   UNL A   1      36.713  30.029  29.198  1.00  0.00     0.091 A 
ATOM     84  F   UNL A   1      38.482  29.996  27.592  1.00  0.00    -0.205 F 
ATOM     85  C   UNL A   1      36.270  29.751  30.502  1.00  0.00     0.022 A 
BRANCH  83  86
ATOM     86  S   UNL A   1      35.532  30.800  28.088  1.00  0.00     0.127 S 
ATOM     87  O   UNL A   1      34.421  31.092  28.992  1.00  0.00    -0.237 OA
ATOM     88  O   UNL A   1      36.276  31.974  27.630  1.00  0.00    -0.237 OA
ATOM     89  O   UNL A   1      35.254  29.814  27.055  1.00  0.00    -0.744 OA
ENDBRANCH  83  86
ENDBRANCH  55  79
BRANCH  67  90
ATOM     90  C   UNL A   1      44.505  33.436  29.461  1.00  0.00     0.023 A 
ATOM     91  C   UNL A   1      45.007  33.806  30.723  1.00  0.00     0.012 A 
ATOM     92  C   UNL A   1      44.354  34.412  28.456  1.00  0.00     0.148 A 
ATOM     93  C   UNL A   1      45.351  35.131  30.984  1.00  0.00     0.002 A 
ATOM     94  C   UNL A   1      44.731  35.724  28.712  1.00  0.00     0.091 A 
ATOM     95  F   UNL A   1      43.870  34.031  27.265  1.00  0.00    -0.205 F 
ATOM     96  C   UNL A   1      45.226  36.087  29.977  1.00  0.00     0.022 A 
BRANCH  94  97
ATOM     97  S   UNL A   1      44.681  37.011  27.459  1.00  0.00     0.127 S 
ATOM     98  O   UNL A   1      45.084  38.189  28.227  1.00  0.00    -0.237 OA
ATOM     99  O   UNL A   1      45.676  36.542  26.496  1.00  0.00    -0.237 OA
ATOM    100  O   UNL A   1      43.313  37.037  26.959  1.00  0.00    -0.744 OA
ENDBRANCH  94  97
ENDBRANCH  67  90
ENDBRANCH  41  42
ENDBRANCH  34  36
ENDBRANCH  33  34
ENDBRANCH  32  33
ENDBRANCH   1  32
TORSDOF 19
ENDMDL
MODEL 3
REMARK VINA RESULT:     -12.5      4.907     10.808
REMARK SMILES C[C@@]12CC[C@@H]3c4ccc(O)cc4/C(=N/OCC(=O)OCCOC(=O)c4ccc(-c5c6nc(c(-c7cccc(S(=O)(=O)[O-])c7F)c7ccc([nH]7)c(-c7cccc(S(=O)(=O)[O-])c7F)c7nc(c(-c8cccc(S(=O)(=O)[O-])c8F)c8ccc5[nH]8)C=C7)C=C6)cc4)C[C@H]3[C@@H]1C[C@@H](O)[C@@H]2O
REMARK SMILES IDX 20 1 19 2 17 3 18 4 16 5 15 6 14 7 1 8 2 9 3 10 90 11 94 12
REMARK SMILES IDX 4 13 89 14 91 15 92 16 5 17 88 18 6 19 13 20 7 21 12 22 8 23
REMARK SMILES IDX 11 24 9 25 95 26 93 28 10 30 21 32 22 33 23 34 24 35 25 36
REMARK SMILES IDX 26 37 87 38 27 39 86 40 28 41 29 42 30 43 80 44 31 45 85 46
REMARK SMILES IDX 79 47 81 48 32 49 84 50 78 51 77 52 33 54 65 55 45 56 64 57
REMARK SMILES IDX 46 58 49 59 63 60 82 61 47 62 48 63 62 65 83 66 50 67 34 68
REMARK SMILES IDX 35 69 43 70 36 71 38 72 44 73 37 74 39 75 40 76 41 77 42 78
REMARK SMILES IDX 66 79 67 80 75 81 68 82 70 83 76 84 69 85 71 86 72 87 73 88
REMARK SMILES IDX 74 89 51 90 52 91 60 92 53 93 55 94 61 95 54 96 56 97 57 98
REMARK SMILES IDX 58 99 59 100
REMARK H PARENT 95 27 93 29 10 31 81 53 49 64
REMARK Flexibility Score: inf
ROOT
ATOM      1  C   UNL A   1      34.311  33.926  29.602  1.00  0.00     0.274 C 
ENDROOT
BRANCH   1   2
ATOM      2  O   UNL A   1      33.512  32.875  29.039  1.00  0.00    -0.459 OA
BRANCH   2   3
ATOM      3  C   UNL A   1      34.080  32.159  28.029  1.00  0.00     0.347 C 
ATOM      4  O   UNL A   1      35.128  32.453  27.466  1.00  0.00    -0.248 OA
BRANCH   3   5
ATOM      5  C   UNL A   1      33.222  30.976  27.634  1.00  0.00     0.386 C 
BRANCH   5   6
ATOM      6  O   UNL A   1      33.767  30.215  26.558  1.00  0.00    -0.383 OA
BRANCH   6   7
ATOM      7  N   UNL A   1      32.741  30.001  25.637  1.00  0.00    -0.090 NA
ATOM      8  C   UNL A   1      33.951  23.055  27.371  1.00  0.00     0.014 C 
ATOM      9  C   UNL A   1      33.237  23.811  26.215  1.00  0.00    -0.001 C 
ATOM     10  C   UNL A   1      31.818  24.053  26.724  1.00  0.00     0.010 C 
ATOM     11  C   UNL A   1      34.028  25.099  25.878  1.00  0.00     0.004 C 
ATOM     12  C   UNL A   1      33.312  23.015  24.879  1.00  0.00     0.149 C 
ATOM     13  C   UNL A   1      30.992  24.931  25.827  1.00  0.00     0.009 C 
ATOM     14  C   UNL A   1      33.175  26.234  25.192  1.00  0.00     0.006 C 
ATOM     15  C   UNL A   1      35.208  24.527  25.006  1.00  0.00     0.039 C 
ATOM     16  C   UNL A   1      34.783  23.127  24.481  1.00  0.00     0.144 C 
ATOM     17  C   UNL A   1      31.677  26.271  25.617  1.00  0.00     0.024 C 
ATOM     18  C   UNL A   1      33.721  27.671  25.486  1.00  0.00     0.065 C 
ATOM     19  C   UNL A   1      30.932  27.173  24.652  1.00  0.00    -0.035 A 
ATOM     20  C   UNL A   1      32.704  28.790  25.168  1.00  0.00     0.088 C 
ATOM     21  C   UNL A   1      29.687  26.861  24.087  1.00  0.00     0.008 A 
ATOM     22  C   UNL A   1      31.490  28.432  24.389  1.00  0.00     0.006 A 
ATOM     23  C   UNL A   1      29.012  27.792  23.303  1.00  0.00     0.046 A 
ATOM     24  C   UNL A   1      30.816  29.376  23.606  1.00  0.00     0.056 A 
ATOM     25  C   UNL A   1      29.574  29.042  23.078  1.00  0.00     0.116 A 
BRANCH  12  26
ATOM     26  O   UNL A   1      32.525  23.551  23.819  1.00  0.00    -0.390 OA
ATOM     27  H   UNL A   1      32.414  22.881  23.126  1.00  0.00     0.211 HD
ENDBRANCH  12  26
BRANCH  16  28
ATOM     28  O   UNL A   1      35.545  22.079  25.075  1.00  0.00    -0.390 OA
ATOM     29  H   UNL A   1      35.373  21.249  24.604  1.00  0.00     0.211 HD
ENDBRANCH  16  28
BRANCH  25  30
ATOM     30  O   UNL A   1      28.836  29.928  22.354  1.00  0.00    -0.508 OA
ATOM     31  H   UNL A   1      27.900  29.874  22.361  1.00  0.00     0.293 HD
ENDBRANCH  25  30
ENDBRANCH   6   7
ENDBRANCH   5   6
ENDBRANCH   3   5
ENDBRANCH   2   3
ENDBRANCH   1   2
BRANCH   1  32
ATOM     32  C   UNL A   1      34.353  33.802  31.124  1.00  0.00     0.275 C 
BRANCH  32  33
ATOM     33  O   UNL A   1      34.591  32.438  31.513  1.00  0.00    -0.458 OA
BRANCH  33  34
ATOM     34  C   UNL A   1      35.578  32.231  32.412  1.00  0.00     0.338 C 
ATOM     35  O   UNL A   1      35.548  32.437  33.621  1.00  0.00    -0.246 OA
BRANCH  34  36
ATOM     36  C   UNL A   1      36.742  31.692  31.701  1.00  0.00     0.060 A 
ATOM     37  C   UNL A   1      36.902  31.975  30.343  1.00  0.00     0.016 A 
ATOM     38  C   UNL A   1      37.690  30.928  32.389  1.00  0.00     0.016 A 
ATOM     39  C   UNL A   1      38.004  31.460  29.662  1.00  0.00     0.010 A 
ATOM     40  C   UNL A   1      38.803  30.429  31.706  1.00  0.00     0.010 A 
ATOM     41  C   UNL A   1      38.964  30.681  30.334  1.00  0.00    -0.014 A 
BRANCH  41  42
ATOM     42  C   UNL A   1      40.146  30.172  29.592  1.00  0.00     0.031 A 
ATOM     43  C   UNL A   1      41.412  30.979  29.501  1.00  0.00     0.074 A 
ATOM     44  C   UNL A   1      40.078  28.960  29.005  1.00  0.00     0.049 A 
ATOM     45  N   UNL A   1      42.563  30.638  28.981  1.00  0.00    -0.248 NA
ATOM     46  C   UNL A   1      41.387  32.341  30.060  1.00  0.00     0.031 C 
ATOM     47  C   UNL A   1      38.892  28.102  28.980  1.00  0.00     0.029 A 
ATOM     48  N   UNL A   1      41.026  28.238  28.325  1.00  0.00    -0.354 N 
ATOM     49  C   UNL A   1      43.394  31.741  29.133  1.00  0.00     0.074 A 
ATOM     50  C   UNL A   1      42.611  32.772  29.779  1.00  0.00     0.031 C 
ATOM     51  C   UNL A   1      39.192  26.958  28.346  1.00  0.00     0.029 A 
ATOM     52  C   UNL A   1      40.584  27.004  27.906  1.00  0.00     0.049 A 
ATOM     53  H   UNL A   1      41.937  28.569  28.153  1.00  0.00     0.167 HD
ATOM     54  C   UNL A   1      44.696  31.872  28.789  1.00  0.00     0.034 A 
ATOM     55  C   UNL A   1      41.227  26.014  27.258  1.00  0.00     0.034 A 
ATOM     56  C   UNL A   1      45.485  30.832  28.184  1.00  0.00     0.049 A 
ATOM     57  C   UNL A   1      42.679  26.178  26.908  1.00  0.00     0.074 A 
ATOM     58  C   UNL A   1      46.834  30.855  27.874  1.00  0.00     0.029 A 
ATOM     59  N   UNL A   1      45.003  29.595  27.792  1.00  0.00    -0.354 N 
ATOM     60  N   UNL A   1      43.480  27.179  27.180  1.00  0.00    -0.248 NA
ATOM     61  C   UNL A   1      43.324  25.070  26.187  1.00  0.00     0.031 C 
ATOM     62  C   UNL A   1      47.166  29.634  27.279  1.00  0.00     0.029 A 
ATOM     63  C   UNL A   1      46.026  28.848  27.235  1.00  0.00     0.049 A 
ATOM     64  H   UNL A   1      44.073  29.292  27.896  1.00  0.00     0.167 HD
ATOM     65  C   UNL A   1      44.726  26.813  26.687  1.00  0.00     0.074 A 
ATOM     66  C   UNL A   1      44.580  25.494  26.109  1.00  0.00     0.031 C 
ATOM     67  C   UNL A   1      45.883  27.518  26.704  1.00  0.00     0.034 A 
BRANCH  54  68
ATOM     68  C   UNL A   1      45.399  33.162  29.115  1.00  0.00     0.023 A 
ATOM     69  C   UNL A   1      46.118  33.260  30.322  1.00  0.00     0.012 A 
ATOM     70  C   UNL A   1      45.470  34.207  28.174  1.00  0.00     0.148 A 
ATOM     71  C   UNL A   1      46.900  34.383  30.590  1.00  0.00     0.002 A 
ATOM     72  C   UNL A   1      46.273  35.311  28.435  1.00  0.00     0.091 A 
ATOM     73  F   UNL A   1      44.773  34.088  27.035  1.00  0.00    -0.205 F 
ATOM     74  C   UNL A   1      46.986  35.401  29.643  1.00  0.00     0.022 A 
BRANCH  72  75
ATOM     75  S   UNL A   1      46.504  36.652  27.262  1.00  0.00     0.127 S 
ATOM     76  O   UNL A   1      45.157  37.220  27.195  1.00  0.00    -0.237 OA
ATOM     77  O   UNL A   1      47.487  37.491  27.946  1.00  0.00    -0.237 OA
ATOM     78  O   UNL A   1      46.972  36.035  26.028  1.00  0.00    -0.744 OA
ENDBRANCH  72  75
ENDBRANCH  54  68
BRANCH  55  79
ATOM     79  C   UNL A   1      40.515  24.737  26.981  1.00  0.00     0.023 A 
ATOM     80  C   UNL A   1      39.255  24.779  26.352  1.00  0.00     0.012 A 
ATOM     81  C   UNL A   1      41.100  23.492  27.278  1.00  0.00     0.148 A 
ATOM     82  C   UNL A   1      38.585  23.599  26.030  1.00  0.00     0.002 A 
ATOM     83  C   UNL A   1      40.442  22.320  26.923  1.00  0.00     0.091 A 
ATOM     84  F   UNL A   1      42.298  23.483  27.879  1.00  0.00    -0.205 F 
ATOM     85  C   UNL A   1      39.181  22.371  26.306  1.00  0.00     0.022 A 
BRANCH  83  86
ATOM     86  S   UNL A   1      41.163  20.692  27.158  1.00  0.00     0.127 S 
ATOM     87  O   UNL A   1      40.786  20.396  28.538  1.00  0.00    -0.237 OA
ATOM     88  O   UNL A   1      40.458  19.905  26.145  1.00  0.00    -0.237 OA
ATOM     89  O   UNL A   1      42.589  20.851  26.921  1.00  0.00    -0.744 OA
ENDBRANCH  83  86
ENDBRANCH  55  79
BRANCH  67  90
ATOM     90  C   UNL A   1      47.107  26.893  26.095  1.00  0.00     0.023 A 
ATOM     91  C   UNL A   1      47.321  27.006  24.707  1.00  0.00     0.012 A 
ATOM     92  C   UNL A   1      48.105  26.324  26.910  1.00  0.00     0.148 A 
ATOM     93  C   UNL A   1      48.511  26.555  24.138  1.00  0.00     0.002 A 
ATOM     94  C   UNL A   1      49.303  25.909  26.341  1.00  0.00     0.091 A 
ATOM     95  F   UNL A   1      47.872  26.226  28.227  1.00  0.00    -0.205 F 
ATOM     96  C   UNL A   1      49.506  26.020  24.955  1.00  0.00     0.022 A 
BRANCH  94  97
ATOM     97  S   UNL A   1      50.673  25.277  27.317  1.00  0.00     0.127 S 
ATOM     98  O   UNL A   1      50.043  24.165  28.028  1.00  0.00    -0.237 OA
ATOM     99  O   UNL A   1      51.628  24.877  26.284  1.00  0.00    -0.237 OA
ATOM    100  O   UNL A   1      51.113  26.380  28.160  1.00  0.00    -0.744 OA
ENDBRANCH  94  97
ENDBRANCH  67  90
ENDBRANCH  41  42
ENDBRANCH  34  36
ENDBRANCH  33  34
ENDBRANCH  32  33
ENDBRANCH   1  32
TORSDOF 19
ENDMDL
