MODEL 1
REMARK VINA RESULT:     -12.6      0.000      0.000
REMARK SMILES CC1(C)[C@H](C(=O)Nc2cccc3[nH]ccc23)[C@H]1C(=O)OCCOC(=O)c1ccc(-c2c3nc(c(-c4cccc(S(=O)(=O)[O-])c4F)c4ccc([nH]4)c(-c4cccc(S(=O)(=O)[O-])c4F)c4nc(c(-c5cccc(S(=O)(=O)[O-])c5F)c5ccc2[nH]5)C=C4)C=C3)cc1
REMARK SMILES IDX 22 1 21 2 20 3 18 4 19 5 17 6 1 7 2 8 3 9 4 10 5 11 6 12
REMARK SMILES IDX 7 13 8 15 9 16 16 17 10 18 12 19 15 20 11 21 13 22 14 23
REMARK SMILES IDX 23 25 24 26 25 27 26 28 27 29 88 30 28 31 87 32 29 33 30 34
REMARK SMILES IDX 31 35 81 36 32 37 86 38 80 39 82 40 33 41 85 42 79 43 78 44
REMARK SMILES IDX 34 46 66 47 46 48 65 49 47 50 50 51 64 52 83 53 48 54 49 55
REMARK SMILES IDX 63 57 84 58 51 59 35 60 36 61 44 62 37 63 39 64 45 65 38 66
REMARK SMILES IDX 40 67 41 68 42 69 43 70 67 71 68 72 76 73 69 74 71 75 77 76
REMARK SMILES IDX 70 77 72 78 73 79 74 80 75 81 52 82 53 83 61 84 54 85 56 86
REMARK SMILES IDX 62 87 55 88 57 89 58 90 59 91 60 92
REMARK H PARENT 7 14 13 24 82 45 50 56
REMARK Flexibility Score: inf
ROOT
ATOM      1  C   UNL A   1      36.969  20.141  24.836  1.00  0.00     0.275 C 
ENDROOT
BRANCH   1   2
ATOM      2  C   UNL A   1      35.461  20.335  25.000  1.00  0.00     0.274 C 
BRANCH   2   3
ATOM      3  O   UNL A   1      35.208  21.684  25.427  1.00  0.00    -0.462 OA
BRANCH   3   4
ATOM      4  C   UNL A   1      34.234  21.869  26.350  1.00  0.00     0.310 C 
ATOM      5  O   UNL A   1      34.242  21.468  27.503  1.00  0.00    -0.252 OA
BRANCH   4   6
ATOM      6  C   UNL A   1      33.147  22.737  25.850  1.00  0.00     0.118 C 
ATOM      7  C   UNL A   1      32.144  20.935  24.194  1.00  0.00     0.013 C 
ATOM      8  C   UNL A   1      32.156  22.331  24.769  1.00  0.00    -0.009 C 
ATOM      9  C   UNL A   1      31.903  23.377  23.712  1.00  0.00     0.013 C 
ATOM     10  C   UNL A   1      31.724  22.458  26.235  1.00  0.00     0.100 C 
BRANCH  10  11
ATOM     11  C   UNL A   1      30.787  23.479  26.800  1.00  0.00     0.228 C 
ATOM     12  O   UNL A   1      29.808  23.083  27.424  1.00  0.00    -0.274 OA
ATOM     13  N   UNL A   1      31.227  24.781  26.876  1.00  0.00    -0.325 N 
ATOM     14  H   UNL A   1      31.700  25.049  27.696  1.00  0.00     0.169 HD
BRANCH  13  15
ATOM     15  C   UNL A   1      31.056  25.767  25.879  1.00  0.00     0.050 A 
ATOM     16  C   UNL A   1      29.855  25.894  25.173  1.00  0.00     0.027 A 
ATOM     17  C   UNL A   1      32.101  26.676  25.581  1.00  0.00     0.023 A 
ATOM     18  C   UNL A   1      29.729  26.767  24.096  1.00  0.00     0.004 A 
ATOM     19  C   UNL A   1      31.941  27.556  24.504  1.00  0.00     0.047 A 
ATOM     20  C   UNL A   1      33.396  26.935  26.124  1.00  0.00     0.030 A 
ATOM     21  C   UNL A   1      30.784  27.593  23.718  1.00  0.00     0.027 A 
ATOM     22  N   UNL A   1      33.101  28.292  24.389  1.00  0.00    -0.361 N 
ATOM     23  C   UNL A   1      33.972  27.945  25.387  1.00  0.00     0.083 A 
ATOM     24  H   UNL A   1      33.277  28.966  23.693  1.00  0.00     0.166 HD
ENDBRANCH  13  15
ENDBRANCH  10  11
ENDBRANCH   4   6
ENDBRANCH   3   4
ENDBRANCH   2   3
ENDBRANCH   1   2
BRANCH   1  25
ATOM     25  O   UNL A   1      37.671  21.293  25.340  1.00  0.00    -0.458 OA
BRANCH  25  26
ATOM     26  C   UNL A   1      38.882  21.032  25.883  1.00  0.00     0.338 C 
ATOM     27  O   UNL A   1      39.518  19.992  25.823  1.00  0.00    -0.246 OA
BRANCH  26  28
ATOM     28  C   UNL A   1      39.415  22.251  26.502  1.00  0.00     0.060 A 
ATOM     29  C   UNL A   1      38.860  23.470  26.129  1.00  0.00     0.016 A 
ATOM     30  C   UNL A   1      40.540  22.211  27.322  1.00  0.00     0.016 A 
ATOM     31  C   UNL A   1      39.491  24.656  26.483  1.00  0.00     0.010 A 
ATOM     32  C   UNL A   1      41.126  23.413  27.745  1.00  0.00     0.010 A 
ATOM     33  C   UNL A   1      40.639  24.651  27.286  1.00  0.00    -0.014 A 
BRANCH  33  34
ATOM     34  C   UNL A   1      41.339  25.936  27.580  1.00  0.00     0.031 A 
ATOM     35  C   UNL A   1      40.668  26.999  28.417  1.00  0.00     0.074 A 
ATOM     36  C   UNL A   1      42.596  26.144  27.140  1.00  0.00     0.049 A 
ATOM     37  N   UNL A   1      41.098  28.198  28.722  1.00  0.00    -0.248 NA
ATOM     38  C   UNL A   1      39.345  26.681  28.975  1.00  0.00     0.031 C 
ATOM     39  C   UNL A   1      43.372  25.207  26.326  1.00  0.00     0.029 A 
ATOM     40  N   UNL A   1      43.448  27.209  27.318  1.00  0.00    -0.354 N 
ATOM     41  C   UNL A   1      40.067  28.804  29.433  1.00  0.00     0.074 A 
ATOM     42  C   UNL A   1      38.998  27.834  29.530  1.00  0.00     0.031 C 
ATOM     43  C   UNL A   1      44.590  25.721  26.100  1.00  0.00     0.029 A 
ATOM     44  C   UNL A   1      44.663  27.053  26.689  1.00  0.00     0.049 A 
ATOM     45  H   UNL A   1      43.213  28.007  27.844  1.00  0.00     0.167 HD
ATOM     46  C   UNL A   1      40.013  30.050  29.964  1.00  0.00     0.034 A 
ATOM     47  C   UNL A   1      45.712  27.893  26.572  1.00  0.00     0.034 A 
ATOM     48  C   UNL A   1      41.097  30.995  29.935  1.00  0.00     0.049 A 
ATOM     49  C   UNL A   1      45.640  29.254  27.203  1.00  0.00     0.074 A 
ATOM     50  C   UNL A   1      41.146  32.262  30.490  1.00  0.00     0.029 A 
ATOM     51  N   UNL A   1      42.324  30.777  29.330  1.00  0.00    -0.354 N 
ATOM     52  N   UNL A   1      44.681  29.777  27.927  1.00  0.00    -0.248 NA
ATOM     53  C   UNL A   1      46.802  30.137  27.015  1.00  0.00     0.031 C 
ATOM     54  C   UNL A   1      42.401  32.816  30.213  1.00  0.00     0.029 A 
ATOM     55  C   UNL A   1      43.140  31.884  29.501  1.00  0.00     0.049 A 
ATOM     56  H   UNL A   1      42.579  29.957  28.849  1.00  0.00     0.167 HD
ATOM     57  C   UNL A   1      45.129  31.041  28.295  1.00  0.00     0.074 A 
ATOM     58  C   UNL A   1      46.460  31.190  27.745  1.00  0.00     0.031 C 
ATOM     59  C   UNL A   1      44.484  32.001  29.001  1.00  0.00     0.034 A 
BRANCH  46  60
ATOM     60  C   UNL A   1      38.738  30.466  30.653  1.00  0.00     0.023 A 
ATOM     61  C   UNL A   1      38.586  30.249  32.037  1.00  0.00     0.012 A 
ATOM     62  C   UNL A   1      37.722  31.135  29.942  1.00  0.00     0.148 A 
ATOM     63  C   UNL A   1      37.430  30.667  32.697  1.00  0.00     0.002 A 
ATOM     64  C   UNL A   1      36.592  31.586  30.614  1.00  0.00     0.091 A 
ATOM     65  F   UNL A   1      37.875  31.311  28.621  1.00  0.00    -0.205 F 
ATOM     66  C   UNL A   1      36.440  31.345  31.990  1.00  0.00     0.022 A 
BRANCH  64  67
ATOM     67  S   UNL A   1      35.303  32.538  29.803  1.00  0.00     0.127 S 
ATOM     68  O   UNL A   1      36.052  33.699  29.323  1.00  0.00    -0.237 OA
ATOM     69  O   UNL A   1      34.857  31.624  28.751  1.00  0.00    -0.237 OA
ATOM     70  O   UNL A   1      34.306  32.814  30.827  1.00  0.00    -0.744 OA
ENDBRANCH  64  67
ENDBRANCH  46  60
BRANCH  47  71
ATOM     71  C   UNL A   1      46.937  27.453  25.844  1.00  0.00     0.023 A 
ATOM     72  C   UNL A   1      47.885  26.649  26.507  1.00  0.00     0.012 A 
ATOM     73  C   UNL A   1      47.149  27.792  24.494  1.00  0.00     0.148 A 
ATOM     74  C   UNL A   1      49.030  26.207  25.844  1.00  0.00     0.002 A 
ATOM     75  C   UNL A   1      48.260  27.295  23.821  1.00  0.00     0.091 A 
ATOM     76  F   UNL A   1      46.252  28.583  23.888  1.00  0.00    -0.205 F 
ATOM     77  C   UNL A   1      49.210  26.517  24.497  1.00  0.00     0.022 A 
BRANCH  75  78
ATOM     78  S   UNL A   1      48.478  27.521  22.053  1.00  0.00     0.127 S 
ATOM     79  O   UNL A   1      47.243  28.204  21.682  1.00  0.00    -0.237 OA
ATOM     80  O   UNL A   1      49.683  28.350  21.998  1.00  0.00    -0.237 OA
ATOM     81  O   UNL A   1      48.655  26.179  21.512  1.00  0.00    -0.744 OA
ENDBRANCH  75  78
ENDBRANCH  47  71
BRANCH  59  82
ATOM     82  C   UNL A   1      45.218  33.292  29.254  1.00  0.00     0.023 A 
ATOM     83  C   UNL A   1      46.025  33.424  30.401  1.00  0.00     0.012 A 
ATOM     84  C   UNL A   1      45.159  34.349  28.325  1.00  0.00     0.148 A 
ATOM     85  C   UNL A   1      46.738  34.600  30.635  1.00  0.00     0.002 A 
ATOM     86  C   UNL A   1      45.908  35.500  28.542  1.00  0.00     0.091 A 
ATOM     87  F   UNL A   1      44.368  34.214  27.250  1.00  0.00    -0.205 F 
ATOM     88  C   UNL A   1      46.689  35.632  29.702  1.00  0.00     0.022 A 
BRANCH  86  89
ATOM     89  S   UNL A   1      45.971  36.840  27.346  1.00  0.00     0.127 S 
ATOM     90  O   UNL A   1      46.462  36.152  26.153  1.00  0.00    -0.237 OA
ATOM     91  O   UNL A   1      44.571  37.262  27.274  1.00  0.00    -0.237 OA
ATOM     92  O   UNL A   1      46.869  37.836  27.914  1.00  0.00    -0.744 OA
ENDBRANCH  86  89
ENDBRANCH  59  82
ENDBRANCH  33  34
ENDBRANCH  26  28
ENDBRANCH  25  26
ENDBRANCH   1  25
TORSDOF 16
ENDMDL
MODEL 2
REMARK VINA RESULT:     -12.6      1.194      2.035
REMARK SMILES CC1(C)[C@H](C(=O)Nc2cccc3[nH]ccc23)[C@H]1C(=O)OCCOC(=O)c1ccc(-c2c3nc(c(-c4cccc(S(=O)(=O)[O-])c4F)c4ccc([nH]4)c(-c4cccc(S(=O)(=O)[O-])c4F)c4nc(c(-c5cccc(S(=O)(=O)[O-])c5F)c5ccc2[nH]5)C=C4)C=C3)cc1
REMARK SMILES IDX 22 1 21 2 20 3 18 4 19 5 17 6 1 7 2 8 3 9 4 10 5 11 6 12
REMARK SMILES IDX 7 13 8 15 9 16 16 17 10 18 12 19 15 20 11 21 13 22 14 23
REMARK SMILES IDX 23 25 24 26 25 27 26 28 27 29 88 30 28 31 87 32 29 33 30 34
REMARK SMILES IDX 31 35 81 36 32 37 86 38 80 39 82 40 33 41 85 42 79 43 78 44
REMARK SMILES IDX 34 46 66 47 46 48 65 49 47 50 50 51 64 52 83 53 48 54 49 55
REMARK SMILES IDX 63 57 84 58 51 59 35 60 36 61 44 62 37 63 39 64 45 65 38 66
REMARK SMILES IDX 40 67 41 68 42 69 43 70 67 71 68 72 76 73 69 74 71 75 77 76
REMARK SMILES IDX 70 77 72 78 73 79 74 80 75 81 52 82 53 83 61 84 54 85 56 86
REMARK SMILES IDX 62 87 55 88 57 89 58 90 59 91 60 92
REMARK H PARENT 7 14 13 24 82 45 50 56
REMARK Flexibility Score: inf
ROOT
ATOM      1  C   UNL A   1      37.645  19.809  24.810  1.00  0.00     0.275 C 
ENDROOT
BRANCH   1   2
ATOM      2  C   UNL A   1      36.140  19.599  24.982  1.00  0.00     0.274 C 
BRANCH   2   3
ATOM      3  O   UNL A   1      35.499  20.883  25.067  1.00  0.00    -0.462 OA
BRANCH   3   4
ATOM      4  C   UNL A   1      34.315  21.027  24.424  1.00  0.00     0.310 C 
ATOM      5  O   UNL A   1      33.526  20.136  24.147  1.00  0.00    -0.252 OA
BRANCH   4   6
ATOM      6  C   UNL A   1      33.989  22.445  24.163  1.00  0.00     0.118 C 
ATOM      7  C   UNL A   1      36.493  23.198  23.763  1.00  0.00     0.013 C 
ATOM      8  C   UNL A   1      35.025  23.527  23.894  1.00  0.00    -0.009 C 
ATOM      9  C   UNL A   1      34.803  24.819  24.639  1.00  0.00     0.013 C 
ATOM     10  C   UNL A   1      34.116  23.003  22.776  1.00  0.00     0.100 C 
BRANCH  10  11
ATOM     11  C   UNL A   1      33.040  23.770  22.073  1.00  0.00     0.228 C 
ATOM     12  O   UNL A   1      33.272  24.190  20.944  1.00  0.00    -0.274 OA
ATOM     13  N   UNL A   1      31.761  23.690  22.576  1.00  0.00    -0.325 N 
ATOM     14  H   UNL A   1      31.190  22.963  22.240  1.00  0.00     0.169 HD
BRANCH  13  15
ATOM     15  C   UNL A   1      31.198  24.562  23.534  1.00  0.00     0.050 A 
ATOM     16  C   UNL A   1      30.961  25.910  23.247  1.00  0.00     0.027 A 
ATOM     17  C   UNL A   1      30.833  24.082  24.816  1.00  0.00     0.023 A 
ATOM     18  C   UNL A   1      30.539  26.804  24.228  1.00  0.00     0.004 A 
ATOM     19  C   UNL A   1      30.394  25.000  25.778  1.00  0.00     0.047 A 
ATOM     20  C   UNL A   1      30.817  22.800  25.444  1.00  0.00     0.030 A 
ATOM     21  C   UNL A   1      30.279  26.370  25.525  1.00  0.00     0.027 A 
ATOM     22  N   UNL A   1      30.152  24.301  26.942  1.00  0.00    -0.361 N 
ATOM     23  C   UNL A   1      30.373  22.965  26.737  1.00  0.00     0.083 A 
ATOM     24  H   UNL A   1      29.864  24.702  27.794  1.00  0.00     0.166 HD
ENDBRANCH  13  15
ENDBRANCH  10  11
ENDBRANCH   4   6
ENDBRANCH   3   4
ENDBRANCH   2   3
ENDBRANCH   1   2
BRANCH   1  25
ATOM     25  O   UNL A   1      38.095  20.875  25.667  1.00  0.00    -0.458 OA
BRANCH  25  26
ATOM     26  C   UNL A   1      39.351  20.731  26.148  1.00  0.00     0.338 C 
ATOM     27  O   UNL A   1      40.077  19.755  26.057  1.00  0.00    -0.246 OA
BRANCH  26  28
ATOM     28  C   UNL A   1      39.798  21.998  26.738  1.00  0.00     0.060 A 
ATOM     29  C   UNL A   1      39.226  23.175  26.270  1.00  0.00     0.016 A 
ATOM     30  C   UNL A   1      40.866  22.040  27.631  1.00  0.00     0.016 A 
ATOM     31  C   UNL A   1      39.790  24.400  26.605  1.00  0.00     0.010 A 
ATOM     32  C   UNL A   1      41.380  23.282  28.030  1.00  0.00     0.010 A 
ATOM     33  C   UNL A   1      40.882  24.477  27.480  1.00  0.00    -0.014 A 
BRANCH  33  34
ATOM     34  C   UNL A   1      41.513  25.801  27.755  1.00  0.00     0.031 A 
ATOM     35  C   UNL A   1      40.779  26.849  28.556  1.00  0.00     0.074 A 
ATOM     36  C   UNL A   1      42.767  26.060  27.329  1.00  0.00     0.049 A 
ATOM     37  N   UNL A   1      41.146  28.074  28.839  1.00  0.00    -0.248 NA
ATOM     38  C   UNL A   1      39.464  26.481  29.101  1.00  0.00     0.031 C 
ATOM     39  C   UNL A   1      43.600  25.143  26.550  1.00  0.00     0.029 A 
ATOM     40  N   UNL A   1      43.564  27.169  27.495  1.00  0.00    -0.354 N 
ATOM     41  C   UNL A   1      40.076  28.646  29.520  1.00  0.00     0.074 A 
ATOM     42  C   UNL A   1      39.053  27.628  29.623  1.00  0.00     0.031 C 
ATOM     43  C   UNL A   1      44.795  25.710  26.330  1.00  0.00     0.029 A 
ATOM     44  C   UNL A   1      44.795  27.057  26.888  1.00  0.00     0.049 A 
ATOM     45  H   UNL A   1      43.282  27.966  27.999  1.00  0.00     0.167 HD
ATOM     46  C   UNL A   1      39.953  29.899  30.021  1.00  0.00     0.034 A 
ATOM     47  C   UNL A   1      45.804  27.943  26.768  1.00  0.00     0.034 A 
ATOM     48  C   UNL A   1      40.991  30.895  29.987  1.00  0.00     0.049 A 
ATOM     49  C   UNL A   1      45.657  29.313  27.366  1.00  0.00     0.074 A 
ATOM     50  C   UNL A   1      40.971  32.176  30.512  1.00  0.00     0.029 A 
ATOM     51  N   UNL A   1      42.237  30.723  29.406  1.00  0.00    -0.354 N 
ATOM     52  N   UNL A   1      44.662  29.806  28.063  1.00  0.00    -0.248 NA
ATOM     53  C   UNL A   1      46.778  30.247  27.175  1.00  0.00     0.031 C 
ATOM     54  C   UNL A   1      42.202  32.782  30.241  1.00  0.00     0.029 A 
ATOM     55  C   UNL A   1      42.996  31.871  29.563  1.00  0.00     0.049 A 
ATOM     56  H   UNL A   1      42.539  29.905  28.948  1.00  0.00     0.167 HD
ATOM     57  C   UNL A   1      45.043  31.098  28.407  1.00  0.00     0.074 A 
ATOM     58  C   UNL A   1      46.374  31.298  27.875  1.00  0.00     0.031 C 
ATOM     59  C   UNL A   1      44.341  32.042  29.081  1.00  0.00     0.034 A 
BRANCH  46  60
ATOM     60  C   UNL A   1      38.649  30.269  30.681  1.00  0.00     0.023 A 
ATOM     61  C   UNL A   1      38.428  29.939  32.032  1.00  0.00     0.012 A 
ATOM     62  C   UNL A   1      37.673  31.005  29.980  1.00  0.00     0.148 A 
ATOM     63  C   UNL A   1      37.244  30.312  32.668  1.00  0.00     0.002 A 
ATOM     64  C   UNL A   1      36.514  31.410  30.633  1.00  0.00     0.091 A 
ATOM     65  F   UNL A   1      37.891  31.290  28.687  1.00  0.00    -0.205 F 
ATOM     66  C   UNL A   1      36.294  31.056  31.974  1.00  0.00     0.022 A 
BRANCH  64  67
ATOM     67  S   UNL A   1      35.272  32.440  29.843  1.00  0.00     0.127 S 
ATOM     68  O   UNL A   1      34.780  31.552  28.790  1.00  0.00    -0.237 OA
ATOM     69  O   UNL A   1      34.324  32.676  30.933  1.00  0.00    -0.237 OA
ATOM     70  O   UNL A   1      35.974  33.630  29.384  1.00  0.00    -0.744 OA
ENDBRANCH  64  67
ENDBRANCH  46  60
BRANCH  47  71
ATOM     71  C   UNL A   1      47.060  27.547  26.070  1.00  0.00     0.023 A 
ATOM     72  C   UNL A   1      48.048  26.831  26.775  1.00  0.00     0.012 A 
ATOM     73  C   UNL A   1      47.266  27.838  24.707  1.00  0.00     0.148 A 
ATOM     74  C   UNL A   1      49.224  26.430  26.140  1.00  0.00     0.002 A 
ATOM     75  C   UNL A   1      48.411  27.380  24.066  1.00  0.00     0.091 A 
ATOM     76  F   UNL A   1      46.330  28.547  24.060  1.00  0.00    -0.205 F 
ATOM     77  C   UNL A   1      49.399  26.691  24.783  1.00  0.00     0.022 A 
BRANCH  75  78
ATOM     78  S   UNL A   1      48.634  27.542  22.291  1.00  0.00     0.127 S 
ATOM     79  O   UNL A   1      47.450  28.305  21.908  1.00  0.00    -0.237 OA
ATOM     80  O   UNL A   1      49.896  28.277  22.208  1.00  0.00    -0.237 OA
ATOM     81  O   UNL A   1      48.706  26.176  21.786  1.00  0.00    -0.744 OA
ENDBRANCH  75  78
ENDBRANCH  47  71
BRANCH  59  82
ATOM     82  C   UNL A   1      45.008  33.372  29.315  1.00  0.00     0.023 A 
ATOM     83  C   UNL A   1      45.750  33.584  30.494  1.00  0.00     0.012 A 
ATOM     84  C   UNL A   1      44.954  34.387  28.340  1.00  0.00     0.148 A 
ATOM     85  C   UNL A   1      46.401  34.798  30.713  1.00  0.00     0.002 A 
ATOM     86  C   UNL A   1      45.643  35.577  28.544  1.00  0.00     0.091 A 
ATOM     87  F   UNL A   1      44.224  34.175  27.235  1.00  0.00    -0.205 F 
ATOM     88  C   UNL A   1      46.358  35.789  29.735  1.00  0.00     0.022 A 
BRANCH  86  89
ATOM     89  S   UNL A   1      45.713  36.869  27.298  1.00  0.00     0.127 S 
ATOM     90  O   UNL A   1      44.303  37.232  27.165  1.00  0.00    -0.237 OA
ATOM     91  O   UNL A   1      46.546  37.883  27.943  1.00  0.00    -0.237 OA
ATOM     92  O   UNL A   1      46.317  36.254  26.123  1.00  0.00    -0.744 OA
ENDBRANCH  86  89
ENDBRANCH  59  82
ENDBRANCH  33  34
ENDBRANCH  26  28
ENDBRANCH  25  26
ENDBRANCH   1  25
TORSDOF 16
ENDMDL
MODEL 3
REMARK VINA RESULT:     -12.5      1.392      7.671
REMARK SMILES CC1(C)[C@H](C(=O)Nc2cccc3[nH]ccc23)[C@H]1C(=O)OCCOC(=O)c1ccc(-c2c3nc(c(-c4cccc(S(=O)(=O)[O-])c4F)c4ccc([nH]4)c(-c4cccc(S(=O)(=O)[O-])c4F)c4nc(c(-c5cccc(S(=O)(=O)[O-])c5F)c5ccc2[nH]5)C=C4)C=C3)cc1
REMARK SMILES IDX 22 1 21 2 20 3 18 4 19 5 17 6 1 7 2 8 3 9 4 10 5 11 6 12
REMARK SMILES IDX 7 13 8 15 9 16 16 17 10 18 12 19 15 20 11 21 13 22 14 23
REMARK SMILES IDX 23 25 24 26 25 27 26 28 27 29 88 30 28 31 87 32 29 33 30 34
REMARK SMILES IDX 31 35 81 36 32 37 86 38 80 39 82 40 33 41 85 42 79 43 78 44
REMARK SMILES IDX 34 46 66 47 46 48 65 49 47 50 50 51 64 52 83 53 48 54 49 55
REMARK SMILES IDX 63 57 84 58 51 59 35 60 36 61 44 62 37 63 39 64 45 65 38 66
REMARK SMILES IDX 40 67 41 68 42 69 43 70 67 71 68 72 76 73 69 74 71 75 77 76
REMARK SMILES IDX 70 77 72 78 73 79 74 80 75 81 52 82 53 83 61 84 54 85 56 86
REMARK SMILES IDX 62 87 55 88 57 89 58 90 59 91 60 92
REMARK H PARENT 7 14 13 24 82 45 50 56
REMARK Flexibility Score: inf
ROOT
ATOM      1  C   UNL A   1      37.076  21.143  24.607  1.00  0.00     0.275 C 
ENDROOT
BRANCH   1   2
ATOM      2  C   UNL A   1      35.789  21.943  24.402  1.00  0.00     0.274 C 
BRANCH   2   3
ATOM      3  O   UNL A   1      35.476  22.641  25.619  1.00  0.00    -0.462 OA
BRANCH   3   4
ATOM      4  C   UNL A   1      34.362  22.254  26.285  1.00  0.00     0.310 C 
ATOM      5  O   UNL A   1      34.317  21.510  27.253  1.00  0.00    -0.252 OA
BRANCH   4   6
ATOM      6  C   UNL A   1      33.146  22.928  25.782  1.00  0.00     0.118 C 
ATOM      7  C   UNL A   1      32.202  20.806  24.517  1.00  0.00     0.013 C 
ATOM      8  C   UNL A   1      32.113  22.268  24.880  1.00  0.00    -0.009 C 
ATOM      9  C   UNL A   1      31.654  23.110  23.716  1.00  0.00     0.013 C 
ATOM     10  C   UNL A   1      31.802  22.578  26.350  1.00  0.00     0.100 C 
BRANCH  10  11
ATOM     11  C   UNL A   1      30.813  23.580  26.856  1.00  0.00     0.228 C 
ATOM     12  O   UNL A   1      29.846  23.169  27.489  1.00  0.00    -0.274 OA
ATOM     13  N   UNL A   1      31.193  24.903  26.875  1.00  0.00    -0.325 N 
ATOM     14  H   UNL A   1      31.644  25.231  27.687  1.00  0.00     0.169 HD
BRANCH  13  15
ATOM     15  C   UNL A   1      30.990  25.832  25.831  1.00  0.00     0.050 A 
ATOM     16  C   UNL A   1      29.791  25.875  25.111  1.00  0.00     0.027 A 
ATOM     17  C   UNL A   1      31.998  26.770  25.499  1.00  0.00     0.023 A 
ATOM     18  C   UNL A   1      29.639  26.690  23.992  1.00  0.00     0.004 A 
ATOM     19  C   UNL A   1      31.811  27.591  24.379  1.00  0.00     0.047 A 
ATOM     20  C   UNL A   1      33.275  27.111  26.038  1.00  0.00     0.030 A 
ATOM     21  C   UNL A   1      30.662  27.542  23.584  1.00  0.00     0.027 A 
ATOM     22  N   UNL A   1      32.940  28.370  24.239  1.00  0.00    -0.361 N 
ATOM     23  C   UNL A   1      33.816  28.109  25.259  1.00  0.00     0.083 A 
ATOM     24  H   UNL A   1      33.094  29.017  23.513  1.00  0.00     0.166 HD
ENDBRANCH  13  15
ENDBRANCH  10  11
ENDBRANCH   4   6
ENDBRANCH   3   4
ENDBRANCH   2   3
ENDBRANCH   1   2
BRANCH   1  25
ATOM     25  O   UNL A   1      37.536  21.289  25.964  1.00  0.00    -0.458 OA
BRANCH  25  26
ATOM     26  C   UNL A   1      38.877  21.208  26.125  1.00  0.00     0.338 C 
ATOM     27  O   UNL A   1      39.617  20.308  25.767  1.00  0.00    -0.246 OA
BRANCH  26  28
ATOM     28  C   UNL A   1      39.373  22.450  26.728  1.00  0.00     0.060 A 
ATOM     29  C   UNL A   1      38.740  23.640  26.389  1.00  0.00     0.016 A 
ATOM     30  C   UNL A   1      40.534  22.464  27.498  1.00  0.00     0.016 A 
ATOM     31  C   UNL A   1      39.325  24.855  26.722  1.00  0.00     0.010 A 
ATOM     32  C   UNL A   1      41.076  23.693  27.902  1.00  0.00     0.010 A 
ATOM     33  C   UNL A   1      40.507  24.906  27.473  1.00  0.00    -0.014 A 
BRANCH  33  34
ATOM     34  C   UNL A   1      41.152  26.224  27.745  1.00  0.00     0.031 A 
ATOM     35  C   UNL A   1      42.529  26.529  27.207  1.00  0.00     0.074 A 
ATOM     36  C   UNL A   1      40.494  27.175  28.438  1.00  0.00     0.049 A 
ATOM     37  N   UNL A   1      43.269  27.594  27.395  1.00  0.00    -0.248 NA
ATOM     38  C   UNL A   1      43.162  25.508  26.357  1.00  0.00     0.031 C 
ATOM     39  C   UNL A   1      39.156  27.025  29.016  1.00  0.00     0.029 A 
ATOM     40  N   UNL A   1      40.855  28.459  28.772  1.00  0.00    -0.354 N 
ATOM     41  C   UNL A   1      44.480  27.336  26.761  1.00  0.00     0.074 A 
ATOM     42  C   UNL A   1      44.369  26.022  26.165  1.00  0.00     0.031 C 
ATOM     43  C   UNL A   1      38.798  28.176  29.604  1.00  0.00     0.029 A 
ATOM     44  C   UNL A   1      39.902  29.124  29.513  1.00  0.00     0.049 A 
ATOM     45  H   UNL A   1      41.712  28.865  28.508  1.00  0.00     0.167 HD
ATOM     46  C   UNL A   1      45.582  28.119  26.671  1.00  0.00     0.034 A 
ATOM     47  C   UNL A   1      39.919  30.347  30.079  1.00  0.00     0.034 A 
ATOM     48  C   UNL A   1      45.675  29.455  27.197  1.00  0.00     0.049 A 
ATOM     49  C   UNL A   1      41.140  31.211  29.933  1.00  0.00     0.074 A 
ATOM     50  C   UNL A   1      46.737  30.339  27.112  1.00  0.00     0.029 A 
ATOM     51  N   UNL A   1      44.671  30.105  27.896  1.00  0.00    -0.354 N 
ATOM     52  N   UNL A   1      42.245  30.970  29.270  1.00  0.00    -0.248 NA
ATOM     53  C   UNL A   1      41.111  32.522  30.599  1.00  0.00     0.031 C 
ATOM     54  C   UNL A   1      46.379  31.522  27.767  1.00  0.00     0.029 A 
ATOM     55  C   UNL A   1      45.086  31.380  28.245  1.00  0.00     0.049 A 
ATOM     56  H   UNL A   1      43.793  29.718  28.115  1.00  0.00     0.167 HD
ATOM     57  C   UNL A   1      43.035  32.104  29.425  1.00  0.00     0.074 A 
ATOM     58  C   UNL A   1      42.267  33.045  30.213  1.00  0.00     0.031 C 
ATOM     59  C   UNL A   1      44.294  32.332  28.978  1.00  0.00     0.034 A 
BRANCH  46  60
ATOM     60  C   UNL A   1      46.784  27.563  25.952  1.00  0.00     0.023 A 
ATOM     61  C   UNL A   1      46.936  27.782  24.568  1.00  0.00     0.012 A 
ATOM     62  C   UNL A   1      47.796  26.886  26.660  1.00  0.00     0.148 A 
ATOM     63  C   UNL A   1      48.065  27.310  23.897  1.00  0.00     0.002 A 
ATOM     64  C   UNL A   1      48.937  26.457  25.992  1.00  0.00     0.091 A 
ATOM     65  F   UNL A   1      47.622  26.668  27.973  1.00  0.00    -0.205 F 
ATOM     66  C   UNL A   1      49.068  26.659  24.609  1.00  0.00     0.022 A 
BRANCH  64  67
ATOM     67  S   UNL A   1      50.318  25.682  26.842  1.00  0.00     0.127 S 
ATOM     68  O   UNL A   1      51.273  25.504  25.749  1.00  0.00    -0.237 OA
ATOM     69  O   UNL A   1      50.694  26.704  27.820  1.00  0.00    -0.237 OA
ATOM     70  O   UNL A   1      49.791  24.454  27.421  1.00  0.00    -0.744 OA
ENDBRANCH  64  67
ENDBRANCH  46  60
BRANCH  47  71
ATOM     71  C   UNL A   1      38.721  30.839  30.818  1.00  0.00     0.023 A 
ATOM     72  C   UNL A   1      38.683  30.740  32.222  1.00  0.00     0.012 A 
ATOM     73  C   UNL A   1      37.639  31.439  30.144  1.00  0.00     0.148 A 
ATOM     74  C   UNL A   1      37.583  31.210  32.940  1.00  0.00     0.002 A 
ATOM     75  C   UNL A   1      36.576  31.963  30.869  1.00  0.00     0.091 A 
ATOM     76  F   UNL A   1      37.678  31.498  28.805  1.00  0.00    -0.205 F 
ATOM     77  C   UNL A   1      36.537  31.835  32.265  1.00  0.00     0.022 A 
BRANCH  75  78
ATOM     78  S   UNL A   1      35.270  32.916  30.086  1.00  0.00     0.127 S 
ATOM     79  O   UNL A   1      36.023  34.001  29.463  1.00  0.00    -0.237 OA
ATOM     80  O   UNL A   1      34.701  31.944  29.152  1.00  0.00    -0.237 OA
ATOM     81  O   UNL A   1      34.372  33.300  31.168  1.00  0.00    -0.744 OA
ENDBRANCH  75  78
ENDBRANCH  47  71
BRANCH  59  82
ATOM     82  C   UNL A   1      44.916  33.667  29.297  1.00  0.00     0.023 A 
ATOM     83  C   UNL A   1      45.648  33.829  30.488  1.00  0.00     0.012 A 
ATOM     84  C   UNL A   1      44.830  34.738  28.386  1.00  0.00     0.148 A 
ATOM     85  C   UNL A   1      46.259  35.048  30.785  1.00  0.00     0.002 A 
ATOM     86  C   UNL A   1      45.479  35.935  28.666  1.00  0.00     0.091 A 
ATOM     87  F   UNL A   1      44.109  34.571  27.267  1.00  0.00    -0.205 F 
ATOM     88  C   UNL A   1      46.184  36.096  29.870  1.00  0.00     0.022 A 
BRANCH  86  89
ATOM     89  S   UNL A   1      45.507  37.303  27.503  1.00  0.00     0.127 S 
ATOM     90  O   UNL A   1      46.277  38.305  28.238  1.00  0.00    -0.237 OA
ATOM     91  O   UNL A   1      46.202  36.723  26.353  1.00  0.00    -0.237 OA
ATOM     92  O   UNL A   1      44.112  37.640  27.253  1.00  0.00    -0.744 OA
ENDBRANCH  86  89
ENDBRANCH  59  82
ENDBRANCH  33  34
ENDBRANCH  26  28
ENDBRANCH  25  26
ENDBRANCH   1  25
TORSDOF 16
ENDMDL
