MODEL 1
REMARK VINA RESULT:      -9.7      0.000      0.000
REMARK SMILES CCCC[C@@](CC)(C[C@H]1CCOC1)C(=O)OCCOC(=O)c1ccc(-c2c3nc(c(-c4cccc(S(=O)(=O)[O-])c4F)c4ccc([nH]4)c(-c4cccc(S(=O)(=O)[O-])c4F)c4nc(c(-c5cccc(S(=O)(=O)[O-])c5F)c5ccc2[nH]5)C=C4)C=C3)cc1
REMARK SMILES IDX 17 1 16 2 14 3 15 4 5 5 4 6 3 7 2 8 1 9 6 10 7 11 8 12 9 13
REMARK SMILES IDX 10 14 13 15 11 16 12 17 18 18 19 19 20 20 21 21 22 22 23 23
REMARK SMILES IDX 84 24 24 25 83 26 25 27 26 28 27 29 77 30 28 31 82 32 76 33
REMARK SMILES IDX 78 34 29 35 81 36 75 37 74 38 30 40 62 41 42 42 61 43 43 44
REMARK SMILES IDX 46 45 60 46 79 47 44 48 45 49 59 51 80 52 47 53 31 54 32 55
REMARK SMILES IDX 40 56 33 57 35 58 41 59 34 60 36 61 37 62 38 63 39 64 63 65
REMARK SMILES IDX 64 66 72 67 65 68 67 69 73 70 66 71 68 72 69 73 70 74 71 75
REMARK SMILES IDX 48 76 49 77 57 78 50 79 52 80 58 81 51 82 53 83 54 84 55 85
REMARK SMILES IDX 56 86
REMARK H PARENT 78 39 46 50
REMARK Flexibility Score: inf
ROOT
ATOM      1  C   UNL A   1      36.044  22.530  23.855  1.00  0.00     0.274 C 
ENDROOT
BRANCH   1   2
ATOM      2  O   UNL A   1      34.660  22.901  24.037  1.00  0.00    -0.462 OA
BRANCH   2   3
ATOM      3  C   UNL A   1      34.483  23.979  24.846  1.00  0.00     0.312 C 
ATOM      4  O   UNL A   1      35.397  24.743  25.143  1.00  0.00    -0.252 OA
BRANCH   3   5
ATOM      5  C   UNL A   1      33.030  24.155  25.339  1.00  0.00     0.068 C 
BRANCH   5   6
ATOM      6  C   UNL A   1      32.925  25.307  26.375  1.00  0.00     0.019 C 
BRANCH   6   7
ATOM      7  C   UNL A   1      32.079  26.575  26.130  1.00  0.00     0.001 C 
BRANCH   7   8
ATOM      8  C   UNL A   1      32.746  27.938  25.917  1.00  0.00    -0.003 C 
ATOM      9  C   UNL A   1      33.774  28.017  24.803  1.00  0.00     0.004 C 
ENDBRANCH   7   8
ENDBRANCH   6   7
ENDBRANCH   5   6
BRANCH   5  10
ATOM     10  C   UNL A   1      32.652  22.780  25.995  1.00  0.00     0.015 C 
ATOM     11  C   UNL A   1      31.449  22.753  26.931  1.00  0.00     0.005 C 
ENDBRANCH   5  10
BRANCH   5  12
ATOM     12  C   UNL A   1      32.027  24.377  24.127  1.00  0.00     0.024 C 
BRANCH  12  13
ATOM     13  C   UNL A   1      32.415  25.229  22.898  1.00  0.00     0.018 C 
ATOM     14  C   UNL A   1      32.710  24.471  21.611  1.00  0.00     0.034 C 
ATOM     15  C   UNL A   1      31.251  26.094  22.386  1.00  0.00     0.163 C 
ATOM     16  C   UNL A   1      32.603  25.576  20.576  1.00  0.00     0.160 C 
ATOM     17  O   UNL A   1      31.511  26.400  21.007  1.00  0.00    -0.381 OA
ENDBRANCH  12  13
ENDBRANCH   5  12
ENDBRANCH   3   5
ENDBRANCH   2   3
ENDBRANCH   1   2
BRANCH   1  18
ATOM     18  C   UNL A   1      36.396  21.289  24.676  1.00  0.00     0.275 C 
BRANCH  18  19
ATOM     19  O   UNL A   1      37.042  21.675  25.905  1.00  0.00    -0.458 OA
BRANCH  19  20
ATOM     20  C   UNL A   1      38.370  21.420  25.933  1.00  0.00     0.338 C 
ATOM     21  O   UNL A   1      38.938  20.462  25.432  1.00  0.00    -0.246 OA
BRANCH  20  22
ATOM     22  C   UNL A   1      39.118  22.548  26.497  1.00  0.00     0.060 A 
ATOM     23  C   UNL A   1      38.750  23.822  26.063  1.00  0.00     0.016 A 
ATOM     24  C   UNL A   1      40.205  22.380  27.350  1.00  0.00     0.016 A 
ATOM     25  C   UNL A   1      39.395  24.952  26.536  1.00  0.00     0.010 A 
ATOM     26  C   UNL A   1      40.915  23.512  27.765  1.00  0.00     0.010 A 
ATOM     27  C   UNL A   1      40.501  24.797  27.368  1.00  0.00    -0.014 A 
BRANCH  27  28
ATOM     28  C   UNL A   1      41.258  26.006  27.736  1.00  0.00     0.031 A 
ATOM     29  C   UNL A   1      40.586  27.068  28.549  1.00  0.00     0.074 A 
ATOM     30  C   UNL A   1      42.559  26.090  27.412  1.00  0.00     0.049 A 
ATOM     31  N   UNL A   1      41.044  28.231  28.922  1.00  0.00    -0.248 NA
ATOM     32  C   UNL A   1      39.227  26.769  29.029  1.00  0.00     0.031 C 
ATOM     33  C   UNL A   1      43.327  25.040  26.744  1.00  0.00     0.029 A 
ATOM     34  N   UNL A   1      43.460  27.103  27.597  1.00  0.00    -0.354 N 
ATOM     35  C   UNL A   1      40.018  28.823  29.644  1.00  0.00     0.074 A 
ATOM     36  C   UNL A   1      38.926  27.876  29.693  1.00  0.00     0.031 C 
ATOM     37  C   UNL A   1      44.579  25.479  26.540  1.00  0.00     0.029 A 
ATOM     38  C   UNL A   1      44.680  26.856  27.011  1.00  0.00     0.049 A 
ATOM     39  H   UNL A   1      43.257  27.926  28.097  1.00  0.00     0.167 HD
ATOM     40  C   UNL A   1      39.990  30.057  30.198  1.00  0.00     0.034 A 
ATOM     41  C   UNL A   1      45.732  27.677  26.834  1.00  0.00     0.034 A 
ATOM     42  C   UNL A   1      41.086  30.984  30.120  1.00  0.00     0.049 A 
ATOM     43  C   UNL A   1      45.635  29.081  27.367  1.00  0.00     0.074 A 
ATOM     44  C   UNL A   1      41.158  32.277  30.604  1.00  0.00     0.029 A 
ATOM     45  N   UNL A   1      42.297  30.718  29.498  1.00  0.00    -0.354 N 
ATOM     46  N   UNL A   1      44.669  29.633  28.063  1.00  0.00    -0.248 NA
ATOM     47  C   UNL A   1      46.771  29.972  27.102  1.00  0.00     0.031 C 
ATOM     48  C   UNL A   1      42.404  32.803  30.245  1.00  0.00     0.029 A 
ATOM     49  C   UNL A   1      43.120  31.827  29.569  1.00  0.00     0.049 A 
ATOM     50  H   UNL A   1      42.536  29.864  29.070  1.00  0.00     0.167 HD
ATOM     51  C   UNL A   1      45.094  30.925  28.348  1.00  0.00     0.074 A 
ATOM     52  C   UNL A   1      46.414  31.065  27.763  1.00  0.00     0.031 C 
ATOM     53  C   UNL A   1      44.450  31.913  29.019  1.00  0.00     0.034 A 
BRANCH  40  54
ATOM     54  C   UNL A   1      38.717  30.480  30.876  1.00  0.00     0.023 A 
ATOM     55  C   UNL A   1      38.507  30.191  32.239  1.00  0.00     0.012 A 
ATOM     56  C   UNL A   1      37.725  31.170  30.154  1.00  0.00     0.148 A 
ATOM     57  C   UNL A   1      37.313  30.554  32.864  1.00  0.00     0.002 A 
ATOM     58  C   UNL A   1      36.554  31.562  30.791  1.00  0.00     0.091 A 
ATOM     59  F   UNL A   1      37.933  31.409  28.852  1.00  0.00    -0.205 F 
ATOM     60  C   UNL A   1      36.341  31.245  32.143  1.00  0.00     0.022 A 
BRANCH  58  61
ATOM     61  S   UNL A   1      35.269  32.503  29.962  1.00  0.00     0.127 S 
ATOM     62  O   UNL A   1      34.303  32.701  31.042  1.00  0.00    -0.237 OA
ATOM     63  O   UNL A   1      35.986  33.711  29.556  1.00  0.00    -0.237 OA
ATOM     64  O   UNL A   1      34.808  31.670  28.860  1.00  0.00    -0.744 OA
ENDBRANCH  58  61
ENDBRANCH  40  54
BRANCH  41  65
ATOM     65  C   UNL A   1      46.943  27.203  26.107  1.00  0.00     0.023 A 
ATOM     66  C   UNL A   1      47.029  27.365  24.711  1.00  0.00     0.012 A 
ATOM     67  C   UNL A   1      48.016  26.596  26.793  1.00  0.00     0.148 A 
ATOM     68  C   UNL A   1      48.146  26.910  24.009  1.00  0.00     0.002 A 
ATOM     69  C   UNL A   1      49.148  26.193  26.095  1.00  0.00     0.091 A 
ATOM     70  F   UNL A   1      47.909  26.428  28.118  1.00  0.00    -0.205 F 
ATOM     71  C   UNL A   1      49.209  26.334  24.701  1.00  0.00     0.022 A 
BRANCH  69  72
ATOM     72  S   UNL A   1      50.610  25.552  26.920  1.00  0.00     0.127 S 
ATOM     73  O   UNL A   1      50.086  24.351  27.566  1.00  0.00    -0.237 OA
ATOM     74  O   UNL A   1      51.509  25.303  25.792  1.00  0.00    -0.237 OA
ATOM     75  O   UNL A   1      51.052  26.610  27.817  1.00  0.00    -0.744 OA
ENDBRANCH  69  72
ENDBRANCH  41  65
BRANCH  53  76
ATOM     76  C   UNL A   1      45.179  33.218  29.194  1.00  0.00     0.023 A 
ATOM     77  C   UNL A   1      46.089  33.376  30.257  1.00  0.00     0.012 A 
ATOM     78  C   UNL A   1      45.023  34.252  28.251  1.00  0.00     0.148 A 
ATOM     79  C   UNL A   1      46.815  34.559  30.393  1.00  0.00     0.002 A 
ATOM     80  C   UNL A   1      45.789  35.405  28.364  1.00  0.00     0.091 A 
ATOM     81  F   UNL A   1      44.135  34.086  27.260  1.00  0.00    -0.205 F 
ATOM     82  C   UNL A   1      46.676  35.565  29.440  1.00  0.00     0.022 A 
BRANCH  80  83
ATOM     83  S   UNL A   1      45.751  36.704  27.124  1.00  0.00     0.127 S 
ATOM     84  O   UNL A   1      46.311  36.020  25.959  1.00  0.00    -0.237 OA
ATOM     85  O   UNL A   1      44.321  37.000  27.029  1.00  0.00    -0.237 OA
ATOM     86  O   UNL A   1      46.558  37.792  27.659  1.00  0.00    -0.744 OA
ENDBRANCH  80  83
ENDBRANCH  53  76
ENDBRANCH  27  28
ENDBRANCH  20  22
ENDBRANCH  19  20
ENDBRANCH  18  19
ENDBRANCH   1  18
TORSDOF 20
ENDMDL
MODEL 2
REMARK VINA RESULT:      -9.6      5.327     10.010
REMARK SMILES CCCC[C@@](CC)(C[C@H]1CCOC1)C(=O)OCCOC(=O)c1ccc(-c2c3nc(c(-c4cccc(S(=O)(=O)[O-])c4F)c4ccc([nH]4)c(-c4cccc(S(=O)(=O)[O-])c4F)c4nc(c(-c5cccc(S(=O)(=O)[O-])c5F)c5ccc2[nH]5)C=C4)C=C3)cc1
REMARK SMILES IDX 17 1 16 2 14 3 15 4 5 5 4 6 3 7 2 8 1 9 6 10 7 11 8 12 9 13
REMARK SMILES IDX 10 14 13 15 11 16 12 17 18 18 19 19 20 20 21 21 22 22 23 23
REMARK SMILES IDX 84 24 24 25 83 26 25 27 26 28 27 29 77 30 28 31 82 32 76 33
REMARK SMILES IDX 78 34 29 35 81 36 75 37 74 38 30 40 62 41 42 42 61 43 43 44
REMARK SMILES IDX 46 45 60 46 79 47 44 48 45 49 59 51 80 52 47 53 31 54 32 55
REMARK SMILES IDX 40 56 33 57 35 58 41 59 34 60 36 61 37 62 38 63 39 64 63 65
REMARK SMILES IDX 64 66 72 67 65 68 67 69 73 70 66 71 68 72 69 73 70 74 71 75
REMARK SMILES IDX 48 76 49 77 57 78 50 79 52 80 58 81 51 82 53 83 54 84 55 85
REMARK SMILES IDX 56 86
REMARK H PARENT 78 39 46 50
REMARK Flexibility Score: inf
ROOT
ATOM      1  C   UNL A   1      31.773  28.524  27.196  1.00  0.00     0.274 C 
ENDROOT
BRANCH   1   2
ATOM      2  O   UNL A   1      32.347  27.702  26.157  1.00  0.00    -0.462 OA
BRANCH   2   3
ATOM      3  C   UNL A   1      31.779  26.471  26.055  1.00  0.00     0.312 C 
ATOM      4  O   UNL A   1      31.011  26.023  26.900  1.00  0.00    -0.252 OA
BRANCH   3   5
ATOM      5  C   UNL A   1      32.180  25.705  24.775  1.00  0.00     0.068 C 
BRANCH   5   6
ATOM      6  C   UNL A   1      31.190  24.545  24.483  1.00  0.00     0.019 C 
BRANCH   6   7
ATOM      7  C   UNL A   1      31.374  23.569  23.301  1.00  0.00     0.001 C 
BRANCH   7   8
ATOM      8  C   UNL A   1      31.974  22.175  23.516  1.00  0.00    -0.003 C 
ATOM      9  C   UNL A   1      32.096  21.298  22.283  1.00  0.00     0.004 C 
ENDBRANCH   7   8
ENDBRANCH   6   7
ENDBRANCH   5   6
BRANCH   5  10
ATOM     10  C   UNL A   1      33.619  25.149  25.066  1.00  0.00     0.015 C 
ATOM     11  C   UNL A   1      33.774  24.163  26.219  1.00  0.00     0.005 C 
ENDBRANCH   5  10
BRANCH   5  12
ATOM     12  C   UNL A   1      32.308  26.681  23.528  1.00  0.00     0.024 C 
BRANCH  12  13
ATOM     13  C   UNL A   1      31.068  27.338  22.881  1.00  0.00     0.018 C 
ATOM     14  C   UNL A   1      29.768  27.259  23.669  1.00  0.00     0.034 C 
ATOM     15  C   UNL A   1      31.187  28.869  22.795  1.00  0.00     0.163 C 
ATOM     16  C   UNL A   1      28.939  28.338  22.995  1.00  0.00     0.160 C 
ATOM     17  O   UNL A   1      29.856  29.403  22.708  1.00  0.00    -0.381 OA
ENDBRANCH  12  13
ENDBRANCH   5  12
ENDBRANCH   3   5
ENDBRANCH   2   3
ENDBRANCH   1   2
BRANCH   1  18
ATOM     18  C   UNL A   1      32.000  30.009  26.914  1.00  0.00     0.275 C 
BRANCH  18  19
ATOM     19  O   UNL A   1      33.400  30.259  26.675  1.00  0.00    -0.458 OA
BRANCH  19  20
ATOM     20  C   UNL A   1      33.894  31.320  27.353  1.00  0.00     0.338 C 
ATOM     21  O   UNL A   1      33.302  32.355  27.617  1.00  0.00    -0.246 OA
BRANCH  20  22
ATOM     22  C   UNL A   1      35.212  31.022  27.922  1.00  0.00     0.060 A 
ATOM     23  C   UNL A   1      35.371  29.765  28.507  1.00  0.00     0.016 A 
ATOM     24  C   UNL A   1      36.239  31.959  27.974  1.00  0.00     0.016 A 
ATOM     25  C   UNL A   1      36.578  29.388  29.072  1.00  0.00     0.010 A 
ATOM     26  C   UNL A   1      37.432  31.615  28.618  1.00  0.00     0.010 A 
ATOM     27  C   UNL A   1      37.605  30.325  29.155  1.00  0.00    -0.014 A 
BRANCH  27  28
ATOM     28  C   UNL A   1      38.822  29.946  29.892  1.00  0.00     0.031 A 
ATOM     29  C   UNL A   1      39.764  28.956  29.282  1.00  0.00     0.074 A 
ATOM     30  C   UNL A   1      39.107  30.561  31.052  1.00  0.00     0.049 A 
ATOM     31  N   UNL A   1      40.851  28.437  29.786  1.00  0.00    -0.248 NA
ATOM     32  C   UNL A   1      39.459  28.511  27.912  1.00  0.00     0.031 C 
ATOM     33  C   UNL A   1      38.314  31.637  31.646  1.00  0.00     0.029 A 
ATOM     34  N   UNL A   1      40.133  30.367  31.936  1.00  0.00    -0.354 N 
ATOM     35  C   UNL A   1      41.337  27.572  28.815  1.00  0.00     0.074 A 
ATOM     36  C   UNL A   1      40.451  27.666  27.676  1.00  0.00     0.031 C 
ATOM     37  C   UNL A   1      38.865  31.985  32.821  1.00  0.00     0.029 A 
ATOM     38  C   UNL A   1      40.010  31.118  33.081  1.00  0.00     0.049 A 
ATOM     39  H   UNL A   1      40.883  29.753  31.770  1.00  0.00     0.167 HD
ATOM     40  C   UNL A   1      42.417  26.762  28.884  1.00  0.00     0.034 A 
ATOM     41  C   UNL A   1      40.714  31.064  34.226  1.00  0.00     0.034 A 
ATOM     42  C   UNL A   1      43.272  26.678  30.037  1.00  0.00     0.049 A 
ATOM     43  C   UNL A   1      41.847  30.077  34.317  1.00  0.00     0.074 A 
ATOM     44  C   UNL A   1      44.369  25.863  30.240  1.00  0.00     0.029 A 
ATOM     45  N   UNL A   1      43.107  27.429  31.192  1.00  0.00    -0.354 N 
ATOM     46  N   UNL A   1      42.314  29.272  33.392  1.00  0.00    -0.248 NA
ATOM     47  C   UNL A   1      42.556  29.996  35.600  1.00  0.00     0.031 C 
ATOM     48  C   UNL A   1      44.848  26.099  31.534  1.00  0.00     0.029 A 
ATOM     49  C   UNL A   1      44.072  27.086  32.122  1.00  0.00     0.049 A 
ATOM     50  H   UNL A   1      42.407  28.108  31.330  1.00  0.00     0.167 HD
ATOM     51  C   UNL A   1      43.392  28.612  33.969  1.00  0.00     0.074 A 
ATOM     52  C   UNL A   1      43.519  29.126  35.319  1.00  0.00     0.031 C 
ATOM     53  C   UNL A   1      44.198  27.657  33.440  1.00  0.00     0.034 A 
BRANCH  40  54
ATOM     54  C   UNL A   1      42.687  25.869  27.705  1.00  0.00     0.023 A 
ATOM     55  C   UNL A   1      43.480  26.327  26.633  1.00  0.00     0.012 A 
ATOM     56  C   UNL A   1      42.150  24.568  27.662  1.00  0.00     0.148 A 
ATOM     57  C   UNL A   1      43.705  25.512  25.522  1.00  0.00     0.002 A 
ATOM     58  C   UNL A   1      42.409  23.749  26.570  1.00  0.00     0.091 A 
ATOM     59  F   UNL A   1      41.375  24.165  28.679  1.00  0.00    -0.205 F 
ATOM     60  C   UNL A   1      43.177  24.224  25.494  1.00  0.00     0.022 A 
BRANCH  58  61
ATOM     61  S   UNL A   1      41.819  22.057  26.469  1.00  0.00     0.127 S 
ATOM     62  O   UNL A   1      40.377  22.255  26.323  1.00  0.00    -0.237 OA
ATOM     63  O   UNL A   1      42.491  21.569  25.265  1.00  0.00    -0.237 OA
ATOM     64  O   UNL A   1      42.237  21.410  27.704  1.00  0.00    -0.744 OA
ENDBRANCH  58  61
ENDBRANCH  40  54
BRANCH  41  65
ATOM     65  C   UNL A   1      40.358  31.946  35.373  1.00  0.00     0.023 A 
ATOM     66  C   UNL A   1      41.144  33.079  35.654  1.00  0.00     0.012 A 
ATOM     67  C   UNL A   1      39.238  31.670  36.185  1.00  0.00     0.148 A 
ATOM     68  C   UNL A   1      40.838  33.907  36.737  1.00  0.00     0.002 A 
ATOM     69  C   UNL A   1      38.908  32.528  37.228  1.00  0.00     0.091 A 
ATOM     70  F   UNL A   1      38.513  30.575  35.918  1.00  0.00    -0.205 F 
ATOM     71  C   UNL A   1      39.716  33.638  37.516  1.00  0.00     0.022 A 
BRANCH  69  72
ATOM     72  S   UNL A   1      37.415  32.323  38.208  1.00  0.00     0.127 S 
ATOM     73  O   UNL A   1      37.238  30.873  38.183  1.00  0.00    -0.237 OA
ATOM     74  O   UNL A   1      37.824  32.873  39.501  1.00  0.00    -0.237 OA
ATOM     75  O   UNL A   1      36.388  33.097  37.525  1.00  0.00    -0.744 OA
ENDBRANCH  69  72
ENDBRANCH  41  65
BRANCH  53  76
ATOM     76  C   UNL A   1      45.314  27.137  34.306  1.00  0.00     0.023 A 
ATOM     77  C   UNL A   1      46.561  27.790  34.313  1.00  0.00     0.012 A 
ATOM     78  C   UNL A   1      45.091  26.053  35.177  1.00  0.00     0.148 A 
ATOM     79  C   UNL A   1      47.581  27.354  35.156  1.00  0.00     0.002 A 
ATOM     80  C   UNL A   1      46.094  25.658  36.052  1.00  0.00     0.091 A 
ATOM     81  F   UNL A   1      43.902  25.433  35.137  1.00  0.00    -0.205 F 
ATOM     82  C   UNL A   1      47.343  26.299  36.035  1.00  0.00     0.022 A 
BRANCH  80  83
ATOM     83  S   UNL A   1      45.838  24.381  37.289  1.00  0.00     0.127 S 
ATOM     84  O   UNL A   1      45.619  23.200  36.456  1.00  0.00    -0.237 OA
ATOM     85  O   UNL A   1      47.111  24.391  38.012  1.00  0.00    -0.237 OA
ATOM     86  O   UNL A   1      44.693  24.812  38.079  1.00  0.00    -0.744 OA
ENDBRANCH  80  83
ENDBRANCH  53  76
ENDBRANCH  27  28
ENDBRANCH  20  22
ENDBRANCH  19  20
ENDBRANCH  18  19
ENDBRANCH   1  18
TORSDOF 20
ENDMDL
MODEL 3
REMARK VINA RESULT:      -9.5      4.954     10.065
REMARK SMILES CCCC[C@@](CC)(C[C@H]1CCOC1)C(=O)OCCOC(=O)c1ccc(-c2c3nc(c(-c4cccc(S(=O)(=O)[O-])c4F)c4ccc([nH]4)c(-c4cccc(S(=O)(=O)[O-])c4F)c4nc(c(-c5cccc(S(=O)(=O)[O-])c5F)c5ccc2[nH]5)C=C4)C=C3)cc1
REMARK SMILES IDX 17 1 16 2 14 3 15 4 5 5 4 6 3 7 2 8 1 9 6 10 7 11 8 12 9 13
REMARK SMILES IDX 10 14 13 15 11 16 12 17 18 18 19 19 20 20 21 21 22 22 23 23
REMARK SMILES IDX 84 24 24 25 83 26 25 27 26 28 27 29 77 30 28 31 82 32 76 33
REMARK SMILES IDX 78 34 29 35 81 36 75 37 74 38 30 40 62 41 42 42 61 43 43 44
REMARK SMILES IDX 46 45 60 46 79 47 44 48 45 49 59 51 80 52 47 53 31 54 32 55
REMARK SMILES IDX 40 56 33 57 35 58 41 59 34 60 36 61 37 62 38 63 39 64 63 65
REMARK SMILES IDX 64 66 72 67 65 68 67 69 73 70 66 71 68 72 69 73 70 74 71 75
REMARK SMILES IDX 48 76 49 77 57 78 50 79 52 80 58 81 51 82 53 83 54 84 55 85
REMARK SMILES IDX 56 86
REMARK H PARENT 78 39 46 50
REMARK Flexibility Score: inf
ROOT
ATOM      1  C   UNL A   1      31.667  28.794  25.585  1.00  0.00     0.274 C 
ENDROOT
BRANCH   1   2
ATOM      2  O   UNL A   1      32.524  28.060  24.684  1.00  0.00    -0.462 OA
BRANCH   2   3
ATOM      3  C   UNL A   1      33.326  27.155  25.306  1.00  0.00     0.312 C 
ATOM      4  O   UNL A   1      33.915  27.400  26.354  1.00  0.00    -0.252 OA
BRANCH   3   5
ATOM      5  C   UNL A   1      33.412  25.795  24.578  1.00  0.00     0.068 C 
BRANCH   5   6
ATOM      6  C   UNL A   1      34.560  24.923  25.154  1.00  0.00     0.019 C 
BRANCH   6   7
ATOM      7  C   UNL A   1      35.255  23.814  24.335  1.00  0.00     0.001 C 
BRANCH   7   8
ATOM      8  C   UNL A   1      36.192  22.806  25.010  1.00  0.00    -0.003 C 
ATOM      9  C   UNL A   1      37.494  23.362  25.559  1.00  0.00     0.004 C 
ENDBRANCH   7   8
ENDBRANCH   6   7
ENDBRANCH   5   6
BRANCH   5  10
ATOM     10  C   UNL A   1      33.685  26.154  23.074  1.00  0.00     0.015 C 
ATOM     11  C   UNL A   1      32.598  25.816  22.060  1.00  0.00     0.005 C 
ENDBRANCH   5  10
BRANCH   5  12
ATOM     12  C   UNL A   1      32.024  25.023  24.621  1.00  0.00     0.024 C 
BRANCH  12  13
ATOM     13  C   UNL A   1      31.108  25.069  25.865  1.00  0.00     0.018 C 
ATOM     14  C   UNL A   1      29.661  25.480  25.629  1.00  0.00     0.034 C 
ATOM     15  C   UNL A   1      30.851  23.675  26.461  1.00  0.00     0.163 C 
ATOM     16  C   UNL A   1      28.996  24.993  26.904  1.00  0.00     0.160 C 
ATOM     17  O   UNL A   1      29.628  23.743  27.213  1.00  0.00    -0.381 OA
ENDBRANCH  12  13
ENDBRANCH   5  12
ENDBRANCH   3   5
ENDBRANCH   2   3
ENDBRANCH   1   2
BRANCH   1  18
ATOM     18  C   UNL A   1      32.153  30.234  25.759  1.00  0.00     0.275 C 
BRANCH  18  19
ATOM     19  O   UNL A   1      32.560  30.458  27.123  1.00  0.00    -0.458 OA
BRANCH  19  20
ATOM     20  C   UNL A   1      33.259  31.601  27.308  1.00  0.00     0.338 C 
ATOM     21  O   UNL A   1      32.845  32.740  27.161  1.00  0.00    -0.246 OA
BRANCH  20  22
ATOM     22  C   UNL A   1      34.573  31.332  27.902  1.00  0.00     0.060 A 
ATOM     23  C   UNL A   1      34.770  30.058  28.434  1.00  0.00     0.016 A 
ATOM     24  C   UNL A   1      35.557  32.308  28.026  1.00  0.00     0.016 A 
ATOM     25  C   UNL A   1      35.976  29.705  29.016  1.00  0.00     0.010 A 
ATOM     26  C   UNL A   1      36.746  31.984  28.688  1.00  0.00     0.010 A 
ATOM     27  C   UNL A   1      36.959  30.679  29.171  1.00  0.00    -0.014 A 
BRANCH  27  28
ATOM     28  C   UNL A   1      38.171  30.317  29.926  1.00  0.00     0.031 A 
ATOM     29  C   UNL A   1      39.185  29.420  29.289  1.00  0.00     0.074 A 
ATOM     30  C   UNL A   1      38.384  30.870  31.132  1.00  0.00     0.049 A 
ATOM     31  N   UNL A   1      40.281  28.928  29.797  1.00  0.00    -0.248 NA
ATOM     32  C   UNL A   1      38.949  29.050  27.884  1.00  0.00     0.031 C 
ATOM     33  C   UNL A   1      37.515  31.862  31.765  1.00  0.00     0.029 A 
ATOM     34  N   UNL A   1      39.390  30.674  32.038  1.00  0.00    -0.354 N 
ATOM     35  C   UNL A   1      40.845  28.155  28.792  1.00  0.00     0.074 A 
ATOM     36  C   UNL A   1      39.993  28.275  27.629  1.00  0.00     0.031 C 
ATOM     37  C   UNL A   1      38.008  32.161  32.978  1.00  0.00     0.029 A 
ATOM     38  C   UNL A   1      39.189  31.341  33.223  1.00  0.00     0.049 A 
ATOM     39  H   UNL A   1      40.178  30.111  31.860  1.00  0.00     0.167 HD
ATOM     40  C   UNL A   1      41.966  27.400  28.848  1.00  0.00     0.034 A 
ATOM     41  C   UNL A   1      39.858  31.249  34.387  1.00  0.00     0.034 A 
ATOM     42  C   UNL A   1      42.786  27.286  30.023  1.00  0.00     0.049 A 
ATOM     43  C   UNL A   1      41.040  30.319  34.455  1.00  0.00     0.074 A 
ATOM     44  C   UNL A   1      43.919  26.518  30.213  1.00  0.00     0.029 A 
ATOM     45  N   UNL A   1      42.544  27.950  31.216  1.00  0.00    -0.354 N 
ATOM     46  N   UNL A   1      41.580  29.602  33.499  1.00  0.00    -0.248 NA
ATOM     47  C   UNL A   1      41.711  30.192  35.755  1.00  0.00     0.031 C 
ATOM     48  C   UNL A   1      44.343  26.694  31.536  1.00  0.00     0.029 A 
ATOM     49  C   UNL A   1      43.495  27.599  32.157  1.00  0.00     0.049 A 
ATOM     50  H   UNL A   1      41.803  28.581  31.371  1.00  0.00     0.167 HD
ATOM     51  C   UNL A   1      42.673  28.963  34.071  1.00  0.00     0.074 A 
ATOM     52  C   UNL A   1      42.728  29.395  35.455  1.00  0.00     0.031 C 
ATOM     53  C   UNL A   1      43.547  28.089  33.512  1.00  0.00     0.034 A 
BRANCH  40  54
ATOM     54  C   UNL A   1      42.322  26.601  27.624  1.00  0.00     0.023 A 
ATOM     55  C   UNL A   1      42.923  27.229  26.515  1.00  0.00     0.012 A 
ATOM     56  C   UNL A   1      42.058  25.219  27.578  1.00  0.00     0.148 A 
ATOM     57  C   UNL A   1      43.225  26.497  25.366  1.00  0.00     0.002 A 
ATOM     58  C   UNL A   1      42.396  24.489  26.446  1.00  0.00     0.091 A 
ATOM     59  F   UNL A   1      41.459  24.648  28.633  1.00  0.00    -0.205 F 
ATOM     60  C   UNL A   1      42.969  25.128  25.334  1.00  0.00     0.022 A 
BRANCH  58  61
ATOM     61  S   UNL A   1      42.155  22.713  26.332  1.00  0.00     0.127 S 
ATOM     62  O   UNL A   1      42.686  22.428  24.999  1.00  0.00    -0.237 OA
ATOM     63  O   UNL A   1      42.979  22.220  27.434  1.00  0.00    -0.237 OA
ATOM     64  O   UNL A   1      40.725  22.489  26.493  1.00  0.00    -0.744 OA
ENDBRANCH  58  61
ENDBRANCH  40  54
BRANCH  41  65
ATOM     65  C   UNL A   1      39.417  32.035  35.574  1.00  0.00     0.023 A 
ATOM     66  C   UNL A   1      38.551  31.449  36.516  1.00  0.00     0.012 A 
ATOM     67  C   UNL A   1      39.857  33.359  35.778  1.00  0.00     0.148 A 
ATOM     68  C   UNL A   1      38.110  32.175  37.625  1.00  0.00     0.002 A 
ATOM     69  C   UNL A   1      39.457  34.057  36.911  1.00  0.00     0.091 A 
ATOM     70  F   UNL A   1      40.664  33.910  34.860  1.00  0.00    -0.205 F 
ATOM     71  C   UNL A   1      38.570  33.473  37.828  1.00  0.00     0.022 A 
BRANCH  69  72
ATOM     72  S   UNL A   1      40.094  35.689  37.312  1.00  0.00     0.127 S 
ATOM     73  O   UNL A   1      39.711  36.458  36.130  1.00  0.00    -0.237 OA
ATOM     74  O   UNL A   1      39.349  36.015  38.528  1.00  0.00    -0.237 OA
ATOM     75  O   UNL A   1      41.525  35.513  37.515  1.00  0.00    -0.744 OA
ENDBRANCH  69  72
ENDBRANCH  41  65
BRANCH  53  76
ATOM     76  C   UNL A   1      44.661  27.572  34.383  1.00  0.00     0.023 A 
ATOM     77  C   UNL A   1      45.832  28.335  34.550  1.00  0.00     0.012 A 
ATOM     78  C   UNL A   1      44.503  26.372  35.102  1.00  0.00     0.148 A 
ATOM     79  C   UNL A   1      46.844  27.895  35.402  1.00  0.00     0.002 A 
ATOM     80  C   UNL A   1      45.492  25.968  35.989  1.00  0.00     0.091 A 
ATOM     81  F   UNL A   1      43.387  25.652  34.909  1.00  0.00    -0.205 F 
ATOM     82  C   UNL A   1      46.668  26.722  36.131  1.00  0.00     0.022 A 
BRANCH  80  83
ATOM     83  S   UNL A   1      45.300  24.528  37.045  1.00  0.00     0.127 S 
ATOM     84  O   UNL A   1      44.111  24.882  37.818  1.00  0.00    -0.237 OA
ATOM     85  O   UNL A   1      45.098  23.455  36.071  1.00  0.00    -0.237 OA
ATOM     86  O   UNL A   1      46.536  24.424  37.809  1.00  0.00    -0.744 OA
ENDBRANCH  80  83
ENDBRANCH  53  76
ENDBRANCH  27  28
ENDBRANCH  20  22
ENDBRANCH  19  20
ENDBRANCH  18  19
ENDBRANCH   1  18
TORSDOF 20
ENDMDL
