MODEL 1
REMARK VINA RESULT:     -10.3      0.000      0.000
REMARK SMILES CCCN(C(=O)Cc1c(C(=O)OCCOC(=O)c2ccc(-c3c4nc(c(-c5cccc(S(=O)(=O)[O-])c5F)c5ccc([nH]5)c(-c5cccc(S(=O)(=O)[O-])c5F)c5nc(c(-c6cccc(S(=O)(=O)[O-])c6F)c6ccc3[nH]6)C=C5)C=C4)cc2)c(C)cn1CC)c1cccc(Cl)c1
REMARK SMILES IDX 13 1 12 2 10 3 11 4 9 5 8 6 84 7 81 8 83 9 82 10 7 11 5 12
REMARK SMILES IDX 6 13 4 14 3 15 2 16 1 17 87 18 88 19 93 20 89 21 91 22 90 23
REMARK SMILES IDX 92 24 85 25 86 26 14 27 15 28 16 29 17 30 18 31 19 32 80 33
REMARK SMILES IDX 20 34 79 35 21 36 22 37 23 38 73 39 24 40 78 41 72 42 74 43
REMARK SMILES IDX 25 44 77 45 71 46 70 47 26 49 58 50 38 51 57 52 39 53 42 54
REMARK SMILES IDX 56 55 75 56 40 57 41 58 55 60 76 61 43 62 27 63 28 64 36 65
REMARK SMILES IDX 29 66 31 67 37 68 30 69 32 70 33 71 34 72 35 73 59 74 60 75
REMARK SMILES IDX 68 76 61 77 63 78 69 79 62 80 64 81 65 82 66 83 67 84 44 85
REMARK SMILES IDX 45 86 53 87 46 88 48 89 54 90 47 91 49 92 50 93 51 94 52 95
REMARK H PARENT 74 48 42 59
REMARK Flexibility Score: inf
ROOT
ATOM      1  C   UNL A   1      44.926  40.901  26.369  1.00  0.00     0.275 C 
ENDROOT
BRANCH   1   2
ATOM      2  O   UNL A   1      44.900  41.382  25.012  1.00  0.00    -0.458 OA
BRANCH   2   3
ATOM      3  C   UNL A   1      44.395  42.645  24.802  1.00  0.00     0.340 C 
ATOM      4  O   UNL A   1      44.659  43.602  25.491  1.00  0.00    -0.246 OA
BRANCH   3   5
ATOM      5  C   UNL A   1      43.456  42.687  23.660  1.00  0.00     0.084 A 
ATOM      6  C   UNL A   1      43.764  43.124  22.355  1.00  0.00     0.042 A 
ATOM      7  N   UNL A   1      42.543  43.352  21.744  1.00  0.00    -0.350 N 
ATOM      8  C   UNL A   1      42.114  42.189  23.601  1.00  0.00    -0.019 A 
ATOM      9  C   UNL A   1      41.580  42.639  22.416  1.00  0.00     0.090 A 
ATOM     10  C   UNL A   1      41.418  41.341  24.607  1.00  0.00     0.047 C 
BRANCH   6  11
ATOM     11  C   UNL A   1      45.149  43.216  21.735  1.00  0.00     0.155 C 
BRANCH  11  12
ATOM     12  C   UNL A   1      45.775  44.593  21.581  1.00  0.00     0.232 C 
ATOM     13  O   UNL A   1      45.703  45.355  22.556  1.00  0.00    -0.274 OA
BRANCH  12  14
ATOM     14  N   UNL A   1      46.351  44.992  20.356  1.00  0.00    -0.312 N 
BRANCH  14  15
ATOM     15  C   UNL A   1      47.806  45.120  20.097  1.00  0.00     0.125 C 
BRANCH  15  16
ATOM     16  C   UNL A   1      48.596  43.914  19.558  1.00  0.00     0.019 C 
ATOM     17  C   UNL A   1      49.256  43.011  20.592  1.00  0.00     0.006 C 
ENDBRANCH  15  16
ENDBRANCH  14  15
BRANCH  14  18
ATOM     18  C   UNL A   1      45.467  45.531  19.349  1.00  0.00     0.045 A 
ATOM     19  C   UNL A   1      45.034  46.865  19.405  1.00  0.00     0.026 A 
ATOM     20  C   UNL A   1      44.938  44.716  18.348  1.00  0.00     0.046 A 
ATOM     21  C   UNL A   1      44.069  47.353  18.517  1.00  0.00     0.004 A 
ATOM     22  C   UNL A   1      43.958  45.195  17.475  1.00  0.00     0.043 A 
ATOM     23  C   UNL A   1      43.515  46.510  17.559  1.00  0.00     0.020 A 
ATOM     24  Cl  UNL A   1      43.248  44.127  16.325  1.00  0.00    -0.084 Cl
ENDBRANCH  14  18
ENDBRANCH  12  14
ENDBRANCH  11  12
ENDBRANCH   6  11
BRANCH   7  25
ATOM     25  C   UNL A   1      42.233  44.111  20.545  1.00  0.00     0.118 C 
ATOM     26  C   UNL A   1      41.081  43.548  19.732  1.00  0.00     0.027 C 
ENDBRANCH   7  25
ENDBRANCH   3   5
ENDBRANCH   2   3
ENDBRANCH   1   2
BRANCH   1  27
ATOM     27  C   UNL A   1      44.053  39.668  26.549  1.00  0.00     0.275 C 
BRANCH  27  28
ATOM     28  O   UNL A   1      44.790  38.620  27.165  1.00  0.00    -0.458 OA
BRANCH  28  29
ATOM     29  C   UNL A   1      44.527  38.453  28.477  1.00  0.00     0.338 C 
ATOM     30  O   UNL A   1      44.577  39.297  29.358  1.00  0.00    -0.246 OA
BRANCH  29  31
ATOM     31  C   UNL A   1      44.378  37.029  28.762  1.00  0.00     0.060 A 
ATOM     32  C   UNL A   1      43.800  36.262  27.749  1.00  0.00     0.016 A 
ATOM     33  C   UNL A   1      44.492  36.574  30.083  1.00  0.00     0.016 A 
ATOM     34  C   UNL A   1      43.155  35.105  28.099  1.00  0.00     0.010 A 
ATOM     35  C   UNL A   1      43.836  35.423  30.435  1.00  0.00     0.010 A 
ATOM     36  C   UNL A   1      43.110  34.757  29.451  1.00  0.00    -0.014 A 
BRANCH  36  37
ATOM     37  C   UNL A   1      42.319  33.599  29.793  1.00  0.00     0.031 A 
ATOM     38  C   UNL A   1      40.962  33.965  30.260  1.00  0.00     0.074 A 
ATOM     39  C   UNL A   1      42.795  32.357  29.605  1.00  0.00     0.049 A 
ATOM     40  N   UNL A   1      40.433  33.756  31.420  1.00  0.00    -0.248 NA
ATOM     41  C   UNL A   1      40.181  34.862  29.392  1.00  0.00     0.031 C 
ATOM     42  C   UNL A   1      44.009  31.964  28.879  1.00  0.00     0.029 A 
ATOM     43  N   UNL A   1      42.196  31.169  29.872  1.00  0.00    -0.354 N 
ATOM     44  C   UNL A   1      39.149  34.291  31.327  1.00  0.00     0.074 A 
ATOM     45  C   UNL A   1      39.145  35.147  30.175  1.00  0.00     0.031 C 
ATOM     46  C   UNL A   1      43.896  30.668  28.514  1.00  0.00     0.029 A 
ATOM     47  C   UNL A   1      42.675  30.129  29.086  1.00  0.00     0.049 A 
ATOM     48  H   UNL A   1      41.493  31.056  30.553  1.00  0.00     0.167 HD
ATOM     49  C   UNL A   1      38.113  33.748  32.018  1.00  0.00     0.034 A 
ATOM     50  C   UNL A   1      42.025  28.969  28.824  1.00  0.00     0.034 A 
ATOM     51  C   UNL A   1      38.583  32.971  33.136  1.00  0.00     0.049 A 
ATOM     52  C   UNL A   1      40.957  28.821  29.843  1.00  0.00     0.074 A 
ATOM     53  C   UNL A   1      39.337  33.236  34.261  1.00  0.00     0.029 A 
ATOM     54  N   UNL A   1      38.581  31.607  32.987  1.00  0.00    -0.354 N 
ATOM     55  N   UNL A   1      41.184  28.642  31.115  1.00  0.00    -0.248 NA
ATOM     56  C   UNL A   1      39.627  29.307  29.510  1.00  0.00     0.031 C 
ATOM     57  C   UNL A   1      40.113  32.059  34.471  1.00  0.00     0.029 A 
ATOM     58  C   UNL A   1      39.756  31.126  33.494  1.00  0.00     0.049 A 
ATOM     59  H   UNL A   1      37.860  31.068  32.586  1.00  0.00     0.167 HD
ATOM     60  C   UNL A   1      40.206  29.394  31.755  1.00  0.00     0.074 A 
ATOM     61  C   UNL A   1      39.214  29.683  30.723  1.00  0.00     0.031 C 
ATOM     62  C   UNL A   1      40.439  29.960  32.976  1.00  0.00     0.034 A 
BRANCH  49  63
ATOM     63  C   UNL A   1      36.725  33.549  31.442  1.00  0.00     0.023 A 
ATOM     64  C   UNL A   1      36.606  32.617  30.386  1.00  0.00     0.012 A 
ATOM     65  C   UNL A   1      35.624  34.415  31.650  1.00  0.00     0.148 A 
ATOM     66  C   UNL A   1      35.503  32.618  29.526  1.00  0.00     0.002 A 
ATOM     67  C   UNL A   1      34.499  34.364  30.837  1.00  0.00     0.091 A 
ATOM     68  F   UNL A   1      35.687  35.393  32.554  1.00  0.00    -0.205 F 
ATOM     69  C   UNL A   1      34.449  33.494  29.749  1.00  0.00     0.022 A 
BRANCH  67  70
ATOM     70  S   UNL A   1      33.094  35.455  31.111  1.00  0.00     0.127 S 
ATOM     71  O   UNL A   1      33.731  36.766  31.042  1.00  0.00    -0.237 OA
ATOM     72  O   UNL A   1      32.233  35.119  29.977  1.00  0.00    -0.237 OA
ATOM     73  O   UNL A   1      32.547  35.075  32.407  1.00  0.00    -0.744 OA
ENDBRANCH  67  70
ENDBRANCH  49  63
BRANCH  50  74
ATOM     74  C   UNL A   1      42.041  28.168  27.578  1.00  0.00     0.023 A 
ATOM     75  C   UNL A   1      41.936  28.821  26.336  1.00  0.00     0.012 A 
ATOM     76  C   UNL A   1      42.413  26.803  27.584  1.00  0.00     0.148 A 
ATOM     77  C   UNL A   1      42.214  28.146  25.141  1.00  0.00     0.002 A 
ATOM     78  C   UNL A   1      42.671  26.132  26.393  1.00  0.00     0.091 A 
ATOM     79  F   UNL A   1      42.606  26.187  28.757  1.00  0.00    -0.205 F 
ATOM     80  C   UNL A   1      42.585  26.804  25.169  1.00  0.00     0.022 A 
BRANCH  78  81
ATOM     81  S   UNL A   1      43.159  24.400  26.355  1.00  0.00     0.127 S 
ATOM     82  O   UNL A   1      44.395  24.417  27.140  1.00  0.00    -0.237 OA
ATOM     83  O   UNL A   1      42.027  23.752  27.011  1.00  0.00    -0.237 OA
ATOM     84  O   UNL A   1      43.351  24.072  24.948  1.00  0.00    -0.744 OA
ENDBRANCH  78  81
ENDBRANCH  50  74
BRANCH  62  85
ATOM     85  C   UNL A   1      41.661  29.529  33.743  1.00  0.00     0.023 A 
ATOM     86  C   UNL A   1      42.816  30.334  33.830  1.00  0.00     0.012 A 
ATOM     87  C   UNL A   1      41.551  28.399  34.570  1.00  0.00     0.148 A 
ATOM     88  C   UNL A   1      43.844  30.011  34.719  1.00  0.00     0.002 A 
ATOM     89  C   UNL A   1      42.551  28.112  35.490  1.00  0.00     0.091 A 
ATOM     90  F   UNL A   1      40.441  27.651  34.475  1.00  0.00    -0.205 F 
ATOM     91  C   UNL A   1      43.704  28.909  35.561  1.00  0.00     0.022 A 
BRANCH  89  92
ATOM     92  S   UNL A   1      42.361  26.801  36.700  1.00  0.00     0.127 S 
ATOM     93  O   UNL A   1      43.450  27.084  37.631  1.00  0.00    -0.237 OA
ATOM     94  O   UNL A   1      41.020  27.057  37.229  1.00  0.00    -0.237 OA
ATOM     95  O   UNL A   1      42.476  25.551  35.959  1.00  0.00    -0.744 OA
ENDBRANCH  89  92
ENDBRANCH  62  85
ENDBRANCH  36  37
ENDBRANCH  29  31
ENDBRANCH  28  29
ENDBRANCH  27  28
ENDBRANCH   1  27
TORSDOF 21
ENDMDL
MODEL 2
REMARK VINA RESULT:     -10.0      8.838     13.896
REMARK SMILES CCCN(C(=O)Cc1c(C(=O)OCCOC(=O)c2ccc(-c3c4nc(c(-c5cccc(S(=O)(=O)[O-])c5F)c5ccc([nH]5)c(-c5cccc(S(=O)(=O)[O-])c5F)c5nc(c(-c6cccc(S(=O)(=O)[O-])c6F)c6ccc3[nH]6)C=C5)C=C4)cc2)c(C)cn1CC)c1cccc(Cl)c1
REMARK SMILES IDX 13 1 12 2 10 3 11 4 9 5 8 6 84 7 81 8 83 9 82 10 7 11 5 12
REMARK SMILES IDX 6 13 4 14 3 15 2 16 1 17 87 18 88 19 93 20 89 21 91 22 90 23
REMARK SMILES IDX 92 24 85 25 86 26 14 27 15 28 16 29 17 30 18 31 19 32 80 33
REMARK SMILES IDX 20 34 79 35 21 36 22 37 23 38 73 39 24 40 78 41 72 42 74 43
REMARK SMILES IDX 25 44 77 45 71 46 70 47 26 49 58 50 38 51 57 52 39 53 42 54
REMARK SMILES IDX 56 55 75 56 40 57 41 58 55 60 76 61 43 62 27 63 28 64 36 65
REMARK SMILES IDX 29 66 31 67 37 68 30 69 32 70 33 71 34 72 35 73 59 74 60 75
REMARK SMILES IDX 68 76 61 77 63 78 69 79 62 80 64 81 65 82 66 83 67 84 44 85
REMARK SMILES IDX 45 86 53 87 46 88 48 89 54 90 47 91 49 92 50 93 51 94 52 95
REMARK H PARENT 74 48 42 59
REMARK Flexibility Score: inf
ROOT
ATOM      1  C   UNL A   1      42.802  43.238  19.195  1.00  0.00     0.275 C 
ENDROOT
BRANCH   1   2
ATOM      2  O   UNL A   1      42.566  44.603  18.807  1.00  0.00    -0.458 OA
BRANCH   2   3
ATOM      3  C   UNL A   1      42.929  44.967  17.530  1.00  0.00     0.340 C 
ATOM      4  O   UNL A   1      43.054  44.187  16.615  1.00  0.00    -0.246 OA
BRANCH   3   5
ATOM      5  C   UNL A   1      43.190  46.418  17.416  1.00  0.00     0.084 A 
ATOM      6  C   UNL A   1      44.375  47.076  17.803  1.00  0.00     0.042 A 
ATOM      7  N   UNL A   1      44.045  48.418  17.878  1.00  0.00    -0.350 N 
ATOM      8  C   UNL A   1      42.373  47.416  16.790  1.00  0.00    -0.019 A 
ATOM      9  C   UNL A   1      42.922  48.634  17.118  1.00  0.00     0.090 A 
ATOM     10  C   UNL A   1      41.171  47.199  15.939  1.00  0.00     0.047 C 
BRANCH   6  11
ATOM     11  C   UNL A   1      45.743  46.439  17.991  1.00  0.00     0.155 C 
BRANCH  11  12
ATOM     12  C   UNL A   1      46.131  45.973  19.384  1.00  0.00     0.232 C 
ATOM     13  O   UNL A   1      45.273  46.082  20.273  1.00  0.00    -0.274 OA
BRANCH  12  14
ATOM     14  N   UNL A   1      47.433  45.498  19.651  1.00  0.00    -0.312 N 
BRANCH  14  15
ATOM     15  C   UNL A   1      48.652  45.870  18.892  1.00  0.00     0.125 C 
BRANCH  15  16
ATOM     16  C   UNL A   1      49.013  45.107  17.605  1.00  0.00     0.019 C 
ATOM     17  C   UNL A   1      50.482  44.760  17.405  1.00  0.00     0.006 C 
ENDBRANCH  15  16
ENDBRANCH  14  15
BRANCH  14  18
ATOM     18  C   UNL A   1      47.563  44.402  20.583  1.00  0.00     0.045 A 
ATOM     19  C   UNL A   1      47.206  43.095  20.218  1.00  0.00     0.026 A 
ATOM     20  C   UNL A   1      47.954  44.625  21.905  1.00  0.00     0.046 A 
ATOM     21  C   UNL A   1      47.195  42.056  21.155  1.00  0.00     0.004 A 
ATOM     22  C   UNL A   1      47.921  43.594  22.846  1.00  0.00     0.043 A 
ATOM     23  C   UNL A   1      47.537  42.310  22.479  1.00  0.00     0.020 A 
ATOM     24  Cl  UNL A   1      48.303  43.934  24.492  1.00  0.00    -0.084 Cl
ENDBRANCH  14  18
ENDBRANCH  12  14
ENDBRANCH  11  12
ENDBRANCH   6  11
BRANCH   7  25
ATOM     25  C   UNL A   1      44.744  49.509  18.534  1.00  0.00     0.118 C 
ATOM     26  C   UNL A   1      44.549  49.558  20.040  1.00  0.00     0.027 C 
ENDBRANCH   7  25
ENDBRANCH   3   5
ENDBRANCH   2   3
ENDBRANCH   1   2
BRANCH   1  27
ATOM     27  C   UNL A   1      43.475  43.145  20.556  1.00  0.00     0.275 C 
BRANCH  27  28
ATOM     28  O   UNL A   1      42.882  42.116  21.338  1.00  0.00    -0.458 OA
BRANCH  28  29
ATOM     29  C   UNL A   1      41.946  42.547  22.207  1.00  0.00     0.338 C 
ATOM     30  O   UNL A   1      40.802  42.892  21.955  1.00  0.00    -0.246 OA
BRANCH  29  31
ATOM     31  C   UNL A   1      42.562  42.766  23.512  1.00  0.00     0.060 A 
ATOM     32  C   UNL A   1      43.577  43.725  23.552  1.00  0.00     0.016 A 
ATOM     33  C   UNL A   1      42.369  41.827  24.534  1.00  0.00     0.016 A 
ATOM     34  C   UNL A   1      44.528  43.621  24.533  1.00  0.00     0.010 A 
ATOM     35  C   UNL A   1      43.327  41.715  25.507  1.00  0.00     0.010 A 
ATOM     36  C   UNL A   1      44.432  42.561  25.437  1.00  0.00    -0.014 A 
BRANCH  36  37
ATOM     37  C   UNL A   1      45.517  42.415  26.377  1.00  0.00     0.031 A 
ATOM     38  C   UNL A   1      46.024  41.025  26.437  1.00  0.00     0.074 A 
ATOM     39  C   UNL A   1      46.015  43.480  27.029  1.00  0.00     0.049 A 
ATOM     40  N   UNL A   1      46.017  40.214  27.443  1.00  0.00    -0.248 NA
ATOM     41  C   UNL A   1      46.388  40.396  25.156  1.00  0.00     0.031 C 
ATOM     42  C   UNL A   1      45.731  44.897  26.775  1.00  0.00     0.029 A 
ATOM     43  N   UNL A   1      47.019  43.523  27.940  1.00  0.00    -0.354 N 
ATOM     44  C   UNL A   1      46.611  39.048  26.964  1.00  0.00     0.074 A 
ATOM     45  C   UNL A   1      46.591  39.137  25.531  1.00  0.00     0.031 C 
ATOM     46  C   UNL A   1      46.737  45.640  27.288  1.00  0.00     0.029 A 
ATOM     47  C   UNL A   1      47.648  44.761  27.999  1.00  0.00     0.049 A 
ATOM     48  H   UNL A   1      47.277  42.756  28.502  1.00  0.00     0.167 HD
ATOM     49  C   UNL A   1      47.348  38.250  27.782  1.00  0.00     0.034 A 
ATOM     50  C   UNL A   1      48.894  44.994  28.476  1.00  0.00     0.034 A 
ATOM     51  C   UNL A   1      47.019  38.478  29.165  1.00  0.00     0.049 A 
ATOM     52  C   UNL A   1      49.278  43.824  29.304  1.00  0.00     0.074 A 
ATOM     53  C   UNL A   1      45.870  38.380  29.925  1.00  0.00     0.029 A 
ATOM     54  N   UNL A   1      47.899  39.237  29.895  1.00  0.00    -0.354 N 
ATOM     55  N   UNL A   1      48.691  43.500  30.422  1.00  0.00    -0.248 NA
ATOM     56  C   UNL A   1      50.034  42.758  28.664  1.00  0.00     0.031 C 
ATOM     57  C   UNL A   1      45.957  39.448  30.864  1.00  0.00     0.029 A 
ATOM     58  C   UNL A   1      47.171  40.108  30.658  1.00  0.00     0.049 A 
ATOM     59  H   UNL A   1      48.881  39.168  29.874  1.00  0.00     0.167 HD
ATOM     60  C   UNL A   1      48.636  42.111  30.399  1.00  0.00     0.074 A 
ATOM     61  C   UNL A   1      49.576  41.712  29.355  1.00  0.00     0.031 C 
ATOM     62  C   UNL A   1      47.623  41.436  31.016  1.00  0.00     0.034 A 
BRANCH  49  63
ATOM     63  C   UNL A   1      48.656  37.602  27.374  1.00  0.00     0.023 A 
ATOM     64  C   UNL A   1      49.757  38.466  27.179  1.00  0.00     0.012 A 
ATOM     65  C   UNL A   1      48.793  36.281  26.883  1.00  0.00     0.148 A 
ATOM     66  C   UNL A   1      50.883  38.069  26.449  1.00  0.00     0.002 A 
ATOM     67  C   UNL A   1      49.942  35.869  26.221  1.00  0.00     0.091 A 
ATOM     68  F   UNL A   1      47.770  35.427  26.930  1.00  0.00    -0.205 F 
ATOM     69  C   UNL A   1      50.974  36.771  25.966  1.00  0.00     0.022 A 
BRANCH  67  70
ATOM     70  S   UNL A   1      50.120  34.186  25.610  1.00  0.00     0.127 S 
ATOM     71  O   UNL A   1      50.946  34.396  24.425  1.00  0.00    -0.237 OA
ATOM     72  O   UNL A   1      50.795  33.533  26.732  1.00  0.00    -0.237 OA
ATOM     73  O   UNL A   1      48.765  33.708  25.370  1.00  0.00    -0.744 OA
ENDBRANCH  67  70
ENDBRANCH  49  63
BRANCH  50  74
ATOM     74  C   UNL A   1      49.891  45.983  28.000  1.00  0.00     0.023 A 
ATOM     75  C   UNL A   1      50.956  45.552  27.187  1.00  0.00     0.012 A 
ATOM     76  C   UNL A   1      49.664  47.374  28.121  1.00  0.00     0.148 A 
ATOM     77  C   UNL A   1      51.756  46.473  26.500  1.00  0.00     0.002 A 
ATOM     78  C   UNL A   1      50.473  48.286  27.451  1.00  0.00     0.091 A 
ATOM     79  F   UNL A   1      48.603  47.801  28.816  1.00  0.00    -0.205 F 
ATOM     80  C   UNL A   1      51.513  47.838  26.628  1.00  0.00     0.022 A 
BRANCH  78  81
ATOM     81  S   UNL A   1      50.214  50.062  27.567  1.00  0.00     0.127 S 
ATOM     82  O   UNL A   1      50.591  50.333  28.955  1.00  0.00    -0.237 OA
ATOM     83  O   UNL A   1      51.152  50.571  26.568  1.00  0.00    -0.237 OA
ATOM     84  O   UNL A   1      48.802  50.279  27.279  1.00  0.00    -0.744 OA
ENDBRANCH  78  81
ENDBRANCH  50  74
BRANCH  62  85
ATOM     85  C   UNL A   1      46.722  42.196  31.954  1.00  0.00     0.023 A 
ATOM     86  C   UNL A   1      47.104  42.506  33.276  1.00  0.00     0.012 A 
ATOM     87  C   UNL A   1      45.572  42.795  31.416  1.00  0.00     0.148 A 
ATOM     88  C   UNL A   1      46.346  43.391  34.047  1.00  0.00     0.002 A 
ATOM     89  C   UNL A   1      44.852  43.714  32.167  1.00  0.00     0.091 A 
ATOM     90  F   UNL A   1      45.229  42.490  30.155  1.00  0.00    -0.205 F 
ATOM     91  C   UNL A   1      45.230  44.008  33.487  1.00  0.00     0.022 A 
BRANCH  89  92
ATOM     92  S   UNL A   1      43.499  44.652  31.454  1.00  0.00     0.127 S 
ATOM     93  O   UNL A   1      44.082  45.124  30.200  1.00  0.00    -0.237 OA
ATOM     94  O   UNL A   1      42.459  43.632  31.301  1.00  0.00    -0.237 OA
ATOM     95  O   UNL A   1      43.173  45.689  32.424  1.00  0.00    -0.744 OA
ENDBRANCH  89  92
ENDBRANCH  62  85
ENDBRANCH  36  37
ENDBRANCH  29  31
ENDBRANCH  28  29
ENDBRANCH  27  28
ENDBRANCH   1  27
TORSDOF 21
ENDMDL
MODEL 3
REMARK VINA RESULT:     -10.0      9.549     14.121
REMARK SMILES CCCN(C(=O)Cc1c(C(=O)OCCOC(=O)c2ccc(-c3c4nc(c(-c5cccc(S(=O)(=O)[O-])c5F)c5ccc([nH]5)c(-c5cccc(S(=O)(=O)[O-])c5F)c5nc(c(-c6cccc(S(=O)(=O)[O-])c6F)c6ccc3[nH]6)C=C5)C=C4)cc2)c(C)cn1CC)c1cccc(Cl)c1
REMARK SMILES IDX 13 1 12 2 10 3 11 4 9 5 8 6 84 7 81 8 83 9 82 10 7 11 5 12
REMARK SMILES IDX 6 13 4 14 3 15 2 16 1 17 87 18 88 19 93 20 89 21 91 22 90 23
REMARK SMILES IDX 92 24 85 25 86 26 14 27 15 28 16 29 17 30 18 31 19 32 80 33
REMARK SMILES IDX 20 34 79 35 21 36 22 37 23 38 73 39 24 40 78 41 72 42 74 43
REMARK SMILES IDX 25 44 77 45 71 46 70 47 26 49 58 50 38 51 57 52 39 53 42 54
REMARK SMILES IDX 56 55 75 56 40 57 41 58 55 60 76 61 43 62 27 63 28 64 36 65
REMARK SMILES IDX 29 66 31 67 37 68 30 69 32 70 33 71 34 72 35 73 59 74 60 75
REMARK SMILES IDX 68 76 61 77 63 78 69 79 62 80 64 81 65 82 66 83 67 84 44 85
REMARK SMILES IDX 45 86 53 87 46 88 48 89 54 90 47 91 49 92 50 93 51 94 52 95
REMARK H PARENT 74 48 42 59
REMARK Flexibility Score: inf
ROOT
ATOM      1  C   UNL A   1      43.375  43.481  18.851  1.00  0.00     0.275 C 
ENDROOT
BRANCH   1   2
ATOM      2  O   UNL A   1      42.604  44.664  18.573  1.00  0.00    -0.458 OA
BRANCH   2   3
ATOM      3  C   UNL A   1      42.899  45.350  17.416  1.00  0.00     0.340 C 
ATOM      4  O   UNL A   1      42.831  44.869  16.309  1.00  0.00    -0.246 OA
BRANCH   3   5
ATOM      5  C   UNL A   1      43.352  46.731  17.687  1.00  0.00     0.084 A 
ATOM      6  C   UNL A   1      44.509  47.095  18.405  1.00  0.00     0.042 A 
ATOM      7  N   UNL A   1      44.337  48.427  18.735  1.00  0.00    -0.350 N 
ATOM      8  C   UNL A   1      42.800  47.956  17.185  1.00  0.00    -0.019 A 
ATOM      9  C   UNL A   1      43.418  48.974  17.872  1.00  0.00     0.090 A 
ATOM     10  C   UNL A   1      41.770  48.116  16.123  1.00  0.00     0.047 C 
BRANCH   6  11
ATOM     11  C   UNL A   1      45.727  46.220  18.659  1.00  0.00     0.155 C 
BRANCH  11  12
ATOM     12  C   UNL A   1      45.925  45.659  20.058  1.00  0.00     0.232 C 
ATOM     13  O   UNL A   1      45.016  45.855  20.878  1.00  0.00    -0.274 OA
BRANCH  12  14
ATOM     14  N   UNL A   1      47.124  45.001  20.410  1.00  0.00    -0.312 N 
BRANCH  14  15
ATOM     15  C   UNL A   1      47.569  43.690  19.876  1.00  0.00     0.125 C 
BRANCH  15  16
ATOM     16  C   UNL A   1      46.684  42.446  20.071  1.00  0.00     0.019 C 
ATOM     17  C   UNL A   1      46.316  42.086  21.504  1.00  0.00     0.006 C 
ENDBRANCH  15  16
ENDBRANCH  14  15
BRANCH  14  18
ATOM     18  C   UNL A   1      47.866  45.526  21.533  1.00  0.00     0.045 A 
ATOM     19  C   UNL A   1      47.903  44.842  22.758  1.00  0.00     0.026 A 
ATOM     20  C   UNL A   1      48.484  46.775  21.464  1.00  0.00     0.046 A 
ATOM     21  C   UNL A   1      48.499  45.411  23.889  1.00  0.00     0.004 A 
ATOM     22  C   UNL A   1      49.060  47.353  22.599  1.00  0.00     0.043 A 
ATOM     23  C   UNL A   1      49.065  46.680  23.814  1.00  0.00     0.020 A 
ATOM     24  Cl  UNL A   1      49.715  48.944  22.501  1.00  0.00    -0.084 Cl
ENDBRANCH  14  18
ENDBRANCH  12  14
ENDBRANCH  11  12
ENDBRANCH   6  11
BRANCH   7  25
ATOM     25  C   UNL A   1      45.022  49.232  19.732  1.00  0.00     0.118 C 
ATOM     26  C   UNL A   1      46.363  49.780  19.275  1.00  0.00     0.027 C 
ENDBRANCH   7  25
ENDBRANCH   3   5
ENDBRANCH   2   3
ENDBRANCH   1   2
BRANCH   1  27
ATOM     27  C   UNL A   1      42.755  42.652  19.966  1.00  0.00     0.275 C 
BRANCH  27  28
ATOM     28  O   UNL A   1      43.029  43.235  21.234  1.00  0.00    -0.458 OA
BRANCH  28  29
ATOM     29  C   UNL A   1      42.152  42.900  22.201  1.00  0.00     0.338 C 
ATOM     30  O   UNL A   1      40.960  42.663  22.073  1.00  0.00    -0.246 OA
BRANCH  29  31
ATOM     31  C   UNL A   1      42.781  43.073  23.506  1.00  0.00     0.060 A 
ATOM     32  C   UNL A   1      43.849  43.973  23.552  1.00  0.00     0.016 A 
ATOM     33  C   UNL A   1      42.535  42.139  24.521  1.00  0.00     0.016 A 
ATOM     34  C   UNL A   1      44.793  43.807  24.530  1.00  0.00     0.010 A 
ATOM     35  C   UNL A   1      43.487  41.966  25.493  1.00  0.00     0.010 A 
ATOM     36  C   UNL A   1      44.638  42.747  25.427  1.00  0.00    -0.014 A 
BRANCH  36  37
ATOM     37  C   UNL A   1      45.714  42.533  26.364  1.00  0.00     0.031 A 
ATOM     38  C   UNL A   1      46.160  41.121  26.392  1.00  0.00     0.074 A 
ATOM     39  C   UNL A   1      46.256  43.559  27.041  1.00  0.00     0.049 A 
ATOM     40  N   UNL A   1      46.116  40.288  27.379  1.00  0.00    -0.248 NA
ATOM     41  C   UNL A   1      46.499  40.507  25.097  1.00  0.00     0.031 C 
ATOM     42  C   UNL A   1      46.035  44.993  26.821  1.00  0.00     0.029 A 
ATOM     43  N   UNL A   1      47.260  43.538  27.954  1.00  0.00    -0.354 N 
ATOM     44  C   UNL A   1      46.660  39.109  26.873  1.00  0.00     0.074 A 
ATOM     45  C   UNL A   1      46.646  39.232  25.443  1.00  0.00     0.031 C 
ATOM     46  C   UNL A   1      47.071  45.679  27.351  1.00  0.00     0.029 A 
ATOM     47  C   UNL A   1      47.941  44.745  28.043  1.00  0.00     0.049 A 
ATOM     48  H   UNL A   1      47.483  42.747  28.498  1.00  0.00     0.167 HD
ATOM     49  C   UNL A   1      47.361  38.261  27.672  1.00  0.00     0.034 A 
ATOM     50  C   UNL A   1      49.195  44.913  28.526  1.00  0.00     0.034 A 
ATOM     51  C   UNL A   1      47.039  38.470  29.061  1.00  0.00     0.049 A 
ATOM     52  C   UNL A   1      49.527  43.708  29.326  1.00  0.00     0.074 A 
ATOM     53  C   UNL A   1      45.885  38.404  29.816  1.00  0.00     0.029 A 
ATOM     54  N   UNL A   1      47.949  39.174  29.809  1.00  0.00    -0.354 N 
ATOM     55  N   UNL A   1      48.924  43.384  30.436  1.00  0.00    -0.248 NA
ATOM     56  C   UNL A   1      50.237  42.626  28.662  1.00  0.00     0.031 C 
ATOM     57  C   UNL A   1      46.017  39.446  30.780  1.00  0.00     0.029 A 
ATOM     58  C   UNL A   1      47.258  40.057  30.591  1.00  0.00     0.049 A 
ATOM     59  H   UNL A   1      48.928  39.062  29.787  1.00  0.00     0.167 HD
ATOM     60  C   UNL A   1      48.810  42.000  30.381  1.00  0.00     0.074 A 
ATOM     61  C   UNL A   1      49.734  41.585  29.328  1.00  0.00     0.031 C 
ATOM     62  C   UNL A   1      47.767  41.355  30.981  1.00  0.00     0.034 A 
BRANCH  49  63
ATOM     63  C   UNL A   1      48.640  37.566  27.251  1.00  0.00     0.023 A 
ATOM     64  C   UNL A   1      48.653  36.156  27.338  1.00  0.00     0.012 A 
ATOM     65  C   UNL A   1      49.893  38.202  27.077  1.00  0.00     0.148 A 
ATOM     66  C   UNL A   1      49.851  35.432  27.356  1.00  0.00     0.002 A 
ATOM     67  C   UNL A   1      51.074  37.474  27.023  1.00  0.00     0.091 A 
ATOM     68  F   UNL A   1      49.991  39.532  27.087  1.00  0.00    -0.205 F 
ATOM     69  C   UNL A   1      51.063  36.091  27.202  1.00  0.00     0.022 A 
BRANCH  67  70
ATOM     70  S   UNL A   1      52.665  38.281  26.788  1.00  0.00     0.127 S 
ATOM     71  O   UNL A   1      53.588  37.210  27.148  1.00  0.00    -0.237 OA
ATOM     72  O   UNL A   1      52.621  38.614  25.364  1.00  0.00    -0.237 OA
ATOM     73  O   UNL A   1      52.653  39.441  27.671  1.00  0.00    -0.744 OA
ENDBRANCH  67  70
ENDBRANCH  49  63
BRANCH  50  74
ATOM     74  C   UNL A   1      50.235  45.869  28.074  1.00  0.00     0.023 A 
ATOM     75  C   UNL A   1      50.879  45.655  26.841  1.00  0.00     0.012 A 
ATOM     76  C   UNL A   1      50.416  47.117  28.713  1.00  0.00     0.148 A 
ATOM     77  C   UNL A   1      51.660  46.657  26.253  1.00  0.00     0.002 A 
ATOM     78  C   UNL A   1      51.207  48.104  28.134  1.00  0.00     0.091 A 
ATOM     79  F   UNL A   1      49.741  47.374  29.841  1.00  0.00    -0.205 F 
ATOM     80  C   UNL A   1      51.821  47.881  26.896  1.00  0.00     0.022 A 
BRANCH  78  81
ATOM     81  S   UNL A   1      51.456  49.710  28.906  1.00  0.00     0.127 S 
ATOM     82  O   UNL A   1      50.094  50.247  28.931  1.00  0.00    -0.237 OA
ATOM     83  O   UNL A   1      51.991  49.338  30.213  1.00  0.00    -0.237 OA
ATOM     84  O   UNL A   1      52.366  50.436  28.030  1.00  0.00    -0.744 OA
ENDBRANCH  78  81
ENDBRANCH  50  74
BRANCH  62  85
ATOM     85  C   UNL A   1      46.898  42.131  31.935  1.00  0.00     0.023 A 
ATOM     86  C   UNL A   1      47.313  42.439  33.248  1.00  0.00     0.012 A 
ATOM     87  C   UNL A   1      45.745  42.745  31.421  1.00  0.00     0.148 A 
ATOM     88  C   UNL A   1      46.586  43.338  34.032  1.00  0.00     0.002 A 
ATOM     89  C   UNL A   1      45.056  43.678  32.184  1.00  0.00     0.091 A 
ATOM     90  F   UNL A   1      45.371  42.442  30.168  1.00  0.00    -0.205 F 
ATOM     91  C   UNL A   1      45.466  43.970  33.494  1.00  0.00     0.022 A 
BRANCH  89  92
ATOM     92  S   UNL A   1      43.701  44.633  31.497  1.00  0.00     0.127 S 
ATOM     93  O   UNL A   1      43.445  45.606  32.556  1.00  0.00    -0.237 OA
ATOM     94  O   UNL A   1      44.298  45.192  30.282  1.00  0.00    -0.237 OA
ATOM     95  O   UNL A   1      42.626  43.682  31.245  1.00  0.00    -0.744 OA
ENDBRANCH  89  92
ENDBRANCH  62  85
ENDBRANCH  36  37
ENDBRANCH  29  31
ENDBRANCH  28  29
ENDBRANCH  27  28
ENDBRANCH   1  27
TORSDOF 21
ENDMDL
