MODEL 1
REMARK VINA RESULT:     -13.8      0.000      0.000
REMARK SMILES Cc1c(C(=O)OCCOC(=O)c2ccc(-c3c4nc(c(-c5cccc(S(=O)(=O)[O-])c5F)c5ccc([nH]5)c(-c5cccc(S(=O)(=O)[O-])c5F)c5nc(c(-c6cccc(S(=O)(=O)[O-])c6F)c6ccc3[nH]6)C=C5)C=C4)cc2)ccc2c1N[C@@H](c1ccc(S(=O)(=O)N3CCOCC3)cc1)[C@@H]1CC=C[C@H]21
REMARK SMILES IDX 7 1 6 2 4 3 5 4 3 5 1 6 2 7 78 8 75 9 77 10 79 11 76 12
REMARK SMILES IDX 100 13 80 14 96 16 99 17 97 18 98 19 81 20 82 21 95 22 83 23
REMARK SMILES IDX 94 24 84 25 85 26 86 27 87 28 88 29 89 30 93 31 90 32 92 33
REMARK SMILES IDX 91 34 8 35 9 36 10 37 11 38 12 39 13 40 74 41 14 42 73 43
REMARK SMILES IDX 15 44 16 45 17 46 67 47 18 48 72 49 66 50 68 51 19 52 71 53
REMARK SMILES IDX 65 54 64 55 20 57 52 58 32 59 51 60 33 61 36 62 50 63 69 64
REMARK SMILES IDX 34 65 35 66 49 68 70 69 37 70 21 71 22 72 30 73 23 74 25 75
REMARK SMILES IDX 31 76 24 77 26 78 27 79 28 80 29 81 53 82 54 83 62 84 55 85
REMARK SMILES IDX 57 86 63 87 56 88 58 89 59 90 60 91 61 92 38 93 39 94 47 95
REMARK SMILES IDX 40 96 42 97 48 98 41 99 43 100 44 101 45 102 46 103
REMARK H PARENT 79 15 68 56 36 67
REMARK Flexibility Score: inf
ROOT
ATOM      1  C   UNL A   1      42.868  21.431  25.653  1.00  0.00     0.275 C 
ENDROOT
BRANCH   1   2
ATOM      2  O   UNL A   1      41.536  21.967  25.560  1.00  0.00    -0.458 OA
BRANCH   2   3
ATOM      3  C   UNL A   1      40.712  21.719  26.605  1.00  0.00     0.338 C 
ATOM      4  O   UNL A   1      41.022  21.664  27.784  1.00  0.00    -0.246 OA
BRANCH   3   5
ATOM      5  C   UNL A   1      39.314  21.593  26.136  1.00  0.00     0.065 A 
ATOM      6  C   UNL A   1      38.759  23.955  26.868  1.00  0.00     0.047 C 
ATOM      7  C   UNL A   1      38.375  22.639  26.238  1.00  0.00    -0.013 A 
ATOM      8  C   UNL A   1      37.070  22.432  25.732  1.00  0.00     0.042 A 
ATOM      9  C   UNL A   1      38.975  20.395  25.496  1.00  0.00     0.016 A 
ATOM     10  C   UNL A   1      36.758  21.231  25.067  1.00  0.00    -0.017 A 
ATOM     11  N   UNL A   1      36.147  23.463  25.768  1.00  0.00    -0.377 N 
ATOM     12  C   UNL A   1      37.703  20.204  24.985  1.00  0.00     0.007 A 
ATOM     13  C   UNL A   1      35.456  21.047  24.343  1.00  0.00     0.049 C 
ATOM     14  C   UNL A   1      34.788  23.287  25.298  1.00  0.00     0.114 C 
ATOM     15  H   UNL A   1      36.421  24.340  26.122  1.00  0.00     0.161 HD
ATOM     16  C   UNL A   1      34.698  22.355  24.069  1.00  0.00     0.031 C 
ATOM     17  C   UNL A   1      34.408  20.218  25.035  1.00  0.00    -0.023 C 
ATOM     18  C   UNL A   1      33.267  21.838  23.804  1.00  0.00     0.034 C 
ATOM     19  C   UNL A   1      33.181  20.651  24.715  1.00  0.00    -0.030 C 
BRANCH  14  20
ATOM     20  C   UNL A   1      34.217  24.665  25.006  1.00  0.00    -0.025 A 
ATOM     21  C   UNL A   1      33.869  25.596  26.007  1.00  0.00     0.007 A 
ATOM     22  C   UNL A   1      34.039  25.021  23.672  1.00  0.00     0.007 A 
ATOM     23  C   UNL A   1      33.364  26.861  25.671  1.00  0.00     0.022 A 
ATOM     24  C   UNL A   1      33.564  26.278  23.347  1.00  0.00     0.022 A 
ATOM     25  C   UNL A   1      33.226  27.201  24.326  1.00  0.00     0.082 A 
BRANCH  25  26
ATOM     26  S   UNL A   1      32.643  28.814  23.865  1.00  0.00     0.243 S 
ATOM     27  O   UNL A   1      33.121  29.730  24.876  1.00  0.00    -0.207 OA
ATOM     28  O   UNL A   1      32.970  28.989  22.464  1.00  0.00    -0.207 OA
BRANCH  26  29
ATOM     29  N   UNL A   1      30.967  28.728  23.987  1.00  0.00    -0.193 NA
ATOM     30  C   UNL A   1      30.268  27.498  24.428  1.00  0.00     0.131 C 
ATOM     31  C   UNL A   1      30.099  29.811  23.487  1.00  0.00     0.131 C 
ATOM     32  C   UNL A   1      29.106  27.106  23.495  1.00  0.00     0.177 C 
ATOM     33  C   UNL A   1      29.056  29.264  22.511  1.00  0.00     0.177 C 
ATOM     34  O   UNL A   1      28.287  28.215  23.115  1.00  0.00    -0.379 OA
ENDBRANCH  26  29
ENDBRANCH  25  26
ENDBRANCH  14  20
ENDBRANCH   3   5
ENDBRANCH   2   3
ENDBRANCH   1   2
BRANCH   1  35
ATOM     35  C   UNL A   1      43.834  22.311  24.870  1.00  0.00     0.275 C 
BRANCH  35  36
ATOM     36  O   UNL A   1      43.248  23.612  24.691  1.00  0.00    -0.458 OA
BRANCH  36  37
ATOM     37  C   UNL A   1      44.007  24.653  25.099  1.00  0.00     0.338 C 
ATOM     38  O   UNL A   1      45.120  24.963  24.709  1.00  0.00    -0.246 OA
BRANCH  37  39
ATOM     39  C   UNL A   1      43.263  25.423  26.105  1.00  0.00     0.060 A 
ATOM     40  C   UNL A   1      43.388  26.809  26.134  1.00  0.00     0.016 A 
ATOM     41  C   UNL A   1      42.542  24.760  27.095  1.00  0.00     0.016 A 
ATOM     42  C   UNL A   1      42.902  27.528  27.223  1.00  0.00     0.010 A 
ATOM     43  C   UNL A   1      41.950  25.499  28.123  1.00  0.00     0.010 A 
ATOM     44  C   UNL A   1      42.167  26.885  28.230  1.00  0.00    -0.014 A 
BRANCH  44  45
ATOM     45  C   UNL A   1      41.657  27.651  29.402  1.00  0.00     0.031 A 
ATOM     46  C   UNL A   1      40.327  28.360  29.325  1.00  0.00     0.074 A 
ATOM     47  C   UNL A   1      42.381  27.711  30.539  1.00  0.00     0.049 A 
ATOM     48  N   UNL A   1      39.776  29.169  30.193  1.00  0.00    -0.248 NA
ATOM     49  C   UNL A   1      39.514  28.146  28.115  1.00  0.00     0.031 C 
ATOM     50  C   UNL A   1      43.680  27.069  30.752  1.00  0.00     0.029 A 
ATOM     51  N   UNL A   1      42.128  28.343  31.733  1.00  0.00    -0.354 N 
ATOM     52  C   UNL A   1      38.596  29.611  29.607  1.00  0.00     0.074 A 
ATOM     53  C   UNL A   1      38.501  28.979  28.311  1.00  0.00     0.031 C 
ATOM     54  C   UNL A   1      44.089  27.303  32.008  1.00  0.00     0.029 A 
ATOM     55  C   UNL A   1      43.121  28.169  32.670  1.00  0.00     0.049 A 
ATOM     56  H   UNL A   1      41.314  28.870  31.902  1.00  0.00     0.167 HD
ATOM     57  C   UNL A   1      37.662  30.451  30.112  1.00  0.00     0.034 A 
ATOM     58  C   UNL A   1      43.256  28.668  33.915  1.00  0.00     0.034 A 
ATOM     59  C   UNL A   1      37.705  31.004  31.436  1.00  0.00     0.049 A 
ATOM     60  C   UNL A   1      42.200  29.587  34.456  1.00  0.00     0.074 A 
ATOM     61  C   UNL A   1      36.773  31.818  32.054  1.00  0.00     0.029 A 
ATOM     62  N   UNL A   1      38.721  30.784  32.352  1.00  0.00    -0.354 N 
ATOM     63  N   UNL A   1      41.074  29.959  33.899  1.00  0.00    -0.248 NA
ATOM     64  C   UNL A   1      42.427  30.158  35.792  1.00  0.00     0.031 C 
ATOM     65  C   UNL A   1      37.224  32.092  33.346  1.00  0.00     0.029 A 
ATOM     66  C   UNL A   1      38.436  31.447  33.531  1.00  0.00     0.049 A 
ATOM     67  H   UNL A   1      39.523  30.239  32.188  1.00  0.00     0.167 HD
ATOM     68  C   UNL A   1      40.453  30.796  34.817  1.00  0.00     0.074 A 
ATOM     69  C   UNL A   1      41.318  30.865  35.976  1.00  0.00     0.031 C 
ATOM     70  C   UNL A   1      39.282  31.463  34.696  1.00  0.00     0.034 A 
BRANCH  57  71
ATOM     71  C   UNL A   1      36.470  30.789  29.259  1.00  0.00     0.023 A 
ATOM     72  C   UNL A   1      35.703  29.746  28.703  1.00  0.00     0.012 A 
ATOM     73  C   UNL A   1      36.046  32.123  29.107  1.00  0.00     0.148 A 
ATOM     74  C   UNL A   1      34.534  30.028  27.998  1.00  0.00     0.002 A 
ATOM     75  C   UNL A   1      34.865  32.395  28.426  1.00  0.00     0.091 A 
ATOM     76  F   UNL A   1      36.798  33.096  29.640  1.00  0.00    -0.205 F 
ATOM     77  C   UNL A   1      34.111  31.348  27.868  1.00  0.00     0.022 A 
BRANCH  75  78
ATOM     78  S   UNL A   1      34.199  34.053  28.247  1.00  0.00     0.127 S 
ATOM     79  O   UNL A   1      35.019  34.583  27.158  1.00  0.00    -0.237 OA
ATOM     80  O   UNL A   1      32.806  33.787  27.889  1.00  0.00    -0.237 OA
ATOM     81  O   UNL A   1      34.389  34.707  29.535  1.00  0.00    -0.744 OA
ENDBRANCH  75  78
ENDBRANCH  57  71
BRANCH  58  82
ATOM     82  C   UNL A   1      44.428  28.267  34.740  1.00  0.00     0.023 A 
ATOM     83  C   UNL A   1      45.610  29.029  34.664  1.00  0.00     0.012 A 
ATOM     84  C   UNL A   1      44.356  27.196  35.652  1.00  0.00     0.148 A 
ATOM     85  C   UNL A   1      46.701  28.728  35.480  1.00  0.00     0.002 A 
ATOM     86  C   UNL A   1      45.430  26.929  36.492  1.00  0.00     0.091 A 
ATOM     87  F   UNL A   1      43.223  26.481  35.699  1.00  0.00    -0.205 F 
ATOM     88  C   UNL A   1      46.607  27.688  36.401  1.00  0.00     0.022 A 
BRANCH  86  89
ATOM     89  S   UNL A   1      45.363  25.684  37.785  1.00  0.00     0.127 S 
ATOM     90  O   UNL A   1      46.776  25.519  38.115  1.00  0.00    -0.237 OA
ATOM     91  O   UNL A   1      44.565  26.358  38.809  1.00  0.00    -0.237 OA
ATOM     92  O   UNL A   1      44.720  24.523  37.185  1.00  0.00    -0.744 OA
ENDBRANCH  86  89
ENDBRANCH  58  82
BRANCH  70  93
ATOM     93  C   UNL A   1      38.833  32.332  35.836  1.00  0.00     0.023 A 
ATOM     94  C   UNL A   1      38.018  31.774  36.839  1.00  0.00     0.012 A 
ATOM     95  C   UNL A   1      39.363  33.626  36.003  1.00  0.00     0.148 A 
ATOM     96  C   UNL A   1      37.744  32.491  38.001  1.00  0.00     0.002 A 
ATOM     97  C   UNL A   1      39.111  34.322  37.177  1.00  0.00     0.091 A 
ATOM     98  F   UNL A   1      40.138  34.127  35.030  1.00  0.00    -0.205 F 
ATOM     99  C   UNL A   1      38.300  33.757  38.176  1.00  0.00     0.022 A 
BRANCH  97 100
ATOM    100  S   UNL A   1      39.845  35.922  37.535  1.00  0.00     0.127 S 
ATOM    101  O   UNL A   1      39.054  36.362  38.684  1.00  0.00    -0.237 OA
ATOM    102  O   UNL A   1      41.227  35.562  37.847  1.00  0.00    -0.237 OA
ATOM    103  O   UNL A   1      39.676  36.724  36.332  1.00  0.00    -0.744 OA
ENDBRANCH  97 100
ENDBRANCH  70  93
ENDBRANCH  44  45
ENDBRANCH  37  39
ENDBRANCH  36  37
ENDBRANCH  35  36
ENDBRANCH   1  35
TORSDOF 17
ENDMDL
MODEL 2
REMARK VINA RESULT:     -13.2      3.271     10.120
REMARK SMILES Cc1c(C(=O)OCCOC(=O)c2ccc(-c3c4nc(c(-c5cccc(S(=O)(=O)[O-])c5F)c5ccc([nH]5)c(-c5cccc(S(=O)(=O)[O-])c5F)c5nc(c(-c6cccc(S(=O)(=O)[O-])c6F)c6ccc3[nH]6)C=C5)C=C4)cc2)ccc2c1N[C@@H](c1ccc(S(=O)(=O)N3CCOCC3)cc1)[C@@H]1CC=C[C@H]21
REMARK SMILES IDX 7 1 6 2 4 3 5 4 3 5 1 6 2 7 78 8 75 9 77 10 79 11 76 12
REMARK SMILES IDX 100 13 80 14 96 16 99 17 97 18 98 19 81 20 82 21 95 22 83 23
REMARK SMILES IDX 94 24 84 25 85 26 86 27 87 28 88 29 89 30 93 31 90 32 92 33
REMARK SMILES IDX 91 34 8 35 9 36 10 37 11 38 12 39 13 40 74 41 14 42 73 43
REMARK SMILES IDX 15 44 16 45 17 46 67 47 18 48 72 49 66 50 68 51 19 52 71 53
REMARK SMILES IDX 65 54 64 55 20 57 52 58 32 59 51 60 33 61 36 62 50 63 69 64
REMARK SMILES IDX 34 65 35 66 49 68 70 69 37 70 21 71 22 72 30 73 23 74 25 75
REMARK SMILES IDX 31 76 24 77 26 78 27 79 28 80 29 81 53 82 54 83 62 84 55 85
REMARK SMILES IDX 57 86 63 87 56 88 58 89 59 90 60 91 61 92 38 93 39 94 47 95
REMARK SMILES IDX 40 96 42 97 48 98 41 99 43 100 44 101 45 102 46 103
REMARK H PARENT 79 15 68 56 36 67
REMARK Flexibility Score: inf
ROOT
ATOM      1  C   UNL A   1      34.385  34.925  28.788  1.00  0.00     0.275 C 
ENDROOT
BRANCH   1   2
ATOM      2  O   UNL A   1      34.139  33.846  27.868  1.00  0.00    -0.458 OA
BRANCH   2   3
ATOM      3  C   UNL A   1      34.084  32.602  28.399  1.00  0.00     0.338 C 
ATOM      4  O   UNL A   1      34.481  32.259  29.499  1.00  0.00    -0.246 OA
BRANCH   3   5
ATOM      5  C   UNL A   1      33.384  31.682  27.474  1.00  0.00     0.065 A 
ATOM      6  C   UNL A   1      35.270  29.992  27.583  1.00  0.00     0.047 C 
ATOM      7  C   UNL A   1      33.918  30.438  27.082  1.00  0.00    -0.013 A 
ATOM      8  C   UNL A   1      33.159  29.614  26.218  1.00  0.00     0.042 A 
ATOM      9  C   UNL A   1      32.104  32.067  27.059  1.00  0.00     0.016 A 
ATOM     10  C   UNL A   1      31.862  30.008  25.834  1.00  0.00    -0.017 A 
ATOM     11  N   UNL A   1      33.636  28.364  25.866  1.00  0.00    -0.377 N 
ATOM     12  C   UNL A   1      31.356  31.250  26.228  1.00  0.00     0.007 A 
ATOM     13  C   UNL A   1      30.948  29.082  25.087  1.00  0.00     0.049 C 
ATOM     14  C   UNL A   1      32.913  27.502  24.952  1.00  0.00     0.114 C 
ATOM     15  H   UNL A   1      34.488  28.051  26.245  1.00  0.00     0.161 HD
ATOM     16  C   UNL A   1      31.381  27.608  25.119  1.00  0.00     0.031 C 
ATOM     17  C   UNL A   1      30.794  29.330  23.611  1.00  0.00    -0.023 C 
ATOM     18  C   UNL A   1      30.599  27.025  23.921  1.00  0.00     0.034 C 
ATOM     19  C   UNL A   1      30.578  28.177  22.962  1.00  0.00    -0.030 C 
BRANCH  14  20
ATOM     20  C   UNL A   1      33.409  26.081  25.168  1.00  0.00    -0.025 A 
ATOM     21  C   UNL A   1      34.471  25.504  24.443  1.00  0.00     0.007 A 
ATOM     22  C   UNL A   1      32.775  25.317  26.146  1.00  0.00     0.007 A 
ATOM     23  C   UNL A   1      34.894  24.192  24.703  1.00  0.00     0.022 A 
ATOM     24  C   UNL A   1      33.212  24.034  26.414  1.00  0.00     0.022 A 
ATOM     25  C   UNL A   1      34.261  23.463  25.709  1.00  0.00     0.082 A 
BRANCH  25  26
ATOM     26  S   UNL A   1      34.808  21.819  26.103  1.00  0.00     0.243 S 
ATOM     27  O   UNL A   1      36.251  21.834  26.017  1.00  0.00    -0.207 OA
ATOM     28  O   UNL A   1      34.122  21.434  27.319  1.00  0.00    -0.207 OA
BRANCH  26  29
ATOM     29  N   UNL A   1      34.219  20.850  24.860  1.00  0.00    -0.193 NA
ATOM     30  C   UNL A   1      33.553  21.415  23.663  1.00  0.00     0.131 C 
ATOM     31  C   UNL A   1      34.172  19.380  24.982  1.00  0.00     0.131 C 
ATOM     32  C   UNL A   1      32.219  20.716  23.338  1.00  0.00     0.177 C 
ATOM     33  C   UNL A   1      32.761  18.858  24.710  1.00  0.00     0.177 C 
ATOM     34  O   UNL A   1      32.292  19.289  23.425  1.00  0.00    -0.379 OA
ENDBRANCH  26  29
ENDBRANCH  25  26
ENDBRANCH  14  20
ENDBRANCH   3   5
ENDBRANCH   2   3
ENDBRANCH   1   2
BRANCH   1  35
ATOM     35  C   UNL A   1      33.067  35.587  29.170  1.00  0.00     0.275 C 
BRANCH  35  36
ATOM     36  O   UNL A   1      32.564  34.980  30.372  1.00  0.00    -0.458 OA
BRANCH  36  37
ATOM     37  C   UNL A   1      32.831  35.648  31.517  1.00  0.00     0.338 C 
ATOM     38  O   UNL A   1      32.254  36.624  31.963  1.00  0.00    -0.246 OA
BRANCH  37  39
ATOM     39  C   UNL A   1      33.948  34.988  32.207  1.00  0.00     0.060 A 
ATOM     40  C   UNL A   1      35.202  35.592  32.210  1.00  0.00     0.016 A 
ATOM     41  C   UNL A   1      33.778  33.715  32.745  1.00  0.00     0.016 A 
ATOM     42  C   UNL A   1      36.318  34.874  32.631  1.00  0.00     0.010 A 
ATOM     43  C   UNL A   1      34.882  33.044  33.279  1.00  0.00     0.010 A 
ATOM     44  C   UNL A   1      36.173  33.592  33.182  1.00  0.00    -0.014 A 
BRANCH  44  45
ATOM     45  C   UNL A   1      37.368  32.817  33.622  1.00  0.00     0.031 A 
ATOM     46  C   UNL A   1      38.054  33.153  34.923  1.00  0.00     0.074 A 
ATOM     47  C   UNL A   1      37.841  31.810  32.859  1.00  0.00     0.049 A 
ATOM     48  N   UNL A   1      39.169  32.675  35.412  1.00  0.00    -0.248 NA
ATOM     49  C   UNL A   1      37.416  34.166  35.783  1.00  0.00     0.031 C 
ATOM     50  C   UNL A   1      37.272  31.375  31.581  1.00  0.00     0.029 A 
ATOM     51  N   UNL A   1      38.908  30.964  33.047  1.00  0.00    -0.354 N 
ATOM     52  C   UNL A   1      39.399  33.373  36.592  1.00  0.00     0.074 A 
ATOM     53  C   UNL A   1      38.308  34.306  36.754  1.00  0.00     0.031 C 
ATOM     54  C   UNL A   1      37.966  30.323  31.123  1.00  0.00     0.029 A 
ATOM     55  C   UNL A   1      39.073  30.049  32.032  1.00  0.00     0.049 A 
ATOM     56  H   UNL A   1      39.499  31.010  33.833  1.00  0.00     0.167 HD
ATOM     57  C   UNL A   1      40.416  33.233  37.474  1.00  0.00     0.034 A 
ATOM     58  C   UNL A   1      40.020  29.110  31.837  1.00  0.00     0.034 A 
ATOM     59  C   UNL A   1      41.449  32.241  37.365  1.00  0.00     0.049 A 
ATOM     60  C   UNL A   1      41.130  28.968  32.837  1.00  0.00     0.074 A 
ATOM     61  C   UNL A   1      42.488  31.989  38.243  1.00  0.00     0.029 A 
ATOM     62  N   UNL A   1      41.562  31.328  36.330  1.00  0.00    -0.354 N 
ATOM     63  N   UNL A   1      41.305  29.612  33.964  1.00  0.00    -0.248 NA
ATOM     64  C   UNL A   1      42.174  27.975  32.543  1.00  0.00     0.031 C 
ATOM     65  C   UNL A   1      43.231  30.921  37.739  1.00  0.00     0.029 A 
ATOM     66  C   UNL A   1      42.654  30.509  36.549  1.00  0.00     0.049 A 
ATOM     67  H   UNL A   1      40.957  31.271  35.556  1.00  0.00     0.167 HD
ATOM     68  C   UNL A   1      42.469  29.097  34.520  1.00  0.00     0.074 A 
ATOM     69  C   UNL A   1      42.951  28.074  33.616  1.00  0.00     0.031 C 
ATOM     70  C   UNL A   1      43.091  29.459  35.666  1.00  0.00     0.034 A 
BRANCH  57  71
ATOM     71  C   UNL A   1      40.446  34.134  38.678  1.00  0.00     0.023 A 
ATOM     72  C   UNL A   1      41.172  35.339  38.619  1.00  0.00     0.012 A 
ATOM     73  C   UNL A   1      39.667  33.845  39.815  1.00  0.00     0.148 A 
ATOM     74  C   UNL A   1      41.131  36.242  39.681  1.00  0.00     0.002 A 
ATOM     75  C   UNL A   1      39.608  34.762  40.858  1.00  0.00     0.091 A 
ATOM     76  F   UNL A   1      38.991  32.688  39.848  1.00  0.00    -0.205 F 
ATOM     77  C   UNL A   1      40.343  35.958  40.793  1.00  0.00     0.022 A 
BRANCH  75  78
ATOM     78  S   UNL A   1      38.583  34.524  42.313  1.00  0.00     0.127 S 
ATOM     79  O   UNL A   1      39.118  35.539  43.220  1.00  0.00    -0.237 OA
ATOM     80  O   UNL A   1      37.245  34.811  41.795  1.00  0.00    -0.237 OA
ATOM     81  O   UNL A   1      38.795  33.146  42.737  1.00  0.00    -0.744 OA
ENDBRANCH  75  78
ENDBRANCH  57  71
BRANCH  58  82
ATOM     82  C   UNL A   1      39.923  28.209  30.656  1.00  0.00     0.023 A 
ATOM     83  C   UNL A   1      39.063  27.095  30.714  1.00  0.00     0.012 A 
ATOM     84  C   UNL A   1      40.608  28.490  29.458  1.00  0.00     0.148 A 
ATOM     85  C   UNL A   1      38.889  26.275  29.600  1.00  0.00     0.002 A 
ATOM     86  C   UNL A   1      40.397  27.693  28.338  1.00  0.00     0.091 A 
ATOM     87  F   UNL A   1      41.427  29.550  29.431  1.00  0.00    -0.205 F 
ATOM     88  C   UNL A   1      39.545  26.580  28.410  1.00  0.00     0.022 A 
BRANCH  86  89
ATOM     89  S   UNL A   1      41.109  28.071  26.733  1.00  0.00     0.127 S 
ATOM     90  O   UNL A   1      40.933  26.807  26.023  1.00  0.00    -0.237 OA
ATOM     91  O   UNL A   1      40.249  29.162  26.272  1.00  0.00    -0.237 OA
ATOM     92  O   UNL A   1      42.488  28.459  26.992  1.00  0.00    -0.744 OA
ENDBRANCH  86  89
ENDBRANCH  58  82
BRANCH  70  93
ATOM     93  C   UNL A   1      44.364  28.757  36.042  1.00  0.00     0.023 A 
ATOM     94  C   UNL A   1      45.594  29.359  35.718  1.00  0.00     0.012 A 
ATOM     95  C   UNL A   1      44.337  27.614  36.865  1.00  0.00     0.148 A 
ATOM     96  C   UNL A   1      46.785  28.835  36.217  1.00  0.00     0.002 A 
ATOM     97  C   UNL A   1      45.525  27.118  37.384  1.00  0.00     0.091 A 
ATOM     98  F   UNL A   1      43.148  27.068  37.157  1.00  0.00    -0.205 F 
ATOM     99  C   UNL A   1      46.750  27.726  37.060  1.00  0.00     0.022 A 
BRANCH  97 100
ATOM    100  S   UNL A   1      45.581  25.745  38.541  1.00  0.00     0.127 S 
ATOM    101  O   UNL A   1      47.021  25.567  38.724  1.00  0.00    -0.237 OA
ATOM    102  O   UNL A   1      44.881  26.295  39.702  1.00  0.00    -0.237 OA
ATOM    103  O   UNL A   1      44.905  24.634  37.886  1.00  0.00    -0.744 OA
ENDBRANCH  97 100
ENDBRANCH  70  93
ENDBRANCH  44  45
ENDBRANCH  37  39
ENDBRANCH  36  37
ENDBRANCH  35  36
ENDBRANCH   1  35
TORSDOF 17
ENDMDL
MODEL 3
REMARK VINA RESULT:     -13.2      3.316      9.303
REMARK SMILES Cc1c(C(=O)OCCOC(=O)c2ccc(-c3c4nc(c(-c5cccc(S(=O)(=O)[O-])c5F)c5ccc([nH]5)c(-c5cccc(S(=O)(=O)[O-])c5F)c5nc(c(-c6cccc(S(=O)(=O)[O-])c6F)c6ccc3[nH]6)C=C5)C=C4)cc2)ccc2c1N[C@@H](c1ccc(S(=O)(=O)N3CCOCC3)cc1)[C@@H]1CC=C[C@H]21
REMARK SMILES IDX 7 1 6 2 4 3 5 4 3 5 1 6 2 7 78 8 75 9 77 10 79 11 76 12
REMARK SMILES IDX 100 13 80 14 96 16 99 17 97 18 98 19 81 20 82 21 95 22 83 23
REMARK SMILES IDX 94 24 84 25 85 26 86 27 87 28 88 29 89 30 93 31 90 32 92 33
REMARK SMILES IDX 91 34 8 35 9 36 10 37 11 38 12 39 13 40 74 41 14 42 73 43
REMARK SMILES IDX 15 44 16 45 17 46 67 47 18 48 72 49 66 50 68 51 19 52 71 53
REMARK SMILES IDX 65 54 64 55 20 57 52 58 32 59 51 60 33 61 36 62 50 63 69 64
REMARK SMILES IDX 34 65 35 66 49 68 70 69 37 70 21 71 22 72 30 73 23 74 25 75
REMARK SMILES IDX 31 76 24 77 26 78 27 79 28 80 29 81 53 82 54 83 62 84 55 85
REMARK SMILES IDX 57 86 63 87 56 88 58 89 59 90 60 91 61 92 38 93 39 94 47 95
REMARK SMILES IDX 40 96 42 97 48 98 41 99 43 100 44 101 45 102 46 103
REMARK H PARENT 79 15 68 56 36 67
REMARK Flexibility Score: inf
ROOT
ATOM      1  C   UNL A   1      34.666  34.879  28.776  1.00  0.00     0.275 C 
ENDROOT
BRANCH   1   2
ATOM      2  O   UNL A   1      34.536  33.755  27.887  1.00  0.00    -0.458 OA
BRANCH   2   3
ATOM      3  C   UNL A   1      34.394  32.540  28.468  1.00  0.00     0.338 C 
ATOM      4  O   UNL A   1      34.756  32.218  29.587  1.00  0.00    -0.246 OA
BRANCH   3   5
ATOM      5  C   UNL A   1      33.646  31.629  27.572  1.00  0.00     0.065 A 
ATOM      6  C   UNL A   1      35.406  29.818  27.796  1.00  0.00     0.047 C 
ATOM      7  C   UNL A   1      34.098  30.334  27.249  1.00  0.00    -0.013 A 
ATOM      8  C   UNL A   1      33.296  29.525  26.408  1.00  0.00     0.042 A 
ATOM      9  C   UNL A   1      32.404  32.083  27.115  1.00  0.00     0.016 A 
ATOM     10  C   UNL A   1      32.037  29.990  25.981  1.00  0.00    -0.017 A 
ATOM     11  N   UNL A   1      33.689  28.229  26.122  1.00  0.00    -0.377 N 
ATOM     12  C   UNL A   1      31.614  31.281  26.308  1.00  0.00     0.007 A 
ATOM     13  C   UNL A   1      31.072  29.096  25.259  1.00  0.00     0.049 C 
ATOM     14  C   UNL A   1      32.922  27.378  25.235  1.00  0.00     0.114 C 
ATOM     15  H   UNL A   1      34.511  27.876  26.533  1.00  0.00     0.161 HD
ATOM     16  C   UNL A   1      31.399  27.599  25.367  1.00  0.00     0.031 C 
ATOM     17  C   UNL A   1      30.961  29.285  23.770  1.00  0.00    -0.023 C 
ATOM     18  C   UNL A   1      30.597  27.017  24.181  1.00  0.00     0.034 C 
ATOM     19  C   UNL A   1      30.674  28.121  23.171  1.00  0.00    -0.030 C 
BRANCH  14  20
ATOM     20  C   UNL A   1      33.312  25.938  25.525  1.00  0.00    -0.025 A 
ATOM     21  C   UNL A   1      32.510  25.042  26.261  1.00  0.00     0.007 A 
ATOM     22  C   UNL A   1      34.532  25.486  25.026  1.00  0.00     0.007 A 
ATOM     23  C   UNL A   1      32.919  23.718  26.478  1.00  0.00     0.022 A 
ATOM     24  C   UNL A   1      34.918  24.174  25.222  1.00  0.00     0.022 A 
ATOM     25  C   UNL A   1      34.130  23.285  25.939  1.00  0.00     0.082 A 
BRANCH  25  26
ATOM     26  S   UNL A   1      34.651  21.600  26.147  1.00  0.00     0.243 S 
ATOM     27  O   UNL A   1      36.097  21.608  26.105  1.00  0.00    -0.207 OA
ATOM     28  O   UNL A   1      33.926  21.078  27.286  1.00  0.00    -0.207 OA
BRANCH  26  29
ATOM     29  N   UNL A   1      34.093  20.795  24.779  1.00  0.00    -0.193 NA
ATOM     30  C   UNL A   1      33.498  21.511  23.626  1.00  0.00     0.131 C 
ATOM     31  C   UNL A   1      33.999  19.323  24.732  1.00  0.00     0.131 C 
ATOM     32  C   UNL A   1      32.161  20.897  23.169  1.00  0.00     0.177 C 
ATOM     33  C   UNL A   1      32.588  18.881  24.344  1.00  0.00     0.177 C 
ATOM     34  O   UNL A   1      32.190  19.468  23.098  1.00  0.00    -0.379 OA
ENDBRANCH  26  29
ENDBRANCH  25  26
ENDBRANCH  14  20
ENDBRANCH   3   5
ENDBRANCH   2   3
ENDBRANCH   1   2
BRANCH   1  35
ATOM     35  C   UNL A   1      33.287  35.427  29.118  1.00  0.00     0.275 C 
BRANCH  35  36
ATOM     36  O   UNL A   1      32.789  34.759  30.289  1.00  0.00    -0.458 OA
BRANCH  36  37
ATOM     37  C   UNL A   1      32.960  35.422  31.454  1.00  0.00     0.338 C 
ATOM     38  O   UNL A   1      32.287  36.336  31.898  1.00  0.00    -0.246 OA
BRANCH  37  39
ATOM     39  C   UNL A   1      34.104  34.843  32.172  1.00  0.00     0.060 A 
ATOM     40  C   UNL A   1      35.306  35.545  32.221  1.00  0.00     0.016 A 
ATOM     41  C   UNL A   1      34.020  33.553  32.690  1.00  0.00     0.016 A 
ATOM     42  C   UNL A   1      36.462  34.912  32.668  1.00  0.00     0.010 A 
ATOM     43  C   UNL A   1      35.157  32.964  33.250  1.00  0.00     0.010 A 
ATOM     44  C   UNL A   1      36.403  33.614  33.200  1.00  0.00    -0.014 A 
BRANCH  44  45
ATOM     45  C   UNL A   1      37.642  32.930  33.668  1.00  0.00     0.031 A 
ATOM     46  C   UNL A   1      38.237  31.801  32.863  1.00  0.00     0.074 A 
ATOM     47  C   UNL A   1      38.239  33.320  34.813  1.00  0.00     0.049 A 
ATOM     48  N   UNL A   1      39.234  31.012  33.167  1.00  0.00    -0.248 NA
ATOM     49  C   UNL A   1      37.628  31.509  31.553  1.00  0.00     0.031 C 
ATOM     50  C   UNL A   1      37.775  34.401  35.687  1.00  0.00     0.029 A 
ATOM     51  N   UNL A   1      39.369  32.854  35.442  1.00  0.00    -0.354 N 
ATOM     52  C   UNL A   1      39.326  30.093  32.127  1.00  0.00     0.074 A 
ATOM     53  C   UNL A   1      38.288  30.422  31.177  1.00  0.00     0.031 C 
ATOM     54  C   UNL A   1      38.631  34.542  36.709  1.00  0.00     0.029 A 
ATOM     55  C   UNL A   1      39.666  33.520  36.609  1.00  0.00     0.049 A 
ATOM     56  H   UNL A   1      39.915  32.114  35.090  1.00  0.00     0.167 HD
ATOM     57  C   UNL A   1      40.209  29.081  31.967  1.00  0.00     0.034 A 
ATOM     58  C   UNL A   1      40.644  33.319  37.514  1.00  0.00     0.034 A 
ATOM     59  C   UNL A   1      41.301  28.812  32.860  1.00  0.00     0.049 A 
ATOM     60  C   UNL A   1      41.618  32.197  37.306  1.00  0.00     0.074 A 
ATOM     61  C   UNL A   1      42.281  27.843  32.745  1.00  0.00     0.029 A 
ATOM     62  N   UNL A   1      41.569  29.524  34.017  1.00  0.00    -0.354 N 
ATOM     63  N   UNL A   1      41.709  31.367  36.296  1.00  0.00    -0.248 NA
ATOM     64  C   UNL A   1      42.624  31.978  38.356  1.00  0.00     0.031 C 
ATOM     65  C   UNL A   1      43.144  27.968  33.835  1.00  0.00     0.029 A 
ATOM     66  C   UNL A   1      42.700  29.015  34.626  1.00  0.00     0.049 A 
ATOM     67  H   UNL A   1      41.034  30.278  34.355  1.00  0.00     0.167 HD
ATOM     68  C   UNL A   1      42.785  30.537  36.581  1.00  0.00     0.074 A 
ATOM     69  C   UNL A   1      43.329  30.972  37.851  1.00  0.00     0.031 C 
ATOM     70  C   UNL A   1      43.262  29.494  35.862  1.00  0.00     0.034 A 
BRANCH  57  71
ATOM     71  C   UNL A   1      40.082  28.209  30.747  1.00  0.00     0.023 A 
ATOM     72  C   UNL A   1      39.045  27.258  30.686  1.00  0.00     0.012 A 
ATOM     73  C   UNL A   1      40.909  28.411  29.626  1.00  0.00     0.148 A 
ATOM     74  C   UNL A   1      38.839  26.510  29.528  1.00  0.00     0.002 A 
ATOM     75  C   UNL A   1      40.680  27.682  28.464  1.00  0.00     0.091 A 
ATOM     76  F   UNL A   1      41.892  29.318  29.713  1.00  0.00    -0.205 F 
ATOM     77  C   UNL A   1      39.649  26.729  28.416  1.00  0.00     0.022 A 
BRANCH  75  78
ATOM     78  S   UNL A   1      41.628  27.923  26.957  1.00  0.00     0.127 S 
ATOM     79  O   UNL A   1      41.010  26.945  26.062  1.00  0.00    -0.237 OA
ATOM     80  O   UNL A   1      41.335  29.319  26.632  1.00  0.00    -0.237 OA
ATOM     81  O   UNL A   1      43.016  27.650  27.303  1.00  0.00    -0.744 OA
ENDBRANCH  75  78
ENDBRANCH  57  71
BRANCH  58  82
ATOM     82  C   UNL A   1      40.760  34.238  38.681  1.00  0.00     0.023 A 
ATOM     83  C   UNL A   1      41.673  35.308  38.620  1.00  0.00     0.012 A 
ATOM     84  C   UNL A   1      39.923  34.108  39.806  1.00  0.00     0.148 A 
ATOM     85  C   UNL A   1      41.752  36.232  39.661  1.00  0.00     0.002 A 
ATOM     86  C   UNL A   1      39.977  35.057  40.821  1.00  0.00     0.091 A 
ATOM     87  F   UNL A   1      39.069  33.076  39.844  1.00  0.00    -0.205 F 
ATOM     88  C   UNL A   1      40.897  36.114  40.754  1.00  0.00     0.022 A 
BRANCH  86  89
ATOM     89  S   UNL A   1      38.842  35.052  42.213  1.00  0.00     0.127 S 
ATOM     90  O   UNL A   1      39.209  33.813  42.894  1.00  0.00    -0.237 OA
ATOM     91  O   UNL A   1      39.223  36.278  42.915  1.00  0.00    -0.237 OA
ATOM     92  O   UNL A   1      37.505  35.079  41.635  1.00  0.00    -0.744 OA
ENDBRANCH  86  89
ENDBRANCH  58  82
BRANCH  70  93
ATOM     93  C   UNL A   1      44.437  28.731  36.402  1.00  0.00     0.023 A 
ATOM     94  C   UNL A   1      45.734  29.233  36.184  1.00  0.00     0.012 A 
ATOM     95  C   UNL A   1      44.246  27.638  37.269  1.00  0.00     0.148 A 
ATOM     96  C   UNL A   1      46.827  28.660  36.829  1.00  0.00     0.002 A 
ATOM     97  C   UNL A   1      45.336  27.093  37.933  1.00  0.00     0.091 A 
ATOM     98  F   UNL A   1      42.997  27.186  37.458  1.00  0.00    -0.205 F 
ATOM     99  C   UNL A   1      46.627  27.601  37.713  1.00  0.00     0.022 A 
BRANCH  97 100
ATOM    100  S   UNL A   1      45.176  25.782  39.151  1.00  0.00     0.127 S 
ATOM    101  O   UNL A   1      44.590  24.704  38.354  1.00  0.00    -0.237 OA
ATOM    102  O   UNL A   1      46.566  25.562  39.547  1.00  0.00    -0.237 OA
ATOM    103  O   UNL A   1      44.314  26.306  40.201  1.00  0.00    -0.744 OA
ENDBRANCH  97 100
ENDBRANCH  70  93
ENDBRANCH  44  45
ENDBRANCH  37  39
ENDBRANCH  36  37
ENDBRANCH  35  36
ENDBRANCH   1  35
TORSDOF 17
ENDMDL
