MODEL 1
REMARK VINA RESULT:     -10.7      0.000      0.000
REMARK SMILES CC[C@H](C)C[C@@H](CC)[N@@H+]1CCO[C@H](CC(=O)OCCOC(=O)c2ccc(-c3c4nc(c(-c5cccc(S(=O)(=O)[O-])c5F)c5ccc([nH]5)c(-c5cccc(S(=O)(=O)[O-])c5F)c5nc(c(-c6cccc(S(=O)(=O)[O-])c6F)c6ccc3[nH]6)C=C5)C=C4)cc2)C1
REMARK SMILES IDX 18 1 17 2 15 3 16 4 14 5 13 6 9 7 10 8 86 9 11 11 12 12 6 13
REMARK SMILES IDX 5 14 3 15 4 16 2 17 1 18 7 19 8 20 19 21 20 22 21 23 22 24
REMARK SMILES IDX 23 25 24 26 85 27 25 28 84 29 26 30 27 31 28 32 78 33 29 34
REMARK SMILES IDX 83 35 77 36 79 37 30 38 82 39 76 40 75 41 31 43 63 44 43 45
REMARK SMILES IDX 62 46 44 47 47 48 61 49 80 50 45 51 46 52 60 54 81 55 48 56
REMARK SMILES IDX 32 57 33 58 41 59 34 60 36 61 42 62 35 63 37 64 38 65 39 66
REMARK SMILES IDX 40 67 64 68 65 69 73 70 66 71 68 72 74 73 67 74 69 75 70 76
REMARK SMILES IDX 71 77 72 78 49 79 50 80 58 81 51 82 53 83 59 84 52 85 54 86
REMARK SMILES IDX 55 87 56 88 57 89
REMARK H PARENT 9 10 79 42 47 53
REMARK Flexibility Score: inf
ROOT
ATOM      1  C   UNL A   1      34.829  21.335  24.660  1.00  0.00     0.274 C 
ENDROOT
BRANCH   1   2
ATOM      2  O   UNL A   1      34.872  22.755  24.888  1.00  0.00    -0.462 OA
BRANCH   2   3
ATOM      3  C   UNL A   1      34.619  23.544  23.823  1.00  0.00     0.308 C 
ATOM      4  O   UNL A   1      35.116  23.379  22.714  1.00  0.00    -0.252 OA
BRANCH   3   5
ATOM      5  C   UNL A   1      33.499  24.525  24.053  1.00  0.00     0.160 C 
BRANCH   5   6
ATOM      6  C   UNL A   1      32.032  24.109  24.063  1.00  0.00     0.184 C 
ATOM      7  N   UNL A   1      30.607  26.106  24.814  1.00  0.00    -0.328 N 
ATOM      8  C   UNL A   1      30.108  25.182  25.861  1.00  0.00     0.291 C 
ATOM      9  C   UNL A   1      31.040  25.241  23.697  1.00  0.00     0.295 C 
ATOM     10  H   UNL A   1      29.870  26.739  24.504  1.00  0.00     0.348 HD
ATOM     11  C   UNL A   1      31.139  24.135  26.292  1.00  0.00     0.222 C 
ATOM     12  O   UNL A   1      31.601  23.345  25.193  1.00  0.00    -0.366 OA
BRANCH   7  13
ATOM     13  C   UNL A   1      31.615  27.100  25.284  1.00  0.00     0.184 C 
BRANCH  13  14
ATOM     14  C   UNL A   1      31.242  28.554  24.853  1.00  0.00     0.068 C 
BRANCH  14  15
ATOM     15  C   UNL A   1      31.535  28.980  23.390  1.00  0.00    -0.009 C 
ATOM     16  C   UNL A   1      32.764  28.303  22.783  1.00  0.00     0.008 C 
BRANCH  15  17
ATOM     17  C   UNL A   1      30.278  28.760  22.507  1.00  0.00    -0.000 C 
ATOM     18  C   UNL A   1      29.756  29.996  21.778  1.00  0.00     0.004 C 
ENDBRANCH  15  17
ENDBRANCH  14  15
ENDBRANCH  13  14
BRANCH  13  19
ATOM     19  C   UNL A   1      31.827  27.004  26.820  1.00  0.00     0.061 C 
ATOM     20  C   UNL A   1      31.932  28.342  27.538  1.00  0.00     0.010 C 
ENDBRANCH  13  19
ENDBRANCH   7  13
ENDBRANCH   5   6
ENDBRANCH   3   5
ENDBRANCH   2   3
ENDBRANCH   1   2
BRANCH   1  21
ATOM     21  C   UNL A   1      36.179  20.740  25.049  1.00  0.00     0.275 C 
BRANCH  21  22
ATOM     22  O   UNL A   1      36.937  21.687  25.825  1.00  0.00    -0.458 OA
BRANCH  22  23
ATOM     23  C   UNL A   1      38.269  21.461  25.867  1.00  0.00     0.338 C 
ATOM     24  O   UNL A   1      38.879  20.502  25.431  1.00  0.00    -0.246 OA
BRANCH  23  25
ATOM     25  C   UNL A   1      38.942  22.607  26.486  1.00  0.00     0.060 A 
ATOM     26  C   UNL A   1      38.456  23.901  26.272  1.00  0.00     0.016 A 
ATOM     27  C   UNL A   1      40.134  22.395  27.173  1.00  0.00     0.016 A 
ATOM     28  C   UNL A   1      39.200  24.998  26.690  1.00  0.00     0.010 A 
ATOM     29  C   UNL A   1      40.843  23.495  27.652  1.00  0.00     0.010 A 
ATOM     30  C   UNL A   1      40.394  24.802  27.392  1.00  0.00    -0.014 A 
BRANCH  30  31
ATOM     31  C   UNL A   1      41.196  25.955  27.860  1.00  0.00     0.031 A 
ATOM     32  C   UNL A   1      40.536  27.031  28.670  1.00  0.00     0.074 A 
ATOM     33  C   UNL A   1      42.487  26.054  27.495  1.00  0.00     0.049 A 
ATOM     34  N   UNL A   1      40.973  28.224  28.967  1.00  0.00    -0.248 NA
ATOM     35  C   UNL A   1      39.197  26.728  29.205  1.00  0.00     0.031 C 
ATOM     36  C   UNL A   1      43.232  25.048  26.735  1.00  0.00     0.029 A 
ATOM     37  N   UNL A   1      43.394  27.066  27.684  1.00  0.00    -0.354 N 
ATOM     38  C   UNL A   1      39.940  28.842  29.662  1.00  0.00     0.074 A 
ATOM     39  C   UNL A   1      38.860  27.885  29.760  1.00  0.00     0.031 C 
ATOM     40  C   UNL A   1      44.475  25.500  26.505  1.00  0.00     0.029 A 
ATOM     41  C   UNL A   1      44.589  26.851  27.038  1.00  0.00     0.049 A 
ATOM     42  H   UNL A   1      43.207  27.866  28.227  1.00  0.00     0.167 HD
ATOM     43  C   UNL A   1      39.904  30.096  30.171  1.00  0.00     0.034 A 
ATOM     44  C   UNL A   1      45.639  27.674  26.852  1.00  0.00     0.034 A 
ATOM     45  C   UNL A   1      41.009  31.013  30.103  1.00  0.00     0.049 A 
ATOM     46  C   UNL A   1      45.571  29.062  27.425  1.00  0.00     0.074 A 
ATOM     47  C   UNL A   1      41.095  32.299  30.604  1.00  0.00     0.029 A 
ATOM     48  N   UNL A   1      42.228  30.732  29.504  1.00  0.00    -0.354 N 
ATOM     49  N   UNL A   1      44.607  29.622  28.117  1.00  0.00    -0.248 NA
ATOM     50  C   UNL A   1      46.736  29.929  27.206  1.00  0.00     0.031 C 
ATOM     51  C   UNL A   1      42.366  32.799  30.301  1.00  0.00     0.029 A 
ATOM     52  C   UNL A   1      43.076  31.819  29.624  1.00  0.00     0.049 A 
ATOM     53  H   UNL A   1      42.457  29.885  29.059  1.00  0.00     0.167 HD
ATOM     54  C   UNL A   1      45.057  30.895  28.438  1.00  0.00     0.074 A 
ATOM     55  C   UNL A   1      46.391  31.017  27.883  1.00  0.00     0.031 C 
ATOM     56  C   UNL A   1      44.421  31.884  29.112  1.00  0.00     0.034 A 
BRANCH  43  57
ATOM     57  C   UNL A   1      38.640  30.540  30.857  1.00  0.00     0.023 A 
ATOM     58  C   UNL A   1      38.479  30.313  32.237  1.00  0.00     0.012 A 
ATOM     59  C   UNL A   1      37.631  31.220  30.146  1.00  0.00     0.148 A 
ATOM     60  C   UNL A   1      37.323  30.731  32.896  1.00  0.00     0.002 A 
ATOM     61  C   UNL A   1      36.498  31.667  30.815  1.00  0.00     0.091 A 
ATOM     62  F   UNL A   1      37.791  31.403  28.827  1.00  0.00    -0.205 F 
ATOM     63  C   UNL A   1      36.338  31.416  32.188  1.00  0.00     0.022 A 
BRANCH  61  64
ATOM     64  S   UNL A   1      35.204  32.613  30.003  1.00  0.00     0.127 S 
ATOM     65  O   UNL A   1      34.788  31.696  28.944  1.00  0.00    -0.237 OA
ATOM     66  O   UNL A   1      34.226  32.786  31.078  1.00  0.00    -0.237 OA
ATOM     67  O   UNL A   1      35.833  33.846  29.553  1.00  0.00    -0.744 OA
ENDBRANCH  61  64
ENDBRANCH  43  57
BRANCH  44  68
ATOM     68  C   UNL A   1      46.837  27.193  26.108  1.00  0.00     0.023 A 
ATOM     69  C   UNL A   1      46.916  27.410  24.720  1.00  0.00     0.012 A 
ATOM     70  C   UNL A   1      47.916  26.573  26.768  1.00  0.00     0.148 A 
ATOM     71  C   UNL A   1      48.041  27.004  23.999  1.00  0.00     0.002 A 
ATOM     72  C   UNL A   1      49.058  26.223  26.055  1.00  0.00     0.091 A 
ATOM     73  F   UNL A   1      47.816  26.353  28.087  1.00  0.00    -0.205 F 
ATOM     74  C   UNL A   1      49.116  26.424  24.667  1.00  0.00     0.022 A 
BRANCH  72  75
ATOM     75  S   UNL A   1      50.536  25.604  26.867  1.00  0.00     0.127 S 
ATOM     76  O   UNL A   1      50.049  24.372  27.480  1.00  0.00    -0.237 OA
ATOM     77  O   UNL A   1      51.451  25.411  25.741  1.00  0.00    -0.237 OA
ATOM     78  O   UNL A   1      50.941  26.660  27.787  1.00  0.00    -0.744 OA
ENDBRANCH  72  75
ENDBRANCH  44  68
BRANCH  56  79
ATOM     79  C   UNL A   1      45.171  33.171  29.319  1.00  0.00     0.023 A 
ATOM     80  C   UNL A   1      45.991  33.321  30.454  1.00  0.00     0.012 A 
ATOM     81  C   UNL A   1      45.131  34.188  28.348  1.00  0.00     0.148 A 
ATOM     82  C   UNL A   1      46.747  34.479  30.629  1.00  0.00     0.002 A 
ATOM     83  C   UNL A   1      45.919  35.320  28.508  1.00  0.00     0.091 A 
ATOM     84  F   UNL A   1      44.325  34.031  27.288  1.00  0.00    -0.205 F 
ATOM     85  C   UNL A   1      46.721  35.471  29.652  1.00  0.00     0.022 A 
BRANCH  83  86
ATOM     86  S   UNL A   1      46.017  36.604  27.256  1.00  0.00     0.127 S 
ATOM     87  O   UNL A   1      47.036  37.490  27.816  1.00  0.00    -0.237 OA
ATOM     88  O   UNL A   1      46.443  35.855  26.073  1.00  0.00    -0.237 OA
ATOM     89  O   UNL A   1      44.678  37.169  27.159  1.00  0.00    -0.744 OA
ENDBRANCH  83  86
ENDBRANCH  56  79
ENDBRANCH  30  31
ENDBRANCH  23  25
ENDBRANCH  22  23
ENDBRANCH  21  22
ENDBRANCH   1  21
TORSDOF 20
ENDMDL
MODEL 2
REMARK VINA RESULT:     -10.5      1.551      2.052
REMARK SMILES CC[C@H](C)C[C@@H](CC)[N@@H+]1CCO[C@H](CC(=O)OCCOC(=O)c2ccc(-c3c4nc(c(-c5cccc(S(=O)(=O)[O-])c5F)c5ccc([nH]5)c(-c5cccc(S(=O)(=O)[O-])c5F)c5nc(c(-c6cccc(S(=O)(=O)[O-])c6F)c6ccc3[nH]6)C=C5)C=C4)cc2)C1
REMARK SMILES IDX 18 1 17 2 15 3 16 4 14 5 13 6 9 7 10 8 86 9 11 11 12 12 6 13
REMARK SMILES IDX 5 14 3 15 4 16 2 17 1 18 7 19 8 20 19 21 20 22 21 23 22 24
REMARK SMILES IDX 23 25 24 26 85 27 25 28 84 29 26 30 27 31 28 32 78 33 29 34
REMARK SMILES IDX 83 35 77 36 79 37 30 38 82 39 76 40 75 41 31 43 63 44 43 45
REMARK SMILES IDX 62 46 44 47 47 48 61 49 80 50 45 51 46 52 60 54 81 55 48 56
REMARK SMILES IDX 32 57 33 58 41 59 34 60 36 61 42 62 35 63 37 64 38 65 39 66
REMARK SMILES IDX 40 67 64 68 65 69 73 70 66 71 68 72 74 73 67 74 69 75 70 76
REMARK SMILES IDX 71 77 72 78 49 79 50 80 58 81 51 82 53 83 59 84 52 85 54 86
REMARK SMILES IDX 55 87 56 88 57 89
REMARK H PARENT 9 10 79 42 47 53
REMARK Flexibility Score: inf
ROOT
ATOM      1  C   UNL A   1      35.991  21.173  24.973  1.00  0.00     0.274 C 
ENDROOT
BRANCH   1   2
ATOM      2  O   UNL A   1      36.011  22.611  24.998  1.00  0.00    -0.462 OA
BRANCH   2   3
ATOM      3  C   UNL A   1      35.830  23.236  23.814  1.00  0.00     0.308 C 
ATOM      4  O   UNL A   1      36.626  23.183  22.883  1.00  0.00    -0.252 OA
BRANCH   3   5
ATOM      5  C   UNL A   1      34.457  23.834  23.654  1.00  0.00     0.160 C 
BRANCH   5   6
ATOM      6  C   UNL A   1      33.329  23.116  22.918  1.00  0.00     0.184 C 
ATOM      7  N   UNL A   1      31.326  24.706  22.715  1.00  0.00    -0.328 N 
ATOM      8  C   UNL A   1      30.572  23.623  23.393  1.00  0.00     0.291 C 
ATOM      9  C   UNL A   1      32.452  24.036  22.032  1.00  0.00     0.295 C 
ATOM     10  H   UNL A   1      30.739  25.189  22.035  1.00  0.00     0.348 HD
ATOM     11  C   UNL A   1      31.430  22.790  24.349  1.00  0.00     0.222 C 
ATOM     12  O   UNL A   1      32.555  22.198  23.694  1.00  0.00    -0.366 OA
BRANCH   7  13
ATOM     13  C   UNL A   1      31.698  25.854  23.592  1.00  0.00     0.184 C 
BRANCH  13  14
ATOM     14  C   UNL A   1      32.471  26.960  22.805  1.00  0.00     0.068 C 
BRANCH  14  15
ATOM     15  C   UNL A   1      33.705  27.611  23.485  1.00  0.00    -0.009 C 
ATOM     16  C   UNL A   1      34.376  28.694  22.640  1.00  0.00     0.008 C 
BRANCH  15  17
ATOM     17  C   UNL A   1      33.322  28.149  24.889  1.00  0.00    -0.000 C 
ATOM     18  C   UNL A   1      33.971  27.435  26.072  1.00  0.00     0.004 C 
ENDBRANCH  15  17
ENDBRANCH  14  15
ENDBRANCH  13  14
BRANCH  13  19
ATOM     19  C   UNL A   1      30.452  26.440  24.311  1.00  0.00     0.061 C 
ATOM     20  C   UNL A   1      29.815  27.636  23.617  1.00  0.00     0.010 C 
ENDBRANCH  13  19
ENDBRANCH   7  13
ENDBRANCH   5   6
ENDBRANCH   3   5
ENDBRANCH   2   3
ENDBRANCH   1   2
BRANCH   1  21
ATOM     21  C   UNL A   1      37.430  20.667  25.042  1.00  0.00     0.275 C 
BRANCH  21  22
ATOM     22  O   UNL A   1      38.333  21.762  25.286  1.00  0.00    -0.458 OA
BRANCH  22  23
ATOM     23  C   UNL A   1      39.362  21.485  26.118  1.00  0.00     0.338 C 
ATOM     24  O   UNL A   1      39.879  20.404  26.333  1.00  0.00    -0.246 OA
BRANCH  23  25
ATOM     25  C   UNL A   1      39.848  22.726  26.727  1.00  0.00     0.060 A 
ATOM     26  C   UNL A   1      39.428  23.962  26.224  1.00  0.00     0.016 A 
ATOM     27  C   UNL A   1      40.826  22.651  27.715  1.00  0.00     0.016 A 
ATOM     28  C   UNL A   1      40.035  25.132  26.665  1.00  0.00     0.010 A 
ATOM     29  C   UNL A   1      41.384  23.830  28.204  1.00  0.00     0.010 A 
ATOM     30  C   UNL A   1      41.011  25.074  27.666  1.00  0.00    -0.014 A 
BRANCH  30  31
ATOM     31  C   UNL A   1      41.662  26.308  28.161  1.00  0.00     0.031 A 
ATOM     32  C   UNL A   1      40.837  27.343  28.868  1.00  0.00     0.074 A 
ATOM     33  C   UNL A   1      42.967  26.514  27.911  1.00  0.00     0.049 A 
ATOM     34  N   UNL A   1      41.138  28.579  29.159  1.00  0.00    -0.248 NA
ATOM     35  C   UNL A   1      39.486  26.935  29.291  1.00  0.00     0.031 C 
ATOM     36  C   UNL A   1      43.865  25.558  27.258  1.00  0.00     0.029 A 
ATOM     37  N   UNL A   1      43.760  27.609  28.143  1.00  0.00    -0.354 N 
ATOM     38  C   UNL A   1      39.994  29.120  29.735  1.00  0.00     0.074 A 
ATOM     39  C   UNL A   1      38.998  28.072  29.770  1.00  0.00     0.031 C 
ATOM     40  C   UNL A   1      45.079  26.114  27.125  1.00  0.00     0.029 A 
ATOM     41  C   UNL A   1      45.024  27.485  27.616  1.00  0.00     0.049 A 
ATOM     42  H   UNL A   1      43.454  28.404  28.637  1.00  0.00     0.167 HD
ATOM     43  C   UNL A   1      39.801  30.380  30.192  1.00  0.00     0.034 A 
ATOM     44  C   UNL A   1      46.011  28.394  27.496  1.00  0.00     0.034 A 
ATOM     45  C   UNL A   1      40.824  31.390  30.191  1.00  0.00     0.049 A 
ATOM     46  C   UNL A   1      45.768  29.787  28.008  1.00  0.00     0.074 A 
ATOM     47  C   UNL A   1      40.748  32.693  30.650  1.00  0.00     0.029 A 
ATOM     48  N   UNL A   1      42.113  31.205  29.715  1.00  0.00    -0.354 N 
ATOM     49  N   UNL A   1      44.699  30.276  28.589  1.00  0.00    -0.248 NA
ATOM     50  C   UNL A   1      46.868  30.749  27.863  1.00  0.00     0.031 C 
ATOM     51  C   UNL A   1      41.994  33.297  30.444  1.00  0.00     0.029 A 
ATOM     52  C   UNL A   1      42.847  32.367  29.870  1.00  0.00     0.049 A 
ATOM     53  H   UNL A   1      42.456  30.369  29.324  1.00  0.00     0.167 HD
ATOM     54  C   UNL A   1      45.003  31.593  28.903  1.00  0.00     0.074 A 
ATOM     55  C   UNL A   1      46.367  31.820  28.466  1.00  0.00     0.031 C 
ATOM     56  C   UNL A   1      44.223  32.540  29.479  1.00  0.00     0.034 A 
BRANCH  43  57
ATOM     57  C   UNL A   1      38.445  30.726  30.744  1.00  0.00     0.023 A 
ATOM     58  C   UNL A   1      38.145  30.436  32.090  1.00  0.00     0.012 A 
ATOM     59  C   UNL A   1      37.483  31.378  29.947  1.00  0.00     0.148 A 
ATOM     60  C   UNL A   1      36.900  30.764  32.626  1.00  0.00     0.002 A 
ATOM     61  C   UNL A   1      36.258  31.736  30.498  1.00  0.00     0.091 A 
ATOM     62  F   UNL A   1      37.778  31.623  28.661  1.00  0.00    -0.205 F 
ATOM     63  C   UNL A   1      35.962  31.422  31.834  1.00  0.00     0.022 A 
BRANCH  61  64
ATOM     64  S   UNL A   1      35.010  32.642  29.576  1.00  0.00     0.127 S 
ATOM     65  O   UNL A   1      34.585  31.645  28.596  1.00  0.00    -0.237 OA
ATOM     66  O   UNL A   1      34.018  32.941  30.610  1.00  0.00    -0.237 OA
ATOM     67  O   UNL A   1      35.685  33.810  29.030  1.00  0.00    -0.744 OA
ENDBRANCH  61  64
ENDBRANCH  43  57
BRANCH  44  68
ATOM     68  C   UNL A   1      47.310  28.003  26.880  1.00  0.00     0.023 A 
ATOM     69  C   UNL A   1      48.390  27.660  27.715  1.00  0.00     0.012 A 
ATOM     70  C   UNL A   1      47.468  27.915  25.483  1.00  0.00     0.148 A 
ATOM     71  C   UNL A   1      49.610  27.254  27.169  1.00  0.00     0.002 A 
ATOM     72  C   UNL A   1      48.667  27.456  24.947  1.00  0.00     0.091 A 
ATOM     73  F   UNL A   1      46.437  28.267  24.701  1.00  0.00    -0.205 F 
ATOM     74  C   UNL A   1      49.744  27.139  25.788  1.00  0.00     0.022 A 
BRANCH  72  75
ATOM     75  S   UNL A   1      48.867  27.144  23.189  1.00  0.00     0.127 S 
ATOM     76  O   UNL A   1      50.315  26.997  23.073  1.00  0.00    -0.237 OA
ATOM     77  O   UNL A   1      48.106  25.908  23.005  1.00  0.00    -0.237 OA
ATOM     78  O   UNL A   1      48.286  28.303  22.523  1.00  0.00    -0.744 OA
ENDBRANCH  72  75
ENDBRANCH  44  68
BRANCH  56  79
ATOM     79  C   UNL A   1      44.834  33.894  29.706  1.00  0.00     0.023 A 
ATOM     80  C   UNL A   1      45.510  34.157  30.914  1.00  0.00     0.012 A 
ATOM     81  C   UNL A   1      44.815  34.868  28.691  1.00  0.00     0.148 A 
ATOM     82  C   UNL A   1      46.142  35.384  31.114  1.00  0.00     0.002 A 
ATOM     83  C   UNL A   1      45.483  36.071  28.882  1.00  0.00     0.091 A 
ATOM     84  F   UNL A   1      44.147  34.602  27.560  1.00  0.00    -0.205 F 
ATOM     85  C   UNL A   1      46.139  36.333  30.096  1.00  0.00     0.022 A 
BRANCH  83  86
ATOM     86  S   UNL A   1      45.609  37.312  27.589  1.00  0.00     0.127 S 
ATOM     87  O   UNL A   1      44.207  37.676  27.388  1.00  0.00    -0.237 OA
ATOM     88  O   UNL A   1      46.422  38.347  28.228  1.00  0.00    -0.237 OA
ATOM     89  O   UNL A   1      46.253  36.650  26.463  1.00  0.00    -0.744 OA
ENDBRANCH  83  86
ENDBRANCH  56  79
ENDBRANCH  30  31
ENDBRANCH  23  25
ENDBRANCH  22  23
ENDBRANCH  21  22
ENDBRANCH   1  21
TORSDOF 20
ENDMDL
MODEL 3
REMARK VINA RESULT:     -10.5      1.610      2.376
REMARK SMILES CC[C@H](C)C[C@@H](CC)[N@@H+]1CCO[C@H](CC(=O)OCCOC(=O)c2ccc(-c3c4nc(c(-c5cccc(S(=O)(=O)[O-])c5F)c5ccc([nH]5)c(-c5cccc(S(=O)(=O)[O-])c5F)c5nc(c(-c6cccc(S(=O)(=O)[O-])c6F)c6ccc3[nH]6)C=C5)C=C4)cc2)C1
REMARK SMILES IDX 18 1 17 2 15 3 16 4 14 5 13 6 9 7 10 8 86 9 11 11 12 12 6 13
REMARK SMILES IDX 5 14 3 15 4 16 2 17 1 18 7 19 8 20 19 21 20 22 21 23 22 24
REMARK SMILES IDX 23 25 24 26 85 27 25 28 84 29 26 30 27 31 28 32 78 33 29 34
REMARK SMILES IDX 83 35 77 36 79 37 30 38 82 39 76 40 75 41 31 43 63 44 43 45
REMARK SMILES IDX 62 46 44 47 47 48 61 49 80 50 45 51 46 52 60 54 81 55 48 56
REMARK SMILES IDX 32 57 33 58 41 59 34 60 36 61 42 62 35 63 37 64 38 65 39 66
REMARK SMILES IDX 40 67 64 68 65 69 73 70 66 71 68 72 74 73 67 74 69 75 70 76
REMARK SMILES IDX 71 77 72 78 49 79 50 80 58 81 51 82 53 83 59 84 52 85 54 86
REMARK SMILES IDX 55 87 56 88 57 89
REMARK H PARENT 9 10 79 42 47 53
REMARK Flexibility Score: inf
ROOT
ATOM      1  C   UNL A   1      34.948  21.434  25.894  1.00  0.00     0.274 C 
ENDROOT
BRANCH   1   2
ATOM      2  O   UNL A   1      35.083  22.865  25.897  1.00  0.00    -0.462 OA
BRANCH   2   3
ATOM      3  C   UNL A   1      33.978  23.574  26.214  1.00  0.00     0.308 C 
ATOM      4  O   UNL A   1      33.221  23.286  27.135  1.00  0.00    -0.252 OA
BRANCH   3   5
ATOM      5  C   UNL A   1      33.867  24.881  25.474  1.00  0.00     0.160 C 
BRANCH   5   6
ATOM      6  C   UNL A   1      34.038  24.986  23.962  1.00  0.00     0.184 C 
ATOM      7  N   UNL A   1      32.393  26.736  23.059  1.00  0.00    -0.328 N 
ATOM      8  C   UNL A   1      31.916  25.638  22.184  1.00  0.00     0.291 C 
ATOM      9  C   UNL A   1      33.796  26.402  23.384  1.00  0.00     0.295 C 
ATOM     10  H   UNL A   1      32.347  27.633  22.577  1.00  0.00     0.348 HD
ATOM     11  C   UNL A   1      32.062  24.249  22.814  1.00  0.00     0.222 C 
ATOM     12  O   UNL A   1      33.412  23.961  23.185  1.00  0.00    -0.366 OA
BRANCH   7  13
ATOM     13  C   UNL A   1      31.516  27.030  24.229  1.00  0.00     0.184 C 
BRANCH  13  14
ATOM     14  C   UNL A   1      31.944  28.341  24.962  1.00  0.00     0.068 C 
BRANCH  14  15
ATOM     15  C   UNL A   1      31.724  28.425  26.496  1.00  0.00    -0.009 C 
ATOM     16  C   UNL A   1      31.202  27.130  27.118  1.00  0.00     0.008 C 
BRANCH  15  17
ATOM     17  C   UNL A   1      33.023  28.902  27.198  1.00  0.00    -0.000 C 
ATOM     18  C   UNL A   1      34.297  28.822  26.359  1.00  0.00     0.004 C 
ENDBRANCH  15  17
ENDBRANCH  14  15
ENDBRANCH  13  14
BRANCH  13  19
ATOM     19  C   UNL A   1      30.020  27.079  23.814  1.00  0.00     0.061 C 
ATOM     20  C   UNL A   1      29.561  28.407  23.226  1.00  0.00     0.010 C 
ENDBRANCH  13  19
ENDBRANCH   7  13
ENDBRANCH   5   6
ENDBRANCH   3   5
ENDBRANCH   2   3
ENDBRANCH   1   2
BRANCH   1  21
ATOM     21  C   UNL A   1      36.143  20.836  25.156  1.00  0.00     0.275 C 
BRANCH  21  22
ATOM     22  O   UNL A   1      37.223  21.787  25.102  1.00  0.00    -0.458 OA
BRANCH  22  23
ATOM     23  C   UNL A   1      38.376  21.382  25.681  1.00  0.00     0.338 C 
ATOM     24  O   UNL A   1      38.875  20.272  25.658  1.00  0.00    -0.246 OA
BRANCH  23  25
ATOM     25  C   UNL A   1      39.024  22.524  26.334  1.00  0.00     0.060 A 
ATOM     26  C   UNL A   1      38.581  23.823  26.068  1.00  0.00     0.016 A 
ATOM     27  C   UNL A   1      40.160  22.299  27.107  1.00  0.00     0.016 A 
ATOM     28  C   UNL A   1      39.314  24.912  26.526  1.00  0.00     0.010 A 
ATOM     29  C   UNL A   1      40.854  23.392  27.622  1.00  0.00     0.010 A 
ATOM     30  C   UNL A   1      40.451  24.703  27.315  1.00  0.00    -0.014 A 
BRANCH  30  31
ATOM     31  C   UNL A   1      41.240  25.847  27.825  1.00  0.00     0.031 A 
ATOM     32  C   UNL A   1      40.559  26.906  28.640  1.00  0.00     0.074 A 
ATOM     33  C   UNL A   1      42.539  25.955  27.494  1.00  0.00     0.049 A 
ATOM     34  N   UNL A   1      40.987  28.094  28.972  1.00  0.00    -0.248 NA
ATOM     35  C   UNL A   1      39.207  26.591  29.136  1.00  0.00     0.031 C 
ATOM     36  C   UNL A   1      43.304  24.965  26.731  1.00  0.00     0.029 A 
ATOM     37  N   UNL A   1      43.439  26.963  27.725  1.00  0.00    -0.354 N 
ATOM     38  C   UNL A   1      39.936  28.696  29.654  1.00  0.00     0.074 A 
ATOM     39  C   UNL A   1      38.855  27.736  29.706  1.00  0.00     0.031 C 
ATOM     40  C   UNL A   1      44.551  25.422  26.541  1.00  0.00     0.029 A 
ATOM     41  C   UNL A   1      44.650  26.763  27.104  1.00  0.00     0.049 A 
ATOM     42  H   UNL A   1      43.238  27.752  28.279  1.00  0.00     0.167 HD
ATOM     43  C   UNL A   1      39.886  29.940  30.187  1.00  0.00     0.034 A 
ATOM     44  C   UNL A   1      45.703  27.590  26.960  1.00  0.00     0.034 A 
ATOM     45  C   UNL A   1      40.992  30.858  30.164  1.00  0.00     0.049 A 
ATOM     46  C   UNL A   1      45.620  28.967  27.559  1.00  0.00     0.074 A 
ATOM     47  C   UNL A   1      41.063  32.135  30.693  1.00  0.00     0.029 A 
ATOM     48  N   UNL A   1      42.225  30.592  29.590  1.00  0.00    -0.354 N 
ATOM     49  N   UNL A   1      44.639  29.511  28.238  1.00  0.00    -0.248 NA
ATOM     50  C   UNL A   1      46.788  29.839  27.385  1.00  0.00     0.031 C 
ATOM     51  C   UNL A   1      42.341  32.641  30.431  1.00  0.00     0.029 A 
ATOM     52  C   UNL A   1      43.069  31.676  29.752  1.00  0.00     0.049 A 
ATOM     53  H   UNL A   1      42.466  29.753  29.133  1.00  0.00     0.167 HD
ATOM     54  C   UNL A   1      45.079  30.778  28.596  1.00  0.00     0.074 A 
ATOM     55  C   UNL A   1      46.426  30.912  28.076  1.00  0.00     0.031 C 
ATOM     56  C   UNL A   1      44.426  31.753  29.274  1.00  0.00     0.034 A 
BRANCH  43  57
ATOM     57  C   UNL A   1      38.605  30.368  30.851  1.00  0.00     0.023 A 
ATOM     58  C   UNL A   1      38.395  30.078  32.213  1.00  0.00     0.012 A 
ATOM     59  C   UNL A   1      37.630  31.096  30.140  1.00  0.00     0.148 A 
ATOM     60  C   UNL A   1      37.223  30.482  32.851  1.00  0.00     0.002 A 
ATOM     61  C   UNL A   1      36.480  31.526  30.792  1.00  0.00     0.091 A 
ATOM     62  F   UNL A   1      37.837  31.339  28.837  1.00  0.00    -0.205 F 
ATOM     63  C   UNL A   1      36.271  31.213  32.145  1.00  0.00     0.022 A 
BRANCH  61  64
ATOM     64  S   UNL A   1      35.226  32.528  29.984  1.00  0.00     0.127 S 
ATOM     65  O   UNL A   1      36.007  33.685  29.550  1.00  0.00    -0.237 OA
ATOM     66  O   UNL A   1      34.782  31.653  28.899  1.00  0.00    -0.237 OA
ATOM     67  O   UNL A   1      34.216  32.798  30.997  1.00  0.00    -0.744 OA
ENDBRANCH  61  64
ENDBRANCH  43  57
BRANCH  44  68
ATOM     68  C   UNL A   1      46.919  27.125  26.236  1.00  0.00     0.023 A 
ATOM     69  C   UNL A   1      47.051  27.407  24.863  1.00  0.00     0.012 A 
ATOM     70  C   UNL A   1      47.966  26.457  26.903  1.00  0.00     0.148 A 
ATOM     71  C   UNL A   1      48.195  27.017  24.163  1.00  0.00     0.002 A 
ATOM     72  C   UNL A   1      49.126  26.122  26.213  1.00  0.00     0.091 A 
ATOM     73  F   UNL A   1      47.816  26.176  28.205  1.00  0.00    -0.205 F 
ATOM     74  C   UNL A   1      49.237  26.388  24.840  1.00  0.00     0.022 A 
BRANCH  72  75
ATOM     75  S   UNL A   1      50.566  25.442  27.045  1.00  0.00     0.127 S 
ATOM     76  O   UNL A   1      51.484  25.227  25.930  1.00  0.00    -0.237 OA
ATOM     77  O   UNL A   1      50.942  26.527  27.952  1.00  0.00    -0.237 OA
ATOM     78  O   UNL A   1      50.089  24.242  27.721  1.00  0.00    -0.744 OA
ENDBRANCH  72  75
ENDBRANCH  44  68
BRANCH  56  79
ATOM     79  C   UNL A   1      45.168  33.036  29.525  1.00  0.00     0.023 A 
ATOM     80  C   UNL A   1      45.070  34.088  28.594  1.00  0.00     0.012 A 
ATOM     81  C   UNL A   1      45.884  33.227  30.722  1.00  0.00     0.148 A 
ATOM     82  C   UNL A   1      45.695  35.309  28.843  1.00  0.00     0.002 A 
ATOM     83  C   UNL A   1      46.467  34.460  30.981  1.00  0.00     0.091 A 
ATOM     84  F   UNL A   1      45.980  32.203  31.581  1.00  0.00    -0.205 F 
ATOM     85  C   UNL A   1      46.381  35.499  30.039  1.00  0.00     0.022 A 
BRANCH  83  86
ATOM     86  S   UNL A   1      47.291  34.821  32.537  1.00  0.00     0.127 S 
ATOM     87  O   UNL A   1      46.184  34.728  33.488  1.00  0.00    -0.237 OA
ATOM     88  O   UNL A   1      48.269  33.736  32.632  1.00  0.00    -0.237 OA
ATOM     89  O   UNL A   1      47.875  36.146  32.380  1.00  0.00    -0.744 OA
ENDBRANCH  83  86
ENDBRANCH  56  79
ENDBRANCH  30  31
ENDBRANCH  23  25
ENDBRANCH  22  23
ENDBRANCH  21  22
ENDBRANCH   1  21
TORSDOF 20
ENDMDL
