MODEL 1
REMARK VINA RESULT:     -11.4      0.000      0.000
REMARK SMILES Cc1noc(C)c1[C@H](C)NC(=O)NCC(=O)NCC(=O)OCCOC(=O)c1ccc(-c2c3nc(c(-c4cccc(S(=O)(=O)[O-])c4F)c4ccc([nH]4)c(-c4cccc(S(=O)(=O)[O-])c4F)c4nc(c(-c5cccc(S(=O)(=O)[O-])c5F)c5ccc2[nH]5)C=C4)C=C3)cc1
REMARK SMILES IDX 22 1 21 2 19 3 20 4 18 5 17 6 15 7 16 8 14 10 13 11 10 12
REMARK SMILES IDX 11 13 12 15 8 17 9 18 7 19 1 20 2 21 3 22 4 23 5 24 6 25
REMARK SMILES IDX 23 26 24 27 25 28 26 29 27 30 28 31 89 32 29 33 88 34 30 35
REMARK SMILES IDX 31 36 32 37 82 38 33 39 87 40 81 41 83 42 34 43 86 44 80 45
REMARK SMILES IDX 79 46 35 48 67 49 47 50 66 51 48 52 51 53 65 54 84 55 49 56
REMARK SMILES IDX 50 57 64 59 85 60 52 61 36 62 37 63 45 64 38 65 40 66 46 67
REMARK SMILES IDX 39 68 41 69 42 70 43 71 44 72 68 73 69 74 77 75 70 76 72 77
REMARK SMILES IDX 78 78 71 79 73 80 74 81 75 82 76 83 53 84 54 85 62 86 55 87
REMARK SMILES IDX 57 88 63 89 56 90 58 91 59 92 60 93 61 94
REMARK H PARENT 17 9 10 14 13 16 83 47 51 58
REMARK Flexibility Score: inf
ROOT
ATOM      1  C   UNL A   1      31.610  28.862  24.446  1.00  0.00     0.274 C 
ENDROOT
BRANCH   1   2
ATOM      2  O   UNL A   1      30.283  28.860  23.886  1.00  0.00    -0.461 OA
BRANCH   2   3
ATOM      3  C   UNL A   1      30.198  28.413  22.603  1.00  0.00     0.325 C 
ATOM      4  O   UNL A   1      29.953  29.118  21.630  1.00  0.00    -0.250 OA
BRANCH   3   5
ATOM      5  C   UNL A   1      30.703  26.982  22.469  1.00  0.00     0.238 C 
BRANCH   5   6
ATOM      6  N   UNL A   1      31.701  26.699  21.458  1.00  0.00    -0.344 N 
ATOM      7  C   UNL A   1      32.735  25.819  21.475  1.00  0.00     0.239 C 
ATOM      8  O   UNL A   1      33.276  25.561  20.394  1.00  0.00    -0.273 OA
ATOM      9  H   UNL A   1      31.616  27.225  20.630  1.00  0.00     0.164 HD
BRANCH   7  10
ATOM     10  C   UNL A   1      33.132  25.025  22.732  1.00  0.00     0.217 C 
BRANCH  10  11
ATOM     11  N   UNL A   1      34.405  24.321  22.694  1.00  0.00    -0.329 N 
ATOM     12  N   UNL A   1      34.304  22.404  24.087  1.00  0.00    -0.331 N 
ATOM     13  C   UNL A   1      34.946  23.248  23.275  1.00  0.00     0.315 C 
ATOM     14  H   UNL A   1      34.914  21.876  24.652  1.00  0.00     0.165 HD
ATOM     15  O   UNL A   1      36.146  23.055  23.067  1.00  0.00    -0.249 OA
ATOM     16  H   UNL A   1      35.036  24.752  22.074  1.00  0.00     0.165 HD
BRANCH  12  17
ATOM     17  C   UNL A   1      32.903  22.093  24.321  1.00  0.00     0.116 C 
ATOM     18  C   UNL A   1      32.668  20.599  24.124  1.00  0.00     0.036 C 
BRANCH  17  19
ATOM     19  C   UNL A   1      32.508  22.617  25.670  1.00  0.00     0.040 A 
ATOM     20  C   UNL A   1      30.483  24.166  25.017  1.00  0.00     0.071 C 
ATOM     21  C   UNL A   1      31.442  23.530  25.946  1.00  0.00     0.086 A 
ATOM     22  N   UNL A   1      31.356  23.814  27.247  1.00  0.00    -0.085 NA
ATOM     23  O   UNL A   1      32.327  23.064  27.860  1.00  0.00    -0.361 OA
ATOM     24  C   UNL A   1      33.001  22.336  26.933  1.00  0.00     0.139 A 
ATOM     25  C   UNL A   1      34.032  21.437  27.485  1.00  0.00     0.091 C 
ENDBRANCH  17  19
ENDBRANCH  12  17
ENDBRANCH  10  11
ENDBRANCH   7  10
ENDBRANCH   5   6
ENDBRANCH   3   5
ENDBRANCH   2   3
ENDBRANCH   1   2
BRANCH   1  26
ATOM     26  C   UNL A   1      31.688  29.793  25.662  1.00  0.00     0.275 C 
BRANCH  26  27
ATOM     27  O   UNL A   1      32.969  30.448  25.780  1.00  0.00    -0.458 OA
BRANCH  27  28
ATOM     28  C   UNL A   1      33.055  31.393  26.744  1.00  0.00     0.338 C 
ATOM     29  O   UNL A   1      32.282  32.319  26.934  1.00  0.00    -0.246 OA
BRANCH  28  30
ATOM     30  C   UNL A   1      34.199  31.129  27.633  1.00  0.00     0.060 A 
ATOM     31  C   UNL A   1      35.053  32.181  27.967  1.00  0.00     0.016 A 
ATOM     32  C   UNL A   1      34.515  29.823  28.003  1.00  0.00     0.016 A 
ATOM     33  C   UNL A   1      36.267  31.921  28.608  1.00  0.00     0.010 A 
ATOM     34  C   UNL A   1      35.698  29.577  28.713  1.00  0.00     0.010 A 
ATOM     35  C   UNL A   1      36.605  30.615  28.999  1.00  0.00    -0.014 A 
BRANCH  35  36
ATOM     36  C   UNL A   1      37.888  30.329  29.709  1.00  0.00     0.031 A 
ATOM     37  C   UNL A   1      38.934  29.437  29.086  1.00  0.00     0.074 A 
ATOM     38  C   UNL A   1      38.103  30.823  30.946  1.00  0.00     0.049 A 
ATOM     39  N   UNL A   1      40.021  28.939  29.618  1.00  0.00    -0.248 NA
ATOM     40  C   UNL A   1      38.722  29.041  27.684  1.00  0.00     0.031 C 
ATOM     41  C   UNL A   1      37.185  31.691  31.683  1.00  0.00     0.029 A 
ATOM     42  N   UNL A   1      39.155  30.642  31.814  1.00  0.00    -0.354 N 
ATOM     43  C   UNL A   1      40.586  28.120  28.647  1.00  0.00     0.074 A 
ATOM     44  C   UNL A   1      39.726  28.195  27.485  1.00  0.00     0.031 C 
ATOM     45  C   UNL A   1      37.709  31.967  32.886  1.00  0.00     0.029 A 
ATOM     46  C   UNL A   1      38.971  31.249  33.035  1.00  0.00     0.049 A 
ATOM     47  H   UNL A   1      39.962  30.127  31.583  1.00  0.00     0.167 HD
ATOM     48  C   UNL A   1      41.723  27.385  28.708  1.00  0.00     0.034 A 
ATOM     49  C   UNL A   1      39.710  31.212  34.162  1.00  0.00     0.034 A 
ATOM     50  C   UNL A   1      42.629  27.372  29.826  1.00  0.00     0.049 A 
ATOM     51  C   UNL A   1      40.982  30.413  34.190  1.00  0.00     0.074 A 
ATOM     52  C   UNL A   1      43.838  26.705  29.943  1.00  0.00     0.029 A 
ATOM     53  N   UNL A   1      42.440  28.062  31.011  1.00  0.00    -0.354 N 
ATOM     54  N   UNL A   1      41.538  29.712  33.234  1.00  0.00    -0.248 NA
ATOM     55  C   UNL A   1      41.739  30.414  35.452  1.00  0.00     0.031 C 
ATOM     56  C   UNL A   1      44.378  26.988  31.203  1.00  0.00     0.029 A 
ATOM     57  C   UNL A   1      43.507  27.836  31.866  1.00  0.00     0.049 A 
ATOM     58  H   UNL A   1      41.662  28.629  31.217  1.00  0.00     0.167 HD
ATOM     59  C   UNL A   1      42.718  29.207  33.768  1.00  0.00     0.074 A 
ATOM     60  C   UNL A   1      42.812  29.704  35.124  1.00  0.00     0.031 C 
ATOM     61  C   UNL A   1      43.627  28.383  33.194  1.00  0.00     0.034 A 
BRANCH  48  62
ATOM     62  C   UNL A   1      42.091  26.552  27.507  1.00  0.00     0.023 A 
ATOM     63  C   UNL A   1      42.830  27.134  26.459  1.00  0.00     0.012 A 
ATOM     64  C   UNL A   1      41.786  25.177  27.460  1.00  0.00     0.148 A 
ATOM     65  C   UNL A   1      43.243  26.365  25.372  1.00  0.00     0.002 A 
ATOM     66  C   UNL A   1      42.233  24.409  26.390  1.00  0.00     0.091 A 
ATOM     67  F   UNL A   1      41.064  24.646  28.457  1.00  0.00    -0.205 F 
ATOM     68  C   UNL A   1      42.956  25.003  25.343  1.00  0.00     0.022 A 
BRANCH  66  69
ATOM     69  S   UNL A   1      41.973  22.632  26.304  1.00  0.00     0.127 S 
ATOM     70  O   UNL A   1      42.650  22.296  25.053  1.00  0.00    -0.237 OA
ATOM     71  O   UNL A   1      42.652  22.159  27.511  1.00  0.00    -0.237 OA
ATOM     72  O   UNL A   1      40.530  22.442  26.309  1.00  0.00    -0.744 OA
ENDBRANCH  66  69
ENDBRANCH  48  62
BRANCH  49  73
ATOM     73  C   UNL A   1      39.267  31.986  35.357  1.00  0.00     0.023 A 
ATOM     74  C   UNL A   1      38.441  31.365  36.312  1.00  0.00     0.012 A 
ATOM     75  C   UNL A   1      39.692  33.311  35.573  1.00  0.00     0.148 A 
ATOM     76  C   UNL A   1      38.031  32.056  37.452  1.00  0.00     0.002 A 
ATOM     77  C   UNL A   1      39.328  33.974  36.739  1.00  0.00     0.091 A 
ATOM     78  F   UNL A   1      40.454  33.897  34.638  1.00  0.00    -0.205 F 
ATOM     79  C   UNL A   1      38.485  33.353  37.674  1.00  0.00     0.022 A 
BRANCH  77  80
ATOM     80  S   UNL A   1      39.995  35.588  37.156  1.00  0.00     0.127 S 
ATOM     81  O   UNL A   1      39.316  35.880  38.415  1.00  0.00    -0.237 OA
ATOM     82  O   UNL A   1      41.428  35.310  37.280  1.00  0.00    -0.237 OA
ATOM     83  O   UNL A   1      39.655  36.446  36.028  1.00  0.00    -0.744 OA
ENDBRANCH  77  80
ENDBRANCH  49  73
BRANCH  61  84
ATOM     84  C   UNL A   1      44.820  27.974  34.016  1.00  0.00     0.023 A 
ATOM     85  C   UNL A   1      45.973  28.784  34.012  1.00  0.00     0.012 A 
ATOM     86  C   UNL A   1      44.779  26.835  34.843  1.00  0.00     0.148 A 
ATOM     87  C   UNL A   1      47.075  28.454  34.799  1.00  0.00     0.002 A 
ATOM     88  C   UNL A   1      45.867  26.532  35.654  1.00  0.00     0.091 A 
ATOM     89  F   UNL A   1      43.682  26.063  34.817  1.00  0.00    -0.205 F 
ATOM     90  C   UNL A   1      47.018  27.337  35.628  1.00  0.00     0.022 A 
BRANCH  88  91
ATOM     91  S   UNL A   1      45.845  25.158  36.812  1.00  0.00     0.127 S 
ATOM     92  O   UNL A   1      44.668  25.467  37.621  1.00  0.00    -0.237 OA
ATOM     93  O   UNL A   1      45.690  24.002  35.927  1.00  0.00    -0.237 OA
ATOM     94  O   UNL A   1      47.122  25.209  37.511  1.00  0.00    -0.744 OA
ENDBRANCH  88  91
ENDBRANCH  61  84
ENDBRANCH  35  36
ENDBRANCH  28  30
ENDBRANCH  27  28
ENDBRANCH  26  27
ENDBRANCH   1  26
TORSDOF 19
ENDMDL
MODEL 2
REMARK VINA RESULT:     -11.0      0.975      2.049
REMARK SMILES Cc1noc(C)c1[C@H](C)NC(=O)NCC(=O)NCC(=O)OCCOC(=O)c1ccc(-c2c3nc(c(-c4cccc(S(=O)(=O)[O-])c4F)c4ccc([nH]4)c(-c4cccc(S(=O)(=O)[O-])c4F)c4nc(c(-c5cccc(S(=O)(=O)[O-])c5F)c5ccc2[nH]5)C=C4)C=C3)cc1
REMARK SMILES IDX 22 1 21 2 19 3 20 4 18 5 17 6 15 7 16 8 14 10 13 11 10 12
REMARK SMILES IDX 11 13 12 15 8 17 9 18 7 19 1 20 2 21 3 22 4 23 5 24 6 25
REMARK SMILES IDX 23 26 24 27 25 28 26 29 27 30 28 31 89 32 29 33 88 34 30 35
REMARK SMILES IDX 31 36 32 37 82 38 33 39 87 40 81 41 83 42 34 43 86 44 80 45
REMARK SMILES IDX 79 46 35 48 67 49 47 50 66 51 48 52 51 53 65 54 84 55 49 56
REMARK SMILES IDX 50 57 64 59 85 60 52 61 36 62 37 63 45 64 38 65 40 66 46 67
REMARK SMILES IDX 39 68 41 69 42 70 43 71 44 72 68 73 69 74 77 75 70 76 72 77
REMARK SMILES IDX 78 78 71 79 73 80 74 81 75 82 76 83 53 84 54 85 62 86 55 87
REMARK SMILES IDX 57 88 63 89 56 90 58 91 59 92 60 93 61 94
REMARK H PARENT 17 9 10 14 13 16 83 47 51 58
REMARK Flexibility Score: inf
ROOT
ATOM      1  C   UNL A   1      31.497  28.441  25.179  1.00  0.00     0.274 C 
ENDROOT
BRANCH   1   2
ATOM      2  O   UNL A   1      32.648  27.921  24.488  1.00  0.00    -0.461 OA
BRANCH   2   3
ATOM      3  C   UNL A   1      32.463  27.676  23.161  1.00  0.00     0.325 C 
ATOM      4  O   UNL A   1      33.351  27.686  22.317  1.00  0.00    -0.250 OA
BRANCH   3   5
ATOM      5  C   UNL A   1      31.071  27.126  22.877  1.00  0.00     0.238 C 
BRANCH   5   6
ATOM      6  N   UNL A   1      30.922  25.696  22.704  1.00  0.00    -0.344 N 
ATOM      7  C   UNL A   1      30.824  24.709  23.633  1.00  0.00     0.239 C 
ATOM      8  O   UNL A   1      30.426  23.605  23.247  1.00  0.00    -0.273 OA
ATOM      9  H   UNL A   1      30.885  25.391  21.769  1.00  0.00     0.164 HD
BRANCH   7  10
ATOM     10  C   UNL A   1      31.022  24.962  25.138  1.00  0.00     0.217 C 
BRANCH  10  11
ATOM     11  N   UNL A   1      30.204  24.178  26.052  1.00  0.00    -0.329 N 
ATOM     12  N   UNL A   1      31.529  22.499  27.077  1.00  0.00    -0.331 N 
ATOM     13  C   UNL A   1      30.368  23.120  26.849  1.00  0.00     0.315 C 
ATOM     14  H   UNL A   1      31.413  21.584  27.422  1.00  0.00     0.165 HD
ATOM     15  O   UNL A   1      29.352  22.666  27.378  1.00  0.00    -0.249 OA
ATOM     16  H   UNL A   1      29.283  24.522  26.095  1.00  0.00     0.165 HD
BRANCH  12  17
ATOM     17  C   UNL A   1      32.925  22.876  26.927  1.00  0.00     0.116 C 
ATOM     18  C   UNL A   1      33.768  22.152  27.973  1.00  0.00     0.036 C 
BRANCH  17  19
ATOM     19  C   UNL A   1      33.344  22.634  25.507  1.00  0.00     0.040 A 
ATOM     20  C   UNL A   1      34.875  24.733  25.087  1.00  0.00     0.071 C 
ATOM     21  C   UNL A   1      34.200  23.470  24.722  1.00  0.00     0.086 A 
ATOM     22  N   UNL A   1      34.369  22.987  23.489  1.00  0.00    -0.085 NA
ATOM     23  O   UNL A   1      33.671  21.807  23.448  1.00  0.00    -0.361 OA
ATOM     24  C   UNL A   1      33.077  21.581  24.649  1.00  0.00     0.139 A 
ATOM     25  C   UNL A   1      32.348  20.303  24.746  1.00  0.00     0.091 C 
ENDBRANCH  17  19
ENDBRANCH  12  17
ENDBRANCH  10  11
ENDBRANCH   7  10
ENDBRANCH   5   6
ENDBRANCH   3   5
ENDBRANCH   2   3
ENDBRANCH   1   2
BRANCH   1  26
ATOM     26  C   UNL A   1      31.602  29.962  25.347  1.00  0.00     0.275 C 
BRANCH  26  27
ATOM     27  O   UNL A   1      32.925  30.389  25.733  1.00  0.00    -0.458 OA
BRANCH  27  28
ATOM     28  C   UNL A   1      32.977  31.317  26.715  1.00  0.00     0.338 C 
ATOM     29  O   UNL A   1      32.166  32.205  26.929  1.00  0.00    -0.246 OA
BRANCH  28  30
ATOM     30  C   UNL A   1      34.136  31.085  27.592  1.00  0.00     0.060 A 
ATOM     31  C   UNL A   1      34.988  32.152  27.885  1.00  0.00     0.016 A 
ATOM     32  C   UNL A   1      34.469  29.792  27.992  1.00  0.00     0.016 A 
ATOM     33  C   UNL A   1      36.214  31.918  28.514  1.00  0.00     0.010 A 
ATOM     34  C   UNL A   1      35.665  29.573  28.689  1.00  0.00     0.010 A 
ATOM     35  C   UNL A   1      36.568  30.625  28.933  1.00  0.00    -0.014 A 
BRANCH  35  36
ATOM     36  C   UNL A   1      37.863  30.367  29.631  1.00  0.00     0.031 A 
ATOM     37  C   UNL A   1      38.910  29.473  29.010  1.00  0.00     0.074 A 
ATOM     38  C   UNL A   1      38.092  30.890  30.853  1.00  0.00     0.049 A 
ATOM     39  N   UNL A   1      40.010  28.997  29.538  1.00  0.00    -0.248 NA
ATOM     40  C   UNL A   1      38.681  29.044  27.621  1.00  0.00     0.031 C 
ATOM     41  C   UNL A   1      37.176  31.765  31.585  1.00  0.00     0.029 A 
ATOM     42  N   UNL A   1      39.158  30.738  31.709  1.00  0.00    -0.354 N 
ATOM     43  C   UNL A   1      40.569  28.163  28.575  1.00  0.00     0.074 A 
ATOM     44  C   UNL A   1      39.691  28.205  27.425  1.00  0.00     0.031 C 
ATOM     45  C   UNL A   1      37.714  32.072  32.774  1.00  0.00     0.029 A 
ATOM     46  C   UNL A   1      38.986  31.370  32.919  1.00  0.00     0.049 A 
ATOM     47  H   UNL A   1      39.967  30.227  31.477  1.00  0.00     0.167 HD
ATOM     48  C   UNL A   1      41.714  27.441  28.635  1.00  0.00     0.034 A 
ATOM     49  C   UNL A   1      39.741  31.365  34.036  1.00  0.00     0.034 A 
ATOM     50  C   UNL A   1      42.637  27.461  29.740  1.00  0.00     0.049 A 
ATOM     51  C   UNL A   1      41.022  30.580  34.062  1.00  0.00     0.074 A 
ATOM     52  C   UNL A   1      43.854  26.810  29.853  1.00  0.00     0.029 A 
ATOM     53  N   UNL A   1      42.458  28.175  30.913  1.00  0.00    -0.354 N 
ATOM     54  N   UNL A   1      41.572  29.864  33.113  1.00  0.00    -0.248 NA
ATOM     55  C   UNL A   1      41.798  30.615  35.312  1.00  0.00     0.031 C 
ATOM     56  C   UNL A   1      44.409  27.125  31.099  1.00  0.00     0.029 A 
ATOM     57  C   UNL A   1      43.540  27.979  31.757  1.00  0.00     0.049 A 
ATOM     58  H   UNL A   1      41.677  28.739  31.117  1.00  0.00     0.167 HD
ATOM     59  C   UNL A   1      42.765  29.382  33.640  1.00  0.00     0.074 A 
ATOM     60  C   UNL A   1      42.873  29.909  34.984  1.00  0.00     0.031 C 
ATOM     61  C   UNL A   1      43.674  28.555  33.070  1.00  0.00     0.034 A 
BRANCH  48  62
ATOM     62  C   UNL A   1      42.073  26.586  27.448  1.00  0.00     0.023 A 
ATOM     63  C   UNL A   1      42.759  27.162  26.361  1.00  0.00     0.012 A 
ATOM     64  C   UNL A   1      41.814  25.201  27.449  1.00  0.00     0.148 A 
ATOM     65  C   UNL A   1      43.164  26.375  25.283  1.00  0.00     0.002 A 
ATOM     66  C   UNL A   1      42.254  24.418  26.388  1.00  0.00     0.091 A 
ATOM     67  F   UNL A   1      41.142  24.676  28.484  1.00  0.00    -0.205 F 
ATOM     68  C   UNL A   1      42.923  25.004  25.301  1.00  0.00     0.022 A 
BRANCH  66  69
ATOM     69  S   UNL A   1      42.053  22.631  26.360  1.00  0.00     0.127 S 
ATOM     70  O   UNL A   1      42.720  22.279  25.108  1.00  0.00    -0.237 OA
ATOM     71  O   UNL A   1      42.768  22.218  27.568  1.00  0.00    -0.237 OA
ATOM     72  O   UNL A   1      40.617  22.393  26.397  1.00  0.00    -0.744 OA
ENDBRANCH  66  69
ENDBRANCH  48  62
BRANCH  49  73
ATOM     73  C   UNL A   1      39.308  32.160  35.220  1.00  0.00     0.023 A 
ATOM     74  C   UNL A   1      38.452  31.571  36.169  1.00  0.00     0.012 A 
ATOM     75  C   UNL A   1      39.771  33.473  35.432  1.00  0.00     0.148 A 
ATOM     76  C   UNL A   1      38.050  32.282  37.300  1.00  0.00     0.002 A 
ATOM     77  C   UNL A   1      39.413  34.154  36.590  1.00  0.00     0.091 A 
ATOM     78  F   UNL A   1      40.561  34.029  34.504  1.00  0.00    -0.205 F 
ATOM     79  C   UNL A   1      38.541  33.566  37.519  1.00  0.00     0.022 A 
BRANCH  77  80
ATOM     80  S   UNL A   1      40.124  35.751  37.005  1.00  0.00     0.127 S 
ATOM     81  O   UNL A   1      39.693  36.575  35.880  1.00  0.00    -0.237 OA
ATOM     82  O   UNL A   1      39.473  36.060  38.280  1.00  0.00    -0.237 OA
ATOM     83  O   UNL A   1      41.558  35.514  37.115  1.00  0.00    -0.744 OA
ENDBRANCH  77  80
ENDBRANCH  49  73
BRANCH  61  84
ATOM     84  C   UNL A   1      44.882  28.176  33.883  1.00  0.00     0.023 A 
ATOM     85  C   UNL A   1      46.018  29.010  33.862  1.00  0.00     0.012 A 
ATOM     86  C   UNL A   1      44.873  27.042  34.717  1.00  0.00     0.148 A 
ATOM     87  C   UNL A   1      47.135  28.708  34.640  1.00  0.00     0.002 A 
ATOM     88  C   UNL A   1      45.975  26.767  35.520  1.00  0.00     0.091 A 
ATOM     89  F   UNL A   1      43.792  26.247  34.708  1.00  0.00    -0.205 F 
ATOM     90  C   UNL A   1      47.109  27.595  35.477  1.00  0.00     0.022 A 
BRANCH  88  91
ATOM     91  S   UNL A   1      45.992  25.400  36.687  1.00  0.00     0.127 S 
ATOM     92  O   UNL A   1      47.304  25.557  37.312  1.00  0.00    -0.237 OA
ATOM     93  O   UNL A   1      44.860  25.714  37.559  1.00  0.00    -0.237 OA
ATOM     94  O   UNL A   1      45.815  24.196  35.887  1.00  0.00    -0.744 OA
ENDBRANCH  88  91
ENDBRANCH  61  84
ENDBRANCH  35  36
ENDBRANCH  28  30
ENDBRANCH  27  28
ENDBRANCH  26  27
ENDBRANCH   1  26
TORSDOF 19
ENDMDL
MODEL 3
REMARK VINA RESULT:     -10.9      4.704      9.886
REMARK SMILES Cc1noc(C)c1[C@H](C)NC(=O)NCC(=O)NCC(=O)OCCOC(=O)c1ccc(-c2c3nc(c(-c4cccc(S(=O)(=O)[O-])c4F)c4ccc([nH]4)c(-c4cccc(S(=O)(=O)[O-])c4F)c4nc(c(-c5cccc(S(=O)(=O)[O-])c5F)c5ccc2[nH]5)C=C4)C=C3)cc1
REMARK SMILES IDX 22 1 21 2 19 3 20 4 18 5 17 6 15 7 16 8 14 10 13 11 10 12
REMARK SMILES IDX 11 13 12 15 8 17 9 18 7 19 1 20 2 21 3 22 4 23 5 24 6 25
REMARK SMILES IDX 23 26 24 27 25 28 26 29 27 30 28 31 89 32 29 33 88 34 30 35
REMARK SMILES IDX 31 36 32 37 82 38 33 39 87 40 81 41 83 42 34 43 86 44 80 45
REMARK SMILES IDX 79 46 35 48 67 49 47 50 66 51 48 52 51 53 65 54 84 55 49 56
REMARK SMILES IDX 50 57 64 59 85 60 52 61 36 62 37 63 45 64 38 65 40 66 46 67
REMARK SMILES IDX 39 68 41 69 42 70 43 71 44 72 68 73 69 74 77 75 70 76 72 77
REMARK SMILES IDX 78 78 71 79 73 80 74 81 75 82 76 83 53 84 54 85 62 86 55 87
REMARK SMILES IDX 57 88 63 89 56 90 58 91 59 92 60 93 61 94
REMARK H PARENT 17 9 10 14 13 16 83 47 51 58
REMARK Flexibility Score: inf
ROOT
ATOM      1  C   UNL A   1      35.424  19.813  25.161  1.00  0.00     0.274 C 
ENDROOT
BRANCH   1   2
ATOM      2  O   UNL A   1      34.365  20.590  24.571  1.00  0.00    -0.461 OA
BRANCH   2   3
ATOM      3  C   UNL A   1      33.614  21.306  25.453  1.00  0.00     0.325 C 
ATOM      4  O   UNL A   1      33.625  21.151  26.669  1.00  0.00    -0.250 OA
BRANCH   3   5
ATOM      5  C   UNL A   1      32.951  22.504  24.787  1.00  0.00     0.238 C 
BRANCH   5   6
ATOM      6  N   UNL A   1      33.059  22.634  23.348  1.00  0.00    -0.344 N 
ATOM      7  C   UNL A   1      33.109  23.750  22.574  1.00  0.00     0.239 C 
ATOM      8  O   UNL A   1      33.480  23.610  21.404  1.00  0.00    -0.273 OA
ATOM      9  H   UNL A   1      33.102  21.784  22.854  1.00  0.00     0.164 HD
BRANCH   7  10
ATOM     10  C   UNL A   1      32.892  25.165  23.139  1.00  0.00     0.217 C 
BRANCH  10  11
ATOM     11  N   UNL A   1      33.579  26.257  22.466  1.00  0.00    -0.329 N 
ATOM     12  N   UNL A   1      32.585  28.324  23.070  1.00  0.00    -0.331 N 
ATOM     13  C   UNL A   1      33.457  27.583  22.380  1.00  0.00     0.315 C 
ATOM     14  H   UNL A   1      32.424  29.205  22.662  1.00  0.00     0.165 HD
ATOM     15  O   UNL A   1      34.187  28.152  21.566  1.00  0.00    -0.249 OA
ATOM     16  H   UNL A   1      34.337  25.929  21.931  1.00  0.00     0.165 HD
BRANCH  12  17
ATOM     17  C   UNL A   1      31.821  28.114  24.289  1.00  0.00     0.116 C 
ATOM     18  C   UNL A   1      31.949  29.337  25.192  1.00  0.00     0.036 C 
BRANCH  17  19
ATOM     19  C   UNL A   1      30.412  27.751  23.922  1.00  0.00     0.040 A 
ATOM     20  C   UNL A   1      30.066  25.597  25.394  1.00  0.00     0.071 C 
ATOM     21  C   UNL A   1      29.667  26.637  24.421  1.00  0.00     0.086 A 
ATOM     22  N   UNL A   1      28.444  26.579  23.890  1.00  0.00    -0.085 NA
ATOM     23  O   UNL A   1      28.339  27.674  23.069  1.00  0.00    -0.361 OA
ATOM     24  C   UNL A   1      29.496  28.384  23.099  1.00  0.00     0.139 A 
ATOM     25  C   UNL A   1      29.479  29.625  22.301  1.00  0.00     0.091 C 
ENDBRANCH  17  19
ENDBRANCH  12  17
ENDBRANCH  10  11
ENDBRANCH   7  10
ENDBRANCH   5   6
ENDBRANCH   3   5
ENDBRANCH   2   3
ENDBRANCH   1   2
BRANCH   1  26
ATOM     26  C   UNL A   1      36.790  20.246  24.614  1.00  0.00     0.275 C 
BRANCH  26  27
ATOM     27  O   UNL A   1      37.401  21.286  25.406  1.00  0.00    -0.458 OA
BRANCH  27  28
ATOM     28  C   UNL A   1      38.651  21.022  25.852  1.00  0.00     0.338 C 
ATOM     29  O   UNL A   1      39.269  19.977  25.727  1.00  0.00    -0.246 OA
BRANCH  28  30
ATOM     30  C   UNL A   1      39.247  22.218  26.471  1.00  0.00     0.060 A 
ATOM     31  C   UNL A   1      38.763  23.477  26.116  1.00  0.00     0.016 A 
ATOM     32  C   UNL A   1      40.381  22.103  27.274  1.00  0.00     0.016 A 
ATOM     33  C   UNL A   1      39.455  24.629  26.500  1.00  0.00     0.010 A 
ATOM     34  C   UNL A   1      41.029  23.263  27.720  1.00  0.00     0.010 A 
ATOM     35  C   UNL A   1      40.595  24.540  27.316  1.00  0.00    -0.014 A 
BRANCH  35  36
ATOM     36  C   UNL A   1      41.327  25.765  27.755  1.00  0.00     0.031 A 
ATOM     37  C   UNL A   1      40.628  26.837  28.557  1.00  0.00     0.074 A 
ATOM     38  C   UNL A   1      42.613  25.954  27.394  1.00  0.00     0.049 A 
ATOM     39  N   UNL A   1      41.045  28.037  28.876  1.00  0.00    -0.248 NA
ATOM     40  C   UNL A   1      39.277  26.525  29.050  1.00  0.00     0.031 C 
ATOM     41  C   UNL A   1      43.421  25.015  26.615  1.00  0.00     0.029 A 
ATOM     42  N   UNL A   1      43.460  27.016  27.613  1.00  0.00    -0.354 N 
ATOM     43  C   UNL A   1      39.989  28.646  29.545  1.00  0.00     0.074 A 
ATOM     44  C   UNL A   1      38.913  27.680  29.596  1.00  0.00     0.031 C 
ATOM     45  C   UNL A   1      44.640  25.537  26.421  1.00  0.00     0.029 A 
ATOM     46  C   UNL A   1      44.688  26.874  27.007  1.00  0.00     0.049 A 
ATOM     47  H   UNL A   1      43.212  27.802  28.151  1.00  0.00     0.167 HD
ATOM     48  C   UNL A   1      39.924  29.889  30.081  1.00  0.00     0.034 A 
ATOM     49  C   UNL A   1      45.726  27.727  26.900  1.00  0.00     0.034 A 
ATOM     50  C   UNL A   1      41.018  30.824  30.112  1.00  0.00     0.049 A 
ATOM     51  C   UNL A   1      45.638  29.087  27.532  1.00  0.00     0.074 A 
ATOM     52  C   UNL A   1      41.057  32.081  30.695  1.00  0.00     0.029 A 
ATOM     53  N   UNL A   1      42.266  30.608  29.552  1.00  0.00    -0.354 N 
ATOM     54  N   UNL A   1      44.660  29.612  28.229  1.00  0.00    -0.248 NA
ATOM     55  C   UNL A   1      46.805  29.970  27.376  1.00  0.00     0.031 C 
ATOM     56  C   UNL A   1      42.328  32.626  30.483  1.00  0.00     0.029 A 
ATOM     57  C   UNL A   1      43.082  31.707  29.774  1.00  0.00     0.049 A 
ATOM     58  H   UNL A   1      42.534  29.793  29.068  1.00  0.00     0.167 HD
ATOM     59  C   UNL A   1      45.101  30.874  28.613  1.00  0.00     0.074 A 
ATOM     60  C   UNL A   1      46.444  31.026  28.095  1.00  0.00     0.031 C 
ATOM     61  C   UNL A   1      44.440  31.829  29.310  1.00  0.00     0.034 A 
BRANCH  48  62
ATOM     62  C   UNL A   1      38.632  30.312  30.730  1.00  0.00     0.023 A 
ATOM     63  C   UNL A   1      38.425  30.052  32.098  1.00  0.00     0.012 A 
ATOM     64  C   UNL A   1      37.667  31.045  30.009  1.00  0.00     0.148 A 
ATOM     65  C   UNL A   1      37.267  30.497  32.736  1.00  0.00     0.002 A 
ATOM     66  C   UNL A   1      36.533  31.517  30.661  1.00  0.00     0.091 A 
ATOM     67  F   UNL A   1      37.874  31.264  28.703  1.00  0.00    -0.205 F 
ATOM     68  C   UNL A   1      36.329  31.238  32.022  1.00  0.00     0.022 A 
BRANCH  66  69
ATOM     69  S   UNL A   1      35.306  32.542  29.840  1.00  0.00     0.127 S 
ATOM     70  O   UNL A   1      36.120  33.668  29.385  1.00  0.00    -0.237 OA
ATOM     71  O   UNL A   1      34.829  31.663  28.772  1.00  0.00    -0.237 OA
ATOM     72  O   UNL A   1      34.309  32.856  30.854  1.00  0.00    -0.744 OA
ENDBRANCH  66  69
ENDBRANCH  48  62
BRANCH  49  73
ATOM     73  C   UNL A   1      46.958  27.299  26.178  1.00  0.00     0.023 A 
ATOM     74  C   UNL A   1      47.122  27.653  24.825  1.00  0.00     0.012 A 
ATOM     75  C   UNL A   1      47.981  26.584  26.831  1.00  0.00     0.148 A 
ATOM     76  C   UNL A   1      48.275  27.287  24.131  1.00  0.00     0.002 A 
ATOM     77  C   UNL A   1      49.153  26.275  26.150  1.00  0.00     0.091 A 
ATOM     78  F   UNL A   1      47.795  26.230  28.110  1.00  0.00    -0.205 F 
ATOM     79  C   UNL A   1      49.296  26.612  24.795  1.00  0.00     0.022 A 
BRANCH  77  80
ATOM     80  S   UNL A   1      50.563  25.538  26.982  1.00  0.00     0.127 S 
ATOM     81  O   UNL A   1      51.506  25.362  25.882  1.00  0.00    -0.237 OA
ATOM     82  O   UNL A   1      50.932  26.577  27.948  1.00  0.00    -0.237 OA
ATOM     83  O   UNL A   1      50.052  24.317  27.593  1.00  0.00    -0.744 OA
ENDBRANCH  77  80
ENDBRANCH  49  73
BRANCH  61  84
ATOM     84  C   UNL A   1      45.157  33.125  29.575  1.00  0.00     0.023 A 
ATOM     85  C   UNL A   1      46.022  33.222  30.683  1.00  0.00     0.012 A 
ATOM     86  C   UNL A   1      45.035  34.219  28.697  1.00  0.00     0.148 A 
ATOM     87  C   UNL A   1      46.735  34.395  30.928  1.00  0.00     0.002 A 
ATOM     88  C   UNL A   1      45.778  35.373  28.924  1.00  0.00     0.091 A 
ATOM     89  F   UNL A   1      44.191  34.118  27.659  1.00  0.00    -0.205 F 
ATOM     90  C   UNL A   1      46.622  35.465  30.043  1.00  0.00     0.022 A 
BRANCH  88  91
ATOM     91  S   UNL A   1      45.754  36.766  27.790  1.00  0.00     0.127 S 
ATOM     92  O   UNL A   1      44.535  37.462  28.196  1.00  0.00    -0.237 OA
ATOM     93  O   UNL A   1      46.995  37.467  28.123  1.00  0.00    -0.237 OA
ATOM     94  O   UNL A   1      45.734  36.187  26.453  1.00  0.00    -0.744 OA
ENDBRANCH  88  91
ENDBRANCH  61  84
ENDBRANCH  35  36
ENDBRANCH  28  30
ENDBRANCH  27  28
ENDBRANCH  26  27
ENDBRANCH   1  26
TORSDOF 19
ENDMDL
