MODEL 1
REMARK VINA RESULT:     -11.5      0.000      0.000
REMARK SMILES CC[C@H](C)[C@@H](Nc1ncnc2ccccc12)C(=O)OCCOC(=O)c1ccc(-c2c3nc(c(-c4cccc(S(=O)(=O)[O-])c4F)c4ccc([nH]4)c(-c4cccc(S(=O)(=O)[O-])c4F)c4nc(c(-c5cccc(S(=O)(=O)[O-])c5F)c5ccc2[nH]5)C=C4)C=C3)cc1
REMARK SMILES IDX 21 1 20 2 19 3 17 4 18 5 5 6 3 7 4 8 2 9 1 10 6 11 7 13 8 14
REMARK SMILES IDX 16 15 9 16 11 17 15 18 10 19 12 20 14 21 13 22 22 23 23 24
REMARK SMILES IDX 24 25 25 26 26 27 87 28 27 29 86 30 28 31 29 32 30 33 80 34
REMARK SMILES IDX 31 35 85 36 79 37 81 38 32 39 84 40 78 41 77 42 33 44 65 45
REMARK SMILES IDX 45 46 64 47 46 48 49 49 63 50 82 51 47 52 48 53 62 55 83 56
REMARK SMILES IDX 50 57 34 58 35 59 43 60 36 61 38 62 44 63 37 64 39 65 40 66
REMARK SMILES IDX 41 67 42 68 66 69 67 70 75 71 68 72 70 73 76 74 69 75 71 76
REMARK SMILES IDX 72 77 73 78 74 79 51 80 52 81 60 82 53 83 55 84 61 85 54 86
REMARK SMILES IDX 56 87 57 88 58 89 59 90
REMARK H PARENT 6 12 81 43 49 54
REMARK Flexibility Score: inf
ROOT
ATOM      1  C   UNL A   1      37.058  21.382  24.217  1.00  0.00     0.275 C 
ENDROOT
BRANCH   1   2
ATOM      2  C   UNL A   1      36.748  22.726  23.538  1.00  0.00     0.274 C 
BRANCH   2   3
ATOM      3  O   UNL A   1      35.624  23.436  24.107  1.00  0.00    -0.461 OA
BRANCH   3   4
ATOM      4  C   UNL A   1      34.468  23.261  23.417  1.00  0.00     0.328 C 
ATOM      5  O   UNL A   1      34.305  23.665  22.270  1.00  0.00    -0.250 OA
BRANCH   4   6
ATOM      6  C   UNL A   1      33.333  22.573  24.199  1.00  0.00     0.194 C 
BRANCH   6   7
ATOM      7  C   UNL A   1      33.529  21.030  24.384  1.00  0.00     0.019 C 
ATOM      8  C   UNL A   1      33.545  20.667  25.878  1.00  0.00     0.010 C 
BRANCH   7   9
ATOM      9  C   UNL A   1      32.448  20.221  23.624  1.00  0.00     0.002 C 
ATOM     10  C   UNL A   1      32.412  18.719  23.864  1.00  0.00     0.004 C 
ENDBRANCH   7   9
ENDBRANCH   6   7
BRANCH   6  11
ATOM     11  N   UNL A   1      33.039  23.215  25.503  1.00  0.00    -0.356 N 
ATOM     12  H   UNL A   1      33.503  22.862  26.296  1.00  0.00     0.163 HD
BRANCH  11  13
ATOM     13  C   UNL A   1      32.168  24.266  25.693  1.00  0.00     0.137 A 
ATOM     14  N   UNL A   1      30.897  23.836  25.752  1.00  0.00    -0.219 NA
ATOM     15  C   UNL A   1      32.509  25.619  25.879  1.00  0.00     0.043 A 
ATOM     16  C   UNL A   1      29.979  24.734  26.119  1.00  0.00     0.224 A 
ATOM     17  C   UNL A   1      31.469  26.430  26.355  1.00  0.00     0.076 A 
ATOM     18  C   UNL A   1      33.780  26.210  25.652  1.00  0.00     0.014 A 
ATOM     19  N   UNL A   1      30.208  25.999  26.475  1.00  0.00    -0.236 NA
ATOM     20  C   UNL A   1      31.756  27.735  26.740  1.00  0.00     0.029 A 
ATOM     21  C   UNL A   1      34.045  27.522  26.042  1.00  0.00     0.001 A 
ATOM     22  C   UNL A   1      33.036  28.278  26.616  1.00  0.00     0.002 A 
ENDBRANCH  11  13
ENDBRANCH   6  11
ENDBRANCH   4   6
ENDBRANCH   3   4
ENDBRANCH   2   3
ENDBRANCH   1   2
BRANCH   1  23
ATOM     23  O   UNL A   1      37.383  21.528  25.616  1.00  0.00    -0.458 OA
BRANCH  23  24
ATOM     24  C   UNL A   1      38.677  21.315  25.949  1.00  0.00     0.338 C 
ATOM     25  O   UNL A   1      39.347  20.330  25.687  1.00  0.00    -0.246 OA
BRANCH  24  26
ATOM     26  C   UNL A   1      39.256  22.500  26.610  1.00  0.00     0.060 A 
ATOM     27  C   UNL A   1      38.787  23.766  26.250  1.00  0.00     0.016 A 
ATOM     28  C   UNL A   1      40.371  22.382  27.439  1.00  0.00     0.016 A 
ATOM     29  C   UNL A   1      39.437  24.918  26.673  1.00  0.00     0.010 A 
ATOM     30  C   UNL A   1      41.016  23.543  27.886  1.00  0.00     0.010 A 
ATOM     31  C   UNL A   1      40.569  24.815  27.481  1.00  0.00    -0.014 A 
BRANCH  31  32
ATOM     32  C   UNL A   1      41.326  26.039  27.829  1.00  0.00     0.031 A 
ATOM     33  C   UNL A   1      40.656  27.118  28.630  1.00  0.00     0.074 A 
ATOM     34  C   UNL A   1      42.611  26.168  27.452  1.00  0.00     0.049 A 
ATOM     35  N   UNL A   1      41.095  28.310  28.937  1.00  0.00    -0.248 NA
ATOM     36  C   UNL A   1      39.316  26.813  29.158  1.00  0.00     0.031 C 
ATOM     37  C   UNL A   1      43.381  25.162  26.722  1.00  0.00     0.029 A 
ATOM     38  N   UNL A   1      43.487  27.211  27.614  1.00  0.00    -0.354 N 
ATOM     39  C   UNL A   1      40.071  28.917  29.651  1.00  0.00     0.074 A 
ATOM     40  C   UNL A   1      38.991  27.958  29.744  1.00  0.00     0.031 C 
ATOM     41  C   UNL A   1      44.608  25.647  26.473  1.00  0.00     0.029 A 
ATOM     42  C   UNL A   1      44.693  27.012  26.984  1.00  0.00     0.049 A 
ATOM     43  H   UNL A   1      43.274  28.022  28.131  1.00  0.00     0.167 HD
ATOM     44  C   UNL A   1      40.037  30.159  30.186  1.00  0.00     0.034 A 
ATOM     45  C   UNL A   1      45.731  27.852  26.804  1.00  0.00     0.034 A 
ATOM     46  C   UNL A   1      41.129  31.093  30.125  1.00  0.00     0.049 A 
ATOM     47  C   UNL A   1      45.657  29.240  27.383  1.00  0.00     0.074 A 
ATOM     48  C   UNL A   1      41.196  32.374  30.644  1.00  0.00     0.029 A 
ATOM     49  N   UNL A   1      42.347  30.844  29.511  1.00  0.00    -0.354 N 
ATOM     50  N   UNL A   1      44.702  29.785  28.099  1.00  0.00    -0.248 NA
ATOM     51  C   UNL A   1      46.807  30.122  27.143  1.00  0.00     0.031 C 
ATOM     52  C   UNL A   1      42.456  32.901  30.339  1.00  0.00     0.029 A 
ATOM     53  C   UNL A   1      43.174  31.947  29.636  1.00  0.00     0.049 A 
ATOM     54  H   UNL A   1      42.587  30.006  29.053  1.00  0.00     0.167 HD
ATOM     55  C   UNL A   1      45.143  31.064  28.413  1.00  0.00     0.074 A 
ATOM     56  C   UNL A   1      46.464  31.204  27.831  1.00  0.00     0.031 C 
ATOM     57  C   UNL A   1      44.506  32.044  29.100  1.00  0.00     0.034 A 
BRANCH  44  58
ATOM     58  C   UNL A   1      38.785  30.571  30.907  1.00  0.00     0.023 A 
ATOM     59  C   UNL A   1      38.668  30.328  32.290  1.00  0.00     0.012 A 
ATOM     60  C   UNL A   1      37.744  31.236  30.229  1.00  0.00     0.148 A 
ATOM     61  C   UNL A   1      37.524  30.721  32.984  1.00  0.00     0.002 A 
ATOM     62  C   UNL A   1      36.621  31.654  30.935  1.00  0.00     0.091 A 
ATOM     63  F   UNL A   1      37.862  31.429  28.908  1.00  0.00    -0.205 F 
ATOM     64  C   UNL A   1      36.507  31.393  32.310  1.00  0.00     0.022 A 
BRANCH  62  65
ATOM     65  S   UNL A   1      35.291  32.577  30.159  1.00  0.00     0.127 S 
ATOM     66  O   UNL A   1      35.986  33.784  29.717  1.00  0.00    -0.237 OA
ATOM     67  O   UNL A   1      34.877  31.681  29.077  1.00  0.00    -0.237 OA
ATOM     68  O   UNL A   1      34.285  32.771  31.195  1.00  0.00    -0.744 OA
ENDBRANCH  62  65
ENDBRANCH  44  58
BRANCH  45  69
ATOM     69  C   UNL A   1      46.932  27.394  26.050  1.00  0.00     0.023 A 
ATOM     70  C   UNL A   1      47.049  27.698  24.682  1.00  0.00     0.012 A 
ATOM     71  C   UNL A   1      47.975  26.697  26.691  1.00  0.00     0.148 A 
ATOM     72  C   UNL A   1      48.175  27.302  23.959  1.00  0.00     0.002 A 
ATOM     73  C   UNL A   1      49.119  26.354  25.979  1.00  0.00     0.091 A 
ATOM     74  F   UNL A   1      47.835  26.389  27.988  1.00  0.00    -0.205 F 
ATOM     75  C   UNL A   1      49.215  26.642  24.610  1.00  0.00     0.022 A 
BRANCH  73  76
ATOM     76  S   UNL A   1      50.554  25.632  26.785  1.00  0.00     0.127 S 
ATOM     77  O   UNL A   1      51.446  25.395  25.655  1.00  0.00    -0.237 OA
ATOM     78  O   UNL A   1      50.974  26.705  27.688  1.00  0.00    -0.237 OA
ATOM     79  O   UNL A   1      50.052  24.446  27.467  1.00  0.00    -0.744 OA
ENDBRANCH  73  76
ENDBRANCH  45  69
BRANCH  57  80
ATOM     80  C   UNL A   1      45.231  33.352  29.277  1.00  0.00     0.023 A 
ATOM     81  C   UNL A   1      46.065  33.531  30.397  1.00  0.00     0.012 A 
ATOM     82  C   UNL A   1      45.152  34.362  28.300  1.00  0.00     0.148 A 
ATOM     83  C   UNL A   1      46.794  34.709  30.555  1.00  0.00     0.002 A 
ATOM     84  C   UNL A   1      45.911  35.518  28.444  1.00  0.00     0.091 A 
ATOM     85  F   UNL A   1      44.333  34.180  27.253  1.00  0.00    -0.205 F 
ATOM     86  C   UNL A   1      46.727  35.696  29.573  1.00  0.00     0.022 A 
BRANCH  84  87
ATOM     87  S   UNL A   1      45.945  36.796  27.183  1.00  0.00     0.127 S 
ATOM     88  O   UNL A   1      44.536  37.179  27.106  1.00  0.00    -0.237 OA
ATOM     89  O   UNL A   1      46.819  37.808  27.779  1.00  0.00    -0.237 OA
ATOM     90  O   UNL A   1      46.493  36.159  25.992  1.00  0.00    -0.744 OA
ENDBRANCH  84  87
ENDBRANCH  57  80
ENDBRANCH  31  32
ENDBRANCH  24  26
ENDBRANCH  23  24
ENDBRANCH   1  23
TORSDOF 18
ENDMDL
MODEL 2
REMARK VINA RESULT:     -11.2      4.912      9.981
REMARK SMILES CC[C@H](C)[C@@H](Nc1ncnc2ccccc12)C(=O)OCCOC(=O)c1ccc(-c2c3nc(c(-c4cccc(S(=O)(=O)[O-])c4F)c4ccc([nH]4)c(-c4cccc(S(=O)(=O)[O-])c4F)c4nc(c(-c5cccc(S(=O)(=O)[O-])c5F)c5ccc2[nH]5)C=C4)C=C3)cc1
REMARK SMILES IDX 21 1 20 2 19 3 17 4 18 5 5 6 3 7 4 8 2 9 1 10 6 11 7 13 8 14
REMARK SMILES IDX 16 15 9 16 11 17 15 18 10 19 12 20 14 21 13 22 22 23 23 24
REMARK SMILES IDX 24 25 25 26 26 27 87 28 27 29 86 30 28 31 29 32 30 33 80 34
REMARK SMILES IDX 31 35 85 36 79 37 81 38 32 39 84 40 78 41 77 42 33 44 65 45
REMARK SMILES IDX 45 46 64 47 46 48 49 49 63 50 82 51 47 52 48 53 62 55 83 56
REMARK SMILES IDX 50 57 34 58 35 59 43 60 36 61 38 62 44 63 37 64 39 65 40 66
REMARK SMILES IDX 41 67 42 68 66 69 67 70 75 71 68 72 70 73 76 74 69 75 71 76
REMARK SMILES IDX 72 77 73 78 74 79 51 80 52 81 60 82 53 83 55 84 61 85 54 86
REMARK SMILES IDX 56 87 57 88 58 89 59 90
REMARK H PARENT 6 12 81 43 49 54
REMARK Flexibility Score: inf
ROOT
ATOM      1  C   UNL A   1      31.517  30.361  25.700  1.00  0.00     0.275 C 
ENDROOT
BRANCH   1   2
ATOM      2  C   UNL A   1      31.579  29.084  24.846  1.00  0.00     0.274 C 
BRANCH   2   3
ATOM      3  O   UNL A   1      32.903  28.518  24.717  1.00  0.00    -0.461 OA
BRANCH   3   4
ATOM      4  C   UNL A   1      33.010  27.268  25.236  1.00  0.00     0.328 C 
ATOM      5  O   UNL A   1      33.275  27.051  26.414  1.00  0.00    -0.250 OA
BRANCH   4   6
ATOM      6  C   UNL A   1      32.842  26.119  24.222  1.00  0.00     0.194 C 
BRANCH   6   7
ATOM      7  C   UNL A   1      32.143  26.543  22.887  1.00  0.00     0.019 C 
ATOM      8  C   UNL A   1      32.978  26.091  21.677  1.00  0.00     0.010 C 
BRANCH   7   9
ATOM      9  C   UNL A   1      30.695  25.998  22.802  1.00  0.00     0.002 C 
ATOM     10  C   UNL A   1      30.277  24.980  23.853  1.00  0.00     0.004 C 
ENDBRANCH   7   9
ENDBRANCH   6   7
BRANCH   6  11
ATOM     11  N   UNL A   1      34.102  25.393  23.937  1.00  0.00    -0.356 N 
ATOM     12  H   UNL A   1      34.763  25.842  23.361  1.00  0.00     0.163 HD
BRANCH  11  13
ATOM     13  C   UNL A   1      34.424  24.139  24.412  1.00  0.00     0.137 A 
ATOM     14  N   UNL A   1      35.365  24.211  25.368  1.00  0.00    -0.219 NA
ATOM     15  C   UNL A   1      33.830  22.920  24.038  1.00  0.00     0.043 A 
ATOM     16  C   UNL A   1      35.624  23.085  26.036  1.00  0.00     0.224 A 
ATOM     17  C   UNL A   1      34.118  21.839  24.883  1.00  0.00     0.076 A 
ATOM     18  C   UNL A   1      32.976  22.701  22.925  1.00  0.00     0.014 A 
ATOM     19  N   UNL A   1      35.010  21.911  25.877  1.00  0.00    -0.236 NA
ATOM     20  C   UNL A   1      33.436  20.641  24.700  1.00  0.00     0.029 A 
ATOM     21  C   UNL A   1      32.305  21.490  22.758  1.00  0.00     0.001 A 
ATOM     22  C   UNL A   1      32.513  20.466  23.667  1.00  0.00     0.002 A 
ENDBRANCH  11  13
ENDBRANCH   6  11
ENDBRANCH   4   6
ENDBRANCH   3   4
ENDBRANCH   2   3
ENDBRANCH   1   2
BRANCH   1  23
ATOM     23  O   UNL A   1      32.368  30.294  26.864  1.00  0.00    -0.458 OA
BRANCH  23  24
ATOM     24  C   UNL A   1      33.021  31.435  27.187  1.00  0.00     0.338 C 
ATOM     25  O   UNL A   1      32.558  32.563  27.201  1.00  0.00    -0.246 OA
BRANCH  24  26
ATOM     26  C   UNL A   1      34.395  31.148  27.641  1.00  0.00     0.060 A 
ATOM     27  C   UNL A   1      34.751  29.824  27.911  1.00  0.00     0.016 A 
ATOM     28  C   UNL A   1      35.269  32.183  27.971  1.00  0.00     0.016 A 
ATOM     29  C   UNL A   1      35.949  29.519  28.543  1.00  0.00     0.010 A 
ATOM     30  C   UNL A   1      36.489  31.877  28.587  1.00  0.00     0.010 A 
ATOM     31  C   UNL A   1      36.822  30.546  28.902  1.00  0.00    -0.014 A 
BRANCH  31  32
ATOM     32  C   UNL A   1      38.039  30.224  29.680  1.00  0.00     0.031 A 
ATOM     33  C   UNL A   1      39.065  29.297  29.095  1.00  0.00     0.074 A 
ATOM     34  C   UNL A   1      38.235  30.781  30.889  1.00  0.00     0.049 A 
ATOM     35  N   UNL A   1      40.135  28.794  29.653  1.00  0.00    -0.248 NA
ATOM     36  C   UNL A   1      38.862  28.884  27.697  1.00  0.00     0.031 C 
ATOM     37  C   UNL A   1      37.335  31.739  31.532  1.00  0.00     0.029 A 
ATOM     38  N   UNL A   1      39.244  30.603  31.801  1.00  0.00    -0.354 N 
ATOM     39  C   UNL A   1      40.707  27.968  28.695  1.00  0.00     0.074 A 
ATOM     40  C   UNL A   1      39.874  28.047  27.513  1.00  0.00     0.031 C 
ATOM     41  C   UNL A   1      37.818  32.044  32.747  1.00  0.00     0.029 A 
ATOM     42  C   UNL A   1      39.032  31.268  32.985  1.00  0.00     0.049 A 
ATOM     43  H   UNL A   1      40.042  30.053  31.625  1.00  0.00     0.167 HD
ATOM     44  C   UNL A   1      41.830  27.219  28.789  1.00  0.00     0.034 A 
ATOM     45  C   UNL A   1      39.718  31.223  34.145  1.00  0.00     0.034 A 
ATOM     46  C   UNL A   1      42.676  27.176  29.951  1.00  0.00     0.049 A 
ATOM     47  C   UNL A   1      40.945  30.357  34.234  1.00  0.00     0.074 A 
ATOM     48  C   UNL A   1      43.840  26.454  30.142  1.00  0.00     0.029 A 
ATOM     49  N   UNL A   1      42.450  27.891  31.117  1.00  0.00    -0.354 N 
ATOM     50  N   UNL A   1      41.504  29.619  33.304  1.00  0.00    -0.248 NA
ATOM     51  C   UNL A   1      41.647  30.329  35.525  1.00  0.00     0.031 C 
ATOM     52  C   UNL A   1      44.316  26.730  31.429  1.00  0.00     0.029 A 
ATOM     53  C   UNL A   1      43.452  27.627  32.035  1.00  0.00     0.049 A 
ATOM     54  H   UNL A   1      41.688  28.496  31.270  1.00  0.00     0.167 HD
ATOM     55  C   UNL A   1      42.631  29.056  33.889  1.00  0.00     0.074 A 
ATOM     56  C   UNL A   1      42.691  29.559  35.248  1.00  0.00     0.031 C 
ATOM     57  C   UNL A   1      43.524  28.183  33.361  1.00  0.00     0.034 A 
BRANCH  44  58
ATOM     58  C   UNL A   1      42.221  26.400  27.590  1.00  0.00     0.023 A 
ATOM     59  C   UNL A   1      42.965  26.997  26.554  1.00  0.00     0.012 A 
ATOM     60  C   UNL A   1      41.891  25.033  27.509  1.00  0.00     0.148 A 
ATOM     61  C   UNL A   1      43.357  26.252  25.443  1.00  0.00     0.002 A 
ATOM     62  C   UNL A   1      42.315  24.288  26.414  1.00  0.00     0.091 A 
ATOM     63  F   UNL A   1      41.156  24.491  28.491  1.00  0.00    -0.205 F 
ATOM     64  C   UNL A   1      43.043  24.896  25.378  1.00  0.00     0.022 A 
BRANCH  62  65
ATOM     65  S   UNL A   1      42.005  22.525  26.276  1.00  0.00     0.127 S 
ATOM     66  O   UNL A   1      42.650  22.209  25.004  1.00  0.00    -0.237 OA
ATOM     67  O   UNL A   1      42.691  21.993  27.455  1.00  0.00    -0.237 OA
ATOM     68  O   UNL A   1      40.556  22.374  26.305  1.00  0.00    -0.744 OA
ENDBRANCH  62  65
ENDBRANCH  44  58
BRANCH  45  69
ATOM     69  C   UNL A   1      39.258  32.033  35.307  1.00  0.00     0.023 A 
ATOM     70  C   UNL A   1      38.381  31.462  36.246  1.00  0.00     0.012 A 
ATOM     71  C   UNL A   1      39.720  33.349  35.509  1.00  0.00     0.148 A 
ATOM     72  C   UNL A   1      37.955  32.193  37.358  1.00  0.00     0.002 A 
ATOM     73  C   UNL A   1      39.338  34.051  36.648  1.00  0.00     0.091 A 
ATOM     74  F   UNL A   1      40.533  33.888  34.591  1.00  0.00    -0.205 F 
ATOM     75  C   UNL A   1      38.444  33.481  37.565  1.00  0.00     0.022 A 
BRANCH  73  76
ATOM     76  S   UNL A   1      40.039  35.656  37.049  1.00  0.00     0.127 S 
ATOM     77  O   UNL A   1      39.654  36.451  35.888  1.00  0.00    -0.237 OA
ATOM     78  O   UNL A   1      39.341  35.997  38.290  1.00  0.00    -0.237 OA
ATOM     79  O   UNL A   1      41.467  35.417  37.219  1.00  0.00    -0.744 OA
ENDBRANCH  73  76
ENDBRANCH  45  69
BRANCH  57  80
ATOM     80  C   UNL A   1      44.654  27.726  34.243  1.00  0.00     0.023 A 
ATOM     81  C   UNL A   1      45.842  28.481  34.290  1.00  0.00     0.012 A 
ATOM     82  C   UNL A   1      44.510  26.605  35.083  1.00  0.00     0.148 A 
ATOM     83  C   UNL A   1      46.881  28.113  35.144  1.00  0.00     0.002 A 
ATOM     84  C   UNL A   1      45.535  26.266  35.960  1.00  0.00     0.091 A 
ATOM     85  F   UNL A   1      43.380  25.886  35.005  1.00  0.00    -0.205 F 
ATOM     86  C   UNL A   1      46.723  27.015  35.986  1.00  0.00     0.022 A 
BRANCH  84  87
ATOM     87  S   UNL A   1      45.373  24.919  37.136  1.00  0.00     0.127 S 
ATOM     88  O   UNL A   1      46.527  25.140  38.005  1.00  0.00    -0.237 OA
ATOM     89  O   UNL A   1      44.079  25.197  37.761  1.00  0.00    -0.237 OA
ATOM     90  O   UNL A   1      45.404  23.698  36.342  1.00  0.00    -0.744 OA
ENDBRANCH  84  87
ENDBRANCH  57  80
ENDBRANCH  31  32
ENDBRANCH  24  26
ENDBRANCH  23  24
ENDBRANCH   1  23
TORSDOF 18
ENDMDL
MODEL 3
REMARK VINA RESULT:     -11.1      5.321     10.110
REMARK SMILES CC[C@H](C)[C@@H](Nc1ncnc2ccccc12)C(=O)OCCOC(=O)c1ccc(-c2c3nc(c(-c4cccc(S(=O)(=O)[O-])c4F)c4ccc([nH]4)c(-c4cccc(S(=O)(=O)[O-])c4F)c4nc(c(-c5cccc(S(=O)(=O)[O-])c5F)c5ccc2[nH]5)C=C4)C=C3)cc1
REMARK SMILES IDX 21 1 20 2 19 3 17 4 18 5 5 6 3 7 4 8 2 9 1 10 6 11 7 13 8 14
REMARK SMILES IDX 16 15 9 16 11 17 15 18 10 19 12 20 14 21 13 22 22 23 23 24
REMARK SMILES IDX 24 25 25 26 26 27 87 28 27 29 86 30 28 31 29 32 30 33 80 34
REMARK SMILES IDX 31 35 85 36 79 37 81 38 32 39 84 40 78 41 77 42 33 44 65 45
REMARK SMILES IDX 45 46 64 47 46 48 49 49 63 50 82 51 47 52 48 53 62 55 83 56
REMARK SMILES IDX 50 57 34 58 35 59 43 60 36 61 38 62 44 63 37 64 39 65 40 66
REMARK SMILES IDX 41 67 42 68 66 69 67 70 75 71 68 72 70 73 76 74 69 75 71 76
REMARK SMILES IDX 72 77 73 78 74 79 51 80 52 81 60 82 53 83 55 84 61 85 54 86
REMARK SMILES IDX 56 87 57 88 58 89 59 90
REMARK H PARENT 6 12 81 43 49 54
REMARK Flexibility Score: inf
ROOT
ATOM      1  C   UNL A   1      31.569  30.438  25.655  1.00  0.00     0.275 C 
ENDROOT
BRANCH   1   2
ATOM      2  C   UNL A   1      31.402  29.063  24.988  1.00  0.00     0.274 C 
BRANCH   2   3
ATOM      3  O   UNL A   1      32.118  27.992  25.645  1.00  0.00    -0.461 OA
BRANCH   3   4
ATOM      4  C   UNL A   1      31.457  26.806  25.624  1.00  0.00     0.328 C 
ATOM      5  O   UNL A   1      30.797  26.390  26.570  1.00  0.00    -0.250 OA
BRANCH   4   6
ATOM      6  C   UNL A   1      31.645  25.972  24.341  1.00  0.00     0.194 C 
BRANCH   6   7
ATOM      7  C   UNL A   1      33.142  25.740  23.945  1.00  0.00     0.019 C 
ATOM      8  C   UNL A   1      33.553  26.702  22.817  1.00  0.00     0.010 C 
BRANCH   7   9
ATOM      9  C   UNL A   1      34.084  25.876  25.167  1.00  0.00     0.002 C 
ATOM     10  C   UNL A   1      35.122  24.780  25.366  1.00  0.00     0.004 C 
ENDBRANCH   7   9
ENDBRANCH   6   7
BRANCH   6  11
ATOM     11  N   UNL A   1      30.911  24.684  24.361  1.00  0.00    -0.356 N 
ATOM     12  H   UNL A   1      29.928  24.725  24.408  1.00  0.00     0.163 HD
BRANCH  11  13
ATOM     13  C   UNL A   1      31.493  23.436  24.319  1.00  0.00     0.137 A 
ATOM     14  N   UNL A   1      31.437  22.917  23.081  1.00  0.00    -0.219 NA
ATOM     15  C   UNL A   1      32.139  22.772  25.378  1.00  0.00     0.043 A 
ATOM     16  C   UNL A   1      32.132  21.797  22.870  1.00  0.00     0.224 A 
ATOM     17  C   UNL A   1      32.908  21.663  24.999  1.00  0.00     0.076 A 
ATOM     18  C   UNL A   1      32.096  23.130  26.752  1.00  0.00     0.014 A 
ATOM     19  N   UNL A   1      32.909  21.170  23.756  1.00  0.00    -0.236 NA
ATOM     20  C   UNL A   1      33.725  21.055  25.946  1.00  0.00     0.029 A 
ATOM     21  C   UNL A   1      32.921  22.504  27.686  1.00  0.00     0.001 A 
ATOM     22  C   UNL A   1      33.761  21.481  27.274  1.00  0.00     0.002 A 
ENDBRANCH  11  13
ENDBRANCH   6  11
ENDBRANCH   4   6
ENDBRANCH   3   4
ENDBRANCH   2   3
ENDBRANCH   1   2
BRANCH   1  23
ATOM     23  O   UNL A   1      32.343  30.377  26.871  1.00  0.00    -0.458 OA
BRANCH  23  24
ATOM     24  C   UNL A   1      32.989  31.514  27.220  1.00  0.00     0.338 C 
ATOM     25  O   UNL A   1      32.524  32.641  27.244  1.00  0.00    -0.246 OA
BRANCH  24  26
ATOM     26  C   UNL A   1      34.357  31.224  27.691  1.00  0.00     0.060 A 
ATOM     27  C   UNL A   1      34.695  29.902  27.998  1.00  0.00     0.016 A 
ATOM     28  C   UNL A   1      35.241  32.257  28.000  1.00  0.00     0.016 A 
ATOM     29  C   UNL A   1      35.885  29.600  28.646  1.00  0.00     0.010 A 
ATOM     30  C   UNL A   1      36.453  31.952  28.634  1.00  0.00     0.010 A 
ATOM     31  C   UNL A   1      36.768  30.626  28.985  1.00  0.00    -0.014 A 
BRANCH  31  32
ATOM     32  C   UNL A   1      37.976  30.310  29.780  1.00  0.00     0.031 A 
ATOM     33  C   UNL A   1      39.026  29.408  29.199  1.00  0.00     0.074 A 
ATOM     34  C   UNL A   1      38.141  30.851  31.000  1.00  0.00     0.049 A 
ATOM     35  N   UNL A   1      40.094  28.912  29.769  1.00  0.00    -0.248 NA
ATOM     36  C   UNL A   1      38.854  29.014  27.792  1.00  0.00     0.031 C 
ATOM     37  C   UNL A   1      37.217  31.786  31.642  1.00  0.00     0.029 A 
ATOM     38  N   UNL A   1      39.137  30.674  31.927  1.00  0.00    -0.354 N 
ATOM     39  C   UNL A   1      40.694  28.110  28.808  1.00  0.00     0.074 A 
ATOM     40  C   UNL A   1      39.881  28.194  27.613  1.00  0.00     0.031 C 
ATOM     41  C   UNL A   1      37.673  32.079  32.870  1.00  0.00     0.029 A 
ATOM     42  C   UNL A   1      38.894  31.318  33.118  1.00  0.00     0.049 A 
ATOM     43  H   UNL A   1      39.946  30.139  31.757  1.00  0.00     0.167 HD
ATOM     44  C   UNL A   1      41.827  27.376  28.911  1.00  0.00     0.034 A 
ATOM     45  C   UNL A   1      39.560  31.265  34.288  1.00  0.00     0.034 A 
ATOM     46  C   UNL A   1      42.652  27.328  30.087  1.00  0.00     0.049 A 
ATOM     47  C   UNL A   1      40.799  30.416  34.387  1.00  0.00     0.074 A 
ATOM     48  C   UNL A   1      43.824  26.621  30.288  1.00  0.00     0.029 A 
ATOM     49  N   UNL A   1      42.395  28.021  31.260  1.00  0.00    -0.354 N 
ATOM     50  N   UNL A   1      41.385  29.701  33.456  1.00  0.00    -0.248 NA
ATOM     51  C   UNL A   1      41.477  30.379  35.690  1.00  0.00     0.031 C 
ATOM     52  C   UNL A   1      44.273  26.883  31.587  1.00  0.00     0.029 A 
ATOM     53  C   UNL A   1      43.384  27.758  32.191  1.00  0.00     0.049 A 
ATOM     54  H   UNL A   1      41.622  28.612  31.408  1.00  0.00     0.167 HD
ATOM     55  C   UNL A   1      42.510  29.146  34.052  1.00  0.00     0.074 A 
ATOM     56  C   UNL A   1      42.538  29.629  35.419  1.00  0.00     0.031 C 
ATOM     57  C   UNL A   1      43.425  28.295  33.527  1.00  0.00     0.034 A 
BRANCH  44  58
ATOM     58  C   UNL A   1      42.251  26.582  27.707  1.00  0.00     0.023 A 
ATOM     59  C   UNL A   1      43.001  27.207  26.692  1.00  0.00     0.012 A 
ATOM     60  C   UNL A   1      41.948  25.211  27.602  1.00  0.00     0.148 A 
ATOM     61  C   UNL A   1      43.424  26.485  25.577  1.00  0.00     0.002 A 
ATOM     62  C   UNL A   1      42.402  24.489  26.503  1.00  0.00     0.091 A 
ATOM     63  F   UNL A   1      41.207  24.642  28.564  1.00  0.00    -0.205 F 
ATOM     64  C   UNL A   1      43.135  25.125  25.488  1.00  0.00     0.022 A 
BRANCH  62  65
ATOM     65  S   UNL A   1      42.126  22.722  26.335  1.00  0.00     0.127 S 
ATOM     66  O   UNL A   1      42.867  22.197  27.480  1.00  0.00    -0.237 OA
ATOM     67  O   UNL A   1      40.670  22.620  26.453  1.00  0.00    -0.237 OA
ATOM     68  O   UNL A   1      42.649  22.362  25.024  1.00  0.00    -0.744 OA
ENDBRANCH  62  65
ENDBRANCH  44  58
BRANCH  45  69
ATOM     69  C   UNL A   1      39.068  32.050  35.455  1.00  0.00     0.023 A 
ATOM     70  C   UNL A   1      39.202  33.451  35.453  1.00  0.00     0.012 A 
ATOM     71  C   UNL A   1      38.431  31.422  36.543  1.00  0.00     0.148 A 
ATOM     72  C   UNL A   1      38.727  34.211  36.523  1.00  0.00     0.002 A 
ATOM     73  C   UNL A   1      37.910  32.190  37.579  1.00  0.00     0.091 A 
ATOM     74  F   UNL A   1      38.337  30.085  36.542  1.00  0.00    -0.205 F 
ATOM     75  C   UNL A   1      38.069  33.582  37.579  1.00  0.00     0.022 A 
BRANCH  73  76
ATOM     76  S   UNL A   1      36.929  31.459  38.896  1.00  0.00     0.127 S 
ATOM     77  O   UNL A   1      35.760  32.332  38.919  1.00  0.00    -0.237 OA
ATOM     78  O   UNL A   1      36.681  30.109  38.385  1.00  0.00    -0.237 OA
ATOM     79  O   UNL A   1      37.783  31.499  40.076  1.00  0.00    -0.744 OA
ENDBRANCH  73  76
ENDBRANCH  45  69
BRANCH  57  80
ATOM     80  C   UNL A   1      44.546  27.841  34.422  1.00  0.00     0.023 A 
ATOM     81  C   UNL A   1      45.705  28.633  34.532  1.00  0.00     0.012 A 
ATOM     82  C   UNL A   1      44.418  26.683  35.213  1.00  0.00     0.148 A 
ATOM     83  C   UNL A   1      46.733  28.266  35.400  1.00  0.00     0.002 A 
ATOM     84  C   UNL A   1      45.430  26.344  36.104  1.00  0.00     0.091 A 
ATOM     85  F   UNL A   1      43.316  25.930  35.076  1.00  0.00    -0.205 F 
ATOM     86  C   UNL A   1      46.591  27.130  36.194  1.00  0.00     0.022 A 
BRANCH  84  87
ATOM     87  S   UNL A   1      45.283  24.946  37.222  1.00  0.00     0.127 S 
ATOM     88  O   UNL A   1      44.146  25.343  38.050  1.00  0.00    -0.237 OA
ATOM     89  O   UNL A   1      45.013  23.835  36.308  1.00  0.00    -0.237 OA
ATOM     90  O   UNL A   1      46.565  24.856  37.911  1.00  0.00    -0.744 OA
ENDBRANCH  84  87
ENDBRANCH  57  80
ENDBRANCH  31  32
ENDBRANCH  24  26
ENDBRANCH  23  24
ENDBRANCH   1  23
TORSDOF 18
ENDMDL
