MODEL 1
REMARK VINA RESULT:     -11.9      0.000      0.000
REMARK SMILES C[C@@H](C(=O)OCCOC(=O)c1ccc(-c2c3nc(c(-c4cccc(S(=O)(=O)[O-])c4F)c4ccc([nH]4)c(-c4cccc(S(=O)(=O)[O-])c4F)c4nc(c(-c5cccc(S(=O)(=O)[O-])c5F)c5ccc2[nH]5)C=C4)C=C3)cc1)c1ccc(C[C@H]2CCC[C@@H]2O)cc1Br
REMARK SMILES IDX 6 1 5 2 3 3 4 4 2 5 1 6 74 7 75 8 86 9 76 10 85 11 87 12
REMARK SMILES IDX 77 13 78 14 79 15 80 16 83 17 81 18 82 19 84 20 7 22 8 23
REMARK SMILES IDX 9 24 10 25 11 26 12 27 73 28 13 29 72 30 14 31 15 32 16 33
REMARK SMILES IDX 66 34 17 35 71 36 65 37 67 38 18 39 70 40 64 41 63 42 19 44
REMARK SMILES IDX 51 45 31 46 50 47 32 48 35 49 49 50 68 51 33 52 34 53 48 55
REMARK SMILES IDX 69 56 36 57 20 58 21 59 29 60 22 61 24 62 30 63 23 64 25 65
REMARK SMILES IDX 26 66 27 67 28 68 52 69 53 70 61 71 54 72 56 73 62 74 55 75
REMARK SMILES IDX 57 76 58 77 59 78 60 79 37 80 38 81 46 82 39 83 41 84 47 85
REMARK SMILES IDX 40 86 42 87 43 88 44 89 45 90
REMARK H PARENT 84 21 67 43 35 54
REMARK Flexibility Score: inf
ROOT
ATOM      1  C   UNL A   1      36.754  20.309  24.974  1.00  0.00     0.274 C 
ENDROOT
BRANCH   1   2
ATOM      2  O   UNL A   1      36.554  21.398  25.900  1.00  0.00    -0.462 OA
BRANCH   2   3
ATOM      3  C   UNL A   1      35.865  22.481  25.426  1.00  0.00     0.313 C 
ATOM      4  O   UNL A   1      35.515  23.397  26.157  1.00  0.00    -0.252 OA
BRANCH   3   5
ATOM      5  C   UNL A   1      35.535  22.345  23.916  1.00  0.00     0.127 C 
ATOM      6  C   UNL A   1      36.671  23.022  23.117  1.00  0.00     0.025 C 
BRANCH   5   7
ATOM      7  C   UNL A   1      34.136  22.877  23.529  1.00  0.00    -0.020 A 
ATOM      8  C   UNL A   1      34.004  24.117  22.874  1.00  0.00     0.006 A 
ATOM      9  C   UNL A   1      32.931  22.209  23.812  1.00  0.00     0.022 A 
ATOM     10  C   UNL A   1      32.768  24.747  22.708  1.00  0.00     0.004 A 
ATOM     11  C   UNL A   1      31.694  22.882  23.725  1.00  0.00     0.019 A 
ATOM     12  Br  UNL A   1      32.852  20.357  24.248  1.00  0.00    -0.050 Br
ATOM     13  C   UNL A   1      31.615  24.202  23.255  1.00  0.00    -0.047 A 
BRANCH  13  14
ATOM     14  C   UNL A   1      30.317  24.980  23.345  1.00  0.00     0.041 C 
BRANCH  14  15
ATOM     15  C   UNL A   1      30.347  26.443  23.862  1.00  0.00     0.022 C 
ATOM     16  C   UNL A   1      30.818  26.685  25.300  1.00  0.00     0.007 C 
ATOM     17  C   UNL A   1      31.179  27.436  23.047  1.00  0.00     0.117 C 
ATOM     18  C   UNL A   1      31.422  28.088  25.345  1.00  0.00     0.003 C 
ATOM     19  C   UNL A   1      31.227  28.663  23.952  1.00  0.00     0.032 C 
BRANCH  17  20
ATOM     20  O   UNL A   1      30.590  27.735  21.797  1.00  0.00    -0.393 OA
ATOM     21  H   UNL A   1      31.282  27.804  21.122  1.00  0.00     0.210 HD
ENDBRANCH  17  20
ENDBRANCH  14  15
ENDBRANCH  13  14
ENDBRANCH   5   7
ENDBRANCH   3   5
ENDBRANCH   2   3
ENDBRANCH   1   2
BRANCH   1  22
ATOM     22  C   UNL A   1      38.186  19.761  24.989  1.00  0.00     0.275 C 
BRANCH  22  23
ATOM     23  O   UNL A   1      38.837  19.996  26.254  1.00  0.00    -0.458 OA
BRANCH  23  24
ATOM     24  C   UNL A   1      40.179  20.148  26.202  1.00  0.00     0.338 C 
ATOM     25  O   UNL A   1      40.975  19.439  25.598  1.00  0.00    -0.246 OA
BRANCH  24  26
ATOM     26  C   UNL A   1      40.563  21.426  26.826  1.00  0.00     0.060 A 
ATOM     27  C   UNL A   1      40.174  22.578  26.155  1.00  0.00     0.016 A 
ATOM     28  C   UNL A   1      41.333  21.524  27.987  1.00  0.00     0.016 A 
ATOM     29  C   UNL A   1      40.535  23.825  26.641  1.00  0.00     0.010 A 
ATOM     30  C   UNL A   1      41.732  22.795  28.454  1.00  0.00     0.010 A 
ATOM     31  C   UNL A   1      41.356  23.959  27.766  1.00  0.00    -0.014 A 
BRANCH  31  32
ATOM     32  C   UNL A   1      41.861  25.328  28.082  1.00  0.00     0.031 A 
ATOM     33  C   UNL A   1      43.227  25.763  27.611  1.00  0.00     0.074 A 
ATOM     34  C   UNL A   1      41.028  26.260  28.586  1.00  0.00     0.049 A 
ATOM     35  N   UNL A   1      43.747  26.967  27.597  1.00  0.00    -0.248 NA
ATOM     36  C   UNL A   1      44.094  24.733  27.015  1.00  0.00     0.031 C 
ATOM     37  C   UNL A   1      39.638  26.024  28.979  1.00  0.00     0.029 A 
ATOM     38  N   UNL A   1      41.220  27.599  28.828  1.00  0.00    -0.354 N 
ATOM     39  C   UNL A   1      44.980  26.844  26.971  1.00  0.00     0.074 A 
ATOM     40  C   UNL A   1      45.146  25.446  26.637  1.00  0.00     0.031 C 
ATOM     41  C   UNL A   1      39.105  27.177  29.413  1.00  0.00     0.029 A 
ATOM     42  C   UNL A   1      40.125  28.224  29.380  1.00  0.00     0.049 A 
ATOM     43  H   UNL A   1      42.062  28.068  28.628  1.00  0.00     0.167 HD
ATOM     44  C   UNL A   1      45.886  27.806  26.674  1.00  0.00     0.034 A 
ATOM     45  C   UNL A   1      39.967  29.481  29.841  1.00  0.00     0.034 A 
ATOM     46  C   UNL A   1      45.771  29.192  27.035  1.00  0.00     0.049 A 
ATOM     47  C   UNL A   1      41.102  30.464  29.731  1.00  0.00     0.074 A 
ATOM     48  C   UNL A   1      46.671  30.218  26.798  1.00  0.00     0.029 A 
ATOM     49  N   UNL A   1      44.719  29.742  27.747  1.00  0.00    -0.354 N 
ATOM     50  N   UNL A   1      42.224  30.356  29.065  1.00  0.00    -0.248 NA
ATOM     51  C   UNL A   1      40.943  31.746  30.435  1.00  0.00     0.031 C 
ATOM     52  C   UNL A   1      46.184  31.379  27.408  1.00  0.00     0.029 A 
ATOM     53  C   UNL A   1      44.969  31.081  28.003  1.00  0.00     0.049 A 
ATOM     54  H   UNL A   1      43.913  29.254  28.029  1.00  0.00     0.167 HD
ATOM     55  C   UNL A   1      42.893  31.562  29.249  1.00  0.00     0.074 A 
ATOM     56  C   UNL A   1      42.040  32.396  30.069  1.00  0.00     0.031 C 
ATOM     57  C   UNL A   1      44.115  31.933  28.789  1.00  0.00     0.034 A 
BRANCH  44  58
ATOM     58  C   UNL A   1      47.107  27.384  25.906  1.00  0.00     0.023 A 
ATOM     59  C   UNL A   1      48.111  26.644  26.560  1.00  0.00     0.012 A 
ATOM     60  C   UNL A   1      47.233  27.675  24.536  1.00  0.00     0.148 A 
ATOM     61  C   UNL A   1      49.233  26.206  25.858  1.00  0.00     0.002 A 
ATOM     62  C   UNL A   1      48.344  27.219  23.839  1.00  0.00     0.091 A 
ATOM     63  F   UNL A   1      46.274  28.406  23.948  1.00  0.00    -0.205 F 
ATOM     64  C   UNL A   1      49.346  26.486  24.497  1.00  0.00     0.022 A 
BRANCH  62  65
ATOM     65  S   UNL A   1      48.558  27.505  22.079  1.00  0.00     0.127 S 
ATOM     66  O   UNL A   1      49.777  28.314  22.062  1.00  0.00    -0.237 OA
ATOM     67  O   UNL A   1      48.719  26.146  21.561  1.00  0.00    -0.237 OA
ATOM     68  O   UNL A   1      47.349  28.183  21.635  1.00  0.00    -0.744 OA
ENDBRANCH  62  65
ENDBRANCH  44  58
BRANCH  45  69
ATOM     69  C   UNL A   1      38.687  29.883  30.491  1.00  0.00     0.023 A 
ATOM     70  C   UNL A   1      38.413  29.491  31.815  1.00  0.00     0.012 A 
ATOM     71  C   UNL A   1      37.729  30.644  29.789  1.00  0.00     0.148 A 
ATOM     72  C   UNL A   1      37.202  29.836  32.420  1.00  0.00     0.002 A 
ATOM     73  C   UNL A   1      36.556  31.036  30.418  1.00  0.00     0.091 A 
ATOM     74  F   UNL A   1      37.984  30.964  28.512  1.00  0.00    -0.205 F 
ATOM     75  C   UNL A   1      36.281  30.620  31.729  1.00  0.00     0.022 A 
BRANCH  73  76
ATOM     76  S   UNL A   1      35.388  32.150  29.631  1.00  0.00     0.127 S 
ATOM     77  O   UNL A   1      34.446  32.411  30.715  1.00  0.00    -0.237 OA
ATOM     78  O   UNL A   1      36.242  33.283  29.269  1.00  0.00    -0.237 OA
ATOM     79  O   UNL A   1      34.860  31.415  28.490  1.00  0.00    -0.744 OA
ENDBRANCH  73  76
ENDBRANCH  45  69
BRANCH  57  80
ATOM     80  C   UNL A   1      44.623  33.304  29.156  1.00  0.00     0.023 A 
ATOM     81  C   UNL A   1      45.323  33.483  30.365  1.00  0.00     0.012 A 
ATOM     82  C   UNL A   1      44.484  34.394  28.274  1.00  0.00     0.148 A 
ATOM     83  C   UNL A   1      45.854  34.729  30.703  1.00  0.00     0.002 A 
ATOM     84  C   UNL A   1      45.058  35.621  28.595  1.00  0.00     0.091 A 
ATOM     85  F   UNL A   1      43.795  34.214  27.138  1.00  0.00    -0.205 F 
ATOM     86  C   UNL A   1      45.734  35.792  29.813  1.00  0.00     0.022 A 
BRANCH  84  87
ATOM     87  S   UNL A   1      45.037  37.015  27.460  1.00  0.00     0.127 S 
ATOM     88  O   UNL A   1      45.601  38.081  28.287  1.00  0.00    -0.237 OA
ATOM     89  O   UNL A   1      45.912  36.554  26.381  1.00  0.00    -0.237 OA
ATOM     90  O   UNL A   1      43.644  37.189  27.072  1.00  0.00    -0.744 OA
ENDBRANCH  84  87
ENDBRANCH  57  80
ENDBRANCH  31  32
ENDBRANCH  24  26
ENDBRANCH  23  24
ENDBRANCH  22  23
ENDBRANCH   1  22
TORSDOF 18
ENDMDL
MODEL 2
REMARK VINA RESULT:     -11.7      1.914      7.834
REMARK SMILES C[C@@H](C(=O)OCCOC(=O)c1ccc(-c2c3nc(c(-c4cccc(S(=O)(=O)[O-])c4F)c4ccc([nH]4)c(-c4cccc(S(=O)(=O)[O-])c4F)c4nc(c(-c5cccc(S(=O)(=O)[O-])c5F)c5ccc2[nH]5)C=C4)C=C3)cc1)c1ccc(C[C@H]2CCC[C@@H]2O)cc1Br
REMARK SMILES IDX 6 1 5 2 3 3 4 4 2 5 1 6 74 7 75 8 86 9 76 10 85 11 87 12
REMARK SMILES IDX 77 13 78 14 79 15 80 16 83 17 81 18 82 19 84 20 7 22 8 23
REMARK SMILES IDX 9 24 10 25 11 26 12 27 73 28 13 29 72 30 14 31 15 32 16 33
REMARK SMILES IDX 66 34 17 35 71 36 65 37 67 38 18 39 70 40 64 41 63 42 19 44
REMARK SMILES IDX 51 45 31 46 50 47 32 48 35 49 49 50 68 51 33 52 34 53 48 55
REMARK SMILES IDX 69 56 36 57 20 58 21 59 29 60 22 61 24 62 30 63 23 64 25 65
REMARK SMILES IDX 26 66 27 67 28 68 52 69 53 70 61 71 54 72 56 73 62 74 55 75
REMARK SMILES IDX 57 76 58 77 59 78 60 79 37 80 38 81 46 82 39 83 41 84 47 85
REMARK SMILES IDX 40 86 42 87 43 88 44 89 45 90
REMARK H PARENT 84 21 67 43 35 54
REMARK Flexibility Score: inf
ROOT
ATOM      1  C   UNL A   1      34.801  20.713  24.921  1.00  0.00     0.274 C 
ENDROOT
BRANCH   1   2
ATOM      2  O   UNL A   1      34.372  21.503  26.051  1.00  0.00    -0.462 OA
BRANCH   2   3
ATOM      3  C   UNL A   1      33.396  22.431  25.809  1.00  0.00     0.313 C 
ATOM      4  O   UNL A   1      32.230  22.239  26.120  1.00  0.00    -0.252 OA
BRANCH   3   5
ATOM      5  C   UNL A   1      33.944  23.665  25.045  1.00  0.00     0.127 C 
ATOM      6  C   UNL A   1      34.980  24.367  25.952  1.00  0.00     0.025 C 
BRANCH   5   7
ATOM      7  C   UNL A   1      32.845  24.629  24.541  1.00  0.00    -0.020 A 
ATOM      8  C   UNL A   1      32.376  25.667  25.369  1.00  0.00     0.006 A 
ATOM      9  C   UNL A   1      32.229  24.534  23.279  1.00  0.00     0.022 A 
ATOM     10  C   UNL A   1      31.238  26.415  25.057  1.00  0.00     0.004 A 
ATOM     11  C   UNL A   1      31.032  25.228  23.005  1.00  0.00     0.019 A 
ATOM     12  Br  UNL A   1      32.983  23.553  21.832  1.00  0.00    -0.050 Br
ATOM     13  C   UNL A   1      30.472  26.113  23.941  1.00  0.00    -0.047 A 
BRANCH  13  14
ATOM     14  C   UNL A   1      29.094  26.702  23.720  1.00  0.00     0.041 C 
BRANCH  14  15
ATOM     15  C   UNL A   1      28.963  28.216  23.399  1.00  0.00     0.022 C 
ATOM     16  C   UNL A   1      30.140  28.905  22.700  1.00  0.00     0.007 C 
ATOM     17  C   UNL A   1      27.758  28.630  22.553  1.00  0.00     0.117 C 
ATOM     18  C   UNL A   1      29.565  30.068  21.894  1.00  0.00     0.003 C 
ATOM     19  C   UNL A   1      28.075  30.079  22.195  1.00  0.00     0.032 C 
BRANCH  17  20
ATOM     20  O   UNL A   1      26.539  28.525  23.260  1.00  0.00    -0.393 OA
ATOM     21  H   UNL A   1      26.671  28.811  24.177  1.00  0.00     0.210 HD
ENDBRANCH  17  20
ENDBRANCH  14  15
ENDBRANCH  13  14
ENDBRANCH   5   7
ENDBRANCH   3   5
ENDBRANCH   2   3
ENDBRANCH   1   2
BRANCH   1  22
ATOM     22  C   UNL A   1      36.306  20.417  24.929  1.00  0.00     0.275 C 
BRANCH  22  23
ATOM     23  O   UNL A   1      37.039  21.387  25.702  1.00  0.00    -0.458 OA
BRANCH  23  24
ATOM     24  C   UNL A   1      38.359  21.141  25.850  1.00  0.00     0.338 C 
ATOM     25  O   UNL A   1      38.968  20.147  25.469  1.00  0.00    -0.246 OA
BRANCH  24  26
ATOM     26  C   UNL A   1      39.037  22.339  26.374  1.00  0.00     0.060 A 
ATOM     27  C   UNL A   1      38.537  23.563  25.947  1.00  0.00     0.016 A 
ATOM     28  C   UNL A   1      40.164  22.298  27.197  1.00  0.00     0.016 A 
ATOM     29  C   UNL A   1      39.143  24.743  26.348  1.00  0.00     0.010 A 
ATOM     30  C   UNL A   1      40.801  23.501  27.568  1.00  0.00     0.010 A 
ATOM     31  C   UNL A   1      40.308  24.738  27.122  1.00  0.00    -0.014 A 
BRANCH  31  32
ATOM     32  C   UNL A   1      41.002  26.045  27.321  1.00  0.00     0.031 A 
ATOM     33  C   UNL A   1      40.335  27.150  28.103  1.00  0.00     0.074 A 
ATOM     34  C   UNL A   1      42.306  26.176  27.006  1.00  0.00     0.049 A 
ATOM     35  N   UNL A   1      40.856  28.261  28.564  1.00  0.00    -0.248 NA
ATOM     36  C   UNL A   1      38.925  26.953  28.479  1.00  0.00     0.031 C 
ATOM     37  C   UNL A   1      43.124  25.152  26.355  1.00  0.00     0.029 A 
ATOM     38  N   UNL A   1      43.180  27.216  27.218  1.00  0.00    -0.354 N 
ATOM     39  C   UNL A   1      39.854  28.878  29.301  1.00  0.00     0.074 A 
ATOM     40  C   UNL A   1      38.684  28.031  29.211  1.00  0.00     0.031 C 
ATOM     41  C   UNL A   1      44.377  25.615  26.220  1.00  0.00     0.029 A 
ATOM     42  C   UNL A   1      44.443  26.985  26.726  1.00  0.00     0.049 A 
ATOM     43  H   UNL A   1      42.926  28.049  27.678  1.00  0.00     0.167 HD
ATOM     44  C   UNL A   1      39.903  30.029  30.011  1.00  0.00     0.034 A 
ATOM     45  C   UNL A   1      45.523  27.790  26.654  1.00  0.00     0.034 A 
ATOM     46  C   UNL A   1      41.033  30.914  30.079  1.00  0.00     0.049 A 
ATOM     47  C   UNL A   1      45.456  29.179  27.230  1.00  0.00     0.074 A 
ATOM     48  C   UNL A   1      41.140  32.120  30.752  1.00  0.00     0.029 A 
ATOM     49  N   UNL A   1      42.234  30.718  29.420  1.00  0.00    -0.354 N 
ATOM     50  N   UNL A   1      44.534  29.712  27.992  1.00  0.00    -0.248 NA
ATOM     51  C   UNL A   1      46.584  30.076  26.937  1.00  0.00     0.031 C 
ATOM     52  C   UNL A   1      42.390  32.676  30.460  1.00  0.00     0.029 A 
ATOM     53  C   UNL A   1      43.071  31.803  29.627  1.00  0.00     0.049 A 
ATOM     54  H   UNL A   1      42.460  29.925  28.883  1.00  0.00     0.167 HD
ATOM     55  C   UNL A   1      44.982  30.996  28.290  1.00  0.00     0.074 A 
ATOM     56  C   UNL A   1      46.269  31.153  27.646  1.00  0.00     0.031 C 
ATOM     57  C   UNL A   1      44.367  31.960  29.020  1.00  0.00     0.034 A 
BRANCH  44  58
ATOM     58  C   UNL A   1      38.674  30.408  30.788  1.00  0.00     0.023 A 
ATOM     59  C   UNL A   1      38.581  30.057  32.148  1.00  0.00     0.012 A 
ATOM     60  C   UNL A   1      37.642  31.151  30.186  1.00  0.00     0.148 A 
ATOM     61  C   UNL A   1      37.470  30.435  32.899  1.00  0.00     0.002 A 
ATOM     62  C   UNL A   1      36.546  31.541  30.946  1.00  0.00     0.091 A 
ATOM     63  F   UNL A   1      37.744  31.446  28.882  1.00  0.00    -0.205 F 
ATOM     64  C   UNL A   1      36.457  31.182  32.302  1.00  0.00     0.022 A 
BRANCH  62  65
ATOM     65  S   UNL A   1      35.210  32.530  30.269  1.00  0.00     0.127 S 
ATOM     66  O   UNL A   1      34.314  32.637  31.419  1.00  0.00    -0.237 OA
ATOM     67  O   UNL A   1      35.894  33.773  29.910  1.00  0.00    -0.237 OA
ATOM     68  O   UNL A   1      34.690  31.777  29.136  1.00  0.00    -0.744 OA
ENDBRANCH  62  65
ENDBRANCH  44  58
BRANCH  45  69
ATOM     69  C   UNL A   1      46.762  27.319  25.972  1.00  0.00     0.023 A 
ATOM     70  C   UNL A   1      46.927  27.516  24.589  1.00  0.00     0.012 A 
ATOM     71  C   UNL A   1      47.777  26.659  26.696  1.00  0.00     0.148 A 
ATOM     72  C   UNL A   1      48.071  27.049  23.937  1.00  0.00     0.002 A 
ATOM     73  C   UNL A   1      48.938  26.253  26.054  1.00  0.00     0.091 A 
ATOM     74  F   UNL A   1      47.581  26.434  28.004  1.00  0.00    -0.205 F 
ATOM     75  C   UNL A   1      49.082  26.432  24.671  1.00  0.00     0.022 A 
BRANCH  73  76
ATOM     76  S   UNL A   1      50.330  25.571  26.959  1.00  0.00     0.127 S 
ATOM     77  O   UNL A   1      51.310  25.368  25.895  1.00  0.00    -0.237 OA
ATOM     78  O   UNL A   1      50.649  26.653  27.893  1.00  0.00    -0.237 OA
ATOM     79  O   UNL A   1      49.823  24.365  27.598  1.00  0.00    -0.744 OA
ENDBRANCH  73  76
ENDBRANCH  45  69
BRANCH  57  80
ATOM     80  C   UNL A   1      45.066  33.287  29.172  1.00  0.00     0.023 A 
ATOM     81  C   UNL A   1      46.075  33.432  30.145  1.00  0.00     0.012 A 
ATOM     82  C   UNL A   1      44.787  34.363  28.306  1.00  0.00     0.148 A 
ATOM     83  C   UNL A   1      46.778  34.631  30.270  1.00  0.00     0.002 A 
ATOM     84  C   UNL A   1      45.524  35.540  28.405  1.00  0.00     0.091 A 
ATOM     85  F   UNL A   1      43.808  34.219  27.402  1.00  0.00    -0.205 F 
ATOM     86  C   UNL A   1      46.512  35.679  29.392  1.00  0.00     0.022 A 
BRANCH  84  87
ATOM     87  S   UNL A   1      45.316  36.901  27.249  1.00  0.00     0.127 S 
ATOM     88  O   UNL A   1      45.580  38.059  28.101  1.00  0.00    -0.237 OA
ATOM     89  O   UNL A   1      46.354  36.628  26.254  1.00  0.00    -0.237 OA
ATOM     90  O   UNL A   1      43.955  36.787  26.744  1.00  0.00    -0.744 OA
ENDBRANCH  84  87
ENDBRANCH  57  80
ENDBRANCH  31  32
ENDBRANCH  24  26
ENDBRANCH  23  24
ENDBRANCH  22  23
ENDBRANCH   1  22
TORSDOF 18
ENDMDL
MODEL 3
REMARK VINA RESULT:     -11.6      2.096      3.632
REMARK SMILES C[C@@H](C(=O)OCCOC(=O)c1ccc(-c2c3nc(c(-c4cccc(S(=O)(=O)[O-])c4F)c4ccc([nH]4)c(-c4cccc(S(=O)(=O)[O-])c4F)c4nc(c(-c5cccc(S(=O)(=O)[O-])c5F)c5ccc2[nH]5)C=C4)C=C3)cc1)c1ccc(C[C@H]2CCC[C@@H]2O)cc1Br
REMARK SMILES IDX 6 1 5 2 3 3 4 4 2 5 1 6 74 7 75 8 86 9 76 10 85 11 87 12
REMARK SMILES IDX 77 13 78 14 79 15 80 16 83 17 81 18 82 19 84 20 7 22 8 23
REMARK SMILES IDX 9 24 10 25 11 26 12 27 73 28 13 29 72 30 14 31 15 32 16 33
REMARK SMILES IDX 66 34 17 35 71 36 65 37 67 38 18 39 70 40 64 41 63 42 19 44
REMARK SMILES IDX 51 45 31 46 50 47 32 48 35 49 49 50 68 51 33 52 34 53 48 55
REMARK SMILES IDX 69 56 36 57 20 58 21 59 29 60 22 61 24 62 30 63 23 64 25 65
REMARK SMILES IDX 26 66 27 67 28 68 52 69 53 70 61 71 54 72 56 73 62 74 55 75
REMARK SMILES IDX 57 76 58 77 59 78 60 79 37 80 38 81 46 82 39 83 41 84 47 85
REMARK SMILES IDX 40 86 42 87 43 88 44 89 45 90
REMARK H PARENT 84 21 67 43 35 54
REMARK Flexibility Score: inf
ROOT
ATOM      1  C   UNL A   1      37.275  20.572  24.669  1.00  0.00     0.274 C 
ENDROOT
BRANCH   1   2
ATOM      2  O   UNL A   1      37.565  21.986  24.628  1.00  0.00    -0.462 OA
BRANCH   2   3
ATOM      3  C   UNL A   1      36.704  22.763  23.901  1.00  0.00     0.313 C 
ATOM      4  O   UNL A   1      36.969  23.138  22.769  1.00  0.00    -0.252 OA
BRANCH   3   5
ATOM      5  C   UNL A   1      35.441  23.148  24.716  1.00  0.00     0.127 C 
ATOM      6  C   UNL A   1      35.898  23.584  26.127  1.00  0.00     0.025 C 
BRANCH   5   7
ATOM      7  C   UNL A   1      34.359  22.045  24.756  1.00  0.00    -0.020 A 
ATOM      8  C   UNL A   1      34.230  21.217  25.888  1.00  0.00     0.006 A 
ATOM      9  C   UNL A   1      33.471  21.770  23.699  1.00  0.00     0.022 A 
ATOM     10  C   UNL A   1      33.433  20.069  25.888  1.00  0.00     0.004 A 
ATOM     11  C   UNL A   1      32.736  20.567  23.667  1.00  0.00     0.019 A 
ATOM     12  Br  UNL A   1      33.125  23.006  22.293  1.00  0.00    -0.050 Br
ATOM     13  C   UNL A   1      32.786  19.654  24.733  1.00  0.00    -0.047 A 
BRANCH  13  14
ATOM     14  C   UNL A   1      32.151  18.284  24.609  1.00  0.00     0.041 C 
BRANCH  14  15
ATOM     15  C   UNL A   1      33.066  17.035  24.491  1.00  0.00     0.022 C 
ATOM     16  C   UNL A   1      34.581  17.261  24.435  1.00  0.00     0.007 C 
ATOM     17  C   UNL A   1      32.907  15.970  25.577  1.00  0.00     0.117 C 
ATOM     18  C   UNL A   1      35.242  16.012  25.017  1.00  0.00     0.003 C 
ATOM     19  C   UNL A   1      34.105  15.056  25.335  1.00  0.00     0.032 C 
BRANCH  17  20
ATOM     20  O   UNL A   1      31.686  15.266  25.468  1.00  0.00    -0.393 OA
ATOM     21  H   UNL A   1      31.354  15.055  26.354  1.00  0.00     0.210 HD
ENDBRANCH  17  20
ENDBRANCH  14  15
ENDBRANCH  13  14
ENDBRANCH   5   7
ENDBRANCH   3   5
ENDBRANCH   2   3
ENDBRANCH   1   2
BRANCH   1  22
ATOM     22  C   UNL A   1      38.514  19.712  24.946  1.00  0.00     0.275 C 
BRANCH  22  23
ATOM     23  O   UNL A   1      39.210  20.140  26.133  1.00  0.00    -0.458 OA
BRANCH  23  24
ATOM     24  C   UNL A   1      40.548  19.952  26.127  1.00  0.00     0.338 C 
ATOM     25  O   UNL A   1      41.146  18.944  25.767  1.00  0.00    -0.246 OA
BRANCH  24  26
ATOM     26  C   UNL A   1      41.234  21.219  26.436  1.00  0.00     0.060 A 
ATOM     27  C   UNL A   1      40.994  21.755  27.695  1.00  0.00     0.016 A 
ATOM     28  C   UNL A   1      42.032  21.914  25.525  1.00  0.00     0.016 A 
ATOM     29  C   UNL A   1      41.556  22.969  28.055  1.00  0.00     0.010 A 
ATOM     30  C   UNL A   1      42.567  23.169  25.883  1.00  0.00     0.010 A 
ATOM     31  C   UNL A   1      42.310  23.721  27.148  1.00  0.00    -0.014 A 
BRANCH  31  32
ATOM     32  C   UNL A   1      42.690  25.105  27.559  1.00  0.00     0.031 A 
ATOM     33  C   UNL A   1      44.056  25.653  27.222  1.00  0.00     0.074 A 
ATOM     34  C   UNL A   1      41.754  25.955  28.028  1.00  0.00     0.049 A 
ATOM     35  N   UNL A   1      44.487  26.888  27.299  1.00  0.00    -0.248 NA
ATOM     36  C   UNL A   1      45.038  24.711  26.661  1.00  0.00     0.031 C 
ATOM     37  C   UNL A   1      40.357  25.608  28.293  1.00  0.00     0.029 A 
ATOM     38  N   UNL A   1      41.830  27.292  28.338  1.00  0.00    -0.354 N 
ATOM     39  C   UNL A   1      45.773  26.878  26.775  1.00  0.00     0.074 A 
ATOM     40  C   UNL A   1      46.064  25.510  26.401  1.00  0.00     0.031 C 
ATOM     41  C   UNL A   1      39.710  26.703  28.725  1.00  0.00     0.029 A 
ATOM     42  C   UNL A   1      40.653  27.816  28.819  1.00  0.00     0.049 A 
ATOM     43  H   UNL A   1      42.650  27.825  28.227  1.00  0.00     0.167 HD
ATOM     44  C   UNL A   1      46.629  27.910  26.593  1.00  0.00     0.034 A 
ATOM     45  C   UNL A   1      40.369  29.037  29.314  1.00  0.00     0.034 A 
ATOM     46  C   UNL A   1      46.387  29.268  26.997  1.00  0.00     0.049 A 
ATOM     47  C   UNL A   1      41.436  30.099  29.339  1.00  0.00     0.074 A 
ATOM     48  C   UNL A   1      47.228  30.362  26.877  1.00  0.00     0.029 A 
ATOM     49  N   UNL A   1      45.245  29.713  27.639  1.00  0.00    -0.354 N 
ATOM     50  N   UNL A   1      42.614  30.097  28.766  1.00  0.00    -0.248 NA
ATOM     51  C   UNL A   1      41.130  31.334  30.077  1.00  0.00     0.031 C 
ATOM     52  C   UNL A   1      46.612  31.459  27.490  1.00  0.00     0.029 A 
ATOM     53  C   UNL A   1      45.377  31.053  27.968  1.00  0.00     0.049 A 
ATOM     54  H   UNL A   1      44.455  29.159  27.833  1.00  0.00     0.167 HD
ATOM     55  C   UNL A   1      43.178  31.336  29.053  1.00  0.00     0.074 A 
ATOM     56  C   UNL A   1      42.204  32.073  29.830  1.00  0.00     0.031 C 
ATOM     57  C   UNL A   1      44.403  31.809  28.712  1.00  0.00     0.034 A 
BRANCH  44  58
ATOM     58  C   UNL A   1      47.935  27.607  25.915  1.00  0.00     0.023 A 
ATOM     59  C   UNL A   1      49.049  27.242  26.695  1.00  0.00     0.012 A 
ATOM     60  C   UNL A   1      48.043  27.634  24.513  1.00  0.00     0.148 A 
ATOM     61  C   UNL A   1      50.259  26.915  26.086  1.00  0.00     0.002 A 
ATOM     62  C   UNL A   1      49.246  27.290  23.911  1.00  0.00     0.091 A 
ATOM     63  F   UNL A   1      46.973  28.014  23.797  1.00  0.00    -0.205 F 
ATOM     64  C   UNL A   1      50.356  26.931  24.696  1.00  0.00     0.022 A 
BRANCH  62  65
ATOM     65  S   UNL A   1      49.454  27.252  22.129  1.00  0.00     0.127 S 
ATOM     66  O   UNL A   1      48.969  28.578  21.750  1.00  0.00    -0.237 OA
ATOM     67  O   UNL A   1      50.898  27.067  21.988  1.00  0.00    -0.237 OA
ATOM     68  O   UNL A   1      48.652  26.132  21.658  1.00  0.00    -0.744 OA
ENDBRANCH  62  65
ENDBRANCH  44  58
BRANCH  45  69
ATOM     69  C   UNL A   1      39.015  29.322  29.870  1.00  0.00     0.023 A 
ATOM     70  C   UNL A   1      38.682  28.903  31.172  1.00  0.00     0.012 A 
ATOM     71  C   UNL A   1      38.047  29.998  29.099  1.00  0.00     0.148 A 
ATOM     72  C   UNL A   1      37.405  29.137  31.688  1.00  0.00     0.002 A 
ATOM     73  C   UNL A   1      36.801  30.282  29.641  1.00  0.00     0.091 A 
ATOM     74  F   UNL A   1      38.363  30.344  27.843  1.00  0.00    -0.205 F 
ATOM     75  C   UNL A   1      36.471  29.839  30.930  1.00  0.00     0.022 A 
BRANCH  73  76
ATOM     76  S   UNL A   1      35.599  31.292  28.769  1.00  0.00     0.127 S 
ATOM     77  O   UNL A   1      34.874  30.291  27.991  1.00  0.00    -0.237 OA
ATOM     78  O   UNL A   1      34.839  31.884  29.871  1.00  0.00    -0.237 OA
ATOM     79  O   UNL A   1      36.382  32.251  28.003  1.00  0.00    -0.744 OA
ENDBRANCH  73  76
ENDBRANCH  45  69
BRANCH  57  80
ATOM     80  C   UNL A   1      44.782  33.193  29.174  1.00  0.00     0.023 A 
ATOM     81  C   UNL A   1      45.451  33.355  30.403  1.00  0.00     0.012 A 
ATOM     82  C   UNL A   1      44.553  34.321  28.362  1.00  0.00     0.148 A 
ATOM     83  C   UNL A   1      45.863  34.619  30.829  1.00  0.00     0.002 A 
ATOM     84  C   UNL A   1      45.010  35.572  28.770  1.00  0.00     0.091 A 
ATOM     85  F   UNL A   1      43.894  34.155  27.206  1.00  0.00    -0.205 F 
ATOM     86  C   UNL A   1      45.655  35.723  30.006  1.00  0.00     0.022 A 
BRANCH  84  87
ATOM     87  S   UNL A   1      44.874  37.030  27.726  1.00  0.00     0.127 S 
ATOM     88  O   UNL A   1      43.425  37.152  27.573  1.00  0.00    -0.237 OA
ATOM     89  O   UNL A   1      45.489  38.067  28.556  1.00  0.00    -0.237 OA
ATOM     90  O   UNL A   1      45.612  36.716  26.511  1.00  0.00    -0.744 OA
ENDBRANCH  84  87
ENDBRANCH  57  80
ENDBRANCH  31  32
ENDBRANCH  24  26
ENDBRANCH  23  24
ENDBRANCH  22  23
ENDBRANCH   1  22
TORSDOF 18
ENDMDL
