MODEL 1
REMARK VINA RESULT:     -13.0      0.000      0.000
REMARK SMILES Cc1nc2cc(S(=O)(=O)N3CCC(C(=O)OCCOC(=O)c4ccc(-c5c6nc(c(-c7cccc(S(=O)(=O)[O-])c7F)c7ccc([nH]7)c(-c7cccc(S(=O)(=O)[O-])c7F)c7nc(c(-c8cccc(S(=O)(=O)[O-])c8F)c8ccc5[nH]8)C=C7)C=C6)cc4)CC3)ccc2n1C1CCCC1
REMARK SMILES IDX 17 1 16 2 14 3 15 4 13 5 10 6 11 7 86 8 12 9 85 10 7 11 8 12
REMARK SMILES IDX 9 13 6 14 1 15 2 16 3 17 90 18 4 19 89 20 5 21 88 22 87 23
REMARK SMILES IDX 91 24 92 25 95 26 93 27 94 28 18 29 19 30 20 31 21 32 22 33
REMARK SMILES IDX 23 34 84 35 24 36 83 37 25 38 26 39 27 40 77 41 28 42 82 43
REMARK SMILES IDX 76 44 78 45 29 46 81 47 75 48 74 49 30 51 62 52 42 53 61 54
REMARK SMILES IDX 43 55 46 56 60 57 79 58 44 59 45 60 59 62 80 63 47 64 31 65
REMARK SMILES IDX 32 66 40 67 33 68 35 69 41 70 34 71 36 72 37 73 38 74 39 75
REMARK SMILES IDX 63 76 64 77 72 78 65 79 67 80 73 81 66 82 68 83 69 84 70 85
REMARK SMILES IDX 71 86 48 87 49 88 57 89 50 90 52 91 58 92 51 93 53 94 54 95
REMARK SMILES IDX 55 96 56 97
REMARK H PARENT 78 50 46 61
REMARK Flexibility Score: inf
ROOT
ATOM      1  C   UNL A   1      33.970  30.671  27.305  1.00  0.00     0.274 C 
ENDROOT
BRANCH   1   2
ATOM      2  O   UNL A   1      32.644  30.097  27.291  1.00  0.00    -0.462 OA
BRANCH   2   3
ATOM      3  C   UNL A   1      31.877  30.338  26.195  1.00  0.00     0.309 C 
ATOM      4  O   UNL A   1      31.252  31.373  26.004  1.00  0.00    -0.252 OA
BRANCH   3   5
ATOM      5  C   UNL A   1      31.946  29.213  25.174  1.00  0.00     0.102 C 
ATOM      6  N   UNL A   1      32.622  26.940  23.560  1.00  0.00    -0.198 NA
ATOM      7  C   UNL A   1      32.872  28.298  23.030  1.00  0.00     0.103 C 
ATOM      8  C   UNL A   1      31.668  26.792  24.691  1.00  0.00     0.103 C 
ATOM      9  C   UNL A   1      33.060  29.326  24.141  1.00  0.00     0.032 C 
ATOM     10  C   UNL A   1      32.002  27.815  25.783  1.00  0.00     0.032 C 
BRANCH   6  11
ATOM     11  S   UNL A   1      32.685  25.645  22.430  1.00  0.00     0.243 S 
ATOM     12  O   UNL A   1      33.733  25.953  21.487  1.00  0.00    -0.207 OA
ATOM     13  O   UNL A   1      31.323  25.450  21.969  1.00  0.00    -0.207 OA
BRANCH  11  14
ATOM     14  C   UNL A   1      33.106  24.148  23.313  1.00  0.00     0.085 A 
ATOM     15  C   UNL A   1      36.964  19.923  25.111  1.00  0.00     0.088 C 
ATOM     16  C   UNL A   1      35.888  20.841  24.649  1.00  0.00     0.106 A 
ATOM     17  N   UNL A   1      36.082  22.062  24.190  1.00  0.00    -0.233 NA
ATOM     18  N   UNL A   1      34.543  20.517  24.644  1.00  0.00    -0.325 N 
ATOM     19  C   UNL A   1      34.835  22.590  23.976  1.00  0.00     0.090 A 
ATOM     20  C   UNL A   1      33.850  21.638  24.238  1.00  0.00     0.068 A 
ATOM     21  C   UNL A   1      34.467  23.868  23.513  1.00  0.00     0.052 A 
ATOM     22  C   UNL A   1      32.492  21.920  24.081  1.00  0.00     0.030 A 
ATOM     23  C   UNL A   1      32.141  23.198  23.643  1.00  0.00     0.024 A 
BRANCH  18  24
ATOM     24  C   UNL A   1      33.999  19.224  24.993  1.00  0.00     0.089 C 
ATOM     25  C   UNL A   1      32.493  19.051  24.846  1.00  0.00     0.025 C 
ATOM     26  C   UNL A   1      34.567  18.033  24.208  1.00  0.00     0.025 C 
ATOM     27  C   UNL A   1      32.345  17.558  25.100  1.00  0.00     0.002 C 
ATOM     28  C   UNL A   1      33.500  16.937  24.319  1.00  0.00     0.002 C 
ENDBRANCH  18  24
ENDBRANCH  11  14
ENDBRANCH   6  11
ENDBRANCH   3   5
ENDBRANCH   2   3
ENDBRANCH   1   2
BRANCH   1  29
ATOM     29  C   UNL A   1      33.932  32.032  28.008  1.00  0.00     0.275 C 
BRANCH  29  30
ATOM     30  O   UNL A   1      35.223  32.289  28.578  1.00  0.00    -0.458 OA
BRANCH  30  31
ATOM     31  C   UNL A   1      35.285  32.345  29.931  1.00  0.00     0.338 C 
ATOM     32  O   UNL A   1      34.416  32.733  30.691  1.00  0.00    -0.246 OA
BRANCH  31  33
ATOM     33  C   UNL A   1      36.450  31.523  30.327  1.00  0.00     0.060 A 
ATOM     34  C   UNL A   1      37.717  32.093  30.491  1.00  0.00     0.016 A 
ATOM     35  C   UNL A   1      36.296  30.136  30.261  1.00  0.00     0.016 A 
ATOM     36  C   UNL A   1      38.846  31.287  30.406  1.00  0.00     0.010 A 
ATOM     37  C   UNL A   1      37.429  29.335  30.180  1.00  0.00     0.010 A 
ATOM     38  C   UNL A   1      38.700  29.918  30.168  1.00  0.00    -0.014 A 
BRANCH  38  39
ATOM     39  C   UNL A   1      39.891  29.082  30.070  1.00  0.00     0.031 A 
ATOM     40  C   UNL A   1      40.540  28.802  31.368  1.00  0.00     0.074 A 
ATOM     41  C   UNL A   1      40.415  28.528  28.957  1.00  0.00     0.049 A 
ATOM     42  N   UNL A   1      41.694  29.244  31.741  1.00  0.00    -0.248 NA
ATOM     43  C   UNL A   1      39.806  28.063  32.396  1.00  0.00     0.031 C 
ATOM     44  C   UNL A   1      39.919  28.548  27.589  1.00  0.00     0.029 A 
ATOM     45  N   UNL A   1      41.516  27.728  28.858  1.00  0.00    -0.354 N 
ATOM     46  C   UNL A   1      41.914  28.706  32.995  1.00  0.00     0.074 A 
ATOM     47  C   UNL A   1      40.684  28.084  33.399  1.00  0.00     0.031 C 
ATOM     48  C   UNL A   1      40.553  27.602  26.853  1.00  0.00     0.029 A 
ATOM     49  C   UNL A   1      41.630  27.044  27.650  1.00  0.00     0.049 A 
ATOM     50  H   UNL A   1      42.177  27.641  29.582  1.00  0.00     0.167 HD
ATOM     51  C   UNL A   1      43.138  28.691  33.576  1.00  0.00     0.034 A 
ATOM     52  C   UNL A   1      42.563  26.108  27.343  1.00  0.00     0.034 A 
ATOM     53  C   UNL A   1      44.068  29.563  32.918  1.00  0.00     0.049 A 
ATOM     54  C   UNL A   1      43.745  26.423  28.175  1.00  0.00     0.074 A 
ATOM     55  C   UNL A   1      44.094  30.920  32.663  1.00  0.00     0.029 A 
ATOM     56  N   UNL A   1      44.972  28.998  32.054  1.00  0.00    -0.354 N 
ATOM     57  N   UNL A   1      44.477  27.486  27.996  1.00  0.00    -0.248 NA
ATOM     58  C   UNL A   1      43.902  25.754  29.454  1.00  0.00     0.031 C 
ATOM     59  C   UNL A   1      44.633  31.035  31.348  1.00  0.00     0.029 A 
ATOM     60  C   UNL A   1      44.930  29.746  30.905  1.00  0.00     0.049 A 
ATOM     61  H   UNL A   1      45.539  28.211  32.224  1.00  0.00     0.167 HD
ATOM     62  C   UNL A   1      44.830  27.876  29.277  1.00  0.00     0.074 A 
ATOM     63  C   UNL A   1      44.552  26.714  30.120  1.00  0.00     0.031 C 
ATOM     64  C   UNL A   1      45.045  29.189  29.578  1.00  0.00     0.034 A 
BRANCH  51  65
ATOM     65  C   UNL A   1      43.560  27.699  34.612  1.00  0.00     0.023 A 
ATOM     66  C   UNL A   1      43.994  28.198  35.854  1.00  0.00     0.012 A 
ATOM     67  C   UNL A   1      43.766  26.327  34.331  1.00  0.00     0.148 A 
ATOM     68  C   UNL A   1      44.620  27.370  36.785  1.00  0.00     0.002 A 
ATOM     69  C   UNL A   1      44.357  25.498  35.279  1.00  0.00     0.091 A 
ATOM     70  F   UNL A   1      43.463  25.858  33.113  1.00  0.00    -0.205 F 
ATOM     71  C   UNL A   1      44.797  26.022  36.500  1.00  0.00     0.022 A 
BRANCH  69  72
ATOM     72  S   UNL A   1      44.643  23.743  35.019  1.00  0.00     0.127 S 
ATOM     73  O   UNL A   1      43.295  23.259  34.732  1.00  0.00    -0.237 OA
ATOM     74  O   UNL A   1      45.557  23.759  33.877  1.00  0.00    -0.237 OA
ATOM     75  O   UNL A   1      45.230  23.248  36.252  1.00  0.00    -0.744 OA
ENDBRANCH  69  72
ENDBRANCH  51  65
BRANCH  52  76
ATOM     76  C   UNL A   1      42.536  24.896  26.490  1.00  0.00     0.023 A 
ATOM     77  C   UNL A   1      43.651  24.602  25.673  1.00  0.00     0.012 A 
ATOM     78  C   UNL A   1      41.599  23.868  26.720  1.00  0.00     0.148 A 
ATOM     79  C   UNL A   1      43.869  23.316  25.166  1.00  0.00     0.002 A 
ATOM     80  C   UNL A   1      41.821  22.589  26.209  1.00  0.00     0.091 A 
ATOM     81  F   UNL A   1      40.554  24.118  27.523  1.00  0.00    -0.205 F 
ATOM     82  C   UNL A   1      42.962  22.304  25.448  1.00  0.00     0.022 A 
BRANCH  80  83
ATOM     83  S   UNL A   1      40.701  21.227  26.541  1.00  0.00     0.127 S 
ATOM     84  O   UNL A   1      41.273  20.150  25.731  1.00  0.00    -0.237 OA
ATOM     85  O   UNL A   1      40.855  21.059  27.983  1.00  0.00    -0.237 OA
ATOM     86  O   UNL A   1      39.405  21.703  26.081  1.00  0.00    -0.744 OA
ENDBRANCH  80  83
ENDBRANCH  52  76
BRANCH  64  87
ATOM     87  C   UNL A   1      45.093  30.177  28.437  1.00  0.00     0.023 A 
ATOM     88  C   UNL A   1      43.917  30.627  27.797  1.00  0.00     0.012 A 
ATOM     89  C   UNL A   1      46.314  30.800  28.132  1.00  0.00     0.148 A 
ATOM     90  C   UNL A   1      43.962  31.663  26.859  1.00  0.00     0.002 A 
ATOM     91  C   UNL A   1      46.348  31.857  27.228  1.00  0.00     0.091 A 
ATOM     92  F   UNL A   1      47.419  30.369  28.759  1.00  0.00    -0.205 F 
ATOM     93  C   UNL A   1      45.176  32.287  26.585  1.00  0.00     0.022 A 
BRANCH  91  94
ATOM     94  S   UNL A   1      47.853  32.783  26.914  1.00  0.00     0.127 S 
ATOM     95  O   UNL A   1      48.772  31.736  26.473  1.00  0.00    -0.237 OA
ATOM     96  O   UNL A   1      47.433  33.712  25.861  1.00  0.00    -0.237 OA
ATOM     97  O   UNL A   1      48.199  33.430  28.173  1.00  0.00    -0.744 OA
ENDBRANCH  91  94
ENDBRANCH  64  87
ENDBRANCH  38  39
ENDBRANCH  31  33
ENDBRANCH  30  31
ENDBRANCH  29  30
ENDBRANCH   1  29
TORSDOF 17
ENDMDL
MODEL 2
REMARK VINA RESULT:     -12.8      1.672      2.282
REMARK SMILES Cc1nc2cc(S(=O)(=O)N3CCC(C(=O)OCCOC(=O)c4ccc(-c5c6nc(c(-c7cccc(S(=O)(=O)[O-])c7F)c7ccc([nH]7)c(-c7cccc(S(=O)(=O)[O-])c7F)c7nc(c(-c8cccc(S(=O)(=O)[O-])c8F)c8ccc5[nH]8)C=C7)C=C6)cc4)CC3)ccc2n1C1CCCC1
REMARK SMILES IDX 17 1 16 2 14 3 15 4 13 5 10 6 11 7 86 8 12 9 85 10 7 11 8 12
REMARK SMILES IDX 9 13 6 14 1 15 2 16 3 17 90 18 4 19 89 20 5 21 88 22 87 23
REMARK SMILES IDX 91 24 92 25 95 26 93 27 94 28 18 29 19 30 20 31 21 32 22 33
REMARK SMILES IDX 23 34 84 35 24 36 83 37 25 38 26 39 27 40 77 41 28 42 82 43
REMARK SMILES IDX 76 44 78 45 29 46 81 47 75 48 74 49 30 51 62 52 42 53 61 54
REMARK SMILES IDX 43 55 46 56 60 57 79 58 44 59 45 60 59 62 80 63 47 64 31 65
REMARK SMILES IDX 32 66 40 67 33 68 35 69 41 70 34 71 36 72 37 73 38 74 39 75
REMARK SMILES IDX 63 76 64 77 72 78 65 79 67 80 73 81 66 82 68 83 69 84 70 85
REMARK SMILES IDX 71 86 48 87 49 88 57 89 50 90 52 91 58 92 51 93 53 94 54 95
REMARK SMILES IDX 55 96 56 97
REMARK H PARENT 78 50 46 61
REMARK Flexibility Score: inf
ROOT
ATOM      1  C   UNL A   1      33.175  29.796  26.417  1.00  0.00     0.274 C 
ENDROOT
BRANCH   1   2
ATOM      2  O   UNL A   1      33.248  29.945  24.983  1.00  0.00    -0.462 OA
BRANCH   2   3
ATOM      3  C   UNL A   1      32.816  28.899  24.230  1.00  0.00     0.309 C 
ATOM      4  O   UNL A   1      32.720  28.921  23.009  1.00  0.00    -0.252 OA
BRANCH   3   5
ATOM      5  C   UNL A   1      32.544  27.654  25.059  1.00  0.00     0.102 C 
ATOM      6  N   UNL A   1      32.009  25.015  26.046  1.00  0.00    -0.198 NA
ATOM      7  C   UNL A   1      30.908  26.001  25.998  1.00  0.00     0.103 C 
ATOM      8  C   UNL A   1      33.407  25.518  25.989  1.00  0.00     0.103 C 
ATOM      9  C   UNL A   1      31.140  27.075  24.940  1.00  0.00     0.032 C 
ATOM     10  C   UNL A   1      33.546  26.524  24.840  1.00  0.00     0.032 C 
BRANCH   6  11
ATOM     11  S   UNL A   1      31.737  23.597  26.981  1.00  0.00     0.243 S 
ATOM     12  O   UNL A   1      30.311  23.471  27.160  1.00  0.00    -0.207 OA
ATOM     13  O   UNL A   1      32.611  23.706  28.135  1.00  0.00    -0.207 OA
BRANCH  11  14
ATOM     14  C   UNL A   1      32.344  22.190  26.059  1.00  0.00     0.085 A 
ATOM     15  C   UNL A   1      32.323  18.506  21.327  1.00  0.00     0.088 C 
ATOM     16  C   UNL A   1      32.361  19.276  22.598  1.00  0.00     0.106 A 
ATOM     17  N   UNL A   1      31.884  20.495  22.758  1.00  0.00    -0.233 NA
ATOM     18  N   UNL A   1      32.904  18.798  23.778  1.00  0.00    -0.325 N 
ATOM     19  C   UNL A   1      32.210  20.867  24.037  1.00  0.00     0.090 A 
ATOM     20  C   UNL A   1      32.838  19.817  24.705  1.00  0.00     0.068 A 
ATOM     21  C   UNL A   1      31.962  22.077  24.712  1.00  0.00     0.052 A 
ATOM     22  C   UNL A   1      33.258  19.933  26.032  1.00  0.00     0.030 A 
ATOM     23  C   UNL A   1      33.025  21.146  26.682  1.00  0.00     0.024 A 
BRANCH  18  24
ATOM     24  C   UNL A   1      33.424  17.463  23.971  1.00  0.00     0.089 C 
ATOM     25  C   UNL A   1      34.856  17.351  24.475  1.00  0.00     0.025 C 
ATOM     26  C   UNL A   1      32.637  16.582  24.954  1.00  0.00     0.025 C 
ATOM     27  C   UNL A   1      34.957  15.855  24.737  1.00  0.00     0.002 C 
ATOM     28  C   UNL A   1      33.634  15.512  25.415  1.00  0.00     0.002 C 
ENDBRANCH  18  24
ENDBRANCH  11  14
ENDBRANCH   6  11
ENDBRANCH   3   5
ENDBRANCH   2   3
ENDBRANCH   1   2
BRANCH   1  29
ATOM     29  C   UNL A   1      33.090  31.179  27.072  1.00  0.00     0.275 C 
BRANCH  29  30
ATOM     30  O   UNL A   1      34.021  31.227  28.164  1.00  0.00    -0.458 OA
BRANCH  30  31
ATOM     31  C   UNL A   1      35.129  31.984  27.978  1.00  0.00     0.338 C 
ATOM     32  O   UNL A   1      35.174  33.156  27.652  1.00  0.00    -0.246 OA
BRANCH  31  33
ATOM     33  C   UNL A   1      36.250  31.232  28.587  1.00  0.00     0.060 A 
ATOM     34  C   UNL A   1      37.398  31.889  29.046  1.00  0.00     0.016 A 
ATOM     35  C   UNL A   1      36.236  29.844  28.434  1.00  0.00     0.016 A 
ATOM     36  C   UNL A   1      38.585  31.178  29.178  1.00  0.00     0.010 A 
ATOM     37  C   UNL A   1      37.426  29.140  28.571  1.00  0.00     0.010 A 
ATOM     38  C   UNL A   1      38.614  29.818  28.861  1.00  0.00    -0.014 A 
BRANCH  38  39
ATOM     39  C   UNL A   1      39.867  29.084  28.992  1.00  0.00     0.031 A 
ATOM     40  C   UNL A   1      40.314  28.898  30.388  1.00  0.00     0.074 A 
ATOM     41  C   UNL A   1      40.610  28.544  28.003  1.00  0.00     0.049 A 
ATOM     42  N   UNL A   1      41.352  29.447  30.924  1.00  0.00    -0.248 NA
ATOM     43  C   UNL A   1      39.482  28.129  31.315  1.00  0.00     0.031 C 
ATOM     44  C   UNL A   1      40.346  28.482  26.574  1.00  0.00     0.029 A 
ATOM     45  N   UNL A   1      41.771  27.838  28.117  1.00  0.00    -0.354 N 
ATOM     46  C   UNL A   1      41.404  28.966  32.219  1.00  0.00     0.074 A 
ATOM     47  C   UNL A   1      40.178  28.255  32.445  1.00  0.00     0.031 C 
ATOM     48  C   UNL A   1      41.165  27.572  25.991  1.00  0.00     0.029 A 
ATOM     49  C   UNL A   1      42.136  27.131  26.975  1.00  0.00     0.049 A 
ATOM     50  H   UNL A   1      42.309  27.828  28.942  1.00  0.00     0.167 HD
ATOM     51  C   UNL A   1      42.513  29.072  32.991  1.00  0.00     0.034 A 
ATOM     52  C   UNL A   1      43.178  26.269  26.862  1.00  0.00     0.034 A 
ATOM     53  C   UNL A   1      43.467  30.000  32.455  1.00  0.00     0.049 A 
ATOM     54  C   UNL A   1      44.178  26.708  27.861  1.00  0.00     0.074 A 
ATOM     55  C   UNL A   1      43.428  31.347  32.150  1.00  0.00     0.029 A 
ATOM     56  N   UNL A   1      44.543  29.489  31.773  1.00  0.00    -0.354 N 
ATOM     57  N   UNL A   1      44.844  27.822  27.757  1.00  0.00    -0.248 NA
ATOM     58  C   UNL A   1      44.175  26.092  29.176  1.00  0.00     0.031 C 
ATOM     59  C   UNL A   1      44.165  31.469  30.936  1.00  0.00     0.029 A 
ATOM     60  C   UNL A   1      44.632  30.197  30.602  1.00  0.00     0.049 A 
ATOM     61  H   UNL A   1      45.134  28.759  32.067  1.00  0.00     0.167 HD
ATOM     62  C   UNL A   1      44.949  28.278  29.061  1.00  0.00     0.074 A 
ATOM     63  C   UNL A   1      44.629  27.122  29.896  1.00  0.00     0.031 C 
ATOM     64  C   UNL A   1      45.007  29.613  29.336  1.00  0.00     0.034 A 
BRANCH  51  65
ATOM     65  C   UNL A   1      42.836  28.151  34.122  1.00  0.00     0.023 A 
ATOM     66  C   UNL A   1      42.844  28.691  35.422  1.00  0.00     0.012 A 
ATOM     67  C   UNL A   1      43.354  26.846  33.935  1.00  0.00     0.148 A 
ATOM     68  C   UNL A   1      43.356  27.970  36.499  1.00  0.00     0.002 A 
ATOM     69  C   UNL A   1      43.830  26.118  35.021  1.00  0.00     0.091 A 
ATOM     70  F   UNL A   1      43.460  26.359  32.691  1.00  0.00    -0.205 F 
ATOM     71  C   UNL A   1      43.844  26.684  36.300  1.00  0.00     0.022 A 
BRANCH  69  72
ATOM     72  S   UNL A   1      44.489  24.452  34.883  1.00  0.00     0.127 S 
ATOM     73  O   UNL A   1      44.629  24.068  36.284  1.00  0.00    -0.237 OA
ATOM     74  O   UNL A   1      43.421  23.771  34.152  1.00  0.00    -0.237 OA
ATOM     75  O   UNL A   1      45.736  24.577  34.147  1.00  0.00    -0.744 OA
ENDBRANCH  69  72
ENDBRANCH  51  65
BRANCH  52  76
ATOM     76  C   UNL A   1      43.387  25.034  26.069  1.00  0.00     0.023 A 
ATOM     77  C   UNL A   1      44.573  24.893  25.313  1.00  0.00     0.012 A 
ATOM     78  C   UNL A   1      42.619  23.878  26.311  1.00  0.00     0.148 A 
ATOM     79  C   UNL A   1      45.020  23.640  24.878  1.00  0.00     0.002 A 
ATOM     80  C   UNL A   1      43.069  22.632  25.871  1.00  0.00     0.091 A 
ATOM     81  F   UNL A   1      41.511  23.987  27.058  1.00  0.00    -0.205 F 
ATOM     82  C   UNL A   1      44.275  22.506  25.172  1.00  0.00     0.022 A 
BRANCH  80  83
ATOM     83  S   UNL A   1      42.168  21.120  26.224  1.00  0.00     0.127 S 
ATOM     84  O   UNL A   1      42.362  20.973  27.668  1.00  0.00    -0.237 OA
ATOM     85  O   UNL A   1      40.812  21.480  25.821  1.00  0.00    -0.237 OA
ATOM     86  O   UNL A   1      42.834  20.106  25.421  1.00  0.00    -0.744 OA
ENDBRANCH  80  83
ENDBRANCH  52  76
BRANCH  64  87
ATOM     87  C   UNL A   1      45.165  30.568  28.177  1.00  0.00     0.023 A 
ATOM     88  C   UNL A   1      44.054  31.008  27.424  1.00  0.00     0.012 A 
ATOM     89  C   UNL A   1      46.413  31.173  27.963  1.00  0.00     0.148 A 
ATOM     90  C   UNL A   1      44.190  32.017  26.466  1.00  0.00     0.002 A 
ATOM     91  C   UNL A   1      46.537  32.203  27.036  1.00  0.00     0.091 A 
ATOM     92  F   UNL A   1      47.455  30.753  28.696  1.00  0.00    -0.205 F 
ATOM     93  C   UNL A   1      45.430  32.624  26.281  1.00  0.00     0.022 A 
BRANCH  91  94
ATOM     94  S   UNL A   1      48.072  33.110  26.830  1.00  0.00     0.127 S 
ATOM     95  O   UNL A   1      49.002  32.054  26.437  1.00  0.00    -0.237 OA
ATOM     96  O   UNL A   1      47.735  34.056  25.763  1.00  0.00    -0.237 OA
ATOM     97  O   UNL A   1      48.346  33.738  28.116  1.00  0.00    -0.744 OA
ENDBRANCH  91  94
ENDBRANCH  64  87
ENDBRANCH  38  39
ENDBRANCH  31  33
ENDBRANCH  30  31
ENDBRANCH  29  30
ENDBRANCH   1  29
TORSDOF 17
ENDMDL
MODEL 3
REMARK VINA RESULT:     -12.8      2.787      9.388
REMARK SMILES Cc1nc2cc(S(=O)(=O)N3CCC(C(=O)OCCOC(=O)c4ccc(-c5c6nc(c(-c7cccc(S(=O)(=O)[O-])c7F)c7ccc([nH]7)c(-c7cccc(S(=O)(=O)[O-])c7F)c7nc(c(-c8cccc(S(=O)(=O)[O-])c8F)c8ccc5[nH]8)C=C7)C=C6)cc4)CC3)ccc2n1C1CCCC1
REMARK SMILES IDX 17 1 16 2 14 3 15 4 13 5 10 6 11 7 86 8 12 9 85 10 7 11 8 12
REMARK SMILES IDX 9 13 6 14 1 15 2 16 3 17 90 18 4 19 89 20 5 21 88 22 87 23
REMARK SMILES IDX 91 24 92 25 95 26 93 27 94 28 18 29 19 30 20 31 21 32 22 33
REMARK SMILES IDX 23 34 84 35 24 36 83 37 25 38 26 39 27 40 77 41 28 42 82 43
REMARK SMILES IDX 76 44 78 45 29 46 81 47 75 48 74 49 30 51 62 52 42 53 61 54
REMARK SMILES IDX 43 55 46 56 60 57 79 58 44 59 45 60 59 62 80 63 47 64 31 65
REMARK SMILES IDX 32 66 40 67 33 68 35 69 41 70 34 71 36 72 37 73 38 74 39 75
REMARK SMILES IDX 63 76 64 77 72 78 65 79 67 80 73 81 66 82 68 83 69 84 70 85
REMARK SMILES IDX 71 86 48 87 49 88 57 89 50 90 52 91 58 92 51 93 53 94 54 95
REMARK SMILES IDX 55 96 56 97
REMARK H PARENT 78 50 46 61
REMARK Flexibility Score: inf
ROOT
ATOM      1  C   UNL A   1      41.965  19.301  26.602  1.00  0.00     0.274 C 
ENDROOT
BRANCH   1   2
ATOM      2  O   UNL A   1      40.752  19.583  25.870  1.00  0.00    -0.462 OA
BRANCH   2   3
ATOM      3  C   UNL A   1      40.272  20.854  25.934  1.00  0.00     0.309 C 
ATOM      4  O   UNL A   1      40.974  21.856  25.954  1.00  0.00    -0.252 OA
BRANCH   3   5
ATOM      5  C   UNL A   1      38.753  20.908  25.889  1.00  0.00     0.102 C 
ATOM      6  N   UNL A   1      35.987  21.222  25.200  1.00  0.00    -0.198 NA
ATOM      7  C   UNL A   1      36.636  22.244  26.049  1.00  0.00     0.103 C 
ATOM      8  C   UNL A   1      36.636  19.888  25.083  1.00  0.00     0.103 C 
ATOM      9  C   UNL A   1      38.144  22.303  25.830  1.00  0.00     0.032 C 
ATOM     10  C   UNL A   1      38.128  20.068  24.779  1.00  0.00     0.032 C 
BRANCH   6  11
ATOM     11  S   UNL A   1      34.268  21.251  25.132  1.00  0.00     0.243 S 
ATOM     12  O   UNL A   1      33.783  20.712  26.379  1.00  0.00    -0.207 OA
ATOM     13  O   UNL A   1      33.907  20.622  23.875  1.00  0.00    -0.207 OA
BRANCH  11  14
ATOM     14  C   UNL A   1      33.741  22.953  24.978  1.00  0.00     0.085 A 
ATOM     15  C   UNL A   1      33.664  28.283  22.230  1.00  0.00     0.088 C 
ATOM     16  C   UNL A   1      33.682  27.051  23.063  1.00  0.00     0.106 A 
ATOM     17  N   UNL A   1      34.013  25.851  22.631  1.00  0.00    -0.233 NA
ATOM     18  N   UNL A   1      33.352  27.020  24.406  1.00  0.00    -0.325 N 
ATOM     19  C   UNL A   1      33.799  24.996  23.681  1.00  0.00     0.090 A 
ATOM     20  C   UNL A   1      33.398  25.703  24.813  1.00  0.00     0.068 A 
ATOM     21  C   UNL A   1      33.969  23.600  23.752  1.00  0.00     0.052 A 
ATOM     22  C   UNL A   1      33.130  25.065  26.025  1.00  0.00     0.030 A 
ATOM     23  C   UNL A   1      33.281  23.678  26.075  1.00  0.00     0.024 A 
BRANCH  18  24
ATOM     24  C   UNL A   1      33.037  28.180  25.211  1.00  0.00     0.089 C 
ATOM     25  C   UNL A   1      31.825  28.070  26.127  1.00  0.00     0.025 C 
ATOM     26  C   UNL A   1      34.150  28.651  26.158  1.00  0.00     0.025 C 
ATOM     27  C   UNL A   1      31.944  29.361  26.923  1.00  0.00     0.002 C 
ATOM     28  C   UNL A   1      33.432  29.456  27.248  1.00  0.00     0.002 C 
ENDBRANCH  18  24
ENDBRANCH  11  14
ENDBRANCH   6  11
ENDBRANCH   3   5
ENDBRANCH   2   3
ENDBRANCH   1   2
BRANCH   1  29
ATOM     29  C   UNL A   1      42.982  18.632  25.671  1.00  0.00     0.275 C 
BRANCH  29  30
ATOM     30  O   UNL A   1      43.235  19.508  24.564  1.00  0.00    -0.458 OA
BRANCH  30  31
ATOM     31  C   UNL A   1      44.536  19.766  24.285  1.00  0.00     0.338 C 
ATOM     32  O   UNL A   1      45.270  19.131  23.550  1.00  0.00    -0.246 OA
BRANCH  31  33
ATOM     33  C   UNL A   1      44.793  21.148  24.748  1.00  0.00     0.060 A 
ATOM     34  C   UNL A   1      45.695  21.408  25.787  1.00  0.00     0.016 A 
ATOM     35  C   UNL A   1      43.910  22.137  24.307  1.00  0.00     0.016 A 
ATOM     36  C   UNL A   1      45.590  22.595  26.503  1.00  0.00     0.010 A 
ATOM     37  C   UNL A   1      43.813  23.322  25.026  1.00  0.00     0.010 A 
ATOM     38  C   UNL A   1      44.593  23.515  26.171  1.00  0.00    -0.014 A 
BRANCH  38  39
ATOM     39  C   UNL A   1      44.483  24.752  26.935  1.00  0.00     0.031 A 
ATOM     40  C   UNL A   1      45.632  25.667  26.770  1.00  0.00     0.074 A 
ATOM     41  C   UNL A   1      43.457  25.144  27.718  1.00  0.00     0.049 A 
ATOM     42  N   UNL A   1      46.495  25.961  27.683  1.00  0.00    -0.248 NA
ATOM     43  C   UNL A   1      45.926  26.222  25.447  1.00  0.00     0.031 C 
ATOM     44  C   UNL A   1      42.176  24.499  27.962  1.00  0.00     0.029 A 
ATOM     45  N   UNL A   1      43.336  26.308  28.420  1.00  0.00    -0.354 N 
ATOM     46  C   UNL A   1      47.359  26.872  27.102  1.00  0.00     0.074 A 
ATOM     47  C   UNL A   1      47.037  26.912  25.704  1.00  0.00     0.031 C 
ATOM     48  C   UNL A   1      41.316  25.377  28.535  1.00  0.00     0.029 A 
ATOM     49  C   UNL A   1      42.047  26.585  28.869  1.00  0.00     0.049 A 
ATOM     50  H   UNL A   1      44.099  26.905  28.595  1.00  0.00     0.167 HD
ATOM     51  C   UNL A   1      48.205  27.639  27.831  1.00  0.00     0.034 A 
ATOM     52  C   UNL A   1      41.640  27.722  29.489  1.00  0.00     0.034 A 
ATOM     53  C   UNL A   1      48.340  27.174  29.182  1.00  0.00     0.049 A 
ATOM     54  C   UNL A   1      42.836  28.266  30.168  1.00  0.00     0.074 A 
ATOM     55  C   UNL A   1      48.763  25.989  29.751  1.00  0.00     0.029 A 
ATOM     56  N   UNL A   1      47.630  27.830  30.157  1.00  0.00    -0.354 N 
ATOM     57  N   UNL A   1      43.398  27.686  31.189  1.00  0.00    -0.248 NA
ATOM     58  C   UNL A   1      43.641  29.262  29.483  1.00  0.00     0.031 C 
ATOM     59  C   UNL A   1      47.882  25.776  30.851  1.00  0.00     0.029 A 
ATOM     60  C   UNL A   1      47.006  26.861  30.900  1.00  0.00     0.049 A 
ATOM     61  H   UNL A   1      47.580  28.803  30.296  1.00  0.00     0.167 HD
ATOM     62  C   UNL A   1      44.753  27.898  30.999  1.00  0.00     0.074 A 
ATOM     63  C   UNL A   1      44.835  28.969  30.006  1.00  0.00     0.031 C 
ATOM     64  C   UNL A   1      45.676  26.998  31.446  1.00  0.00     0.034 A 
BRANCH  51  65
ATOM     65  C   UNL A   1      48.737  28.960  27.378  1.00  0.00     0.023 A 
ATOM     66  C   UNL A   1      50.116  29.051  27.113  1.00  0.00     0.012 A 
ATOM     67  C   UNL A   1      47.984  30.157  27.430  1.00  0.00     0.148 A 
ATOM     68  C   UNL A   1      50.732  30.286  26.914  1.00  0.00     0.002 A 
ATOM     69  C   UNL A   1      48.597  31.383  27.194  1.00  0.00     0.091 A 
ATOM     70  F   UNL A   1      46.695  30.101  27.793  1.00  0.00    -0.205 F 
ATOM     71  C   UNL A   1      49.974  31.449  26.950  1.00  0.00     0.022 A 
BRANCH  69  72
ATOM     72  S   UNL A   1      47.720  32.951  27.222  1.00  0.00     0.127 S 
ATOM     73  O   UNL A   1      47.045  32.893  28.515  1.00  0.00    -0.237 OA
ATOM     74  O   UNL A   1      48.823  33.908  27.136  1.00  0.00    -0.237 OA
ATOM     75  O   UNL A   1      46.844  32.938  26.064  1.00  0.00    -0.744 OA
ENDBRANCH  69  72
ENDBRANCH  51  65
BRANCH  52  76
ATOM     76  C   UNL A   1      40.360  28.470  29.487  1.00  0.00     0.023 A 
ATOM     77  C   UNL A   1      39.615  28.557  28.290  1.00  0.00     0.012 A 
ATOM     78  C   UNL A   1      39.709  28.797  30.694  1.00  0.00     0.148 A 
ATOM     79  C   UNL A   1      38.253  28.883  28.296  1.00  0.00     0.002 A 
ATOM     80  C   UNL A   1      38.353  29.124  30.693  1.00  0.00     0.091 A 
ATOM     81  F   UNL A   1      40.391  28.683  31.843  1.00  0.00    -0.205 F 
ATOM     82  C   UNL A   1      37.618  29.151  29.501  1.00  0.00     0.022 A 
BRANCH  80  83
ATOM     83  S   UNL A   1      37.460  29.470  32.211  1.00  0.00     0.127 S 
ATOM     84  O   UNL A   1      36.118  29.785  31.716  1.00  0.00    -0.237 OA
ATOM     85  O   UNL A   1      37.570  28.197  32.918  1.00  0.00    -0.237 OA
ATOM     86  O   UNL A   1      38.166  30.599  32.798  1.00  0.00    -0.744 OA
ENDBRANCH  80  83
ENDBRANCH  52  76
BRANCH  64  87
ATOM     87  C   UNL A   1      45.196  25.876  32.335  1.00  0.00     0.023 A 
ATOM     88  C   UNL A   1      44.675  24.678  31.799  1.00  0.00     0.012 A 
ATOM     89  C   UNL A   1      45.446  25.951  33.715  1.00  0.00     0.148 A 
ATOM     90  C   UNL A   1      44.392  23.586  32.624  1.00  0.00     0.002 A 
ATOM     91  C   UNL A   1      45.199  24.849  34.527  1.00  0.00     0.091 A 
ATOM     92  F   UNL A   1      45.953  27.092  34.205  1.00  0.00    -0.205 F 
ATOM     93  C   UNL A   1      44.667  23.667  33.987  1.00  0.00     0.022 A 
BRANCH  91  94
ATOM     94  S   UNL A   1      45.637  24.840  36.267  1.00  0.00     0.127 S 
ATOM     95  O   UNL A   1      47.081  25.063  36.221  1.00  0.00    -0.237 OA
ATOM     96  O   UNL A   1      44.861  25.967  36.790  1.00  0.00    -0.237 OA
ATOM     97  O   UNL A   1      45.221  23.542  36.782  1.00  0.00    -0.744 OA
ENDBRANCH  91  94
ENDBRANCH  64  87
ENDBRANCH  38  39
ENDBRANCH  31  33
ENDBRANCH  30  31
ENDBRANCH  29  30
ENDBRANCH   1  29
TORSDOF 17
ENDMDL
