MODEL 1
REMARK VINA RESULT:      -9.2      0.000      0.000
REMARK SMILES C[C@@H](C(=O)OCCOC(=O)c1ccc(-c2c3nc(c(-c4cccc(S(=O)(=O)[O-])c4F)c4ccc([nH]4)c(-c4cccc(S(=O)(=O)[O-])c4F)c4nc(c(-c5cccc(S(=O)(=O)[O-])c5F)c5ccc2[nH]5)C=C4)C=C3)cc1)[C@@H](C)c1ccc(OC(F)(F)F)cc1
REMARK SMILES IDX 6 1 5 2 3 3 4 4 2 5 1 6 74 7 75 8 76 9 77 10 86 11 78 12
REMARK SMILES IDX 85 13 79 14 80 15 81 16 82 17 83 18 84 19 7 20 8 21 9 22
REMARK SMILES IDX 10 23 11 24 12 25 73 26 13 27 72 28 14 29 15 30 16 31 66 32
REMARK SMILES IDX 17 33 71 34 65 35 67 36 18 37 70 38 64 39 63 40 19 42 51 43
REMARK SMILES IDX 31 44 50 45 32 46 35 47 49 48 68 49 33 50 34 51 48 53 69 54
REMARK SMILES IDX 36 55 20 56 21 57 29 58 22 59 24 60 30 61 23 62 25 63 26 64
REMARK SMILES IDX 27 65 28 66 52 67 53 68 61 69 54 70 56 71 62 72 55 73 57 74
REMARK SMILES IDX 58 75 59 76 60 77 37 78 38 79 46 80 39 81 41 82 47 83 40 84
REMARK SMILES IDX 42 85 43 86 44 87 45 88
REMARK H PARENT 67 41 35 52
REMARK Flexibility Score: inf
ROOT
ATOM      1  C   UNL A   1      42.071  19.479  26.238  1.00  0.00     0.274 C 
ENDROOT
BRANCH   1   2
ATOM      2  O   UNL A   1      42.814  19.807  25.046  1.00  0.00    -0.462 OA
BRANCH   2   3
ATOM      3  C   UNL A   1      44.079  20.277  25.261  1.00  0.00     0.309 C 
ATOM      4  O   UNL A   1      45.072  19.585  25.103  1.00  0.00    -0.252 OA
BRANCH   3   5
ATOM      5  C   UNL A   1      44.073  21.722  25.796  1.00  0.00     0.103 C 
ATOM      6  C   UNL A   1      43.143  22.589  24.932  1.00  0.00     0.020 C 
BRANCH   5   7
ATOM      7  C   UNL A   1      45.516  22.327  25.869  1.00  0.00     0.030 C 
ATOM      8  C   UNL A   1      45.950  23.070  24.597  1.00  0.00     0.013 C 
BRANCH   7   9
ATOM      9  C   UNL A   1      45.738  23.227  27.079  1.00  0.00    -0.044 A 
ATOM     10  C   UNL A   1      46.793  24.139  27.162  1.00  0.00     0.008 A 
ATOM     11  C   UNL A   1      44.805  23.194  28.127  1.00  0.00     0.008 A 
ATOM     12  C   UNL A   1      46.874  25.024  28.245  1.00  0.00     0.047 A 
ATOM     13  C   UNL A   1      44.878  24.090  29.195  1.00  0.00     0.047 A 
ATOM     14  C   UNL A   1      45.904  25.024  29.253  1.00  0.00     0.129 A 
BRANCH  14  15
ATOM     15  O   UNL A   1      46.066  25.975  30.220  1.00  0.00    -0.406 OA
BRANCH  15  16
ATOM     16  C   UNL A   1      44.931  26.773  30.552  1.00  0.00     0.573 C 
ATOM     17  F   UNL A   1      44.750  26.813  31.889  1.00  0.00    -0.132 F 
ATOM     18  F   UNL A   1      45.067  28.021  30.063  1.00  0.00    -0.132 F 
ATOM     19  F   UNL A   1      43.845  26.199  29.994  1.00  0.00    -0.132 F 
ENDBRANCH  15  16
ENDBRANCH  14  15
ENDBRANCH   7   9
ENDBRANCH   5   7
ENDBRANCH   3   5
ENDBRANCH   2   3
ENDBRANCH   1   2
BRANCH   1  20
ATOM     20  C   UNL A   1      40.551  19.517  26.041  1.00  0.00     0.275 C 
BRANCH  20  21
ATOM     21  O   UNL A   1      39.903  20.418  26.958  1.00  0.00    -0.458 OA
BRANCH  21  22
ATOM     22  C   UNL A   1      39.234  21.446  26.389  1.00  0.00     0.338 C 
ATOM     23  O   UNL A   1      38.184  21.379  25.762  1.00  0.00    -0.246 OA
BRANCH  22  24
ATOM     24  C   UNL A   1      39.835  22.730  26.794  1.00  0.00     0.060 A 
ATOM     25  C   UNL A   1      39.409  23.864  26.100  1.00  0.00     0.016 A 
ATOM     26  C   UNL A   1      40.804  22.843  27.792  1.00  0.00     0.016 A 
ATOM     27  C   UNL A   1      39.899  25.125  26.434  1.00  0.00     0.010 A 
ATOM     28  C   UNL A   1      41.331  24.107  28.099  1.00  0.00     0.010 A 
ATOM     29  C   UNL A   1      40.872  25.255  27.430  1.00  0.00    -0.014 A 
BRANCH  29  30
ATOM     30  C   UNL A   1      41.453  26.593  27.693  1.00  0.00     0.031 A 
ATOM     31  C   UNL A   1      42.771  26.954  27.077  1.00  0.00     0.074 A 
ATOM     32  C   UNL A   1      40.787  27.502  28.430  1.00  0.00     0.049 A 
ATOM     33  N   UNL A   1      43.457  28.060  27.183  1.00  0.00    -0.248 NA
ATOM     34  C   UNL A   1      43.396  25.933  26.220  1.00  0.00     0.031 C 
ATOM     35  C   UNL A   1      39.479  27.287  29.041  1.00  0.00     0.029 A 
ATOM     36  N   UNL A   1      41.121  28.784  28.791  1.00  0.00    -0.354 N 
ATOM     37  C   UNL A   1      44.608  27.864  26.435  1.00  0.00     0.074 A 
ATOM     38  C   UNL A   1      44.520  26.536  25.863  1.00  0.00     0.031 C 
ATOM     39  C   UNL A   1      39.118  28.398  29.707  1.00  0.00     0.029 A 
ATOM     40  C   UNL A   1      40.193  29.384  29.611  1.00  0.00     0.049 A 
ATOM     41  H   UNL A   1      41.946  29.231  28.493  1.00  0.00     0.167 HD
ATOM     42  C   UNL A   1      45.649  28.707  26.246  1.00  0.00     0.034 A 
ATOM     43  C   UNL A   1      40.226  30.576  30.240  1.00  0.00     0.034 A 
ATOM     44  C   UNL A   1      45.750  30.017  26.827  1.00  0.00     0.049 A 
ATOM     45  C   UNL A   1      41.426  31.471  30.060  1.00  0.00     0.074 A 
ATOM     46  C   UNL A   1      46.781  30.932  26.711  1.00  0.00     0.029 A 
ATOM     47  N   UNL A   1      44.795  30.595  27.649  1.00  0.00    -0.354 N 
ATOM     48  N   UNL A   1      42.477  31.302  29.295  1.00  0.00    -0.248 NA
ATOM     49  C   UNL A   1      41.441  32.730  30.823  1.00  0.00     0.031 C 
ATOM     50  C   UNL A   1      46.459  32.055  27.481  1.00  0.00     0.029 A 
ATOM     51  C   UNL A   1      45.215  31.849  28.055  1.00  0.00     0.049 A 
ATOM     52  H   UNL A   1      43.942  30.174  27.905  1.00  0.00     0.167 HD
ATOM     53  C   UNL A   1      43.264  32.437  29.464  1.00  0.00     0.074 A 
ATOM     54  C   UNL A   1      42.555  33.302  30.385  1.00  0.00     0.031 C 
ATOM     55  C   UNL A   1      44.474  32.727  28.925  1.00  0.00     0.034 A 
BRANCH  42  56
ATOM     56  C   UNL A   1      46.775  28.216  25.380  1.00  0.00     0.023 A 
ATOM     57  C   UNL A   1      46.649  28.264  23.978  1.00  0.00     0.012 A 
ATOM     58  C   UNL A   1      47.960  27.720  25.955  1.00  0.00     0.148 A 
ATOM     59  C   UNL A   1      47.676  27.794  23.159  1.00  0.00     0.002 A 
ATOM     60  C   UNL A   1      48.994  27.289  25.134  1.00  0.00     0.091 A 
ATOM     61  F   UNL A   1      48.045  27.658  27.292  1.00  0.00    -0.205 F 
ATOM     62  C   UNL A   1      48.850  27.316  23.737  1.00  0.00     0.022 A 
BRANCH  60  63
ATOM     63  S   UNL A   1      50.564  26.711  25.784  1.00  0.00     0.127 S 
ATOM     64  O   UNL A   1      51.317  26.460  24.556  1.00  0.00    -0.237 OA
ATOM     65  O   UNL A   1      51.023  27.868  26.555  1.00  0.00    -0.237 OA
ATOM     66  O   UNL A   1      50.259  25.534  26.583  1.00  0.00    -0.744 OA
ENDBRANCH  60  63
ENDBRANCH  42  56
BRANCH  43  67
ATOM     67  C   UNL A   1      39.091  31.001  31.114  1.00  0.00     0.023 A 
ATOM     68  C   UNL A   1      39.127  30.717  32.492  1.00  0.00     0.012 A 
ATOM     69  C   UNL A   1      37.973  31.674  30.583  1.00  0.00     0.148 A 
ATOM     70  C   UNL A   1      38.057  31.064  33.319  1.00  0.00     0.002 A 
ATOM     71  C   UNL A   1      36.938  32.070  31.422  1.00  0.00     0.091 A 
ATOM     72  F   UNL A   1      37.941  31.910  29.264  1.00  0.00    -0.205 F 
ATOM     73  C   UNL A   1      36.969  31.750  32.788  1.00  0.00     0.022 A 
BRANCH  71  74
ATOM     74  S   UNL A   1      35.559  33.062  30.839  1.00  0.00     0.127 S 
ATOM     75  O   UNL A   1      34.996  33.556  32.093  1.00  0.00    -0.237 OA
ATOM     76  O   UNL A   1      36.235  34.073  30.026  1.00  0.00    -0.237 OA
ATOM     77  O   UNL A   1      34.714  32.150  30.080  1.00  0.00    -0.744 OA
ENDBRANCH  71  74
ENDBRANCH  43  67
BRANCH  55  78
ATOM     78  C   UNL A   1      45.108  34.047  29.285  1.00  0.00     0.023 A 
ATOM     79  C   UNL A   1      45.752  34.198  30.529  1.00  0.00     0.012 A 
ATOM     80  C   UNL A   1      45.145  35.105  28.354  1.00  0.00     0.148 A 
ATOM     81  C   UNL A   1      46.401  35.391  30.851  1.00  0.00     0.002 A 
ATOM     82  C   UNL A   1      45.832  36.272  28.664  1.00  0.00     0.091 A 
ATOM     83  F   UNL A   1      44.509  34.949  27.184  1.00  0.00    -0.205 F 
ATOM     84  C   UNL A   1      46.452  36.421  29.915  1.00  0.00     0.022 A 
BRANCH  82  85
ATOM     85  S   UNL A   1      46.034  37.612  27.483  1.00  0.00     0.127 S 
ATOM     86  O   UNL A   1      46.825  38.571  28.253  1.00  0.00    -0.237 OA
ATOM     87  O   UNL A   1      46.760  36.959  26.393  1.00  0.00    -0.237 OA
ATOM     88  O   UNL A   1      44.688  38.045  27.135  1.00  0.00    -0.744 OA
ENDBRANCH  82  85
ENDBRANCH  55  78
ENDBRANCH  29  30
ENDBRANCH  22  24
ENDBRANCH  21  22
ENDBRANCH  20  21
ENDBRANCH   1  20
TORSDOF 18
ENDMDL
MODEL 2
REMARK VINA RESULT:      -9.1      5.352     11.791
REMARK SMILES C[C@@H](C(=O)OCCOC(=O)c1ccc(-c2c3nc(c(-c4cccc(S(=O)(=O)[O-])c4F)c4ccc([nH]4)c(-c4cccc(S(=O)(=O)[O-])c4F)c4nc(c(-c5cccc(S(=O)(=O)[O-])c5F)c5ccc2[nH]5)C=C4)C=C3)cc1)[C@@H](C)c1ccc(OC(F)(F)F)cc1
REMARK SMILES IDX 6 1 5 2 3 3 4 4 2 5 1 6 74 7 75 8 76 9 77 10 86 11 78 12
REMARK SMILES IDX 85 13 79 14 80 15 81 16 82 17 83 18 84 19 7 20 8 21 9 22
REMARK SMILES IDX 10 23 11 24 12 25 73 26 13 27 72 28 14 29 15 30 16 31 66 32
REMARK SMILES IDX 17 33 71 34 65 35 67 36 18 37 70 38 64 39 63 40 19 42 51 43
REMARK SMILES IDX 31 44 50 45 32 46 35 47 49 48 68 49 33 50 34 51 48 53 69 54
REMARK SMILES IDX 36 55 20 56 21 57 29 58 22 59 24 60 30 61 23 62 25 63 26 64
REMARK SMILES IDX 27 65 28 66 52 67 53 68 61 69 54 70 56 71 62 72 55 73 57 74
REMARK SMILES IDX 58 75 59 76 60 77 37 78 38 79 46 80 39 81 41 82 47 83 40 84
REMARK SMILES IDX 42 85 43 86 44 87 45 88
REMARK H PARENT 67 41 35 52
REMARK Flexibility Score: inf
ROOT
ATOM      1  C   UNL A   1      31.406  30.638  26.454  1.00  0.00     0.274 C 
ENDROOT
BRANCH   1   2
ATOM      2  O   UNL A   1      32.253  29.890  27.351  1.00  0.00    -0.462 OA
BRANCH   2   3
ATOM      3  C   UNL A   1      32.033  28.542  27.368  1.00  0.00     0.309 C 
ATOM      4  O   UNL A   1      31.048  28.043  27.888  1.00  0.00    -0.252 OA
BRANCH   3   5
ATOM      5  C   UNL A   1      33.203  27.760  26.739  1.00  0.00     0.103 C 
ATOM      6  C   UNL A   1      34.248  28.745  26.193  1.00  0.00     0.020 C 
BRANCH   5   7
ATOM      7  C   UNL A   1      32.717  26.767  25.630  1.00  0.00     0.030 C 
ATOM      8  C   UNL A   1      32.727  27.357  24.212  1.00  0.00     0.013 C 
BRANCH   7   9
ATOM      9  C   UNL A   1      33.468  25.441  25.629  1.00  0.00    -0.044 A 
ATOM     10  C   UNL A   1      34.784  25.314  25.177  1.00  0.00     0.008 A 
ATOM     11  C   UNL A   1      32.841  24.308  26.170  1.00  0.00     0.008 A 
ATOM     12  C   UNL A   1      35.461  24.095  25.314  1.00  0.00     0.047 A 
ATOM     13  C   UNL A   1      33.523  23.100  26.323  1.00  0.00     0.047 A 
ATOM     14  C   UNL A   1      34.846  22.990  25.911  1.00  0.00     0.129 A 
BRANCH  14  15
ATOM     15  O   UNL A   1      35.633  21.881  26.038  1.00  0.00    -0.406 OA
BRANCH  15  16
ATOM     16  C   UNL A   1      35.857  21.097  24.868  1.00  0.00     0.573 C 
ATOM     17  F   UNL A   1      36.857  21.620  24.128  1.00  0.00    -0.132 F 
ATOM     18  F   UNL A   1      36.139  19.821  25.197  1.00  0.00    -0.132 F 
ATOM     19  F   UNL A   1      34.726  21.121  24.132  1.00  0.00    -0.132 F 
ENDBRANCH  15  16
ENDBRANCH  14  15
ENDBRANCH   7   9
ENDBRANCH   5   7
ENDBRANCH   3   5
ENDBRANCH   2   3
ENDBRANCH   1   2
BRANCH   1  20
ATOM     20  C   UNL A   1      31.501  32.156  26.647  1.00  0.00     0.275 C 
BRANCH  20  21
ATOM     21  O   UNL A   1      32.856  32.634  26.564  1.00  0.00    -0.458 OA
BRANCH  21  22
ATOM     22  C   UNL A   1      33.275  33.381  27.611  1.00  0.00     0.338 C 
ATOM     23  O   UNL A   1      32.667  34.303  28.142  1.00  0.00    -0.246 OA
BRANCH  22  24
ATOM     24  C   UNL A   1      34.506  32.809  28.186  1.00  0.00     0.060 A 
ATOM     25  C   UNL A   1      34.391  31.549  28.777  1.00  0.00     0.016 A 
ATOM     26  C   UNL A   1      35.733  33.474  28.187  1.00  0.00     0.016 A 
ATOM     27  C   UNL A   1      35.507  30.917  29.319  1.00  0.00     0.010 A 
ATOM     28  C   UNL A   1      36.849  32.856  28.772  1.00  0.00     0.010 A 
ATOM     29  C   UNL A   1      36.745  31.569  29.329  1.00  0.00    -0.014 A 
BRANCH  29  30
ATOM     30  C   UNL A   1      37.891  30.919  30.006  1.00  0.00     0.031 A 
ATOM     31  C   UNL A   1      38.196  31.268  31.431  1.00  0.00     0.074 A 
ATOM     32  C   UNL A   1      38.624  29.983  29.374  1.00  0.00     0.049 A 
ATOM     33  N   UNL A   1      39.152  30.826  32.204  1.00  0.00    -0.248 NA
ATOM     34  C   UNL A   1      37.298  32.242  32.074  1.00  0.00     0.031 C 
ATOM     35  C   UNL A   1      38.398  29.524  28.008  1.00  0.00     0.029 A 
ATOM     36  N   UNL A   1      39.708  29.254  29.798  1.00  0.00    -0.354 N 
ATOM     37  C   UNL A   1      38.994  31.485  33.415  1.00  0.00     0.074 A 
ATOM     38  C   UNL A   1      37.837  32.346  33.280  1.00  0.00     0.031 C 
ATOM     39  C   UNL A   1      39.315  28.592  27.699  1.00  0.00     0.029 A 
ATOM     40  C   UNL A   1      40.227  28.425  28.830  1.00  0.00     0.049 A 
ATOM     41  H   UNL A   1      40.079  29.319  30.708  1.00  0.00     0.167 HD
ATOM     42  C   UNL A   1      39.747  31.390  34.534  1.00  0.00     0.034 A 
ATOM     43  C   UNL A   1      41.330  27.650  28.844  1.00  0.00     0.034 A 
ATOM     44  C   UNL A   1      40.906  30.551  34.666  1.00  0.00     0.049 A 
ATOM     45  C   UNL A   1      42.185  27.609  30.086  1.00  0.00     0.074 A 
ATOM     46  C   UNL A   1      41.746  30.410  35.756  1.00  0.00     0.029 A 
ATOM     47  N   UNL A   1      41.403  29.725  33.670  1.00  0.00    -0.354 N 
ATOM     48  N   UNL A   1      41.986  28.185  31.247  1.00  0.00    -0.248 NA
ATOM     49  C   UNL A   1      43.415  26.802  30.024  1.00  0.00     0.031 C 
ATOM     50  C   UNL A   1      42.764  29.514  35.411  1.00  0.00     0.029 A 
ATOM     51  C   UNL A   1      42.542  29.077  34.115  1.00  0.00     0.049 A 
ATOM     52  H   UNL A   1      41.003  29.614  32.777  1.00  0.00     0.167 HD
ATOM     53  C   UNL A   1      43.047  27.792  32.058  1.00  0.00     0.074 A 
ATOM     54  C   UNL A   1      43.873  26.906  31.264  1.00  0.00     0.031 C 
ATOM     55  C   UNL A   1      43.324  28.152  33.336  1.00  0.00     0.034 A 
BRANCH  42  56
ATOM     56  C   UNL A   1      39.337  32.238  35.705  1.00  0.00     0.023 A 
ATOM     57  C   UNL A   1      38.477  31.707  36.685  1.00  0.00     0.012 A 
ATOM     58  C   UNL A   1      39.814  33.556  35.839  1.00  0.00     0.148 A 
ATOM     59  C   UNL A   1      38.070  32.487  37.768  1.00  0.00     0.002 A 
ATOM     60  C   UNL A   1      39.435  34.314  36.939  1.00  0.00     0.091 A 
ATOM     61  F   UNL A   1      40.609  34.049  34.878  1.00  0.00    -0.205 F 
ATOM     62  C   UNL A   1      38.556  33.785  37.898  1.00  0.00     0.022 A 
BRANCH  60  63
ATOM     63  S   UNL A   1      40.055  35.975  37.223  1.00  0.00     0.127 S 
ATOM     64  O   UNL A   1      39.301  36.371  38.412  1.00  0.00    -0.237 OA
ATOM     65  O   UNL A   1      41.480  35.737  37.458  1.00  0.00    -0.237 OA
ATOM     66  O   UNL A   1      39.758  36.727  36.014  1.00  0.00    -0.744 OA
ENDBRANCH  60  63
ENDBRANCH  42  56
BRANCH  43  67
ATOM     67  C   UNL A   1      41.707  26.850  27.642  1.00  0.00     0.023 A 
ATOM     68  C   UNL A   1      42.276  27.493  26.525  1.00  0.00     0.012 A 
ATOM     69  C   UNL A   1      41.494  25.458  27.594  1.00  0.00     0.148 A 
ATOM     70  C   UNL A   1      42.594  26.771  25.373  1.00  0.00     0.002 A 
ATOM     71  C   UNL A   1      41.867  24.736  26.466  1.00  0.00     0.091 A 
ATOM     72  F   UNL A   1      40.924  24.866  28.653  1.00  0.00    -0.205 F 
ATOM     73  C   UNL A   1      42.400  25.393  25.347  1.00  0.00     0.022 A 
BRANCH  71  74
ATOM     74  S   UNL A   1      41.764  22.944  26.398  1.00  0.00     0.127 S 
ATOM     75  O   UNL A   1      40.322  22.725  26.474  1.00  0.00    -0.237 OA
ATOM     76  O   UNL A   1      42.364  22.656  25.095  1.00  0.00    -0.237 OA
ATOM     77  O   UNL A   1      42.540  22.465  27.534  1.00  0.00    -0.744 OA
ENDBRANCH  71  74
ENDBRANCH  43  67
BRANCH  55  78
ATOM     78  C   UNL A   1      44.556  27.567  33.981  1.00  0.00     0.023 A 
ATOM     79  C   UNL A   1      45.777  28.267  33.919  1.00  0.00     0.012 A 
ATOM     80  C   UNL A   1      44.480  26.372  34.725  1.00  0.00     0.148 A 
ATOM     81  C   UNL A   1      46.911  27.773  34.567  1.00  0.00     0.002 A 
ATOM     82  C   UNL A   1      45.602  25.911  35.405  1.00  0.00     0.091 A 
ATOM     83  F   UNL A   1      43.314  25.710  34.755  1.00  0.00    -0.205 F 
ATOM     84  C   UNL A   1      46.819  26.604  35.319  1.00  0.00     0.022 A 
BRANCH  82  85
ATOM     85  S   UNL A   1      45.551  24.470  36.477  1.00  0.00     0.127 S 
ATOM     86  O   UNL A   1      46.964  24.298  36.813  1.00  0.00    -0.237 OA
ATOM     87  O   UNL A   1      44.713  24.934  37.583  1.00  0.00    -0.237 OA
ATOM     88  O   UNL A   1      44.961  23.401  35.683  1.00  0.00    -0.744 OA
ENDBRANCH  82  85
ENDBRANCH  55  78
ENDBRANCH  29  30
ENDBRANCH  22  24
ENDBRANCH  21  22
ENDBRANCH  20  21
ENDBRANCH   1  20
TORSDOF 18
ENDMDL
MODEL 3
REMARK VINA RESULT:      -8.9      6.164     10.673
REMARK SMILES C[C@@H](C(=O)OCCOC(=O)c1ccc(-c2c3nc(c(-c4cccc(S(=O)(=O)[O-])c4F)c4ccc([nH]4)c(-c4cccc(S(=O)(=O)[O-])c4F)c4nc(c(-c5cccc(S(=O)(=O)[O-])c5F)c5ccc2[nH]5)C=C4)C=C3)cc1)[C@@H](C)c1ccc(OC(F)(F)F)cc1
REMARK SMILES IDX 6 1 5 2 3 3 4 4 2 5 1 6 74 7 75 8 76 9 77 10 86 11 78 12
REMARK SMILES IDX 85 13 79 14 80 15 81 16 82 17 83 18 84 19 7 20 8 21 9 22
REMARK SMILES IDX 10 23 11 24 12 25 73 26 13 27 72 28 14 29 15 30 16 31 66 32
REMARK SMILES IDX 17 33 71 34 65 35 67 36 18 37 70 38 64 39 63 40 19 42 51 43
REMARK SMILES IDX 31 44 50 45 32 46 35 47 49 48 68 49 33 50 34 51 48 53 69 54
REMARK SMILES IDX 36 55 20 56 21 57 29 58 22 59 24 60 30 61 23 62 25 63 26 64
REMARK SMILES IDX 27 65 28 66 52 67 53 68 61 69 54 70 56 71 62 72 55 73 57 74
REMARK SMILES IDX 58 75 59 76 60 77 37 78 38 79 46 80 39 81 41 82 47 83 40 84
REMARK SMILES IDX 42 85 43 86 44 87 45 88
REMARK H PARENT 67 41 35 52
REMARK Flexibility Score: inf
ROOT
ATOM      1  C   UNL A   1      31.418  28.599  26.622  1.00  0.00     0.274 C 
ENDROOT
BRANCH   1   2
ATOM      2  O   UNL A   1      32.280  27.535  26.169  1.00  0.00    -0.462 OA
BRANCH   2   3
ATOM      3  C   UNL A   1      31.643  26.372  25.839  1.00  0.00     0.309 C 
ATOM      4  O   UNL A   1      30.721  25.919  26.498  1.00  0.00    -0.252 OA
BRANCH   3   5
ATOM      5  C   UNL A   1      32.283  25.692  24.613  1.00  0.00     0.103 C 
ATOM      6  C   UNL A   1      33.625  26.368  24.290  1.00  0.00     0.020 C 
BRANCH   5   7
ATOM      7  C   UNL A   1      31.327  25.696  23.373  1.00  0.00     0.030 C 
ATOM      8  C   UNL A   1      30.294  24.559  23.375  1.00  0.00     0.013 C 
BRANCH   7   9
ATOM      9  C   UNL A   1      30.613  27.025  23.158  1.00  0.00    -0.044 A 
ATOM     10  C   UNL A   1      31.234  28.136  22.581  1.00  0.00     0.008 A 
ATOM     11  C   UNL A   1      29.252  27.122  23.487  1.00  0.00     0.008 A 
ATOM     12  C   UNL A   1      30.491  29.289  22.298  1.00  0.00     0.047 A 
ATOM     13  C   UNL A   1      28.510  28.266  23.187  1.00  0.00     0.047 A 
ATOM     14  C   UNL A   1      29.121  29.352  22.574  1.00  0.00     0.129 A 
BRANCH  14  15
ATOM     15  O   UNL A   1      28.502  30.509  22.196  1.00  0.00    -0.406 OA
BRANCH  15  16
ATOM     16  C   UNL A   1      28.526  31.598  23.116  1.00  0.00     0.573 C 
ATOM     17  F   UNL A   1      29.158  32.663  22.580  1.00  0.00    -0.132 F 
ATOM     18  F   UNL A   1      27.275  31.937  23.487  1.00  0.00    -0.132 F 
ATOM     19  F   UNL A   1      29.214  31.201  24.208  1.00  0.00    -0.132 F 
ENDBRANCH  15  16
ENDBRANCH  14  15
ENDBRANCH   7   9
ENDBRANCH   5   7
ENDBRANCH   3   5
ENDBRANCH   2   3
ENDBRANCH   1   2
BRANCH   1  20
ATOM     20  C   UNL A   1      31.555  29.888  25.804  1.00  0.00     0.275 C 
BRANCH  20  21
ATOM     21  O   UNL A   1      32.892  30.421  25.841  1.00  0.00    -0.458 OA
BRANCH  21  22
ATOM     22  C   UNL A   1      33.123  31.347  26.799  1.00  0.00     0.338 C 
ATOM     23  O   UNL A   1      32.409  32.303  27.080  1.00  0.00    -0.246 OA
BRANCH  22  24
ATOM     24  C   UNL A   1      34.275  30.948  27.627  1.00  0.00     0.060 A 
ATOM     25  C   UNL A   1      35.124  31.973  28.050  1.00  0.00     0.016 A 
ATOM     26  C   UNL A   1      34.555  29.623  27.966  1.00  0.00     0.016 A 
ATOM     27  C   UNL A   1      36.221  31.695  28.861  1.00  0.00     0.010 A 
ATOM     28  C   UNL A   1      35.685  29.336  28.747  1.00  0.00     0.010 A 
ATOM     29  C   UNL A   1      36.517  30.372  29.209  1.00  0.00    -0.014 A 
BRANCH  29  30
ATOM     30  C   UNL A   1      37.749  30.094  29.984  1.00  0.00     0.031 A 
ATOM     31  C   UNL A   1      38.823  29.247  29.373  1.00  0.00     0.074 A 
ATOM     32  C   UNL A   1      37.934  30.635  31.203  1.00  0.00     0.049 A 
ATOM     33  N   UNL A   1      39.970  28.875  29.879  1.00  0.00    -0.248 NA
ATOM     34  C   UNL A   1      38.577  28.759  28.007  1.00  0.00     0.031 C 
ATOM     35  C   UNL A   1      36.985  31.512  31.882  1.00  0.00     0.029 A 
ATOM     36  N   UNL A   1      38.980  30.525  32.085  1.00  0.00    -0.354 N 
ATOM     37  C   UNL A   1      40.571  28.086  28.909  1.00  0.00     0.074 A 
ATOM     38  C   UNL A   1      39.670  28.047  27.776  1.00  0.00     0.031 C 
ATOM     39  C   UNL A   1      37.488  31.861  33.078  1.00  0.00     0.029 A 
ATOM     40  C   UNL A   1      38.773  31.190  33.271  1.00  0.00     0.049 A 
ATOM     41  H   UNL A   1      39.801  30.018  31.887  1.00  0.00     0.167 HD
ATOM     42  C   UNL A   1      41.761  27.445  28.959  1.00  0.00     0.034 A 
ATOM     43  C   UNL A   1      39.517  31.223  34.395  1.00  0.00     0.034 A 
ATOM     44  C   UNL A   1      42.649  27.465  30.088  1.00  0.00     0.049 A 
ATOM     45  C   UNL A   1      40.811  30.450  34.444  1.00  0.00     0.074 A 
ATOM     46  C   UNL A   1      43.866  26.823  30.237  1.00  0.00     0.029 A 
ATOM     47  N   UNL A   1      42.411  28.148  31.271  1.00  0.00    -0.354 N 
ATOM     48  N   UNL A   1      41.401  29.763  33.496  1.00  0.00    -0.248 NA
ATOM     49  C   UNL A   1      41.549  30.464  35.718  1.00  0.00     0.031 C 
ATOM     50  C   UNL A   1      44.353  27.101  31.519  1.00  0.00     0.029 A 
ATOM     51  C   UNL A   1      43.452  27.937  32.158  1.00  0.00     0.049 A 
ATOM     52  H   UNL A   1      41.618  28.703  31.452  1.00  0.00     0.167 HD
ATOM     53  C   UNL A   1      42.587  29.286  34.047  1.00  0.00     0.074 A 
ATOM     54  C   UNL A   1      42.645  29.785  35.406  1.00  0.00     0.031 C 
ATOM     55  C   UNL A   1      43.529  28.487  33.487  1.00  0.00     0.034 A 
BRANCH  42  56
ATOM     56  C   UNL A   1      42.157  26.649  27.747  1.00  0.00     0.023 A 
ATOM     57  C   UNL A   1      42.815  27.286  26.677  1.00  0.00     0.012 A 
ATOM     58  C   UNL A   1      41.889  25.268  27.676  1.00  0.00     0.148 A 
ATOM     59  C   UNL A   1      43.172  26.566  25.537  1.00  0.00     0.002 A 
ATOM     60  C   UNL A   1      42.280  24.551  26.553  1.00  0.00     0.091 A 
ATOM     61  F   UNL A   1      41.235  24.691  28.694  1.00  0.00    -0.205 F 
ATOM     62  C   UNL A   1      42.912  25.200  25.479  1.00  0.00     0.022 A 
BRANCH  60  63
ATOM     63  S   UNL A   1      42.041  22.777  26.412  1.00  0.00     0.127 S 
ATOM     64  O   UNL A   1      42.755  22.290  27.591  1.00  0.00    -0.237 OA
ATOM     65  O   UNL A   1      40.585  22.654  26.487  1.00  0.00    -0.237 OA
ATOM     66  O   UNL A   1      42.615  22.396  25.131  1.00  0.00    -0.744 OA
ENDBRANCH  60  63
ENDBRANCH  42  56
BRANCH  43  67
ATOM     67  C   UNL A   1      39.061  32.007  35.581  1.00  0.00     0.023 A 
ATOM     68  C   UNL A   1      39.348  33.383  35.661  1.00  0.00     0.012 A 
ATOM     69  C   UNL A   1      38.356  31.394  36.635  1.00  0.00     0.148 A 
ATOM     70  C   UNL A   1      38.972  34.127  36.781  1.00  0.00     0.002 A 
ATOM     71  C   UNL A   1      37.932  32.152  37.721  1.00  0.00     0.091 A 
ATOM     72  F   UNL A   1      38.117  30.077  36.558  1.00  0.00    -0.205 F 
ATOM     73  C   UNL A   1      38.254  33.515  37.805  1.00  0.00     0.022 A 
BRANCH  71  74
ATOM     74  S   UNL A   1      36.899  31.468  39.022  1.00  0.00     0.127 S 
ATOM     75  O   UNL A   1      36.658  30.114  38.531  1.00  0.00    -0.237 OA
ATOM     76  O   UNL A   1      37.781  31.554  40.186  1.00  0.00    -0.237 OA
ATOM     77  O   UNL A   1      35.731  32.336  39.090  1.00  0.00    -0.744 OA
ENDBRANCH  71  74
ENDBRANCH  43  67
BRANCH  55  78
ATOM     78  C   UNL A   1      44.729  28.120  34.324  1.00  0.00     0.023 A 
ATOM     79  C   UNL A   1      45.871  28.945  34.310  1.00  0.00     0.012 A 
ATOM     80  C   UNL A   1      44.687  27.011  35.193  1.00  0.00     0.148 A 
ATOM     81  C   UNL A   1      46.963  28.657  35.128  1.00  0.00     0.002 A 
ATOM     82  C   UNL A   1      45.761  26.757  36.039  1.00  0.00     0.091 A 
ATOM     83  F   UNL A   1      43.600  26.226  35.178  1.00  0.00    -0.205 F 
ATOM     84  C   UNL A   1      46.903  27.572  36.001  1.00  0.00     0.022 A 
BRANCH  82  85
ATOM     85  S   UNL A   1      45.730  25.443  37.264  1.00  0.00     0.127 S 
ATOM     86  O   UNL A   1      47.098  25.485  37.781  1.00  0.00    -0.237 OA
ATOM     87  O   UNL A   1      44.710  25.914  38.201  1.00  0.00    -0.237 OA
ATOM     88  O   UNL A   1      45.371  24.230  36.542  1.00  0.00    -0.744 OA
ENDBRANCH  82  85
ENDBRANCH  55  78
ENDBRANCH  29  30
ENDBRANCH  22  24
ENDBRANCH  21  22
ENDBRANCH  20  21
ENDBRANCH   1  20
TORSDOF 18
ENDMDL
