MODEL 1
REMARK VINA RESULT:     -11.2      0.000      0.000
REMARK SMILES COc1cc2c(c(OC)c1)[C@H](C)C[C@H](CC(=O)OCCOC(=O)c1ccc(-c3c4nc(c(-c5cccc(S(=O)(=O)[O-])c5F)c5ccc([nH]5)c(-c5cccc(S(=O)(=O)[O-])c5F)c5nc(c(-c6cccc(S(=O)(=O)[O-])c6F)c6ccc3[nH]6)C=C5)C=C4)cc1)C2
REMARK SMILES IDX 20 1 19 2 18 3 16 4 17 5 15 6 14 7 3 8 4 9 10 10 5 11 7 12
REMARK SMILES IDX 6 13 87 14 11 15 12 16 13 17 2 18 1 19 8 20 9 21 21 22 22 23
REMARK SMILES IDX 23 24 24 25 25 26 86 27 26 28 85 29 27 30 28 31 29 32 79 33
REMARK SMILES IDX 30 34 84 35 78 36 80 37 31 38 83 39 77 40 76 41 32 43 64 44
REMARK SMILES IDX 44 45 63 46 45 47 48 48 62 49 81 50 46 51 47 52 61 54 82 55
REMARK SMILES IDX 49 56 33 57 34 58 42 59 35 60 37 61 43 62 36 63 38 64 39 65
REMARK SMILES IDX 40 66 41 67 65 68 66 69 74 70 67 71 69 72 75 73 68 74 70 75
REMARK SMILES IDX 71 76 72 77 73 78 50 79 51 80 59 81 52 82 54 83 60 84 53 85
REMARK SMILES IDX 55 86 56 87 57 88 58 89
REMARK H PARENT 80 42 48 53
REMARK Flexibility Score: inf
ROOT
ATOM      1  C   UNL A   1      31.725  29.725  25.421  1.00  0.00     0.275 C 
ENDROOT
BRANCH   1   2
ATOM      2  C   UNL A   1      31.646  29.202  23.988  1.00  0.00     0.274 C 
BRANCH   2   3
ATOM      3  O   UNL A   1      31.847  27.776  23.954  1.00  0.00    -0.462 OA
BRANCH   3   4
ATOM      4  C   UNL A   1      30.803  26.997  24.327  1.00  0.00     0.306 C 
ATOM      5  O   UNL A   1      29.663  27.104  23.893  1.00  0.00    -0.252 OA
BRANCH   4   6
ATOM      6  C   UNL A   1      31.160  25.997  25.408  1.00  0.00     0.126 C 
BRANCH   6   7
ATOM      7  C   UNL A   1      32.104  24.854  24.998  1.00  0.00     0.005 C 
ATOM      8  C   UNL A   1      32.812  19.944  25.230  1.00  0.00     0.122 A 
ATOM      9  C   UNL A   1      31.993  21.061  25.377  1.00  0.00     0.050 A 
ATOM     10  C   UNL A   1      34.156  20.127  24.936  1.00  0.00     0.093 A 
ATOM     11  C   UNL A   1      32.518  22.365  25.316  1.00  0.00    -0.037 A 
ATOM     12  C   UNL A   1      34.688  21.420  24.849  1.00  0.00     0.126 A 
ATOM     13  C   UNL A   1      33.902  22.561  25.118  1.00  0.00     0.000 A 
ATOM     14  C   UNL A   1      31.562  23.516  25.520  1.00  0.00     0.040 C 
ATOM     15  C   UNL A   1      34.494  23.963  25.156  1.00  0.00     0.020 C 
ATOM     16  C   UNL A   1      35.704  24.088  26.096  1.00  0.00     0.013 C 
ATOM     17  C   UNL A   1      33.498  25.056  25.590  1.00  0.00     0.012 C 
BRANCH   8  18
ATOM     18  O   UNL A   1      32.191  18.732  25.348  1.00  0.00    -0.497 OA
ATOM     19  C   UNL A   1      32.529  17.781  24.344  1.00  0.00     0.278 C 
ENDBRANCH   8  18
BRANCH  12  20
ATOM     20  O   UNL A   1      36.025  21.471  24.546  1.00  0.00    -0.496 OA
ATOM     21  C   UNL A   1      36.734  20.316  25.001  1.00  0.00     0.278 C 
ENDBRANCH  12  20
ENDBRANCH   6   7
ENDBRANCH   4   6
ENDBRANCH   3   4
ENDBRANCH   2   3
ENDBRANCH   1   2
BRANCH   1  22
ATOM     22  O   UNL A   1      33.067  30.126  25.744  1.00  0.00    -0.458 OA
BRANCH  22  23
ATOM     23  C   UNL A   1      33.183  31.016  26.753  1.00  0.00     0.338 C 
ATOM     24  O   UNL A   1      32.350  31.831  27.125  1.00  0.00    -0.246 OA
BRANCH  23  25
ATOM     25  C   UNL A   1      34.448  30.772  27.455  1.00  0.00     0.060 A 
ATOM     26  C   UNL A   1      34.714  29.480  27.918  1.00  0.00     0.016 A 
ATOM     27  C   UNL A   1      35.348  31.812  27.684  1.00  0.00     0.016 A 
ATOM     28  C   UNL A   1      35.893  29.218  28.610  1.00  0.00     0.010 A 
ATOM     29  C   UNL A   1      36.532  31.548  28.378  1.00  0.00     0.010 A 
ATOM     30  C   UNL A   1      36.808  30.252  28.848  1.00  0.00    -0.014 A 
BRANCH  30  31
ATOM     31  C   UNL A   1      38.049  29.989  29.613  1.00  0.00     0.031 A 
ATOM     32  C   UNL A   1      39.091  29.067  29.049  1.00  0.00     0.074 A 
ATOM     33  C   UNL A   1      38.221  30.556  30.822  1.00  0.00     0.049 A 
ATOM     34  N   UNL A   1      40.191  28.628  29.602  1.00  0.00    -0.248 NA
ATOM     35  C   UNL A   1      38.863  28.568  27.682  1.00  0.00     0.031 C 
ATOM     36  C   UNL A   1      37.279  31.474  31.465  1.00  0.00     0.029 A 
ATOM     37  N   UNL A   1      39.233  30.420  31.738  1.00  0.00    -0.354 N 
ATOM     38  C   UNL A   1      40.772  27.778  28.670  1.00  0.00     0.074 A 
ATOM     39  C   UNL A   1      39.900  27.758  27.514  1.00  0.00     0.031 C 
ATOM     40  C   UNL A   1      37.746  31.800  32.681  1.00  0.00     0.029 A 
ATOM     41  C   UNL A   1      38.999  31.088  32.918  1.00  0.00     0.049 A 
ATOM     42  H   UNL A   1      40.049  29.894  31.568  1.00  0.00     0.167 HD
ATOM     43  C   UNL A   1      41.935  27.090  28.763  1.00  0.00     0.034 A 
ATOM     44  C   UNL A   1      39.702  31.099  34.067  1.00  0.00     0.034 A 
ATOM     45  C   UNL A   1      42.810  27.139  29.903  1.00  0.00     0.049 A 
ATOM     46  C   UNL A   1      40.978  30.304  34.150  1.00  0.00     0.074 A 
ATOM     47  C   UNL A   1      44.026  26.502  30.081  1.00  0.00     0.029 A 
ATOM     48  N   UNL A   1      42.567  27.866  31.057  1.00  0.00    -0.354 N 
ATOM     49  N   UNL A   1      41.562  29.581  33.225  1.00  0.00    -0.248 NA
ATOM     50  C   UNL A   1      41.705  30.344  35.427  1.00  0.00     0.031 C 
ATOM     51  C   UNL A   1      44.511  26.835  31.350  1.00  0.00     0.029 A 
ATOM     52  C   UNL A   1      43.605  27.690  31.955  1.00  0.00     0.049 A 
ATOM     53  H   UNL A   1      41.772  28.425  31.216  1.00  0.00     0.167 HD
ATOM     54  C   UNL A   1      42.737  29.106  33.796  1.00  0.00     0.074 A 
ATOM     55  C   UNL A   1      42.795  29.644  35.140  1.00  0.00     0.031 C 
ATOM     56  C   UNL A   1      43.674  28.283  33.266  1.00  0.00     0.034 A 
BRANCH  43  57
ATOM     57  C   UNL A   1      42.351  26.255  27.584  1.00  0.00     0.023 A 
ATOM     58  C   UNL A   1      43.207  26.811  26.612  1.00  0.00     0.012 A 
ATOM     59  C   UNL A   1      41.960  24.906  27.474  1.00  0.00     0.148 A 
ATOM     60  C   UNL A   1      43.651  26.043  25.535  1.00  0.00     0.002 A 
ATOM     61  C   UNL A   1      42.436  24.137  26.417  1.00  0.00     0.091 A 
ATOM     62  F   UNL A   1      41.129  24.404  28.397  1.00  0.00    -0.205 F 
ATOM     63  C   UNL A   1      43.274  24.706  25.444  1.00  0.00     0.022 A 
BRANCH  61  64
ATOM     64  S   UNL A   1      42.064  22.388  26.245  1.00  0.00     0.127 S 
ATOM     65  O   UNL A   1      42.767  22.057  25.007  1.00  0.00    -0.237 OA
ATOM     66  O   UNL A   1      42.663  21.824  27.456  1.00  0.00    -0.237 OA
ATOM     67  O   UNL A   1      40.613  22.289  26.183  1.00  0.00    -0.744 OA
ENDBRANCH  61  64
ENDBRANCH  43  57
BRANCH  44  68
ATOM     68  C   UNL A   1      39.233  31.914  35.224  1.00  0.00     0.023 A 
ATOM     69  C   UNL A   1      38.300  31.362  36.122  1.00  0.00     0.012 A 
ATOM     70  C   UNL A   1      39.709  33.220  35.446  1.00  0.00     0.148 A 
ATOM     71  C   UNL A   1      37.828  32.105  37.205  1.00  0.00     0.002 A 
ATOM     72  C   UNL A   1      39.276  33.936  36.558  1.00  0.00     0.091 A 
ATOM     73  F   UNL A   1      40.577  33.741  34.568  1.00  0.00    -0.205 F 
ATOM     74  C   UNL A   1      38.324  33.388  37.429  1.00  0.00     0.022 A 
BRANCH  72  75
ATOM     75  S   UNL A   1      39.966  35.540  36.982  1.00  0.00     0.127 S 
ATOM     76  O   UNL A   1      39.276  35.842  38.233  1.00  0.00    -0.237 OA
ATOM     77  O   UNL A   1      41.391  35.236  37.124  1.00  0.00    -0.237 OA
ATOM     78  O   UNL A   1      39.653  36.404  35.852  1.00  0.00    -0.744 OA
ENDBRANCH  72  75
ENDBRANCH  44  68
BRANCH  56  79
ATOM     79  C   UNL A   1      44.860  27.932  34.124  1.00  0.00     0.023 A 
ATOM     80  C   UNL A   1      45.994  28.768  34.116  1.00  0.00     0.012 A 
ATOM     81  C   UNL A   1      44.821  26.825  34.995  1.00  0.00     0.148 A 
ATOM     82  C   UNL A   1      47.082  28.492  34.943  1.00  0.00     0.002 A 
ATOM     83  C   UNL A   1      45.891  26.582  35.847  1.00  0.00     0.091 A 
ATOM     84  F   UNL A   1      43.739  26.032  34.972  1.00  0.00    -0.205 F 
ATOM     85  C   UNL A   1      47.026  27.408  35.816  1.00  0.00     0.022 A 
BRANCH  83  86
ATOM     86  S   UNL A   1      45.867  25.262  37.066  1.00  0.00     0.127 S 
ATOM     87  O   UNL A   1      47.166  25.432  37.715  1.00  0.00    -0.237 OA
ATOM     88  O   UNL A   1      44.718  25.625  37.897  1.00  0.00    -0.237 OA
ATOM     89  O   UNL A   1      45.699  24.026  36.314  1.00  0.00    -0.744 OA
ENDBRANCH  83  86
ENDBRANCH  56  79
ENDBRANCH  30  31
ENDBRANCH  23  25
ENDBRANCH  22  23
ENDBRANCH   1  22
TORSDOF 17
ENDMDL
MODEL 2
REMARK VINA RESULT:     -11.2      5.182      8.462
REMARK SMILES COc1cc2c(c(OC)c1)[C@H](C)C[C@H](CC(=O)OCCOC(=O)c1ccc(-c3c4nc(c(-c5cccc(S(=O)(=O)[O-])c5F)c5ccc([nH]5)c(-c5cccc(S(=O)(=O)[O-])c5F)c5nc(c(-c6cccc(S(=O)(=O)[O-])c6F)c6ccc3[nH]6)C=C5)C=C4)cc1)C2
REMARK SMILES IDX 20 1 19 2 18 3 16 4 17 5 15 6 14 7 3 8 4 9 10 10 5 11 7 12
REMARK SMILES IDX 6 13 87 14 11 15 12 16 13 17 2 18 1 19 8 20 9 21 21 22 22 23
REMARK SMILES IDX 23 24 24 25 25 26 86 27 26 28 85 29 27 30 28 31 29 32 79 33
REMARK SMILES IDX 30 34 84 35 78 36 80 37 31 38 83 39 77 40 76 41 32 43 64 44
REMARK SMILES IDX 44 45 63 46 45 47 48 48 62 49 81 50 46 51 47 52 61 54 82 55
REMARK SMILES IDX 49 56 33 57 34 58 42 59 35 60 37 61 43 62 36 63 38 64 39 65
REMARK SMILES IDX 40 66 41 67 65 68 66 69 74 70 67 71 69 72 75 73 68 74 70 75
REMARK SMILES IDX 71 76 72 77 73 78 50 79 51 80 59 81 52 82 54 83 60 84 53 85
REMARK SMILES IDX 55 86 56 87 57 88 58 89
REMARK H PARENT 80 42 48 53
REMARK Flexibility Score: inf
ROOT
ATOM      1  C   UNL A   1      39.314  19.348  25.381  1.00  0.00     0.275 C 
ENDROOT
BRANCH   1   2
ATOM      2  C   UNL A   1      38.170  20.312  25.070  1.00  0.00     0.274 C 
BRANCH   2   3
ATOM      3  O   UNL A   1      38.165  21.412  26.000  1.00  0.00    -0.462 OA
BRANCH   3   4
ATOM      4  C   UNL A   1      37.840  22.632  25.509  1.00  0.00     0.306 C 
ATOM      5  O   UNL A   1      38.278  23.695  25.933  1.00  0.00    -0.252 OA
BRANCH   4   6
ATOM      6  C   UNL A   1      36.807  22.574  24.402  1.00  0.00     0.126 C 
BRANCH   6   7
ATOM      7  C   UNL A   1      35.365  22.943  24.791  1.00  0.00     0.005 C 
ATOM      8  C   UNL A   1      32.313  26.731  25.790  1.00  0.00     0.122 A 
ATOM      9  C   UNL A   1      33.515  26.241  25.286  1.00  0.00     0.050 A 
ATOM     10  C   UNL A   1      31.442  25.857  26.428  1.00  0.00     0.093 A 
ATOM     11  C   UNL A   1      33.899  24.902  25.485  1.00  0.00    -0.037 A 
ATOM     12  C   UNL A   1      31.801  24.516  26.611  1.00  0.00     0.126 A 
ATOM     13  C   UNL A   1      33.066  24.030  26.220  1.00  0.00     0.000 A 
ATOM     14  C   UNL A   1      35.234  24.466  24.932  1.00  0.00     0.040 C 
ATOM     15  C   UNL A   1      33.522  22.611  26.529  1.00  0.00     0.020 C 
ATOM     16  C   UNL A   1      33.403  22.243  28.017  1.00  0.00     0.013 C 
ATOM     17  C   UNL A   1      34.980  22.315  26.129  1.00  0.00     0.012 C 
BRANCH   8  18
ATOM     18  O   UNL A   1      32.071  28.058  25.566  1.00  0.00    -0.497 OA
ATOM     19  C   UNL A   1      33.176  28.794  25.055  1.00  0.00     0.278 C 
ENDBRANCH   8  18
BRANCH  12  20
ATOM     20  O   UNL A   1      30.856  23.752  27.249  1.00  0.00    -0.496 OA
ATOM     21  C   UNL A   1      30.125  22.919  26.346  1.00  0.00     0.278 C 
ENDBRANCH  12  20
ENDBRANCH   6   7
ENDBRANCH   4   6
ENDBRANCH   3   4
ENDBRANCH   2   3
ENDBRANCH   1   2
BRANCH   1  22
ATOM     22  O   UNL A   1      39.971  19.714  26.605  1.00  0.00    -0.458 OA
BRANCH  22  23
ATOM     23  C   UNL A   1      41.306  19.899  26.519  1.00  0.00     0.338 C 
ATOM     24  O   UNL A   1      42.150  19.079  26.182  1.00  0.00    -0.246 OA
BRANCH  23  25
ATOM     25  C   UNL A   1      41.604  21.313  26.767  1.00  0.00     0.060 A 
ATOM     26  C   UNL A   1      41.546  22.205  25.693  1.00  0.00     0.016 A 
ATOM     27  C   UNL A   1      41.969  21.752  28.040  1.00  0.00     0.016 A 
ATOM     28  C   UNL A   1      41.847  23.551  25.889  1.00  0.00     0.010 A 
ATOM     29  C   UNL A   1      42.270  23.102  28.236  1.00  0.00     0.010 A 
ATOM     30  C   UNL A   1      42.215  24.007  27.160  1.00  0.00    -0.014 A 
BRANCH  30  31
ATOM     31  C   UNL A   1      42.570  25.430  27.370  1.00  0.00     0.031 A 
ATOM     32  C   UNL A   1      43.926  25.928  26.961  1.00  0.00     0.074 A 
ATOM     33  C   UNL A   1      41.684  26.259  27.954  1.00  0.00     0.049 A 
ATOM     34  N   UNL A   1      44.465  27.104  27.151  1.00  0.00    -0.248 NA
ATOM     35  C   UNL A   1      44.792  24.976  26.245  1.00  0.00     0.031 C 
ATOM     36  C   UNL A   1      40.336  25.886  28.385  1.00  0.00     0.029 A 
ATOM     37  N   UNL A   1      41.797  27.579  28.311  1.00  0.00    -0.354 N 
ATOM     38  C   UNL A   1      45.742  27.027  26.611  1.00  0.00     0.074 A 
ATOM     39  C   UNL A   1      45.901  25.687  26.088  1.00  0.00     0.031 C 
ATOM     40  C   UNL A   1      39.755  26.946  28.972  1.00  0.00     0.029 A 
ATOM     41  C   UNL A   1      40.700  28.059  28.989  1.00  0.00     0.049 A 
ATOM     42  H   UNL A   1      42.587  28.129  28.104  1.00  0.00     0.167 HD
ATOM     43  C   UNL A   1      46.690  27.992  26.544  1.00  0.00     0.034 A 
ATOM     44  C   UNL A   1      40.495  29.252  29.581  1.00  0.00     0.034 A 
ATOM     45  C   UNL A   1      46.514  29.330  27.040  1.00  0.00     0.049 A 
ATOM     46  C   UNL A   1      41.577  30.297  29.512  1.00  0.00     0.074 A 
ATOM     47  C   UNL A   1      47.403  30.389  26.991  1.00  0.00     0.029 A 
ATOM     48  N   UNL A   1      45.372  29.796  27.673  1.00  0.00    -0.354 N 
ATOM     49  N   UNL A   1      42.743  30.239  28.914  1.00  0.00    -0.248 NA
ATOM     50  C   UNL A   1      41.307  31.579  30.178  1.00  0.00     0.031 C 
ATOM     51  C   UNL A   1      46.802  31.492  27.607  1.00  0.00     0.029 A 
ATOM     52  C   UNL A   1      45.534  31.124  28.026  1.00  0.00     0.049 A 
ATOM     53  H   UNL A   1      44.564  29.260  27.847  1.00  0.00     0.167 HD
ATOM     54  C   UNL A   1      43.331  31.484  29.106  1.00  0.00     0.074 A 
ATOM     55  C   UNL A   1      42.383  32.284  29.854  1.00  0.00     0.031 C 
ATOM     56  C   UNL A   1      44.554  31.922  28.717  1.00  0.00     0.034 A 
BRANCH  43  57
ATOM     57  C   UNL A   1      47.992  27.650  25.874  1.00  0.00     0.023 A 
ATOM     58  C   UNL A   1      49.078  27.212  26.659  1.00  0.00     0.012 A 
ATOM     59  C   UNL A   1      48.121  27.690  24.472  1.00  0.00     0.148 A 
ATOM     60  C   UNL A   1      50.281  26.839  26.060  1.00  0.00     0.002 A 
ATOM     61  C   UNL A   1      49.312  27.281  23.880  1.00  0.00     0.091 A 
ATOM     62  F   UNL A   1      47.084  28.129  23.747  1.00  0.00    -0.205 F 
ATOM     63  C   UNL A   1      50.393  26.863  24.672  1.00  0.00     0.022 A 
BRANCH  61  64
ATOM     64  S   UNL A   1      49.536  27.211  22.099  1.00  0.00     0.127 S 
ATOM     65  O   UNL A   1      48.608  26.145  21.727  1.00  0.00    -0.237 OA
ATOM     66  O   UNL A   1      49.122  28.552  21.683  1.00  0.00    -0.237 OA
ATOM     67  O   UNL A   1      50.945  26.915  21.882  1.00  0.00    -0.744 OA
ENDBRANCH  61  64
ENDBRANCH  43  57
BRANCH  44  68
ATOM     68  C   UNL A   1      39.201  29.535  30.266  1.00  0.00     0.023 A 
ATOM     69  C   UNL A   1      38.976  29.017  31.555  1.00  0.00     0.012 A 
ATOM     70  C   UNL A   1      38.203  30.319  29.657  1.00  0.00     0.148 A 
ATOM     71  C   UNL A   1      37.768  29.251  32.215  1.00  0.00     0.002 A 
ATOM     72  C   UNL A   1      37.023  30.594  30.342  1.00  0.00     0.091 A 
ATOM     73  F   UNL A   1      38.421  30.783  28.418  1.00  0.00    -0.205 F 
ATOM     74  C   UNL A   1      36.797  30.048  31.613  1.00  0.00     0.022 A 
BRANCH  72  75
ATOM     75  S   UNL A   1      35.783  31.715  29.685  1.00  0.00     0.127 S 
ATOM     76  O   UNL A   1      35.172  30.906  28.635  1.00  0.00    -0.237 OA
ATOM     77  O   UNL A   1      34.932  31.953  30.852  1.00  0.00    -0.237 OA
ATOM     78  O   UNL A   1      36.523  32.889  29.241  1.00  0.00    -0.744 OA
ENDBRANCH  72  75
ENDBRANCH  44  68
BRANCH  56  79
ATOM     79  C   UNL A   1      44.932  33.337  29.065  1.00  0.00     0.023 A 
ATOM     80  C   UNL A   1      45.515  33.611  30.317  1.00  0.00     0.012 A 
ATOM     81  C   UNL A   1      44.785  34.376  28.126  1.00  0.00     0.148 A 
ATOM     82  C   UNL A   1      45.922  34.905  30.639  1.00  0.00     0.002 A 
ATOM     83  C   UNL A   1      45.232  35.654  28.438  1.00  0.00     0.091 A 
ATOM     84  F   UNL A   1      44.209  34.097  26.946  1.00  0.00    -0.205 F 
ATOM     85  C   UNL A   1      45.792  35.923  29.697  1.00  0.00     0.022 A 
BRANCH  83  86
ATOM     86  S   UNL A   1      45.187  37.005  27.253  1.00  0.00     0.127 S 
ATOM     87  O   UNL A   1      45.792  38.093  28.018  1.00  0.00    -0.237 OA
ATOM     88  O   UNL A   1      46.018  36.491  26.162  1.00  0.00    -0.237 OA
ATOM     89  O   UNL A   1      43.784  37.185  26.907  1.00  0.00    -0.744 OA
ENDBRANCH  83  86
ENDBRANCH  56  79
ENDBRANCH  30  31
ENDBRANCH  23  25
ENDBRANCH  22  23
ENDBRANCH   1  22
TORSDOF 17
ENDMDL
MODEL 3
REMARK VINA RESULT:     -11.1      4.753     10.127
REMARK SMILES COc1cc2c(c(OC)c1)[C@H](C)C[C@H](CC(=O)OCCOC(=O)c1ccc(-c3c4nc(c(-c5cccc(S(=O)(=O)[O-])c5F)c5ccc([nH]5)c(-c5cccc(S(=O)(=O)[O-])c5F)c5nc(c(-c6cccc(S(=O)(=O)[O-])c6F)c6ccc3[nH]6)C=C5)C=C4)cc1)C2
REMARK SMILES IDX 20 1 19 2 18 3 16 4 17 5 15 6 14 7 3 8 4 9 10 10 5 11 7 12
REMARK SMILES IDX 6 13 87 14 11 15 12 16 13 17 2 18 1 19 8 20 9 21 21 22 22 23
REMARK SMILES IDX 23 24 24 25 25 26 86 27 26 28 85 29 27 30 28 31 29 32 79 33
REMARK SMILES IDX 30 34 84 35 78 36 80 37 31 38 83 39 77 40 76 41 32 43 64 44
REMARK SMILES IDX 44 45 63 46 45 47 48 48 62 49 81 50 46 51 47 52 61 54 82 55
REMARK SMILES IDX 49 56 33 57 34 58 42 59 35 60 37 61 43 62 36 63 38 64 39 65
REMARK SMILES IDX 40 66 41 67 65 68 66 69 74 70 67 71 69 72 75 73 68 74 70 75
REMARK SMILES IDX 71 76 72 77 73 78 50 79 51 80 59 81 52 82 54 83 60 84 53 85
REMARK SMILES IDX 55 86 56 87 57 88 58 89
REMARK H PARENT 80 42 48 53
REMARK Flexibility Score: inf
ROOT
ATOM      1  C   UNL A   1      36.388  20.277  25.215  1.00  0.00     0.275 C 
ENDROOT
BRANCH   1   2
ATOM      2  C   UNL A   1      34.959  20.770  24.993  1.00  0.00     0.274 C 
BRANCH   2   3
ATOM      3  O   UNL A   1      34.898  21.664  23.865  1.00  0.00    -0.462 OA
BRANCH   3   4
ATOM      4  C   UNL A   1      33.957  22.638  23.902  1.00  0.00     0.306 C 
ATOM      5  O   UNL A   1      32.753  22.451  23.779  1.00  0.00    -0.252 OA
BRANCH   4   6
ATOM      6  C   UNL A   1      34.543  24.029  24.045  1.00  0.00     0.126 C 
BRANCH   6   7
ATOM      7  C   UNL A   1      33.567  25.144  24.457  1.00  0.00     0.005 C 
ATOM      8  C   UNL A   1      30.648  28.773  22.735  1.00  0.00     0.122 A 
ATOM      9  C   UNL A   1      31.415  27.630  22.525  1.00  0.00     0.050 A 
ATOM     10  C   UNL A   1      30.640  29.360  23.993  1.00  0.00     0.093 A 
ATOM     11  C   UNL A   1      32.244  27.111  23.537  1.00  0.00    -0.037 A 
ATOM     12  C   UNL A   1      31.441  28.840  25.016  1.00  0.00     0.126 A 
ATOM     13  C   UNL A   1      32.320  27.760  24.790  1.00  0.00     0.000 A 
ATOM     14  C   UNL A   1      33.067  25.889  23.211  1.00  0.00     0.040 C 
ATOM     15  C   UNL A   1      33.293  27.267  25.852  1.00  0.00     0.020 C 
ATOM     16  C   UNL A   1      34.180  28.382  26.430  1.00  0.00     0.013 C 
ATOM     17  C   UNL A   1      34.251  26.163  25.367  1.00  0.00     0.012 C 
BRANCH   8  18
ATOM     18  O   UNL A   1      29.914  29.201  21.663  1.00  0.00    -0.497 OA
ATOM     19  C   UNL A   1      29.186  30.405  21.874  1.00  0.00     0.278 C 
ENDBRANCH   8  18
BRANCH  12  20
ATOM     20  O   UNL A   1      31.342  29.501  26.215  1.00  0.00    -0.496 OA
ATOM     21  C   UNL A   1      31.875  30.826  26.154  1.00  0.00     0.278 C 
ENDBRANCH  12  20
ENDBRANCH   6   7
ENDBRANCH   4   6
ENDBRANCH   3   4
ENDBRANCH   2   3
ENDBRANCH   1   2
BRANCH   1  22
ATOM     22  O   UNL A   1      37.265  21.375  25.518  1.00  0.00    -0.458 OA
BRANCH  22  23
ATOM     23  C   UNL A   1      38.522  21.036  25.878  1.00  0.00     0.338 C 
ATOM     24  O   UNL A   1      39.062  19.945  25.754  1.00  0.00    -0.246 OA
BRANCH  23  25
ATOM     25  C   UNL A   1      39.223  22.240  26.335  1.00  0.00     0.060 A 
ATOM     26  C   UNL A   1      38.755  23.486  25.910  1.00  0.00     0.016 A 
ATOM     27  C   UNL A   1      40.352  22.141  27.149  1.00  0.00     0.016 A 
ATOM     28  C   UNL A   1      39.412  24.648  26.306  1.00  0.00     0.010 A 
ATOM     29  C   UNL A   1      41.011  23.308  27.546  1.00  0.00     0.010 A 
ATOM     30  C   UNL A   1      40.547  24.567  27.122  1.00  0.00    -0.014 A 
BRANCH  30  31
ATOM     31  C   UNL A   1      41.272  25.796  27.520  1.00  0.00     0.031 A 
ATOM     32  C   UNL A   1      40.550  26.878  28.270  1.00  0.00     0.074 A 
ATOM     33  C   UNL A   1      42.566  25.948  27.178  1.00  0.00     0.049 A 
ATOM     34  N   UNL A   1      40.972  28.065  28.616  1.00  0.00    -0.248 NA
ATOM     35  C   UNL A   1      39.166  26.586  28.683  1.00  0.00     0.031 C 
ATOM     36  C   UNL A   1      43.369  24.960  26.456  1.00  0.00     0.029 A 
ATOM     37  N   UNL A   1      43.422  27.003  27.367  1.00  0.00    -0.354 N 
ATOM     38  C   UNL A   1      39.902  28.676  29.257  1.00  0.00     0.074 A 
ATOM     39  C   UNL A   1      38.806  27.730  29.249  1.00  0.00     0.031 C 
ATOM     40  C   UNL A   1      44.595  25.466  26.241  1.00  0.00     0.029 A 
ATOM     41  C   UNL A   1      44.652  26.822  26.778  1.00  0.00     0.049 A 
ATOM     42  H   UNL A   1      43.180  27.811  27.875  1.00  0.00     0.167 HD
ATOM     43  C   UNL A   1      39.845  29.909  29.815  1.00  0.00     0.034 A 
ATOM     44  C   UNL A   1      45.694  27.668  26.661  1.00  0.00     0.034 A 
ATOM     45  C   UNL A   1      40.947  30.832  29.846  1.00  0.00     0.049 A 
ATOM     46  C   UNL A   1      45.592  29.042  27.270  1.00  0.00     0.074 A 
ATOM     47  C   UNL A   1      40.998  32.092  30.415  1.00  0.00     0.029 A 
ATOM     48  N   UNL A   1      42.193  30.595  29.286  1.00  0.00    -0.354 N 
ATOM     49  N   UNL A   1      44.607  29.569  27.956  1.00  0.00    -0.248 NA
ATOM     50  C   UNL A   1      46.753  29.928  27.110  1.00  0.00     0.031 C 
ATOM     51  C   UNL A   1      42.271  32.623  30.187  1.00  0.00     0.029 A 
ATOM     52  C   UNL A   1      43.018  31.687  29.489  1.00  0.00     0.049 A 
ATOM     53  H   UNL A   1      42.453  29.772  28.812  1.00  0.00     0.167 HD
ATOM     54  C   UNL A   1      45.040  30.835  28.334  1.00  0.00     0.074 A 
ATOM     55  C   UNL A   1      46.387  30.986  27.822  1.00  0.00     0.031 C 
ATOM     56  C   UNL A   1      44.377  31.795  29.025  1.00  0.00     0.034 A 
BRANCH  43  57
ATOM     57  C   UNL A   1      38.558  30.319  30.478  1.00  0.00     0.023 A 
ATOM     58  C   UNL A   1      38.372  30.051  31.850  1.00  0.00     0.012 A 
ATOM     59  C   UNL A   1      37.570  31.029  29.769  1.00  0.00     0.148 A 
ATOM     60  C   UNL A   1      37.212  30.465  32.502  1.00  0.00     0.002 A 
ATOM     61  C   UNL A   1      36.431  31.471  30.436  1.00  0.00     0.091 A 
ATOM     62  F   UNL A   1      37.758  31.254  28.462  1.00  0.00    -0.205 F 
ATOM     63  C   UNL A   1      36.248  31.183  31.798  1.00  0.00     0.022 A 
BRANCH  61  64
ATOM     64  S   UNL A   1      35.162  32.461  29.637  1.00  0.00     0.127 S 
ATOM     65  O   UNL A   1      35.942  33.593  29.139  1.00  0.00    -0.237 OA
ATOM     66  O   UNL A   1      34.671  31.554  28.599  1.00  0.00    -0.237 OA
ATOM     67  O   UNL A   1      34.190  32.781  30.673  1.00  0.00    -0.744 OA
ENDBRANCH  61  64
ENDBRANCH  43  57
BRANCH  44  68
ATOM     68  C   UNL A   1      46.938  27.232  25.964  1.00  0.00     0.023 A 
ATOM     69  C   UNL A   1      47.053  27.426  24.574  1.00  0.00     0.012 A 
ATOM     70  C   UNL A   1      48.006  26.639  26.665  1.00  0.00     0.148 A 
ATOM     71  C   UNL A   1      48.198  27.013  23.890  1.00  0.00     0.002 A 
ATOM     72  C   UNL A   1      49.165  26.279  25.987  1.00  0.00     0.091 A 
ATOM     73  F   UNL A   1      47.870  26.437  27.983  1.00  0.00    -0.205 F 
ATOM     74  C   UNL A   1      49.258  26.450  24.598  1.00  0.00     0.022 A 
BRANCH  72  75
ATOM     75  S   UNL A   1      50.619  25.668  26.848  1.00  0.00     0.127 S 
ATOM     76  O   UNL A   1      50.108  24.451  27.473  1.00  0.00    -0.237 OA
ATOM     77  O   UNL A   1      51.560  25.446  25.749  1.00  0.00    -0.237 OA
ATOM     78  O   UNL A   1      51.007  26.740  27.755  1.00  0.00    -0.744 OA
ENDBRANCH  72  75
ENDBRANCH  44  68
BRANCH  56  79
ATOM     79  C   UNL A   1      45.103  33.085  29.296  1.00  0.00     0.023 A 
ATOM     80  C   UNL A   1      45.883  33.211  30.462  1.00  0.00     0.012 A 
ATOM     81  C   UNL A   1      45.078  34.139  28.362  1.00  0.00     0.148 A 
ATOM     82  C   UNL A   1      46.607  34.377  30.707  1.00  0.00     0.002 A 
ATOM     83  C   UNL A   1      45.836  35.281  28.592  1.00  0.00     0.091 A 
ATOM     84  F   UNL A   1      44.314  34.006  27.267  1.00  0.00    -0.205 F 
ATOM     85  C   UNL A   1      46.593  35.406  29.768  1.00  0.00     0.022 A 
BRANCH  83  86
ATOM     86  S   UNL A   1      45.949  36.617  27.395  1.00  0.00     0.127 S 
ATOM     87  O   UNL A   1      44.589  37.149  27.413  1.00  0.00    -0.237 OA
ATOM     88  O   UNL A   1      46.955  37.492  27.999  1.00  0.00    -0.237 OA
ATOM     89  O   UNL A   1      46.364  35.998  26.144  1.00  0.00    -0.744 OA
ENDBRANCH  83  86
ENDBRANCH  56  79
ENDBRANCH  30  31
ENDBRANCH  23  25
ENDBRANCH  22  23
ENDBRANCH   1  22
TORSDOF 17
ENDMDL
