MODEL 1
REMARK VINA RESULT:     -11.1      0.000      0.000
REMARK SMILES COc1ccc(Cl)cc1-c1cnc(OC)c(C(=O)OCCOC(=O)c2ccc(-c3c4nc(c(-c5cccc(S(=O)(=O)[O-])c5F)c5ccc([nH]5)c(-c5cccc(S(=O)(=O)[O-])c5F)c5nc(c(-c6cccc(S(=O)(=O)[O-])c6F)c6ccc3[nH]6)C=C5)C=C4)cc2)c1
REMARK SMILES IDX 21 1 20 2 19 3 17 4 18 5 16 6 10 7 11 8 88 9 12 10 13 11
REMARK SMILES IDX 9 12 3 13 4 14 5 15 8 16 6 17 7 18 2 19 1 20 14 21 15 22
REMARK SMILES IDX 22 23 23 24 24 25 25 26 26 27 87 28 27 29 86 30 28 31 29 32
REMARK SMILES IDX 30 33 80 34 31 35 85 36 79 37 81 38 32 39 84 40 78 41 77 42
REMARK SMILES IDX 33 44 65 45 45 46 64 47 46 48 49 49 63 50 82 51 47 52 48 53
REMARK SMILES IDX 62 55 83 56 50 57 34 58 35 59 43 60 36 61 38 62 44 63 37 64
REMARK SMILES IDX 39 65 40 66 41 67 42 68 66 69 67 70 75 71 68 72 70 73 76 74
REMARK SMILES IDX 69 75 71 76 72 77 73 78 74 79 51 80 52 81 60 82 53 83 55 84
REMARK SMILES IDX 61 85 54 86 56 87 57 88 58 89 59 90
REMARK H PARENT 81 43 49 54
REMARK Flexibility Score: inf
ROOT
ATOM      1  C   UNL A   1      37.077  21.018  24.626  1.00  0.00     0.275 C 
ENDROOT
BRANCH   1   2
ATOM      2  C   UNL A   1      36.767  22.222  23.736  1.00  0.00     0.275 C 
BRANCH   2   3
ATOM      3  O   UNL A   1      35.810  23.053  24.411  1.00  0.00    -0.458 OA
BRANCH   3   4
ATOM      4  C   UNL A   1      34.710  23.392  23.704  1.00  0.00     0.343 C 
ATOM      5  O   UNL A   1      34.555  23.312  22.502  1.00  0.00    -0.246 OA
BRANCH   4   6
ATOM      6  C   UNL A   1      33.715  23.885  24.659  1.00  0.00     0.122 A 
ATOM      7  C   UNL A   1      32.498  25.845  25.439  1.00  0.00     0.005 A 
ATOM      8  C   UNL A   1      31.848  24.985  26.311  1.00  0.00     0.124 A 
ATOM      9  C   UNL A   1      33.482  25.270  24.633  1.00  0.00     0.032 A 
ATOM     10  N   UNL A   1      32.080  23.653  26.380  1.00  0.00    -0.221 NA
ATOM     11  C   UNL A   1      32.984  23.093  25.533  1.00  0.00     0.227 A 
BRANCH   7  12
ATOM     12  C   UNL A   1      32.095  27.246  25.275  1.00  0.00     0.027 A 
ATOM     13  C   UNL A   1      32.768  28.268  25.979  1.00  0.00     0.126 A 
ATOM     14  C   UNL A   1      32.426  29.612  25.813  1.00  0.00     0.048 A 
ATOM     15  C   UNL A   1      31.385  29.956  24.954  1.00  0.00     0.024 A 
ATOM     16  C   UNL A   1      31.052  27.612  24.412  1.00  0.00     0.033 A 
ATOM     17  C   UNL A   1      30.704  28.958  24.257  1.00  0.00     0.041 A 
ATOM     18  Cl  UNL A   1      29.430  29.397  23.186  1.00  0.00    -0.084 Cl
BRANCH  13  19
ATOM     19  O   UNL A   1      33.855  27.932  26.748  1.00  0.00    -0.496 OA
ATOM     20  C   UNL A   1      34.617  29.073  27.137  1.00  0.00     0.278 C 
ENDBRANCH  13  19
ENDBRANCH   7  12
BRANCH  11  21
ATOM     21  O   UNL A   1      33.022  21.753  25.739  1.00  0.00    -0.480 OA
ATOM     22  C   UNL A   1      32.159  20.866  25.055  1.00  0.00     0.280 C 
ENDBRANCH  11  21
ENDBRANCH   4   6
ENDBRANCH   3   4
ENDBRANCH   2   3
ENDBRANCH   1   2
BRANCH   1  23
ATOM     23  O   UNL A   1      37.553  21.463  25.911  1.00  0.00    -0.458 OA
BRANCH  23  24
ATOM     24  C   UNL A   1      38.885  21.303  26.131  1.00  0.00     0.338 C 
ATOM     25  O   UNL A   1      39.549  20.307  25.893  1.00  0.00    -0.246 OA
BRANCH  24  26
ATOM     26  C   UNL A   1      39.467  22.587  26.584  1.00  0.00     0.060 A 
ATOM     27  C   UNL A   1      38.962  23.771  26.035  1.00  0.00     0.016 A 
ATOM     28  C   UNL A   1      40.483  22.635  27.543  1.00  0.00     0.016 A 
ATOM     29  C   UNL A   1      39.456  25.006  26.457  1.00  0.00     0.010 A 
ATOM     30  C   UNL A   1      40.995  23.871  27.946  1.00  0.00     0.010 A 
ATOM     31  C   UNL A   1      40.488  25.061  27.401  1.00  0.00    -0.014 A 
BRANCH  31  32
ATOM     32  C   UNL A   1      41.102  26.360  27.753  1.00  0.00     0.031 A 
ATOM     33  C   UNL A   1      42.524  26.628  27.354  1.00  0.00     0.074 A 
ATOM     34  C   UNL A   1      40.405  27.282  28.441  1.00  0.00     0.049 A 
ATOM     35  N   UNL A   1      43.241  27.707  27.524  1.00  0.00    -0.248 NA
ATOM     36  C   UNL A   1      43.231  25.534  26.666  1.00  0.00     0.031 C 
ATOM     37  C   UNL A   1      39.020  27.133  28.884  1.00  0.00     0.029 A 
ATOM     38  N   UNL A   1      40.775  28.519  28.902  1.00  0.00    -0.354 N 
ATOM     39  C   UNL A   1      44.480  27.428  26.964  1.00  0.00     0.074 A 
ATOM     40  C   UNL A   1      44.425  26.071  26.464  1.00  0.00     0.031 C 
ATOM     41  C   UNL A   1      38.662  28.230  29.573  1.00  0.00     0.029 A 
ATOM     42  C   UNL A   1      39.793  29.154  29.627  1.00  0.00     0.049 A 
ATOM     43  H   UNL A   1      41.660  28.916  28.731  1.00  0.00     0.167 HD
ATOM     44  C   UNL A   1      45.561  28.236  26.858  1.00  0.00     0.034 A 
ATOM     45  C   UNL A   1      39.811  30.343  30.260  1.00  0.00     0.034 A 
ATOM     46  C   UNL A   1      45.621  29.577  27.372  1.00  0.00     0.049 A 
ATOM     47  C   UNL A   1      41.050  31.199  30.176  1.00  0.00     0.074 A 
ATOM     48  C   UNL A   1      46.662  30.484  27.294  1.00  0.00     0.029 A 
ATOM     49  N   UNL A   1      44.603  30.195  28.083  1.00  0.00    -0.354 N 
ATOM     50  N   UNL A   1      42.160  30.986  29.511  1.00  0.00    -0.248 NA
ATOM     51  C   UNL A   1      41.026  32.476  30.905  1.00  0.00     0.031 C 
ATOM     52  C   UNL A   1      46.281  31.643  27.980  1.00  0.00     0.029 A 
ATOM     53  C   UNL A   1      44.998  31.463  28.470  1.00  0.00     0.049 A 
ATOM     54  H   UNL A   1      43.727  29.791  28.281  1.00  0.00     0.167 HD
ATOM     55  C   UNL A   1      42.949  32.112  29.710  1.00  0.00     0.074 A 
ATOM     56  C   UNL A   1      42.184  33.015  30.546  1.00  0.00     0.031 C 
ATOM     57  C   UNL A   1      44.201  32.372  29.254  1.00  0.00     0.034 A 
BRANCH  44  58
ATOM     58  C   UNL A   1      46.756  27.688  26.129  1.00  0.00     0.023 A 
ATOM     59  C   UNL A   1      46.864  27.888  24.737  1.00  0.00     0.012 A 
ATOM     60  C   UNL A   1      47.774  26.997  26.811  1.00  0.00     0.148 A 
ATOM     61  C   UNL A   1      47.953  27.381  24.031  1.00  0.00     0.002 A 
ATOM     62  C   UNL A   1      48.873  26.522  26.105  1.00  0.00     0.091 A 
ATOM     63  F   UNL A   1      47.637  26.791  28.129  1.00  0.00    -0.205 F 
ATOM     64  C   UNL A   1      48.962  26.707  24.715  1.00  0.00     0.022 A 
BRANCH  62  65
ATOM     65  S   UNL A   1      50.242  25.683  26.910  1.00  0.00     0.127 S 
ATOM     66  O   UNL A   1      51.172  25.499  25.796  1.00  0.00    -0.237 OA
ATOM     67  O   UNL A   1      50.670  26.666  27.905  1.00  0.00    -0.237 OA
ATOM     68  O   UNL A   1      49.683  24.461  27.471  1.00  0.00    -0.744 OA
ENDBRANCH  62  65
ENDBRANCH  44  58
BRANCH  45  69
ATOM     69  C   UNL A   1      38.599  30.828  30.977  1.00  0.00     0.023 A 
ATOM     70  C   UNL A   1      38.502  30.644  32.369  1.00  0.00     0.012 A 
ATOM     71  C   UNL A   1      37.550  31.479  30.296  1.00  0.00     0.148 A 
ATOM     72  C   UNL A   1      37.372  31.073  33.068  1.00  0.00     0.002 A 
ATOM     73  C   UNL A   1      36.449  31.947  31.005  1.00  0.00     0.091 A 
ATOM     74  F   UNL A   1      37.650  31.626  28.967  1.00  0.00    -0.205 F 
ATOM     75  C   UNL A   1      36.352  31.732  32.388  1.00  0.00     0.022 A 
BRANCH  73  76
ATOM     76  S   UNL A   1      35.142  32.904  30.227  1.00  0.00     0.127 S 
ATOM     77  O   UNL A   1      34.616  31.955  29.250  1.00  0.00    -0.237 OA
ATOM     78  O   UNL A   1      34.253  33.181  31.356  1.00  0.00    -0.237 OA
ATOM     79  O   UNL A   1      35.798  34.084  29.679  1.00  0.00    -0.744 OA
ENDBRANCH  73  76
ENDBRANCH  45  69
BRANCH  57  80
ATOM     80  C   UNL A   1      44.825  33.691  29.630  1.00  0.00     0.023 A 
ATOM     81  C   UNL A   1      45.616  33.779  30.792  1.00  0.00     0.012 A 
ATOM     82  C   UNL A   1      44.704  34.815  28.789  1.00  0.00     0.148 A 
ATOM     83  C   UNL A   1      46.261  34.971  31.123  1.00  0.00     0.002 A 
ATOM     84  C   UNL A   1      45.385  35.985  29.100  1.00  0.00     0.091 A 
ATOM     85  F   UNL A   1      43.929  34.718  27.698  1.00  0.00    -0.205 F 
ATOM     86  C   UNL A   1      46.156  36.069  30.271  1.00  0.00     0.022 A 
BRANCH  84  87
ATOM     87  S   UNL A   1      45.385  37.414  28.010  1.00  0.00     0.127 S 
ATOM     88  O   UNL A   1      43.979  37.811  28.037  1.00  0.00    -0.237 OA
ATOM     89  O   UNL A   1      46.291  38.336  28.698  1.00  0.00    -0.237 OA
ATOM     90  O   UNL A   1      45.878  36.935  26.726  1.00  0.00    -0.744 OA
ENDBRANCH  84  87
ENDBRANCH  57  80
ENDBRANCH  31  32
ENDBRANCH  24  26
ENDBRANCH  23  24
ENDBRANCH   1  23
TORSDOF 17
ENDMDL
MODEL 2
REMARK VINA RESULT:     -11.1      4.813     10.009
REMARK SMILES COc1ccc(Cl)cc1-c1cnc(OC)c(C(=O)OCCOC(=O)c2ccc(-c3c4nc(c(-c5cccc(S(=O)(=O)[O-])c5F)c5ccc([nH]5)c(-c5cccc(S(=O)(=O)[O-])c5F)c5nc(c(-c6cccc(S(=O)(=O)[O-])c6F)c6ccc3[nH]6)C=C5)C=C4)cc2)c1
REMARK SMILES IDX 21 1 20 2 19 3 17 4 18 5 16 6 10 7 11 8 88 9 12 10 13 11
REMARK SMILES IDX 9 12 3 13 4 14 5 15 8 16 6 17 7 18 2 19 1 20 14 21 15 22
REMARK SMILES IDX 22 23 23 24 24 25 25 26 26 27 87 28 27 29 86 30 28 31 29 32
REMARK SMILES IDX 30 33 80 34 31 35 85 36 79 37 81 38 32 39 84 40 78 41 77 42
REMARK SMILES IDX 33 44 65 45 45 46 64 47 46 48 49 49 63 50 82 51 47 52 48 53
REMARK SMILES IDX 62 55 83 56 50 57 34 58 35 59 43 60 36 61 38 62 44 63 37 64
REMARK SMILES IDX 39 65 40 66 41 67 42 68 66 69 67 70 75 71 68 72 70 73 76 74
REMARK SMILES IDX 69 75 71 76 72 77 73 78 74 79 51 80 52 81 60 82 53 83 55 84
REMARK SMILES IDX 61 85 54 86 56 87 57 88 58 89 59 90
REMARK H PARENT 81 43 49 54
REMARK Flexibility Score: inf
ROOT
ATOM      1  C   UNL A   1      31.745  30.723  26.142  1.00  0.00     0.275 C 
ENDROOT
BRANCH   1   2
ATOM      2  C   UNL A   1      31.543  29.293  25.639  1.00  0.00     0.275 C 
BRANCH   2   3
ATOM      3  O   UNL A   1      32.825  28.744  25.298  1.00  0.00    -0.458 OA
BRANCH   3   4
ATOM      4  C   UNL A   1      33.028  28.471  23.991  1.00  0.00     0.343 C 
ATOM      5  O   UNL A   1      33.498  29.211  23.149  1.00  0.00    -0.246 OA
BRANCH   4   6
ATOM      6  C   UNL A   1      32.573  27.098  23.758  1.00  0.00     0.122 A 
ATOM      7  C   UNL A   1      32.803  24.775  24.447  1.00  0.00     0.005 A 
ATOM      8  C   UNL A   1      31.815  24.492  23.517  1.00  0.00     0.124 A 
ATOM      9  C   UNL A   1      33.209  26.108  24.523  1.00  0.00     0.032 A 
ATOM     10  N   UNL A   1      31.211  25.424  22.742  1.00  0.00    -0.221 NA
ATOM     11  C   UNL A   1      31.559  26.730  22.883  1.00  0.00     0.227 A 
BRANCH   7  12
ATOM     12  C   UNL A   1      33.306  23.766  25.386  1.00  0.00     0.027 A 
ATOM     13  C   UNL A   1      32.651  23.549  26.618  1.00  0.00     0.126 A 
ATOM     14  C   UNL A   1      33.091  22.572  27.513  1.00  0.00     0.048 A 
ATOM     15  C   UNL A   1      34.211  21.806  27.201  1.00  0.00     0.024 A 
ATOM     16  C   UNL A   1      34.431  22.983  25.088  1.00  0.00     0.033 A 
ATOM     17  C   UNL A   1      34.876  22.013  25.992  1.00  0.00     0.041 A 
ATOM     18  Cl  UNL A   1      36.250  21.049  25.610  1.00  0.00    -0.084 Cl
BRANCH  13  19
ATOM     19  O   UNL A   1      31.491  24.238  26.876  1.00  0.00    -0.496 OA
ATOM     20  C   UNL A   1      30.338  23.402  26.805  1.00  0.00     0.278 C 
ENDBRANCH  13  19
ENDBRANCH   7  12
BRANCH  11  21
ATOM     21  O   UNL A   1      30.803  27.489  22.052  1.00  0.00    -0.480 OA
ATOM     22  C   UNL A   1      29.814  28.374  22.539  1.00  0.00     0.280 C 
ENDBRANCH  11  21
ENDBRANCH   4   6
ENDBRANCH   3   4
ENDBRANCH   2   3
ENDBRANCH   1   2
BRANCH   1  23
ATOM     23  O   UNL A   1      33.152  31.025  26.220  1.00  0.00    -0.458 OA
BRANCH  23  24
ATOM     24  C   UNL A   1      33.510  31.902  27.195  1.00  0.00     0.338 C 
ATOM     25  O   UNL A   1      32.865  32.862  27.586  1.00  0.00    -0.246 OA
BRANCH  24  26
ATOM     26  C   UNL A   1      34.763  31.442  27.835  1.00  0.00     0.060 A 
ATOM     27  C   UNL A   1      34.851  30.101  28.227  1.00  0.00     0.016 A 
ATOM     28  C   UNL A   1      35.844  32.305  28.037  1.00  0.00     0.016 A 
ATOM     29  C   UNL A   1      36.026  29.615  28.802  1.00  0.00     0.010 A 
ATOM     30  C   UNL A   1      37.010  31.824  28.638  1.00  0.00     0.010 A 
ATOM     31  C   UNL A   1      37.104  30.478  29.028  1.00  0.00    -0.014 A 
BRANCH  31  32
ATOM     32  C   UNL A   1      38.300  29.997  29.755  1.00  0.00     0.031 A 
ATOM     33  C   UNL A   1      38.571  30.515  31.137  1.00  0.00     0.074 A 
ATOM     34  C   UNL A   1      39.145  29.124  29.179  1.00  0.00     0.049 A 
ATOM     35  N   UNL A   1      39.532  30.200  31.963  1.00  0.00    -0.248 NA
ATOM     36  C   UNL A   1      37.630  31.522  31.658  1.00  0.00     0.031 C 
ATOM     37  C   UNL A   1      38.986  28.555  27.842  1.00  0.00     0.029 A 
ATOM     38  N   UNL A   1      40.316  28.579  29.640  1.00  0.00    -0.354 N 
ATOM     39  C   UNL A   1      39.313  30.961  33.104  1.00  0.00     0.074 A 
ATOM     40  C   UNL A   1      38.139  31.770  32.856  1.00  0.00     0.031 C 
ATOM     41  C   UNL A   1      40.034  27.754  27.581  1.00  0.00     0.029 A 
ATOM     42  C   UNL A   1      40.940  27.761  28.728  1.00  0.00     0.049 A 
ATOM     43  H   UNL A   1      40.675  28.757  30.539  1.00  0.00     0.167 HD
ATOM     44  C   UNL A   1      40.017  30.973  34.260  1.00  0.00     0.034 A 
ATOM     45  C   UNL A   1      42.110  27.098  28.813  1.00  0.00     0.034 A 
ATOM     46  C   UNL A   1      41.195  30.184  34.497  1.00  0.00     0.049 A 
ATOM     47  C   UNL A   1      42.904  27.175  30.092  1.00  0.00     0.074 A 
ATOM     48  C   UNL A   1      41.964  30.108  35.644  1.00  0.00     0.029 A 
ATOM     49  N   UNL A   1      41.788  29.352  33.560  1.00  0.00    -0.354 N 
ATOM     50  N   UNL A   1      42.605  27.777  31.218  1.00  0.00    -0.248 NA
ATOM     51  C   UNL A   1      44.185  26.452  30.123  1.00  0.00     0.031 C 
ATOM     52  C   UNL A   1      43.038  29.247  35.391  1.00  0.00     0.029 A 
ATOM     53  C   UNL A   1      42.928  28.775  34.092  1.00  0.00     0.049 A 
ATOM     54  H   UNL A   1      41.448  29.194  32.650  1.00  0.00     0.167 HD
ATOM     55  C   UNL A   1      43.636  27.478  32.100  1.00  0.00     0.074 A 
ATOM     56  C   UNL A   1      44.564  26.627  31.383  1.00  0.00     0.031 C 
ATOM     57  C   UNL A   1      43.810  27.884  33.383  1.00  0.00     0.034 A 
BRANCH  44  58
ATOM     58  C   UNL A   1      39.503  31.853  35.365  1.00  0.00     0.023 A 
ATOM     59  C   UNL A   1      38.552  31.335  36.270  1.00  0.00     0.012 A 
ATOM     60  C   UNL A   1      39.964  33.172  35.524  1.00  0.00     0.148 A 
ATOM     61  C   UNL A   1      38.046  32.130  37.297  1.00  0.00     0.002 A 
ATOM     62  C   UNL A   1      39.478  33.948  36.570  1.00  0.00     0.091 A 
ATOM     63  F   UNL A   1      40.845  33.654  34.635  1.00  0.00    -0.205 F 
ATOM     64  C   UNL A   1      38.515  33.432  37.453  1.00  0.00     0.022 A 
BRANCH  62  65
ATOM     65  S   UNL A   1      40.060  35.620  36.876  1.00  0.00     0.127 S 
ATOM     66  O   UNL A   1      39.554  36.327  35.700  1.00  0.00    -0.237 OA
ATOM     67  O   UNL A   1      39.386  35.961  38.129  1.00  0.00    -0.237 OA
ATOM     68  O   UNL A   1      41.509  35.522  36.978  1.00  0.00    -0.744 OA
ENDBRANCH  62  65
ENDBRANCH  44  58
BRANCH  45  69
ATOM     69  C   UNL A   1      42.574  26.250  27.679  1.00  0.00     0.023 A 
ATOM     70  C   UNL A   1      43.484  26.784  26.747  1.00  0.00     0.012 A 
ATOM     71  C   UNL A   1      42.133  24.921  27.522  1.00  0.00     0.148 A 
ATOM     72  C   UNL A   1      43.927  26.022  25.665  1.00  0.00     0.002 A 
ATOM     73  C   UNL A   1      42.614  24.151  26.469  1.00  0.00     0.091 A 
ATOM     74  F   UNL A   1      41.249  24.436  28.406  1.00  0.00    -0.205 F 
ATOM     75  C   UNL A   1      43.500  24.704  25.532  1.00  0.00     0.022 A 
BRANCH  73  76
ATOM     76  S   UNL A   1      42.203  22.411  26.286  1.00  0.00     0.127 S 
ATOM     77  O   UNL A   1      42.911  22.063  25.057  1.00  0.00    -0.237 OA
ATOM     78  O   UNL A   1      42.768  21.833  27.506  1.00  0.00    -0.237 OA
ATOM     79  O   UNL A   1      40.748  22.359  26.218  1.00  0.00    -0.744 OA
ENDBRANCH  73  76
ENDBRANCH  45  69
BRANCH  57  80
ATOM     80  C   UNL A   1      45.038  27.401  34.112  1.00  0.00     0.023 A 
ATOM     81  C   UNL A   1      46.213  28.177  34.080  1.00  0.00     0.012 A 
ATOM     82  C   UNL A   1      45.000  26.233  34.899  1.00  0.00     0.148 A 
ATOM     83  C   UNL A   1      47.340  27.786  34.804  1.00  0.00     0.002 A 
ATOM     84  C   UNL A   1      46.112  25.874  35.652  1.00  0.00     0.091 A 
ATOM     85  F   UNL A   1      43.879  25.497  34.899  1.00  0.00    -0.205 F 
ATOM     86  C   UNL A   1      47.284  26.643  35.599  1.00  0.00     0.022 A 
BRANCH  84  87
ATOM     87  S   UNL A   1      46.094  24.473  36.778  1.00  0.00     0.127 S 
ATOM     88  O   UNL A   1      47.449  24.513  37.326  1.00  0.00    -0.237 OA
ATOM     89  O   UNL A   1      45.043  24.845  37.727  1.00  0.00    -0.237 OA
ATOM     90  O   UNL A   1      45.781  23.310  35.960  1.00  0.00    -0.744 OA
ENDBRANCH  84  87
ENDBRANCH  57  80
ENDBRANCH  31  32
ENDBRANCH  24  26
ENDBRANCH  23  24
ENDBRANCH   1  23
TORSDOF 17
ENDMDL
MODEL 3
REMARK VINA RESULT:     -11.0      4.754      9.648
REMARK SMILES COc1ccc(Cl)cc1-c1cnc(OC)c(C(=O)OCCOC(=O)c2ccc(-c3c4nc(c(-c5cccc(S(=O)(=O)[O-])c5F)c5ccc([nH]5)c(-c5cccc(S(=O)(=O)[O-])c5F)c5nc(c(-c6cccc(S(=O)(=O)[O-])c6F)c6ccc3[nH]6)C=C5)C=C4)cc2)c1
REMARK SMILES IDX 21 1 20 2 19 3 17 4 18 5 16 6 10 7 11 8 88 9 12 10 13 11
REMARK SMILES IDX 9 12 3 13 4 14 5 15 8 16 6 17 7 18 2 19 1 20 14 21 15 22
REMARK SMILES IDX 22 23 23 24 24 25 25 26 26 27 87 28 27 29 86 30 28 31 29 32
REMARK SMILES IDX 30 33 80 34 31 35 85 36 79 37 81 38 32 39 84 40 78 41 77 42
REMARK SMILES IDX 33 44 65 45 45 46 64 47 46 48 49 49 63 50 82 51 47 52 48 53
REMARK SMILES IDX 62 55 83 56 50 57 34 58 35 59 43 60 36 61 38 62 44 63 37 64
REMARK SMILES IDX 39 65 40 66 41 67 42 68 66 69 67 70 75 71 68 72 70 73 76 74
REMARK SMILES IDX 69 75 71 76 72 77 73 78 74 79 51 80 52 81 60 82 53 83 55 84
REMARK SMILES IDX 61 85 54 86 56 87 57 88 58 89 59 90
REMARK H PARENT 81 43 49 54
REMARK Flexibility Score: inf
ROOT
ATOM      1  C   UNL A   1      32.712  29.629  26.485  1.00  0.00     0.275 C 
ENDROOT
BRANCH   1   2
ATOM      2  C   UNL A   1      31.764  28.808  27.361  1.00  0.00     0.275 C 
BRANCH   2   3
ATOM      3  O   UNL A   1      32.188  27.437  27.330  1.00  0.00    -0.458 OA
BRANCH   3   4
ATOM      4  C   UNL A   1      31.480  26.612  26.528  1.00  0.00     0.343 C 
ATOM      5  O   UNL A   1      30.332  26.246  26.679  1.00  0.00    -0.246 OA
BRANCH   4   6
ATOM      6  C   UNL A   1      32.358  26.223  25.421  1.00  0.00     0.122 A 
ATOM      7  C   UNL A   1      34.166  24.745  24.733  1.00  0.00     0.005 A 
ATOM      8  C   UNL A   1      34.039  25.318  23.477  1.00  0.00     0.124 A 
ATOM      9  C   UNL A   1      33.327  25.253  25.726  1.00  0.00     0.032 A 
ATOM     10  N   UNL A   1      33.136  26.279  23.168  1.00  0.00    -0.221 NA
ATOM     11  C   UNL A   1      32.271  26.708  24.123  1.00  0.00     0.227 A 
BRANCH   7  12
ATOM     12  C   UNL A   1      35.034  23.589  24.982  1.00  0.00     0.027 A 
ATOM     13  C   UNL A   1      34.551  22.277  24.782  1.00  0.00     0.126 A 
ATOM     14  C   UNL A   1      35.369  21.163  24.979  1.00  0.00     0.048 A 
ATOM     15  C   UNL A   1      36.683  21.340  25.404  1.00  0.00     0.024 A 
ATOM     16  C   UNL A   1      36.362  23.747  25.408  1.00  0.00     0.033 A 
ATOM     17  C   UNL A   1      37.174  22.629  25.617  1.00  0.00     0.041 A 
ATOM     18  Cl  UNL A   1      38.805  22.835  26.127  1.00  0.00    -0.084 Cl
BRANCH  13  19
ATOM     19  O   UNL A   1      33.287  22.114  24.269  1.00  0.00    -0.496 OA
ATOM     20  C   UNL A   1      32.550  21.108  24.959  1.00  0.00     0.278 C 
ENDBRANCH  13  19
ENDBRANCH   7  12
BRANCH  11  21
ATOM     21  O   UNL A   1      31.431  27.628  23.589  1.00  0.00    -0.480 OA
ATOM     22  C   UNL A   1      30.738  27.395  22.378  1.00  0.00     0.280 C 
ENDBRANCH  11  21
ENDBRANCH   4   6
ENDBRANCH   3   4
ENDBRANCH   2   3
ENDBRANCH   1   2
BRANCH   1  23
ATOM     23  O   UNL A   1      34.076  29.416  26.899  1.00  0.00    -0.458 OA
BRANCH  23  24
ATOM     24  C   UNL A   1      34.615  30.399  27.668  1.00  0.00     0.338 C 
ATOM     25  O   UNL A   1      34.076  31.441  28.003  1.00  0.00    -0.246 OA
BRANCH  24  26
ATOM     26  C   UNL A   1      35.935  29.960  28.174  1.00  0.00     0.060 A 
ATOM     27  C   UNL A   1      37.041  30.080  27.326  1.00  0.00     0.016 A 
ATOM     28  C   UNL A   1      36.093  29.449  29.467  1.00  0.00     0.016 A 
ATOM     29  C   UNL A   1      38.311  29.711  27.774  1.00  0.00     0.010 A 
ATOM     30  C   UNL A   1      37.359  29.055  29.904  1.00  0.00     0.010 A 
ATOM     31  C   UNL A   1      38.473  29.179  29.058  1.00  0.00    -0.014 A 
BRANCH  31  32
ATOM     32  C   UNL A   1      39.793  28.667  29.487  1.00  0.00     0.031 A 
ATOM     33  C   UNL A   1      40.548  29.400  30.557  1.00  0.00     0.074 A 
ATOM     34  C   UNL A   1      40.320  27.571  28.913  1.00  0.00     0.049 A 
ATOM     35  N   UNL A   1      41.695  29.105  31.108  1.00  0.00    -0.248 NA
ATOM     36  C   UNL A   1      39.924  30.629  31.077  1.00  0.00     0.031 C 
ATOM     37  C   UNL A   1      39.681  26.779  27.865  1.00  0.00     0.029 A 
ATOM     38  N   UNL A   1      41.524  26.947  29.121  1.00  0.00    -0.354 N 
ATOM     39  C   UNL A   1      41.932  30.105  32.043  1.00  0.00     0.074 A 
ATOM     40  C   UNL A   1      40.818  31.027  31.971  1.00  0.00     0.031 C 
ATOM     41  C   UNL A   1      40.510  25.783  27.504  1.00  0.00     0.029 A 
ATOM     42  C   UNL A   1      41.739  25.873  28.289  1.00  0.00     0.049 A 
ATOM     43  H   UNL A   1      42.173  27.240  29.800  1.00  0.00     0.167 HD
ATOM     44  C   UNL A   1      42.974  30.234  32.897  1.00  0.00     0.034 A 
ATOM     45  C   UNL A   1      42.807  25.060  28.178  1.00  0.00     0.034 A 
ATOM     46  C   UNL A   1      44.089  29.328  32.954  1.00  0.00     0.049 A 
ATOM     47  C   UNL A   1      43.981  25.261  29.103  1.00  0.00     0.074 A 
ATOM     48  C   UNL A   1      45.182  29.360  33.801  1.00  0.00     0.029 A 
ATOM     49  N   UNL A   1      44.264  28.240  32.112  1.00  0.00    -0.354 N 
ATOM     50  N   UNL A   1      44.123  26.118  30.085  1.00  0.00    -0.248 NA
ATOM     51  C   UNL A   1      45.131  24.362  28.922  1.00  0.00     0.031 C 
ATOM     52  C   UNL A   1      46.032  28.303  33.453  1.00  0.00     0.029 A 
ATOM     53  C   UNL A   1      45.459  27.605  32.402  1.00  0.00     0.049 A 
ATOM     54  H   UNL A   1      43.632  27.961  31.411  1.00  0.00     0.167 HD
ATOM     55  C   UNL A   1      45.356  25.838  30.663  1.00  0.00     0.074 A 
ATOM     56  C   UNL A   1      45.916  24.722  29.930  1.00  0.00     0.031 C 
ATOM     57  C   UNL A   1      45.976  26.459  31.698  1.00  0.00     0.034 A 
BRANCH  44  58
ATOM     58  C   UNL A   1      42.932  31.388  33.859  1.00  0.00     0.023 A 
ATOM     59  C   UNL A   1      43.417  32.646  33.444  1.00  0.00     0.012 A 
ATOM     60  C   UNL A   1      42.404  31.242  35.154  1.00  0.00     0.148 A 
ATOM     61  C   UNL A   1      43.405  33.733  34.316  1.00  0.00     0.002 A 
ATOM     62  C   UNL A   1      42.366  32.339  36.008  1.00  0.00     0.091 A 
ATOM     63  F   UNL A   1      41.977  30.030  35.539  1.00  0.00    -0.205 F 
ATOM     64  C   UNL A   1      42.871  33.582  35.594  1.00  0.00     0.022 A 
BRANCH  62  65
ATOM     65  S   UNL A   1      41.654  32.249  37.654  1.00  0.00     0.127 S 
ATOM     66  O   UNL A   1      41.871  33.609  38.144  1.00  0.00    -0.237 OA
ATOM     67  O   UNL A   1      40.257  31.918  37.374  1.00  0.00    -0.237 OA
ATOM     68  O   UNL A   1      42.393  31.203  38.349  1.00  0.00    -0.744 OA
ENDBRANCH  62  65
ENDBRANCH  44  58
BRANCH  45  69
ATOM     69  C   UNL A   1      42.795  23.938  27.197  1.00  0.00     0.023 A 
ATOM     70  C   UNL A   1      43.367  24.130  25.925  1.00  0.00     0.012 A 
ATOM     71  C   UNL A   1      42.236  22.684  27.516  1.00  0.00     0.148 A 
ATOM     72  C   UNL A   1      43.358  23.105  24.978  1.00  0.00     0.002 A 
ATOM     73  C   UNL A   1      42.273  21.652  26.585  1.00  0.00     0.091 A 
ATOM     74  F   UNL A   1      41.676  22.527  28.724  1.00  0.00    -0.205 F 
ATOM     75  C   UNL A   1      42.821  21.865  25.310  1.00  0.00     0.022 A 
BRANCH  73  76
ATOM     76  S   UNL A   1      41.705  19.991  26.969  1.00  0.00     0.127 S 
ATOM     77  O   UNL A   1      40.357  20.244  27.470  1.00  0.00    -0.237 OA
ATOM     78  O   UNL A   1      41.763  19.337  25.661  1.00  0.00    -0.237 OA
ATOM     79  O   UNL A   1      42.657  19.469  27.941  1.00  0.00    -0.744 OA
ENDBRANCH  73  76
ENDBRANCH  45  69
BRANCH  57  80
ATOM     80  C   UNL A   1      47.327  25.940  32.120  1.00  0.00     0.023 A 
ATOM     81  C   UNL A   1      48.488  26.446  31.504  1.00  0.00     0.012 A 
ATOM     82  C   UNL A   1      47.451  25.023  33.183  1.00  0.00     0.148 A 
ATOM     83  C   UNL A   1      49.752  26.033  31.926  1.00  0.00     0.002 A 
ATOM     84  C   UNL A   1      48.713  24.650  33.627  1.00  0.00     0.091 A 
ATOM     85  F   UNL A   1      46.333  24.536  33.742  1.00  0.00    -0.205 F 
ATOM     86  C   UNL A   1      49.864  25.146  32.995  1.00  0.00     0.022 A 
BRANCH  84  87
ATOM     87  S   UNL A   1      48.951  23.590  35.059  1.00  0.00     0.127 S 
ATOM     88  O   UNL A   1      48.239  24.329  36.100  1.00  0.00    -0.237 OA
ATOM     89  O   UNL A   1      48.300  22.347  34.641  1.00  0.00    -0.237 OA
ATOM     90  O   UNL A   1      50.392  23.481  35.238  1.00  0.00    -0.744 OA
ENDBRANCH  84  87
ENDBRANCH  57  80
ENDBRANCH  31  32
ENDBRANCH  24  26
ENDBRANCH  23  24
ENDBRANCH   1  23
TORSDOF 17
ENDMDL
