MODEL 1
REMARK VINA RESULT:     -12.6      0.000      0.000
REMARK SMILES Cc1cc(C(=O)N[C@H]2C=C[C@H](C(=O)OCCOC(=O)c3ccc(-c4c5nc(c(-c6cccc(S(=O)(=O)[O-])c6F)c6ccc([nH]6)c(-c6cccc(S(=O)(=O)[O-])c6F)c6nc(c(-c7cccc(S(=O)(=O)[O-])c7F)c7ccc4[nH]7)C=C6)C=C5)cc3)C2)ccc1F
REMARK SMILES IDX 16 1 15 2 14 3 12 4 13 5 11 6 8 7 9 8 83 9 10 10 7 11 5 12
REMARK SMILES IDX 6 13 4 15 1 16 2 17 3 18 86 19 85 20 87 21 84 22 17 23 18 24
REMARK SMILES IDX 19 25 20 26 21 27 82 28 22 29 81 30 23 31 24 32 25 33 75 34
REMARK SMILES IDX 26 35 80 36 74 37 76 38 27 39 79 40 73 41 72 42 28 44 60 45
REMARK SMILES IDX 40 46 59 47 41 48 44 49 58 50 77 51 42 52 43 53 57 55 78 56
REMARK SMILES IDX 45 57 29 58 30 59 38 60 31 61 33 62 39 63 32 64 34 65 35 66
REMARK SMILES IDX 36 67 37 68 61 69 62 70 70 71 63 72 65 73 71 74 64 75 66 76
REMARK SMILES IDX 67 77 68 78 69 79 46 80 47 81 55 82 48 83 50 84 56 85 49 86
REMARK SMILES IDX 51 87 52 88 53 89 54 90
REMARK H PARENT 7 14 76 43 44 54
REMARK Flexibility Score: inf
ROOT
ATOM      1  C   UNL A   1      34.394  31.481  27.661  1.00  0.00     0.275 C 
ENDROOT
BRANCH   1   2
ATOM      2  C   UNL A   1      33.775  30.161  27.191  1.00  0.00     0.274 C 
BRANCH   2   3
ATOM      3  O   UNL A   1      32.847  30.367  26.109  1.00  0.00    -0.462 OA
BRANCH   3   4
ATOM      4  C   UNL A   1      32.731  29.349  25.217  1.00  0.00     0.312 C 
ATOM      5  O   UNL A   1      33.650  28.946  24.506  1.00  0.00    -0.252 OA
BRANCH   4   6
ATOM      6  C   UNL A   1      31.333  28.712  25.258  1.00  0.00     0.124 C 
ATOM      7  C   UNL A   1      31.815  26.491  26.052  1.00  0.00     0.106 C 
ATOM      8  C   UNL A   1      31.323  26.446  24.637  1.00  0.00    -0.006 C 
ATOM      9  C   UNL A   1      31.229  27.825  26.515  1.00  0.00     0.048 C 
ATOM     10  C   UNL A   1      31.109  27.689  24.182  1.00  0.00    -0.014 C 
BRANCH   7  11
ATOM     11  N   UNL A   1      31.386  25.348  26.808  1.00  0.00    -0.346 N 
ATOM     12  C   UNL A   1      31.811  24.042  26.795  1.00  0.00     0.251 C 
ATOM     13  O   UNL A   1      31.166  23.240  27.478  1.00  0.00    -0.269 OA
ATOM     14  H   UNL A   1      30.660  25.532  27.448  1.00  0.00     0.164 HD
BRANCH  12  15
ATOM     15  C   UNL A   1      33.018  23.534  26.059  1.00  0.00     0.040 A 
ATOM     16  C   UNL A   1      36.827  23.743  25.844  1.00  0.00     0.047 C 
ATOM     17  C   UNL A   1      35.408  23.366  25.538  1.00  0.00    -0.015 A 
ATOM     18  C   UNL A   1      34.342  23.951  26.247  1.00  0.00     0.020 A 
ATOM     19  C   UNL A   1      35.130  22.377  24.598  1.00  0.00     0.126 A 
ATOM     20  C   UNL A   1      33.824  21.977  24.351  1.00  0.00     0.040 A 
ATOM     21  F   UNL A   1      36.128  21.802  23.911  1.00  0.00    -0.207 F 
ATOM     22  C   UNL A   1      32.778  22.549  25.081  1.00  0.00     0.017 A 
ENDBRANCH  12  15
ENDBRANCH   7  11
ENDBRANCH   4   6
ENDBRANCH   3   4
ENDBRANCH   2   3
ENDBRANCH   1   2
BRANCH   1  23
ATOM     23  O   UNL A   1      35.015  31.396  28.958  1.00  0.00    -0.458 OA
BRANCH  23  24
ATOM     24  C   UNL A   1      36.365  31.429  28.903  1.00  0.00     0.338 C 
ATOM     25  O   UNL A   1      37.076  32.417  28.911  1.00  0.00    -0.246 OA
BRANCH  24  26
ATOM     26  C   UNL A   1      36.975  30.135  28.607  1.00  0.00     0.060 A 
ATOM     27  C   UNL A   1      37.104  29.260  29.702  1.00  0.00     0.016 A 
ATOM     28  C   UNL A   1      37.802  30.045  27.489  1.00  0.00     0.016 A 
ATOM     29  C   UNL A   1      38.220  28.451  29.788  1.00  0.00     0.010 A 
ATOM     30  C   UNL A   1      38.912  29.234  27.578  1.00  0.00     0.010 A 
ATOM     31  C   UNL A   1      39.158  28.524  28.761  1.00  0.00    -0.014 A 
BRANCH  31  32
ATOM     32  C   UNL A   1      40.482  27.948  28.900  1.00  0.00     0.031 A 
ATOM     33  C   UNL A   1      40.699  26.538  28.555  1.00  0.00     0.074 A 
ATOM     34  C   UNL A   1      41.490  28.697  29.393  1.00  0.00     0.049 A 
ATOM     35  N   UNL A   1      41.639  25.795  29.034  1.00  0.00    -0.248 NA
ATOM     36  C   UNL A   1      39.769  25.817  27.695  1.00  0.00     0.031 C 
ATOM     37  C   UNL A   1      42.911  28.375  29.371  1.00  0.00     0.029 A 
ATOM     38  N   UNL A   1      41.403  29.806  30.234  1.00  0.00    -0.354 N 
ATOM     39  C   UNL A   1      41.656  24.640  28.289  1.00  0.00     0.074 A 
ATOM     40  C   UNL A   1      40.384  24.636  27.599  1.00  0.00     0.031 C 
ATOM     41  C   UNL A   1      43.514  29.057  30.358  1.00  0.00     0.029 A 
ATOM     42  C   UNL A   1      42.463  29.684  31.146  1.00  0.00     0.049 A 
ATOM     43  H   UNL A   1      40.734  30.528  30.196  1.00  0.00     0.167 HD
ATOM     44  C   UNL A   1      42.812  23.917  28.203  1.00  0.00     0.034 A 
ATOM     45  C   UNL A   1      42.300  29.538  32.494  1.00  0.00     0.034 A 
ATOM     46  C   UNL A   1      43.841  24.427  29.113  1.00  0.00     0.049 A 
ATOM     47  C   UNL A   1      42.981  28.301  33.054  1.00  0.00     0.074 A 
ATOM     48  C   UNL A   1      45.008  25.155  28.936  1.00  0.00     0.029 A 
ATOM     49  N   UNL A   1      43.601  24.434  30.481  1.00  0.00    -0.354 N 
ATOM     50  N   UNL A   1      43.426  27.320  32.317  1.00  0.00    -0.248 NA
ATOM     51  C   UNL A   1      43.098  28.014  34.484  1.00  0.00     0.031 C 
ATOM     52  C   UNL A   1      45.473  25.581  30.212  1.00  0.00     0.029 A 
ATOM     53  C   UNL A   1      44.591  25.112  31.166  1.00  0.00     0.049 A 
ATOM     54  H   UNL A   1      42.823  24.009  30.908  1.00  0.00     0.167 HD
ATOM     55  C   UNL A   1      43.932  26.336  33.122  1.00  0.00     0.074 A 
ATOM     56  C   UNL A   1      43.658  26.792  34.472  1.00  0.00     0.031 C 
ATOM     57  C   UNL A   1      44.520  25.215  32.617  1.00  0.00     0.034 A 
BRANCH  44  58
ATOM     58  C   UNL A   1      43.089  22.939  27.064  1.00  0.00     0.023 A 
ATOM     59  C   UNL A   1      43.927  23.256  25.973  1.00  0.00     0.012 A 
ATOM     60  C   UNL A   1      42.587  21.617  27.070  1.00  0.00     0.148 A 
ATOM     61  C   UNL A   1      44.382  22.306  25.050  1.00  0.00     0.002 A 
ATOM     62  C   UNL A   1      43.015  20.672  26.130  1.00  0.00     0.091 A 
ATOM     63  F   UNL A   1      41.682  21.243  27.983  1.00  0.00    -0.205 F 
ATOM     64  C   UNL A   1      43.939  21.002  25.139  1.00  0.00     0.022 A 
BRANCH  62  65
ATOM     65  S   UNL A   1      42.378  18.994  26.209  1.00  0.00     0.127 S 
ATOM     66  O   UNL A   1      43.223  18.276  25.262  1.00  0.00    -0.237 OA
ATOM     67  O   UNL A   1      42.526  18.657  27.620  1.00  0.00    -0.237 OA
ATOM     68  O   UNL A   1      40.986  19.144  25.774  1.00  0.00    -0.744 OA
ENDBRANCH  62  65
ENDBRANCH  44  58
BRANCH  45  69
ATOM     69  C   UNL A   1      41.035  30.099  33.050  1.00  0.00     0.023 A 
ATOM     70  C   UNL A   1      39.860  29.328  33.046  1.00  0.00     0.012 A 
ATOM     71  C   UNL A   1      40.938  31.487  33.282  1.00  0.00     0.148 A 
ATOM     72  C   UNL A   1      38.610  29.938  33.198  1.00  0.00     0.002 A 
ATOM     73  C   UNL A   1      39.688  32.094  33.378  1.00  0.00     0.091 A 
ATOM     74  F   UNL A   1      42.063  32.219  33.311  1.00  0.00    -0.205 F 
ATOM     75  C   UNL A   1      38.521  31.324  33.333  1.00  0.00     0.022 A 
BRANCH  73  76
ATOM     76  S   UNL A   1      39.585  33.889  33.390  1.00  0.00     0.127 S 
ATOM     77  O   UNL A   1      40.423  34.257  34.527  1.00  0.00    -0.237 OA
ATOM     78  O   UNL A   1      40.083  34.255  32.067  1.00  0.00    -0.237 OA
ATOM     79  O   UNL A   1      38.159  34.152  33.588  1.00  0.00    -0.744 OA
ENDBRANCH  73  76
ENDBRANCH  45  69
BRANCH  57  80
ATOM     80  C   UNL A   1      45.053  24.090  33.458  1.00  0.00     0.023 A 
ATOM     81  C   UNL A   1      44.188  23.014  33.770  1.00  0.00     0.012 A 
ATOM     82  C   UNL A   1      46.380  23.998  33.907  1.00  0.00     0.148 A 
ATOM     83  C   UNL A   1      44.606  21.923  34.532  1.00  0.00     0.002 A 
ATOM     84  C   UNL A   1      46.781  22.932  34.714  1.00  0.00     0.091 A 
ATOM     85  F   UNL A   1      47.274  24.925  33.529  1.00  0.00    -0.205 F 
ATOM     86  C   UNL A   1      45.901  21.889  35.025  1.00  0.00     0.022 A 
BRANCH  84  87
ATOM     87  S   UNL A   1      48.422  22.957  35.437  1.00  0.00     0.127 S 
ATOM     88  O   UNL A   1      49.301  22.832  34.280  1.00  0.00    -0.237 OA
ATOM     89  O   UNL A   1      48.444  24.237  36.139  1.00  0.00    -0.237 OA
ATOM     90  O   UNL A   1      48.420  21.792  36.324  1.00  0.00    -0.744 OA
ENDBRANCH  84  87
ENDBRANCH  57  80
ENDBRANCH  31  32
ENDBRANCH  24  26
ENDBRANCH  23  24
ENDBRANCH   1  23
TORSDOF 16
ENDMDL
MODEL 2
REMARK VINA RESULT:     -12.4      4.405     10.700
REMARK SMILES Cc1cc(C(=O)N[C@H]2C=C[C@H](C(=O)OCCOC(=O)c3ccc(-c4c5nc(c(-c6cccc(S(=O)(=O)[O-])c6F)c6ccc([nH]6)c(-c6cccc(S(=O)(=O)[O-])c6F)c6nc(c(-c7cccc(S(=O)(=O)[O-])c7F)c7ccc4[nH]7)C=C6)C=C5)cc3)C2)ccc1F
REMARK SMILES IDX 16 1 15 2 14 3 12 4 13 5 11 6 8 7 9 8 83 9 10 10 7 11 5 12
REMARK SMILES IDX 6 13 4 15 1 16 2 17 3 18 86 19 85 20 87 21 84 22 17 23 18 24
REMARK SMILES IDX 19 25 20 26 21 27 82 28 22 29 81 30 23 31 24 32 25 33 75 34
REMARK SMILES IDX 26 35 80 36 74 37 76 38 27 39 79 40 73 41 72 42 28 44 60 45
REMARK SMILES IDX 40 46 59 47 41 48 44 49 58 50 77 51 42 52 43 53 57 55 78 56
REMARK SMILES IDX 45 57 29 58 30 59 38 60 31 61 33 62 39 63 32 64 34 65 35 66
REMARK SMILES IDX 36 67 37 68 61 69 62 70 70 71 63 72 65 73 71 74 64 75 66 76
REMARK SMILES IDX 67 77 68 78 69 79 46 80 47 81 55 82 48 83 50 84 56 85 49 86
REMARK SMILES IDX 51 87 52 88 53 89 54 90
REMARK H PARENT 7 14 76 43 44 54
REMARK Flexibility Score: inf
ROOT
ATOM      1  C   UNL A   1      39.331  22.421  26.524  1.00  0.00     0.275 C 
ENDROOT
BRANCH   1   2
ATOM      2  C   UNL A   1      38.024  23.002  25.977  1.00  0.00     0.274 C 
BRANCH   2   3
ATOM      3  O   UNL A   1      37.328  22.053  25.148  1.00  0.00    -0.462 OA
BRANCH   3   4
ATOM      4  C   UNL A   1      36.017  21.848  25.440  1.00  0.00     0.312 C 
ATOM      5  O   UNL A   1      35.560  21.824  26.582  1.00  0.00    -0.252 OA
BRANCH   4   6
ATOM      6  C   UNL A   1      35.161  21.729  24.170  1.00  0.00     0.124 C 
ATOM      7  C   UNL A   1      34.364  23.983  23.885  1.00  0.00     0.106 C 
ATOM      8  C   UNL A   1      33.228  23.064  24.218  1.00  0.00    -0.006 C 
ATOM      9  C   UNL A   1      35.374  22.990  23.308  1.00  0.00     0.048 C 
ATOM     10  C   UNL A   1      33.686  21.821  24.429  1.00  0.00    -0.014 C 
BRANCH   7  11
ATOM     11  N   UNL A   1      33.965  25.029  22.986  1.00  0.00    -0.346 N 
ATOM     12  C   UNL A   1      33.269  26.194  23.204  1.00  0.00     0.251 C 
ATOM     13  O   UNL A   1      32.961  26.852  22.205  1.00  0.00    -0.269 OA
ATOM     14  H   UNL A   1      34.236  24.888  22.050  1.00  0.00     0.164 HD
BRANCH  12  15
ATOM     15  C   UNL A   1      32.904  26.742  24.553  1.00  0.00     0.040 A 
ATOM     16  C   UNL A   1      34.111  28.955  27.425  1.00  0.00     0.047 C 
ATOM     17  C   UNL A   1      33.258  28.027  26.611  1.00  0.00    -0.015 A 
ATOM     18  C   UNL A   1      33.723  27.517  25.384  1.00  0.00     0.020 A 
ATOM     19  C   UNL A   1      31.964  27.716  27.023  1.00  0.00     0.126 A 
ATOM     20  C   UNL A   1      31.145  26.908  26.248  1.00  0.00     0.040 A 
ATOM     21  F   UNL A   1      31.496  28.191  28.187  1.00  0.00    -0.207 F 
ATOM     22  C   UNL A   1      31.612  26.430  25.019  1.00  0.00     0.017 A 
ENDBRANCH  12  15
ENDBRANCH   7  11
ENDBRANCH   4   6
ENDBRANCH   3   4
ENDBRANCH   2   3
ENDBRANCH   1   2
BRANCH   1  23
ATOM     23  O   UNL A   1      40.475  23.270  26.308  1.00  0.00    -0.458 OA
BRANCH  23  24
ATOM     24  C   UNL A   1      40.807  23.999  27.396  1.00  0.00     0.338 C 
ATOM     25  O   UNL A   1      41.551  23.669  28.302  1.00  0.00    -0.246 OA
BRANCH  24  26
ATOM     26  C   UNL A   1      40.017  25.218  27.554  1.00  0.00     0.060 A 
ATOM     27  C   UNL A   1      40.396  26.298  26.734  1.00  0.00     0.016 A 
ATOM     28  C   UNL A   1      39.346  25.407  28.760  1.00  0.00     0.016 A 
ATOM     29  C   UNL A   1      40.323  27.582  27.238  1.00  0.00     0.010 A 
ATOM     30  C   UNL A   1      39.271  26.690  29.256  1.00  0.00     0.010 A 
ATOM     31  C   UNL A   1      39.846  27.746  28.536  1.00  0.00    -0.014 A 
BRANCH  31  32
ATOM     32  C   UNL A   1      40.007  28.998  29.251  1.00  0.00     0.031 A 
ATOM     33  C   UNL A   1      38.982  30.042  29.124  1.00  0.00     0.074 A 
ATOM     34  C   UNL A   1      41.118  29.213  29.984  1.00  0.00     0.049 A 
ATOM     35  N   UNL A   1      39.185  31.303  29.301  1.00  0.00    -0.248 NA
ATOM     36  C   UNL A   1      37.634  29.728  28.666  1.00  0.00     0.031 C 
ATOM     37  C   UNL A   1      41.336  30.282  30.950  1.00  0.00     0.029 A 
ATOM     38  N   UNL A   1      42.377  28.634  29.824  1.00  0.00    -0.354 N 
ATOM     39  C   UNL A   1      37.951  31.906  29.338  1.00  0.00     0.074 A 
ATOM     40  C   UNL A   1      37.051  30.923  28.775  1.00  0.00     0.031 C 
ATOM     41  C   UNL A   1      42.659  30.473  31.078  1.00  0.00     0.029 A 
ATOM     42  C   UNL A   1      43.306  29.658  30.060  1.00  0.00     0.049 A 
ATOM     43  H   UNL A   1      42.574  27.698  29.593  1.00  0.00     0.167 HD
ATOM     44  C   UNL A   1      37.805  33.091  30.004  1.00  0.00     0.034 A 
ATOM     45  C   UNL A   1      44.185  30.125  29.124  1.00  0.00     0.034 A 
ATOM     46  C   UNL A   1      39.097  33.634  30.435  1.00  0.00     0.049 A 
ATOM     47  C   UNL A   1      44.081  31.623  28.891  1.00  0.00     0.074 A 
ATOM     48  C   UNL A   1      39.739  33.732  31.659  1.00  0.00     0.029 A 
ATOM     49  N   UNL A   1      40.057  33.949  29.483  1.00  0.00    -0.354 N 
ATOM     50  N   UNL A   1      43.083  32.354  29.305  1.00  0.00    -0.248 NA
ATOM     51  C   UNL A   1      45.022  32.386  28.071  1.00  0.00     0.031 C 
ATOM     52  C   UNL A   1      41.087  34.127  31.432  1.00  0.00     0.029 A 
ATOM     53  C   UNL A   1      41.266  34.271  30.070  1.00  0.00     0.049 A 
ATOM     54  H   UNL A   1      39.896  33.944  28.512  1.00  0.00     0.167 HD
ATOM     55  C   UNL A   1      43.260  33.647  28.889  1.00  0.00     0.074 A 
ATOM     56  C   UNL A   1      44.461  33.607  28.077  1.00  0.00     0.031 C 
ATOM     57  C   UNL A   1      42.396  34.644  29.230  1.00  0.00     0.034 A 
BRANCH  44  58
ATOM     58  C   UNL A   1      36.456  33.585  30.520  1.00  0.00     0.023 A 
ATOM     59  C   UNL A   1      36.103  33.550  31.887  1.00  0.00     0.012 A 
ATOM     60  C   UNL A   1      35.502  34.189  29.669  1.00  0.00     0.148 A 
ATOM     61  C   UNL A   1      34.983  34.208  32.409  1.00  0.00     0.002 A 
ATOM     62  C   UNL A   1      34.363  34.820  30.185  1.00  0.00     0.091 A 
ATOM     63  F   UNL A   1      35.669  34.163  28.341  1.00  0.00    -0.205 F 
ATOM     64  C   UNL A   1      34.117  34.864  31.557  1.00  0.00     0.022 A 
BRANCH  62  65
ATOM     65  S   UNL A   1      33.204  35.609  29.062  1.00  0.00     0.127 S 
ATOM     66  O   UNL A   1      34.056  36.495  28.278  1.00  0.00    -0.237 OA
ATOM     67  O   UNL A   1      32.605  34.475  28.365  1.00  0.00    -0.237 OA
ATOM     68  O   UNL A   1      32.286  36.307  29.966  1.00  0.00    -0.744 OA
ENDBRANCH  62  65
ENDBRANCH  44  58
BRANCH  45  69
ATOM     69  C   UNL A   1      44.556  29.155  28.055  1.00  0.00     0.023 A 
ATOM     70  C   UNL A   1      43.744  29.014  26.916  1.00  0.00     0.012 A 
ATOM     71  C   UNL A   1      45.525  28.166  28.325  1.00  0.00     0.148 A 
ATOM     72  C   UNL A   1      43.847  27.878  26.106  1.00  0.00     0.002 A 
ATOM     73  C   UNL A   1      45.585  27.013  27.545  1.00  0.00     0.091 A 
ATOM     74  F   UNL A   1      46.318  28.312  29.399  1.00  0.00    -0.205 F 
ATOM     75  C   UNL A   1      44.745  26.864  26.437  1.00  0.00     0.022 A 
BRANCH  73  76
ATOM     76  S   UNL A   1      46.631  25.650  28.076  1.00  0.00     0.127 S 
ATOM     77  O   UNL A   1      47.977  26.190  27.920  1.00  0.00    -0.237 OA
ATOM     78  O   UNL A   1      46.180  25.404  29.444  1.00  0.00    -0.237 OA
ATOM     79  O   UNL A   1      46.304  24.577  27.136  1.00  0.00    -0.744 OA
ENDBRANCH  73  76
ENDBRANCH  45  69
BRANCH  57  80
ATOM     80  C   UNL A   1      42.525  36.067  28.765  1.00  0.00     0.023 A 
ATOM     81  C   UNL A   1      41.942  36.427  27.528  1.00  0.00     0.012 A 
ATOM     82  C   UNL A   1      43.134  37.089  29.511  1.00  0.00     0.148 A 
ATOM     83  C   UNL A   1      42.002  37.729  27.030  1.00  0.00     0.002 A 
ATOM     84  C   UNL A   1      43.239  38.379  28.986  1.00  0.00     0.091 A 
ATOM     85  F   UNL A   1      43.586  36.830  30.747  1.00  0.00    -0.205 F 
ATOM     86  C   UNL A   1      42.671  38.706  27.750  1.00  0.00     0.022 A 
BRANCH  84  87
ATOM     87  S   UNL A   1      44.203  39.603  29.874  1.00  0.00     0.127 S 
ATOM     88  O   UNL A   1      43.495  39.734  31.142  1.00  0.00    -0.237 OA
ATOM     89  O   UNL A   1      45.528  38.993  29.926  1.00  0.00    -0.237 OA
ATOM     90  O   UNL A   1      44.127  40.786  29.013  1.00  0.00    -0.744 OA
ENDBRANCH  84  87
ENDBRANCH  57  80
ENDBRANCH  31  32
ENDBRANCH  24  26
ENDBRANCH  23  24
ENDBRANCH   1  23
TORSDOF 16
ENDMDL
MODEL 3
REMARK VINA RESULT:     -11.9      4.411     10.548
REMARK SMILES Cc1cc(C(=O)N[C@H]2C=C[C@H](C(=O)OCCOC(=O)c3ccc(-c4c5nc(c(-c6cccc(S(=O)(=O)[O-])c6F)c6ccc([nH]6)c(-c6cccc(S(=O)(=O)[O-])c6F)c6nc(c(-c7cccc(S(=O)(=O)[O-])c7F)c7ccc4[nH]7)C=C6)C=C5)cc3)C2)ccc1F
REMARK SMILES IDX 16 1 15 2 14 3 12 4 13 5 11 6 8 7 9 8 83 9 10 10 7 11 5 12
REMARK SMILES IDX 6 13 4 15 1 16 2 17 3 18 86 19 85 20 87 21 84 22 17 23 18 24
REMARK SMILES IDX 19 25 20 26 21 27 82 28 22 29 81 30 23 31 24 32 25 33 75 34
REMARK SMILES IDX 26 35 80 36 74 37 76 38 27 39 79 40 73 41 72 42 28 44 60 45
REMARK SMILES IDX 40 46 59 47 41 48 44 49 58 50 77 51 42 52 43 53 57 55 78 56
REMARK SMILES IDX 45 57 29 58 30 59 38 60 31 61 33 62 39 63 32 64 34 65 35 66
REMARK SMILES IDX 36 67 37 68 61 69 62 70 70 71 63 72 65 73 71 74 64 75 66 76
REMARK SMILES IDX 67 77 68 78 69 79 46 80 47 81 55 82 48 83 50 84 56 85 49 86
REMARK SMILES IDX 51 87 52 88 53 89 54 90
REMARK H PARENT 7 14 76 43 44 54
REMARK Flexibility Score: inf
ROOT
ATOM      1  C   UNL A   1      39.969  21.774  26.536  1.00  0.00     0.275 C 
ENDROOT
BRANCH   1   2
ATOM      2  C   UNL A   1      38.698  21.419  25.759  1.00  0.00     0.274 C 
BRANCH   2   3
ATOM      3  O   UNL A   1      38.091  22.587  25.175  1.00  0.00    -0.462 OA
BRANCH   3   4
ATOM      4  C   UNL A   1      36.950  23.028  25.764  1.00  0.00     0.312 C 
ATOM      5  O   UNL A   1      36.824  24.137  26.281  1.00  0.00    -0.252 OA
BRANCH   4   6
ATOM      6  C   UNL A   1      35.810  22.006  25.637  1.00  0.00     0.124 C 
ATOM      7  C   UNL A   1      33.892  23.425  25.320  1.00  0.00     0.106 C 
ATOM      8  C   UNL A   1      33.805  22.715  26.636  1.00  0.00    -0.006 C 
ATOM      9  C   UNL A   1      34.827  22.490  24.552  1.00  0.00     0.048 C 
ATOM     10  C   UNL A   1      34.902  21.968  26.831  1.00  0.00    -0.014 C 
BRANCH   7  11
ATOM     11  N   UNL A   1      32.599  23.611  24.722  1.00  0.00    -0.346 N 
ATOM     12  C   UNL A   1      31.805  22.756  23.997  1.00  0.00     0.251 C 
ATOM     13  O   UNL A   1      30.782  23.236  23.498  1.00  0.00    -0.269 OA
ATOM     14  H   UNL A   1      32.215  24.508  24.854  1.00  0.00     0.164 HD
BRANCH  12  15
ATOM     15  C   UNL A   1      32.062  21.288  23.810  1.00  0.00     0.040 A 
ATOM     16  C   UNL A   1      32.621  17.986  25.650  1.00  0.00     0.047 C 
ATOM     17  C   UNL A   1      32.481  18.985  24.540  1.00  0.00    -0.015 A 
ATOM     18  C   UNL A   1      32.307  20.353  24.825  1.00  0.00     0.020 A 
ATOM     19  C   UNL A   1      32.449  18.563  23.213  1.00  0.00     0.126 A 
ATOM     20  C   UNL A   1      32.259  19.472  22.182  1.00  0.00     0.040 A 
ATOM     21  F   UNL A   1      32.610  17.265  22.916  1.00  0.00    -0.207 F 
ATOM     22  C   UNL A   1      32.062  20.823  22.481  1.00  0.00     0.017 A 
ENDBRANCH  12  15
ENDBRANCH   7  11
ENDBRANCH   4   6
ENDBRANCH   3   4
ENDBRANCH   2   3
ENDBRANCH   1   2
BRANCH   1  23
ATOM     23  O   UNL A   1      40.502  23.072  26.208  1.00  0.00    -0.458 OA
BRANCH  23  24
ATOM     24  C   UNL A   1      40.827  23.802  27.297  1.00  0.00     0.338 C 
ATOM     25  O   UNL A   1      41.550  23.466  28.217  1.00  0.00    -0.246 OA
BRANCH  24  26
ATOM     26  C   UNL A   1      40.055  25.035  27.434  1.00  0.00     0.060 A 
ATOM     27  C   UNL A   1      40.498  26.119  26.654  1.00  0.00     0.016 A 
ATOM     28  C   UNL A   1      39.324  25.219  28.606  1.00  0.00     0.016 A 
ATOM     29  C   UNL A   1      40.424  27.397  27.175  1.00  0.00     0.010 A 
ATOM     30  C   UNL A   1      39.250  26.495  29.120  1.00  0.00     0.010 A 
ATOM     31  C   UNL A   1      39.883  27.550  28.449  1.00  0.00    -0.014 A 
BRANCH  31  32
ATOM     32  C   UNL A   1      40.031  28.786  29.192  1.00  0.00     0.031 A 
ATOM     33  C   UNL A   1      39.011  29.836  29.065  1.00  0.00     0.074 A 
ATOM     34  C   UNL A   1      41.126  28.984  29.953  1.00  0.00     0.049 A 
ATOM     35  N   UNL A   1      39.213  31.092  29.271  1.00  0.00    -0.248 NA
ATOM     36  C   UNL A   1      37.673  29.534  28.572  1.00  0.00     0.031 C 
ATOM     37  C   UNL A   1      41.325  30.032  30.945  1.00  0.00     0.029 A 
ATOM     38  N   UNL A   1      42.387  28.405  29.808  1.00  0.00    -0.354 N 
ATOM     39  C   UNL A   1      37.980  31.698  29.294  1.00  0.00     0.074 A 
ATOM     40  C   UNL A   1      37.090  30.729  28.692  1.00  0.00     0.031 C 
ATOM     41  C   UNL A   1      42.646  30.218  31.105  1.00  0.00     0.029 A 
ATOM     42  C   UNL A   1      43.313  29.422  30.085  1.00  0.00     0.049 A 
ATOM     43  H   UNL A   1      42.587  27.474  29.563  1.00  0.00     0.167 HD
ATOM     44  C   UNL A   1      37.822  32.869  29.981  1.00  0.00     0.034 A 
ATOM     45  C   UNL A   1      44.213  29.906  29.178  1.00  0.00     0.034 A 
ATOM     46  C   UNL A   1      39.105  33.400  30.450  1.00  0.00     0.049 A 
ATOM     47  C   UNL A   1      44.117  31.408  28.973  1.00  0.00     0.074 A 
ATOM     48  C   UNL A   1      39.721  33.472  31.690  1.00  0.00     0.029 A 
ATOM     49  N   UNL A   1      40.086  33.732  29.526  1.00  0.00    -0.354 N 
ATOM     50  N   UNL A   1      43.112  32.134  29.380  1.00  0.00    -0.248 NA
ATOM     51  C   UNL A   1      45.078  32.185  28.189  1.00  0.00     0.031 C 
ATOM     52  C   UNL A   1      41.075  33.868  31.500  1.00  0.00     0.029 A 
ATOM     53  C   UNL A   1      41.283  34.039  30.145  1.00  0.00     0.049 A 
ATOM     54  H   UNL A   1      39.946  33.748  28.551  1.00  0.00     0.167 HD
ATOM     55  C   UNL A   1      43.301  33.434  28.995  1.00  0.00     0.074 A 
ATOM     56  C   UNL A   1      44.519  33.408  28.208  1.00  0.00     0.031 C 
ATOM     57  C   UNL A   1      42.431  34.426  29.338  1.00  0.00     0.034 A 
BRANCH  44  58
ATOM     58  C   UNL A   1      36.463  33.357  30.478  1.00  0.00     0.023 A 
ATOM     59  C   UNL A   1      36.074  33.279  31.833  1.00  0.00     0.012 A 
ATOM     60  C   UNL A   1      35.535  33.994  29.622  1.00  0.00     0.148 A 
ATOM     61  C   UNL A   1      34.945  33.928  32.348  1.00  0.00     0.002 A 
ATOM     62  C   UNL A   1      34.388  34.617  30.129  1.00  0.00     0.091 A 
ATOM     63  F   UNL A   1      35.737  34.010  28.300  1.00  0.00    -0.205 F 
ATOM     64  C   UNL A   1      34.106  34.617  31.495  1.00  0.00     0.022 A 
BRANCH  62  65
ATOM     65  S   UNL A   1      33.263  35.450  29.003  1.00  0.00     0.127 S 
ATOM     66  O   UNL A   1      34.147  36.327  28.244  1.00  0.00    -0.237 OA
ATOM     67  O   UNL A   1      32.646  34.342  28.281  1.00  0.00    -0.237 OA
ATOM     68  O   UNL A   1      32.350  36.157  29.905  1.00  0.00    -0.744 OA
ENDBRANCH  62  65
ENDBRANCH  44  58
BRANCH  45  69
ATOM     69  C   UNL A   1      44.605  28.957  28.098  1.00  0.00     0.023 A 
ATOM     70  C   UNL A   1      43.810  28.832  26.945  1.00  0.00     0.012 A 
ATOM     71  C   UNL A   1      45.576  27.969  28.364  1.00  0.00     0.148 A 
ATOM     72  C   UNL A   1      43.931  27.710  26.117  1.00  0.00     0.002 A 
ATOM     73  C   UNL A   1      45.654  26.830  27.566  1.00  0.00     0.091 A 
ATOM     74  F   UNL A   1      46.353  28.101  29.452  1.00  0.00    -0.205 F 
ATOM     75  C   UNL A   1      44.831  26.695  26.443  1.00  0.00     0.022 A 
BRANCH  73  76
ATOM     76  S   UNL A   1      46.700  25.464  28.087  1.00  0.00     0.127 S 
ATOM     77  O   UNL A   1      48.044  26.021  27.978  1.00  0.00    -0.237 OA
ATOM     78  O   UNL A   1      46.219  25.179  29.437  1.00  0.00    -0.237 OA
ATOM     79  O   UNL A   1      46.407  24.412  27.113  1.00  0.00    -0.744 OA
ENDBRANCH  73  76
ENDBRANCH  45  69
BRANCH  57  80
ATOM     80  C   UNL A   1      42.574  35.858  28.905  1.00  0.00     0.023 A 
ATOM     81  C   UNL A   1      41.983  36.254  27.682  1.00  0.00     0.012 A 
ATOM     82  C   UNL A   1      43.201  36.856  29.668  1.00  0.00     0.148 A 
ATOM     83  C   UNL A   1      42.055  37.566  27.213  1.00  0.00     0.002 A 
ATOM     84  C   UNL A   1      43.317  38.156  29.172  1.00  0.00     0.091 A 
ATOM     85  F   UNL A   1      43.661  36.563  30.894  1.00  0.00    -0.205 F 
ATOM     86  C   UNL A   1      42.742  38.518  27.950  1.00  0.00     0.022 A 
BRANCH  84  87
ATOM     87  S   UNL A   1      44.303  39.348  30.079  1.00  0.00     0.127 S 
ATOM     88  O   UNL A   1      43.651  39.401  31.383  1.00  0.00    -0.237 OA
ATOM     89  O   UNL A   1      45.638  38.756  30.041  1.00  0.00    -0.237 OA
ATOM     90  O   UNL A   1      44.172  40.572  29.286  1.00  0.00    -0.744 OA
ENDBRANCH  84  87
ENDBRANCH  57  80
ENDBRANCH  31  32
ENDBRANCH  24  26
ENDBRANCH  23  24
ENDBRANCH   1  23
TORSDOF 16
ENDMDL
