MODEL 1
REMARK VINA RESULT:     -11.4      0.000      0.000
REMARK SMILES Cc1cccc(C[N@H+]2CC[C@@](C)(C(=O)OCCOC(=O)c3ccc(-c4c5nc(c(-c6cccc(S(=O)(=O)[O-])c6F)c6ccc([nH]6)c(-c6cccc(S(=O)(=O)[O-])c6F)c6nc(c(-c7cccc(S(=O)(=O)[O-])c7F)c7ccc4[nH]7)C=C6)C=C5)cc3)C2)n1
REMARK SMILES IDX 17 1 16 2 15 3 13 4 14 5 11 6 8 7 9 8 84 9 10 11 12 12 7 13
REMARK SMILES IDX 6 14 1 15 2 16 3 17 85 18 4 19 5 20 18 21 19 22 20 23 21 24
REMARK SMILES IDX 22 25 83 26 23 27 82 28 24 29 25 30 26 31 76 32 27 33 81 34
REMARK SMILES IDX 75 35 77 36 28 37 80 38 74 39 73 40 29 42 61 43 41 44 60 45
REMARK SMILES IDX 42 46 45 47 59 48 78 49 43 50 44 51 58 53 79 54 46 55 30 56
REMARK SMILES IDX 31 57 39 58 32 59 34 60 40 61 33 62 35 63 36 64 37 65 38 66
REMARK SMILES IDX 62 67 63 68 71 69 64 70 66 71 72 72 65 73 67 74 68 75 69 76
REMARK SMILES IDX 70 77 47 78 48 79 56 80 49 81 51 82 57 83 50 84 52 85 53 86
REMARK SMILES IDX 54 87 55 88
REMARK H PARENT 8 10 77 41 45 52
REMARK Flexibility Score: inf
ROOT
ATOM      1  C   UNL A   1      31.675  29.504  25.935  1.00  0.00     0.275 C 
ENDROOT
BRANCH   1   2
ATOM      2  C   UNL A   1      31.159  29.257  24.520  1.00  0.00     0.274 C 
BRANCH   2   3
ATOM      3  O   UNL A   1      31.282  27.862  24.170  1.00  0.00    -0.461 OA
BRANCH   3   4
ATOM      4  C   UNL A   1      31.570  27.567  22.878  1.00  0.00     0.317 C 
ATOM      5  O   UNL A   1      30.750  27.642  21.966  1.00  0.00    -0.251 OA
BRANCH   4   6
ATOM      6  C   UNL A   1      33.010  27.086  22.642  1.00  0.00     0.119 C 
ATOM      7  N   UNL A   1      33.827  24.940  23.332  1.00  0.00    -0.329 N 
ATOM      8  C   UNL A   1      32.875  24.730  22.252  1.00  0.00     0.263 C 
ATOM      9  C   UNL A   1      33.650  26.320  23.814  1.00  0.00     0.281 C 
ATOM     10  H   UNL A   1      34.771  24.818  22.962  1.00  0.00     0.348 HD
ATOM     11  C   UNL A   1      32.963  26.049  21.508  1.00  0.00     0.086 C 
ATOM     12  C   UNL A   1      33.886  28.278  22.250  1.00  0.00     0.030 C 
BRANCH   7  13
ATOM     13  C   UNL A   1      33.814  23.924  24.394  1.00  0.00     0.319 C 
BRANCH  13  14
ATOM     14  C   UNL A   1      35.140  23.246  24.695  1.00  0.00     0.095 A 
ATOM     15  C   UNL A   1      38.198  24.252  26.471  1.00  0.00     0.067 C 
ATOM     16  C   UNL A   1      37.219  23.392  25.734  1.00  0.00     0.038 A 
ATOM     17  C   UNL A   1      37.464  22.042  25.519  1.00  0.00     0.023 A 
ATOM     18  N   UNL A   1      36.096  23.999  25.296  1.00  0.00    -0.252 NA
ATOM     19  C   UNL A   1      36.501  21.284  24.859  1.00  0.00     0.004 A 
ATOM     20  C   UNL A   1      35.318  21.890  24.446  1.00  0.00     0.030 A 
ENDBRANCH  13  14
ENDBRANCH   7  13
ENDBRANCH   4   6
ENDBRANCH   3   4
ENDBRANCH   2   3
ENDBRANCH   1   2
BRANCH   1  21
ATOM     21  O   UNL A   1      32.900  30.243  25.853  1.00  0.00    -0.458 OA
BRANCH  21  22
ATOM     22  C   UNL A   1      33.101  31.171  26.814  1.00  0.00     0.338 C 
ATOM     23  O   UNL A   1      32.345  32.068  27.153  1.00  0.00    -0.246 OA
BRANCH  22  24
ATOM     24  C   UNL A   1      34.409  30.922  27.440  1.00  0.00     0.060 A 
ATOM     25  C   UNL A   1      34.762  29.622  27.802  1.00  0.00     0.016 A 
ATOM     26  C   UNL A   1      35.251  31.988  27.745  1.00  0.00     0.016 A 
ATOM     27  C   UNL A   1      35.913  29.391  28.547  1.00  0.00     0.010 A 
ATOM     28  C   UNL A   1      36.464  31.739  28.394  1.00  0.00     0.010 A 
ATOM     29  C   UNL A   1      36.796  30.443  28.829  1.00  0.00    -0.014 A 
BRANCH  29  30
ATOM     30  C   UNL A   1      38.058  30.193  29.578  1.00  0.00     0.031 A 
ATOM     31  C   UNL A   1      39.142  29.344  28.966  1.00  0.00     0.074 A 
ATOM     32  C   UNL A   1      38.224  30.702  30.815  1.00  0.00     0.049 A 
ATOM     33  N   UNL A   1      40.209  28.837  29.527  1.00  0.00    -0.248 NA
ATOM     34  C   UNL A   1      38.997  29.002  27.541  1.00  0.00     0.031 C 
ATOM     35  C   UNL A   1      37.259  31.551  31.519  1.00  0.00     0.029 A 
ATOM     36  N   UNL A   1      39.259  30.572  31.710  1.00  0.00    -0.354 N 
ATOM     37  C   UNL A   1      40.813  28.051  28.553  1.00  0.00     0.074 A 
ATOM     38  C   UNL A   1      40.006  28.162  27.358  1.00  0.00     0.031 C 
ATOM     39  C   UNL A   1      37.756  31.886  32.720  1.00  0.00     0.029 A 
ATOM     40  C   UNL A   1      39.034  31.212  32.908  1.00  0.00     0.049 A 
ATOM     41  H   UNL A   1      40.083  30.071  31.512  1.00  0.00     0.167 HD
ATOM     42  C   UNL A   1      41.944  27.311  28.646  1.00  0.00     0.034 A 
ATOM     43  C   UNL A   1      39.753  31.224  34.046  1.00  0.00     0.034 A 
ATOM     44  C   UNL A   1      42.787  27.275  29.811  1.00  0.00     0.049 A 
ATOM     45  C   UNL A   1      41.028  30.430  34.107  1.00  0.00     0.074 A 
ATOM     46  C   UNL A   1      43.965  26.573  30.001  1.00  0.00     0.029 A 
ATOM     47  N   UNL A   1      42.559  27.994  30.974  1.00  0.00    -0.354 N 
ATOM     48  N   UNL A   1      41.591  29.706  33.170  1.00  0.00    -0.248 NA
ATOM     49  C   UNL A   1      41.768  30.456  35.376  1.00  0.00     0.031 C 
ATOM     50  C   UNL A   1      44.451  26.874  31.278  1.00  0.00     0.029 A 
ATOM     51  C   UNL A   1      43.579  27.767  31.880  1.00  0.00     0.049 A 
ATOM     52  H   UNL A   1      41.784  28.581  31.132  1.00  0.00     0.167 HD
ATOM     53  C   UNL A   1      42.758  29.202  33.729  1.00  0.00     0.074 A 
ATOM     54  C   UNL A   1      42.838  29.733  35.076  1.00  0.00     0.031 C 
ATOM     55  C   UNL A   1      43.668  28.354  33.192  1.00  0.00     0.034 A 
BRANCH  42  56
ATOM     56  C   UNL A   1      42.358  26.501  27.445  1.00  0.00     0.023 A 
ATOM     57  C   UNL A   1      43.056  27.126  26.393  1.00  0.00     0.012 A 
ATOM     58  C   UNL A   1      42.111  25.116  27.386  1.00  0.00     0.148 A 
ATOM     59  C   UNL A   1      43.483  26.387  25.289  1.00  0.00     0.002 A 
ATOM     60  C   UNL A   1      42.571  24.379  26.301  1.00  0.00     0.091 A 
ATOM     61  F   UNL A   1      41.424  24.545  28.387  1.00  0.00    -0.205 F 
ATOM     62  C   UNL A   1      43.250  25.013  25.248  1.00  0.00     0.022 A 
BRANCH  60  63
ATOM     63  S   UNL A   1      42.382  22.595  26.191  1.00  0.00     0.127 S 
ATOM     64  O   UNL A   1      43.044  22.152  27.417  1.00  0.00    -0.237 OA
ATOM     65  O   UNL A   1      40.927  22.437  26.193  1.00  0.00    -0.237 OA
ATOM     66  O   UNL A   1      43.031  22.200  24.949  1.00  0.00    -0.744 OA
ENDBRANCH  60  63
ENDBRANCH  42  56
BRANCH  43  67
ATOM     67  C   UNL A   1      39.293  32.038  35.209  1.00  0.00     0.023 A 
ATOM     68  C   UNL A   1      38.453  31.448  36.173  1.00  0.00     0.012 A 
ATOM     69  C   UNL A   1      39.722  33.366  35.398  1.00  0.00     0.148 A 
ATOM     70  C   UNL A   1      38.037  32.169  37.293  1.00  0.00     0.002 A 
ATOM     71  C   UNL A   1      39.355  34.058  36.547  1.00  0.00     0.091 A 
ATOM     72  F   UNL A   1      40.498  33.928  34.460  1.00  0.00    -0.205 F 
ATOM     73  C   UNL A   1      38.499  33.469  37.488  1.00  0.00     0.022 A 
BRANCH  71  74
ATOM     74  S   UNL A   1      40.050  35.670  36.930  1.00  0.00     0.127 S 
ATOM     75  O   UNL A   1      39.597  36.472  35.798  1.00  0.00    -0.237 OA
ATOM     76  O   UNL A   1      39.411  35.994  38.206  1.00  0.00    -0.237 OA
ATOM     77  O   UNL A   1      41.487  35.445  37.029  1.00  0.00    -0.744 OA
ENDBRANCH  71  74
ENDBRANCH  43  67
BRANCH  55  78
ATOM     78  C   UNL A   1      44.836  27.961  34.051  1.00  0.00     0.023 A 
ATOM     79  C   UNL A   1      45.982  28.781  34.076  1.00  0.00     0.012 A 
ATOM     80  C   UNL A   1      44.776  26.823  34.878  1.00  0.00     0.148 A 
ATOM     81  C   UNL A   1      47.062  28.460  34.895  1.00  0.00     0.002 A 
ATOM     82  C   UNL A   1      45.843  26.531  35.720  1.00  0.00     0.091 A 
ATOM     83  F   UNL A   1      43.687  26.044  34.819  1.00  0.00    -0.205 F 
ATOM     84  C   UNL A   1      46.988  27.343  35.725  1.00  0.00     0.022 A 
BRANCH  82  85
ATOM     85  S   UNL A   1      45.792  25.157  36.875  1.00  0.00     0.127 S 
ATOM     86  O   UNL A   1      45.738  24.009  35.973  1.00  0.00    -0.237 OA
ATOM     87  O   UNL A   1      47.056  25.305  37.598  1.00  0.00    -0.237 OA
ATOM     88  O   UNL A   1      44.606  25.374  37.693  1.00  0.00    -0.744 OA
ENDBRANCH  82  85
ENDBRANCH  55  78
ENDBRANCH  29  30
ENDBRANCH  22  24
ENDBRANCH  21  22
ENDBRANCH   1  21
TORSDOF 16
ENDMDL
MODEL 2
REMARK VINA RESULT:     -11.4      5.066      9.972
REMARK SMILES Cc1cccc(C[N@H+]2CC[C@@](C)(C(=O)OCCOC(=O)c3ccc(-c4c5nc(c(-c6cccc(S(=O)(=O)[O-])c6F)c6ccc([nH]6)c(-c6cccc(S(=O)(=O)[O-])c6F)c6nc(c(-c7cccc(S(=O)(=O)[O-])c7F)c7ccc4[nH]7)C=C6)C=C5)cc3)C2)n1
REMARK SMILES IDX 17 1 16 2 15 3 13 4 14 5 11 6 8 7 9 8 84 9 10 11 12 12 7 13
REMARK SMILES IDX 6 14 1 15 2 16 3 17 85 18 4 19 5 20 18 21 19 22 20 23 21 24
REMARK SMILES IDX 22 25 83 26 23 27 82 28 24 29 25 30 26 31 76 32 27 33 81 34
REMARK SMILES IDX 75 35 77 36 28 37 80 38 74 39 73 40 29 42 61 43 41 44 60 45
REMARK SMILES IDX 42 46 45 47 59 48 78 49 43 50 44 51 58 53 79 54 46 55 30 56
REMARK SMILES IDX 31 57 39 58 32 59 34 60 40 61 33 62 35 63 36 64 37 65 38 66
REMARK SMILES IDX 62 67 63 68 71 69 64 70 66 71 72 72 65 73 67 74 68 75 69 76
REMARK SMILES IDX 70 77 47 78 48 79 56 80 49 81 51 82 57 83 50 84 52 85 53 86
REMARK SMILES IDX 54 87 55 88
REMARK H PARENT 8 10 77 41 45 52
REMARK Flexibility Score: inf
ROOT
ATOM      1  C   UNL A   1      36.858  21.274  24.371  1.00  0.00     0.275 C 
ENDROOT
BRANCH   1   2
ATOM      2  C   UNL A   1      36.452  22.618  23.773  1.00  0.00     0.274 C 
BRANCH   2   3
ATOM      3  O   UNL A   1      35.045  22.863  23.986  1.00  0.00    -0.461 OA
BRANCH   3   4
ATOM      4  C   UNL A   1      34.700  23.614  25.062  1.00  0.00     0.317 C 
ATOM      5  O   UNL A   1      35.373  24.555  25.476  1.00  0.00    -0.251 OA
BRANCH   4   6
ATOM      6  C   UNL A   1      33.406  23.167  25.760  1.00  0.00     0.119 C 
ATOM      7  N   UNL A   1      32.462  20.975  25.540  1.00  0.00    -0.329 N 
ATOM      8  C   UNL A   1      33.698  20.855  26.299  1.00  0.00     0.263 C 
ATOM      9  C   UNL A   1      32.460  22.303  24.906  1.00  0.00     0.281 C 
ATOM     10  H   UNL A   1      31.675  20.894  26.185  1.00  0.00     0.348 HD
ATOM     11  C   UNL A   1      33.811  22.237  26.915  1.00  0.00     0.086 C 
ATOM     12  C   UNL A   1      32.664  24.398  26.289  1.00  0.00     0.030 C 
BRANCH   7  13
ATOM     13  C   UNL A   1      32.178  19.866  24.617  1.00  0.00     0.319 C 
BRANCH  13  14
ATOM     14  C   UNL A   1      32.972  18.589  24.833  1.00  0.00     0.095 A 
ATOM     15  C   UNL A   1      32.154  15.232  26.090  1.00  0.00     0.067 C 
ATOM     16  C   UNL A   1      32.943  16.356  25.493  1.00  0.00     0.038 A 
ATOM     17  C   UNL A   1      34.234  16.160  25.023  1.00  0.00     0.023 A 
ATOM     18  N   UNL A   1      32.330  17.558  25.439  1.00  0.00    -0.252 NA
ATOM     19  C   UNL A   1      34.906  17.233  24.445  1.00  0.00     0.004 A 
ATOM     20  C   UNL A   1      34.266  18.465  24.341  1.00  0.00     0.030 A 
ENDBRANCH  13  14
ENDBRANCH   7  13
ENDBRANCH   4   6
ENDBRANCH   3   4
ENDBRANCH   2   3
ENDBRANCH   1   2
BRANCH   1  21
ATOM     21  O   UNL A   1      37.309  21.488  25.714  1.00  0.00    -0.458 OA
BRANCH  21  22
ATOM     22  C   UNL A   1      38.601  21.184  25.965  1.00  0.00     0.338 C 
ATOM     23  O   UNL A   1      39.165  20.116  25.777  1.00  0.00    -0.246 OA
BRANCH  22  24
ATOM     24  C   UNL A   1      39.271  22.379  26.499  1.00  0.00     0.060 A 
ATOM     25  C   UNL A   1      38.804  23.645  26.143  1.00  0.00     0.016 A 
ATOM     26  C   UNL A   1      40.412  22.249  27.285  1.00  0.00     0.016 A 
ATOM     27  C   UNL A   1      39.525  24.781  26.496  1.00  0.00     0.010 A 
ATOM     28  C   UNL A   1      41.071  23.397  27.734  1.00  0.00     0.010 A 
ATOM     29  C   UNL A   1      40.653  24.676  27.320  1.00  0.00    -0.014 A 
BRANCH  29  30
ATOM     30  C   UNL A   1      41.396  25.893  27.749  1.00  0.00     0.031 A 
ATOM     31  C   UNL A   1      40.708  26.943  28.582  1.00  0.00     0.074 A 
ATOM     32  C   UNL A   1      42.678  26.072  27.369  1.00  0.00     0.049 A 
ATOM     33  N   UNL A   1      41.103  28.154  28.873  1.00  0.00    -0.248 NA
ATOM     34  C   UNL A   1      39.392  26.592  29.142  1.00  0.00     0.031 C 
ATOM     35  C   UNL A   1      43.467  25.128  26.574  1.00  0.00     0.029 A 
ATOM     36  N   UNL A   1      43.543  27.116  27.591  1.00  0.00    -0.354 N 
ATOM     37  C   UNL A   1      40.054  28.737  29.575  1.00  0.00     0.074 A 
ATOM     38  C   UNL A   1      39.011  27.741  29.683  1.00  0.00     0.031 C 
ATOM     39  C   UNL A   1      44.702  25.621  26.397  1.00  0.00     0.029 A 
ATOM     40  C   UNL A   1      44.771  26.949  26.992  1.00  0.00     0.049 A 
ATOM     41  H   UNL A   1      43.308  27.907  28.128  1.00  0.00     0.167 HD
ATOM     42  C   UNL A   1      39.973  29.988  30.089  1.00  0.00     0.034 A 
ATOM     43  C   UNL A   1      45.823  27.785  26.896  1.00  0.00     0.034 A 
ATOM     44  C   UNL A   1      41.048  30.943  30.052  1.00  0.00     0.049 A 
ATOM     45  C   UNL A   1      45.723  29.150  27.515  1.00  0.00     0.074 A 
ATOM     46  C   UNL A   1      41.076  32.230  30.562  1.00  0.00     0.029 A 
ATOM     47  N   UNL A   1      42.297  30.705  29.500  1.00  0.00    -0.354 N 
ATOM     48  N   UNL A   1      44.729  29.677  28.189  1.00  0.00    -0.248 NA
ATOM     49  C   UNL A   1      46.887  30.035  27.367  1.00  0.00     0.031 C 
ATOM     50  C   UNL A   1      42.345  32.767  30.322  1.00  0.00     0.029 A 
ATOM     51  C   UNL A   1      43.109  31.813  29.668  1.00  0.00     0.049 A 
ATOM     52  H   UNL A   1      42.568  29.870  29.053  1.00  0.00     0.167 HD
ATOM     53  C   UNL A   1      45.151  30.947  28.557  1.00  0.00     0.074 A 
ATOM     54  C   UNL A   1      46.505  31.098  28.061  1.00  0.00     0.031 C 
ATOM     55  C   UNL A   1      44.473  31.916  29.219  1.00  0.00     0.034 A 
BRANCH  42  56
ATOM     56  C   UNL A   1      38.690  30.390  30.767  1.00  0.00     0.023 A 
ATOM     57  C   UNL A   1      38.504  30.097  32.133  1.00  0.00     0.012 A 
ATOM     58  C   UNL A   1      37.698  31.108  30.072  1.00  0.00     0.148 A 
ATOM     59  C   UNL A   1      37.339  30.495  32.790  1.00  0.00     0.002 A 
ATOM     60  C   UNL A   1      36.557  31.533  30.742  1.00  0.00     0.091 A 
ATOM     61  F   UNL A   1      37.884  31.356  28.767  1.00  0.00    -0.205 F 
ATOM     62  C   UNL A   1      36.372  31.222  32.099  1.00  0.00     0.022 A 
BRANCH  60  63
ATOM     63  S   UNL A   1      35.288  32.534  29.956  1.00  0.00     0.127 S 
ATOM     64  O   UNL A   1      34.822  31.642  28.896  1.00  0.00    -0.237 OA
ATOM     65  O   UNL A   1      34.332  32.737  31.045  1.00  0.00    -0.237 OA
ATOM     66  O   UNL A   1      35.957  33.747  29.506  1.00  0.00    -0.744 OA
ENDBRANCH  60  63
ENDBRANCH  42  56
BRANCH  43  67
ATOM     67  C   UNL A   1      47.068  27.337  26.206  1.00  0.00     0.023 A 
ATOM     68  C   UNL A   1      47.287  27.715  24.868  1.00  0.00     0.012 A 
ATOM     69  C   UNL A   1      48.059  26.594  26.877  1.00  0.00     0.148 A 
ATOM     70  C   UNL A   1      48.460  27.347  24.206  1.00  0.00     0.002 A 
ATOM     71  C   UNL A   1      49.251  26.284  26.232  1.00  0.00     0.091 A 
ATOM     72  F   UNL A   1      47.827  26.214  28.142  1.00  0.00    -0.205 F 
ATOM     73  C   UNL A   1      49.448  26.644  24.891  1.00  0.00     0.022 A 
BRANCH  71  74
ATOM     74  S   UNL A   1      50.621  25.526  27.113  1.00  0.00     0.127 S 
ATOM     75  O   UNL A   1      51.609  25.359  26.051  1.00  0.00    -0.237 OA
ATOM     76  O   UNL A   1      50.957  26.543  28.110  1.00  0.00    -0.237 OA
ATOM     77  O   UNL A   1      50.070  24.301  27.680  1.00  0.00    -0.744 OA
ENDBRANCH  71  74
ENDBRANCH  43  67
BRANCH  55  78
ATOM     78  C   UNL A   1      45.188  33.215  29.463  1.00  0.00     0.023 A 
ATOM     79  C   UNL A   1      45.939  33.380  30.643  1.00  0.00     0.012 A 
ATOM     80  C   UNL A   1      45.171  34.242  28.500  1.00  0.00     0.148 A 
ATOM     81  C   UNL A   1      46.644  34.559  30.873  1.00  0.00     0.002 A 
ATOM     82  C   UNL A   1      45.907  35.400  28.720  1.00  0.00     0.091 A 
ATOM     83  F   UNL A   1      44.429  34.074  27.396  1.00  0.00    -0.205 F 
ATOM     84  C   UNL A   1      46.637  35.564  29.908  1.00  0.00     0.022 A 
BRANCH  82  85
ATOM     85  S   UNL A   1      46.014  36.706  27.491  1.00  0.00     0.127 S 
ATOM     86  O   UNL A   1      46.903  37.662  28.146  1.00  0.00    -0.237 OA
ATOM     87  O   UNL A   1      46.602  36.013  26.344  1.00  0.00    -0.237 OA
ATOM     88  O   UNL A   1      44.645  37.159  27.279  1.00  0.00    -0.744 OA
ENDBRANCH  82  85
ENDBRANCH  55  78
ENDBRANCH  29  30
ENDBRANCH  22  24
ENDBRANCH  21  22
ENDBRANCH   1  21
TORSDOF 16
ENDMDL
MODEL 3
REMARK VINA RESULT:     -11.2      1.742      3.848
REMARK SMILES Cc1cccc(C[N@H+]2CC[C@@](C)(C(=O)OCCOC(=O)c3ccc(-c4c5nc(c(-c6cccc(S(=O)(=O)[O-])c6F)c6ccc([nH]6)c(-c6cccc(S(=O)(=O)[O-])c6F)c6nc(c(-c7cccc(S(=O)(=O)[O-])c7F)c7ccc4[nH]7)C=C6)C=C5)cc3)C2)n1
REMARK SMILES IDX 17 1 16 2 15 3 13 4 14 5 11 6 8 7 9 8 84 9 10 11 12 12 7 13
REMARK SMILES IDX 6 14 1 15 2 16 3 17 85 18 4 19 5 20 18 21 19 22 20 23 21 24
REMARK SMILES IDX 22 25 83 26 23 27 82 28 24 29 25 30 26 31 76 32 27 33 81 34
REMARK SMILES IDX 75 35 77 36 28 37 80 38 74 39 73 40 29 42 61 43 41 44 60 45
REMARK SMILES IDX 42 46 45 47 59 48 78 49 43 50 44 51 58 53 79 54 46 55 30 56
REMARK SMILES IDX 31 57 39 58 32 59 34 60 40 61 33 62 35 63 36 64 37 65 38 66
REMARK SMILES IDX 62 67 63 68 71 69 64 70 66 71 72 72 65 73 67 74 68 75 69 76
REMARK SMILES IDX 70 77 47 78 48 79 56 80 49 81 51 82 57 83 50 84 52 85 53 86
REMARK SMILES IDX 54 87 55 88
REMARK H PARENT 8 10 77 41 45 52
REMARK Flexibility Score: inf
ROOT
ATOM      1  C   UNL A   1      31.718  29.582  26.213  1.00  0.00     0.275 C 
ENDROOT
BRANCH   1   2
ATOM      2  C   UNL A   1      32.116  28.109  26.196  1.00  0.00     0.274 C 
BRANCH   2   3
ATOM      3  O   UNL A   1      33.134  27.870  25.199  1.00  0.00    -0.461 OA
BRANCH   3   4
ATOM      4  C   UNL A   1      33.115  26.670  24.567  1.00  0.00     0.317 C 
ATOM      5  O   UNL A   1      33.466  25.618  25.096  1.00  0.00    -0.251 OA
BRANCH   4   6
ATOM      6  C   UNL A   1      32.654  26.731  23.102  1.00  0.00     0.119 C 
ATOM      7  N   UNL A   1      30.795  28.041  22.344  1.00  0.00    -0.329 N 
ATOM      8  C   UNL A   1      31.853  28.956  22.743  1.00  0.00     0.263 C 
ATOM      9  C   UNL A   1      31.129  26.714  22.889  1.00  0.00     0.281 C 
ATOM     10  H   UNL A   1      30.765  28.002  21.325  1.00  0.00     0.348 HD
ATOM     11  C   UNL A   1      33.088  28.098  22.546  1.00  0.00     0.086 C 
ATOM     12  C   UNL A   1      33.310  25.593  22.316  1.00  0.00     0.030 C 
BRANCH   7  13
ATOM     13  C   UNL A   1      29.426  28.487  22.643  1.00  0.00     0.319 C 
BRANCH  13  14
ATOM     14  C   UNL A   1      29.161  29.977  22.518  1.00  0.00     0.095 A 
ATOM     15  C   UNL A   1      28.013  32.167  19.796  1.00  0.00     0.067 C 
ATOM     16  C   UNL A   1      28.436  31.728  21.164  1.00  0.00     0.038 A 
ATOM     17  C   UNL A   1      28.404  32.601  22.243  1.00  0.00     0.023 A 
ATOM     18  N   UNL A   1      28.845  30.447  21.285  1.00  0.00    -0.252 NA
ATOM     19  C   UNL A   1      28.775  32.127  23.498  1.00  0.00     0.004 A 
ATOM     20  C   UNL A   1      29.152  30.795  23.643  1.00  0.00     0.030 A 
ENDBRANCH  13  14
ENDBRANCH   7  13
ENDBRANCH   4   6
ENDBRANCH   3   4
ENDBRANCH   2   3
ENDBRANCH   1   2
BRANCH   1  21
ATOM     21  O   UNL A   1      32.893  30.376  26.011  1.00  0.00    -0.458 OA
BRANCH  21  22
ATOM     22  C   UNL A   1      33.135  31.330  26.936  1.00  0.00     0.338 C 
ATOM     23  O   UNL A   1      32.416  32.270  27.243  1.00  0.00    -0.246 OA
BRANCH  22  24
ATOM     24  C   UNL A   1      34.433  31.053  27.570  1.00  0.00     0.060 A 
ATOM     25  C   UNL A   1      34.803  29.734  27.831  1.00  0.00     0.016 A 
ATOM     26  C   UNL A   1      35.249  32.104  27.979  1.00  0.00     0.016 A 
ATOM     27  C   UNL A   1      35.942  29.461  28.581  1.00  0.00     0.010 A 
ATOM     28  C   UNL A   1      36.452  31.823  28.633  1.00  0.00     0.010 A 
ATOM     29  C   UNL A   1      36.799  30.501  28.968  1.00  0.00    -0.014 A 
BRANCH  29  30
ATOM     30  C   UNL A   1      38.050  30.212  29.722  1.00  0.00     0.031 A 
ATOM     31  C   UNL A   1      39.110  29.330  29.114  1.00  0.00     0.074 A 
ATOM     32  C   UNL A   1      38.225  30.714  30.961  1.00  0.00     0.049 A 
ATOM     33  N   UNL A   1      40.158  28.790  29.679  1.00  0.00    -0.248 NA
ATOM     34  C   UNL A   1      38.960  28.994  27.688  1.00  0.00     0.031 C 
ATOM     35  C   UNL A   1      37.284  31.591  31.662  1.00  0.00     0.029 A 
ATOM     36  N   UNL A   1      39.252  30.551  31.860  1.00  0.00    -0.354 N 
ATOM     37  C   UNL A   1      40.742  27.986  28.706  1.00  0.00     0.074 A 
ATOM     38  C   UNL A   1      39.944  28.124  27.509  1.00  0.00     0.031 C 
ATOM     39  C   UNL A   1      37.786  31.910  32.865  1.00  0.00     0.029 A 
ATOM     40  C   UNL A   1      39.041  31.196  33.058  1.00  0.00     0.049 A 
ATOM     41  H   UNL A   1      40.061  30.025  31.665  1.00  0.00     0.167 HD
ATOM     42  C   UNL A   1      41.849  27.212  28.804  1.00  0.00     0.034 A 
ATOM     43  C   UNL A   1      39.756  31.185  34.199  1.00  0.00     0.034 A 
ATOM     44  C   UNL A   1      42.685  27.148  29.972  1.00  0.00     0.049 A 
ATOM     45  C   UNL A   1      41.005  30.351  34.264  1.00  0.00     0.074 A 
ATOM     46  C   UNL A   1      43.840  26.410  30.167  1.00  0.00     0.029 A 
ATOM     47  N   UNL A   1      42.474  27.873  31.135  1.00  0.00    -0.354 N 
ATOM     48  N   UNL A   1      41.550  29.611  33.329  1.00  0.00    -0.248 NA
ATOM     49  C   UNL A   1      41.740  30.353  35.537  1.00  0.00     0.031 C 
ATOM     50  C   UNL A   1      44.330  26.695  31.446  1.00  0.00     0.029 A 
ATOM     51  C   UNL A   1      43.482  27.613  32.046  1.00  0.00     0.049 A 
ATOM     52  H   UNL A   1      41.717  28.484  31.291  1.00  0.00     0.167 HD
ATOM     53  C   UNL A   1      42.698  29.072  33.893  1.00  0.00     0.074 A 
ATOM     54  C   UNL A   1      42.788  29.598  35.241  1.00  0.00     0.031 C 
ATOM     55  C   UNL A   1      43.583  28.196  33.359  1.00  0.00     0.034 A 
BRANCH  42  56
ATOM     56  C   UNL A   1      42.243  26.391  27.604  1.00  0.00     0.023 A 
ATOM     57  C   UNL A   1      43.036  26.972  26.595  1.00  0.00     0.012 A 
ATOM     58  C   UNL A   1      41.881  25.033  27.505  1.00  0.00     0.148 A 
ATOM     59  C   UNL A   1      43.445  26.218  25.494  1.00  0.00     0.002 A 
ATOM     60  C   UNL A   1      42.323  24.279  26.424  1.00  0.00     0.091 A 
ATOM     61  F   UNL A   1      41.106  24.506  28.464  1.00  0.00    -0.205 F 
ATOM     62  C   UNL A   1      43.098  24.871  25.414  1.00  0.00     0.022 A 
BRANCH  60  63
ATOM     63  S   UNL A   1      41.986  22.521  26.268  1.00  0.00     0.127 S 
ATOM     64  O   UNL A   1      42.653  22.202  25.007  1.00  0.00    -0.237 OA
ATOM     65  O   UNL A   1      42.640  21.973  27.458  1.00  0.00    -0.237 OA
ATOM     66  O   UNL A   1      40.536  22.391  26.262  1.00  0.00    -0.744 OA
ENDBRANCH  60  63
ENDBRANCH  42  56
BRANCH  43  67
ATOM     67  C   UNL A   1      39.316  32.011  35.361  1.00  0.00     0.023 A 
ATOM     68  C   UNL A   1      38.494  31.431  36.346  1.00  0.00     0.012 A 
ATOM     69  C   UNL A   1      39.747  33.342  35.527  1.00  0.00     0.148 A 
ATOM     70  C   UNL A   1      38.097  32.165  37.465  1.00  0.00     0.002 A 
ATOM     71  C   UNL A   1      39.399  34.046  36.675  1.00  0.00     0.091 A 
ATOM     72  F   UNL A   1      40.504  33.894  34.569  1.00  0.00    -0.205 F 
ATOM     73  C   UNL A   1      38.561  33.467  37.638  1.00  0.00     0.022 A 
BRANCH  71  74
ATOM     74  S   UNL A   1      40.099  35.663  37.027  1.00  0.00     0.127 S 
ATOM     75  O   UNL A   1      39.653  36.444  35.877  1.00  0.00    -0.237 OA
ATOM     76  O   UNL A   1      39.458  36.016  38.295  1.00  0.00    -0.237 OA
ATOM     77  O   UNL A   1      41.535  35.435  37.135  1.00  0.00    -0.744 OA
ENDBRANCH  71  74
ENDBRANCH  43  67
BRANCH  55  78
ATOM     78  C   UNL A   1      44.735  27.766  34.222  1.00  0.00     0.023 A 
ATOM     79  C   UNL A   1      45.913  28.539  34.238  1.00  0.00     0.012 A 
ATOM     80  C   UNL A   1      44.630  26.642  35.063  1.00  0.00     0.148 A 
ATOM     81  C   UNL A   1      46.980  28.185  35.062  1.00  0.00     0.002 A 
ATOM     82  C   UNL A   1      45.684  26.317  35.908  1.00  0.00     0.091 A 
ATOM     83  F   UNL A   1      43.510  25.906  35.013  1.00  0.00    -0.205 F 
ATOM     84  C   UNL A   1      46.861  27.081  35.904  1.00  0.00     0.022 A 
BRANCH  82  85
ATOM     85  S   UNL A   1      45.578  24.959  37.079  1.00  0.00     0.127 S 
ATOM     86  O   UNL A   1      44.656  25.495  38.078  1.00  0.00    -0.237 OA
ATOM     87  O   UNL A   1      45.028  23.877  36.261  1.00  0.00    -0.237 OA
ATOM     88  O   UNL A   1      46.942  24.728  37.538  1.00  0.00    -0.744 OA
ENDBRANCH  82  85
ENDBRANCH  55  78
ENDBRANCH  29  30
ENDBRANCH  22  24
ENDBRANCH  21  22
ENDBRANCH   1  21
TORSDOF 16
ENDMDL
