MODEL 1
REMARK VINA RESULT:     -11.2      0.000      0.000
REMARK SMILES CC1(C)CCC[C@@H]1[C@H](O)C(=O)OCCOC(=O)c1ccc(-c2c3nc(c(-c4cccc(S(=O)(=O)[O-])c4F)c4ccc([nH]4)c(-c4cccc(S(=O)(=O)[O-])c4F)c4nc(c(-c5cccc(S(=O)(=O)[O-])c5F)c5ccc2[nH]5)C=C4)C=C3)cc1
REMARK SMILES IDX 14 1 13 2 12 3 10 4 11 5 8 6 7 7 1 8 2 9 3 10 4 11 5 12 6 13
REMARK SMILES IDX 9 14 15 16 16 17 17 18 18 19 19 20 80 21 20 22 79 23 21 24
REMARK SMILES IDX 22 25 23 26 73 27 24 28 78 29 72 30 74 31 25 32 77 33 71 34
REMARK SMILES IDX 70 35 26 37 58 38 38 39 57 40 39 41 42 42 56 43 75 44 40 45
REMARK SMILES IDX 41 46 55 48 76 49 43 50 27 51 28 52 36 53 29 54 31 55 37 56
REMARK SMILES IDX 30 57 32 58 33 59 34 60 35 61 59 62 60 63 68 64 61 65 63 66
REMARK SMILES IDX 69 67 62 68 64 69 65 70 66 71 67 72 44 73 45 74 53 75 46 76
REMARK SMILES IDX 48 77 54 78 47 79 49 80 50 81 51 82 52 83
REMARK H PARENT 9 15 74 36 42 47
REMARK Flexibility Score: inf
ROOT
ATOM      1  C   UNL A   1      40.687  19.466  26.301  1.00  0.00     0.275 C 
ENDROOT
BRANCH   1   2
ATOM      2  C   UNL A   1      42.165  19.055  26.264  1.00  0.00     0.274 C 
BRANCH   2   3
ATOM      3  O   UNL A   1      42.722  19.226  24.950  1.00  0.00    -0.460 OA
BRANCH   3   4
ATOM      4  C   UNL A   1      44.084  19.206  24.872  1.00  0.00     0.335 C 
ATOM      5  O   UNL A   1      44.728  18.369  24.251  1.00  0.00    -0.249 OA
BRANCH   4   6
ATOM      6  C   UNL A   1      44.714  20.430  25.572  1.00  0.00     0.227 C 
BRANCH   6   7
ATOM      7  C   UNL A   1      44.372  21.753  24.876  1.00  0.00     0.035 C 
ATOM      8  C   UNL A   1      46.661  22.814  24.317  1.00  0.00     0.011 C 
ATOM      9  C   UNL A   1      45.359  22.937  25.115  1.00  0.00    -0.030 C 
ATOM     10  C   UNL A   1      45.711  23.164  26.599  1.00  0.00     0.011 C 
ATOM     11  C   UNL A   1      44.523  24.119  24.587  1.00  0.00     0.007 C 
ATOM     12  C   UNL A   1      43.099  23.847  25.056  1.00  0.00     0.001 C 
ATOM     13  C   UNL A   1      43.016  22.343  25.304  1.00  0.00     0.007 C 
ENDBRANCH   6   7
BRANCH   6  14
ATOM     14  O   UNL A   1      46.126  20.314  25.736  1.00  0.00    -0.381 OA
ATOM     15  H   UNL A   1      46.368  20.568  26.641  1.00  0.00     0.211 HD
ENDBRANCH   6  14
ENDBRANCH   4   6
ENDBRANCH   3   4
ENDBRANCH   2   3
ENDBRANCH   1   2
BRANCH   1  16
ATOM     16  O   UNL A   1      40.436  20.585  27.175  1.00  0.00    -0.458 OA
BRANCH  16  17
ATOM     17  C   UNL A   1      39.761  21.616  26.612  1.00  0.00     0.338 C 
ATOM     18  O   UNL A   1      38.897  21.534  25.751  1.00  0.00    -0.246 OA
BRANCH  17  19
ATOM     19  C   UNL A   1      40.098  22.895  27.268  1.00  0.00     0.060 A 
ATOM     20  C   UNL A   1      39.496  24.048  26.757  1.00  0.00     0.016 A 
ATOM     21  C   UNL A   1      41.060  22.999  28.276  1.00  0.00     0.016 A 
ATOM     22  C   UNL A   1      39.876  25.305  27.205  1.00  0.00     0.010 A 
ATOM     23  C   UNL A   1      41.444  24.269  28.732  1.00  0.00     0.010 A 
ATOM     24  C   UNL A   1      40.878  25.429  28.172  1.00  0.00    -0.014 A 
BRANCH  24  25
ATOM     25  C   UNL A   1      41.386  26.787  28.485  1.00  0.00     0.031 A 
ATOM     26  C   UNL A   1      42.780  27.173  28.068  1.00  0.00     0.074 A 
ATOM     27  C   UNL A   1      40.575  27.697  29.057  1.00  0.00     0.049 A 
ATOM     28  N   UNL A   1      43.396  28.318  28.207  1.00  0.00    -0.248 NA
ATOM     29  C   UNL A   1      43.586  26.135  27.403  1.00  0.00     0.031 C 
ATOM     30  C   UNL A   1      39.198  27.447  29.484  1.00  0.00     0.029 A 
ATOM     31  N   UNL A   1      40.791  29.014  29.373  1.00  0.00    -0.354 N 
ATOM     32  C   UNL A   1      44.670  28.129  27.689  1.00  0.00     0.074 A 
ATOM     33  C   UNL A   1      44.744  26.757  27.233  1.00  0.00     0.031 C 
ATOM     34  C   UNL A   1      38.693  28.575  30.011  1.00  0.00     0.029 A 
ATOM     35  C   UNL A   1      39.715  29.617  29.980  1.00  0.00     0.049 A 
ATOM     36  H   UNL A   1      41.636  29.483  29.184  1.00  0.00     0.167 HD
ATOM     37  C   UNL A   1      45.684  29.020  27.585  1.00  0.00     0.034 A 
ATOM     38  C   UNL A   1      39.574  30.868  30.464  1.00  0.00     0.034 A 
ATOM     39  C   UNL A   1      45.593  30.397  27.987  1.00  0.00     0.049 A 
ATOM     40  C   UNL A   1      40.711  31.843  30.314  1.00  0.00     0.074 A 
ATOM     41  C   UNL A   1      46.557  31.386  27.892  1.00  0.00     0.029 A 
ATOM     42  N   UNL A   1      44.473  30.984  28.554  1.00  0.00    -0.354 N 
ATOM     43  N   UNL A   1      41.877  31.671  29.737  1.00  0.00    -0.248 NA
ATOM     44  C   UNL A   1      40.502  33.195  30.852  1.00  0.00     0.031 C 
ATOM     45  C   UNL A   1      46.019  32.571  28.408  1.00  0.00     0.029 A 
ATOM     46  C   UNL A   1      44.718  32.321  28.814  1.00  0.00     0.049 A 
ATOM     47  H   UNL A   1      43.627  30.518  28.743  1.00  0.00     0.167 HD
ATOM     48  C   UNL A   1      42.527  32.897  29.817  1.00  0.00     0.074 A 
ATOM     49  C   UNL A   1      41.614  33.811  30.472  1.00  0.00     0.031 C 
ATOM     50  C   UNL A   1      43.775  33.232  29.408  1.00  0.00     0.034 A 
BRANCH  37  51
ATOM     51  C   UNL A   1      46.976  28.541  26.979  1.00  0.00     0.023 A 
ATOM     52  C   UNL A   1      48.082  28.285  27.812  1.00  0.00     0.012 A 
ATOM     53  C   UNL A   1      47.075  28.291  25.596  1.00  0.00     0.148 A 
ATOM     54  C   UNL A   1      49.278  27.809  27.275  1.00  0.00     0.002 A 
ATOM     55  C   UNL A   1      48.258  27.782  25.074  1.00  0.00     0.091 A 
ATOM     56  F   UNL A   1      46.018  28.566  24.818  1.00  0.00    -0.205 F 
ATOM     57  C   UNL A   1      49.363  27.548  25.910  1.00  0.00     0.022 A 
BRANCH  55  58
ATOM     58  S   UNL A   1      48.442  27.352  23.339  1.00  0.00     0.127 S 
ATOM     59  O   UNL A   1      49.817  27.775  23.074  1.00  0.00    -0.237 OA
ATOM     60  O   UNL A   1      48.243  25.902  23.357  1.00  0.00    -0.237 OA
ATOM     61  O   UNL A   1      47.410  28.096  22.630  1.00  0.00    -0.744 OA
ENDBRANCH  55  58
ENDBRANCH  37  51
BRANCH  38  62
ATOM     62  C   UNL A   1      38.290  31.281  31.096  1.00  0.00     0.023 A 
ATOM     63  C   UNL A   1      38.102  31.091  32.479  1.00  0.00     0.012 A 
ATOM     64  C   UNL A   1      37.263  31.876  30.340  1.00  0.00     0.148 A 
ATOM     65  C   UNL A   1      36.903  31.461  33.090  1.00  0.00     0.002 A 
ATOM     66  C   UNL A   1      36.093  32.293  30.965  1.00  0.00     0.091 A 
ATOM     67  F   UNL A   1      37.447  32.026  29.020  1.00  0.00    -0.205 F 
ATOM     68  C   UNL A   1      35.904  32.073  32.337  1.00  0.00     0.022 A 
BRANCH  66  69
ATOM     69  S   UNL A   1      34.823  33.208  30.084  1.00  0.00     0.127 S 
ATOM     70  O   UNL A   1      35.610  34.225  29.392  1.00  0.00    -0.237 OA
ATOM     71  O   UNL A   1      34.246  32.181  29.216  1.00  0.00    -0.237 OA
ATOM     72  O   UNL A   1      33.915  33.692  31.116  1.00  0.00    -0.744 OA
ENDBRANCH  66  69
ENDBRANCH  38  62
BRANCH  50  73
ATOM     73  C   UNL A   1      44.223  34.652  29.632  1.00  0.00     0.023 A 
ATOM     74  C   UNL A   1      44.845  35.000  30.848  1.00  0.00     0.012 A 
ATOM     75  C   UNL A   1      44.090  35.622  28.621  1.00  0.00     0.148 A 
ATOM     76  C   UNL A   1      45.298  36.300  31.067  1.00  0.00     0.002 A 
ATOM     77  C   UNL A   1      44.583  36.906  28.830  1.00  0.00     0.091 A 
ATOM     78  F   UNL A   1      43.475  35.281  27.479  1.00  0.00    -0.205 F 
ATOM     79  C   UNL A   1      45.177  37.249  30.054  1.00  0.00     0.022 A 
BRANCH  77  80
ATOM     80  S   UNL A   1      44.544  38.154  27.537  1.00  0.00     0.127 S 
ATOM     81  O   UNL A   1      44.845  39.372  28.286  1.00  0.00    -0.237 OA
ATOM     82  O   UNL A   1      45.611  37.713  26.638  1.00  0.00    -0.237 OA
ATOM     83  O   UNL A   1      43.208  38.077  26.960  1.00  0.00    -0.744 OA
ENDBRANCH  77  80
ENDBRANCH  50  73
ENDBRANCH  24  25
ENDBRANCH  17  19
ENDBRANCH  16  17
ENDBRANCH   1  16
TORSDOF 16
ENDMDL
MODEL 2
REMARK VINA RESULT:     -10.8      6.490     12.328
REMARK SMILES CC1(C)CCC[C@@H]1[C@H](O)C(=O)OCCOC(=O)c1ccc(-c2c3nc(c(-c4cccc(S(=O)(=O)[O-])c4F)c4ccc([nH]4)c(-c4cccc(S(=O)(=O)[O-])c4F)c4nc(c(-c5cccc(S(=O)(=O)[O-])c5F)c5ccc2[nH]5)C=C4)C=C3)cc1
REMARK SMILES IDX 14 1 13 2 12 3 10 4 11 5 8 6 7 7 1 8 2 9 3 10 4 11 5 12 6 13
REMARK SMILES IDX 9 14 15 16 16 17 17 18 18 19 19 20 80 21 20 22 79 23 21 24
REMARK SMILES IDX 22 25 23 26 73 27 24 28 78 29 72 30 74 31 25 32 77 33 71 34
REMARK SMILES IDX 70 35 26 37 58 38 38 39 57 40 39 41 42 42 56 43 75 44 40 45
REMARK SMILES IDX 41 46 55 48 76 49 43 50 27 51 28 52 36 53 29 54 31 55 37 56
REMARK SMILES IDX 30 57 32 58 33 59 34 60 35 61 59 62 60 63 68 64 61 65 63 66
REMARK SMILES IDX 69 67 62 68 64 69 65 70 66 71 67 72 44 73 45 74 53 75 46 76
REMARK SMILES IDX 48 77 54 78 47 79 49 80 50 81 51 82 52 83
REMARK H PARENT 9 15 74 36 42 47
REMARK Flexibility Score: inf
ROOT
ATOM      1  C   UNL A   1      31.915  30.461  25.940  1.00  0.00     0.275 C 
ENDROOT
BRANCH   1   2
ATOM      2  C   UNL A   1      32.626  29.281  25.265  1.00  0.00     0.274 C 
BRANCH   2   3
ATOM      3  O   UNL A   1      31.684  28.295  24.809  1.00  0.00    -0.460 OA
BRANCH   3   4
ATOM      4  C   UNL A   1      31.580  28.150  23.457  1.00  0.00     0.335 C 
ATOM      5  O   UNL A   1      31.827  27.114  22.852  1.00  0.00    -0.249 OA
BRANCH   4   6
ATOM      6  C   UNL A   1      31.006  29.418  22.788  1.00  0.00     0.227 C 
BRANCH   6   7
ATOM      7  C   UNL A   1      29.527  29.274  22.410  1.00  0.00     0.035 C 
ATOM      8  C   UNL A   1      28.863  31.582  21.456  1.00  0.00     0.011 C 
ATOM      9  C   UNL A   1      28.644  30.550  22.567  1.00  0.00    -0.030 C 
ATOM     10  C   UNL A   1      28.802  31.253  23.930  1.00  0.00     0.011 C 
ATOM     11  C   UNL A   1      27.234  29.939  22.453  1.00  0.00     0.007 C 
ATOM     12  C   UNL A   1      27.301  28.624  23.220  1.00  0.00     0.001 C 
ATOM     13  C   UNL A   1      28.775  28.227  23.252  1.00  0.00     0.007 C 
ENDBRANCH   6   7
BRANCH   6  14
ATOM     14  O   UNL A   1      31.762  29.843  21.655  1.00  0.00    -0.381 OA
ATOM     15  H   UNL A   1      32.706  29.841  21.877  1.00  0.00     0.211 HD
ENDBRANCH   6  14
ENDBRANCH   4   6
ENDBRANCH   3   4
ENDBRANCH   2   3
ENDBRANCH   1   2
BRANCH   1  16
ATOM     16  O   UNL A   1      32.391  30.714  27.277  1.00  0.00    -0.458 OA
BRANCH  16  17
ATOM     17  C   UNL A   1      33.161  31.821  27.415  1.00  0.00     0.338 C 
ATOM     18  O   UNL A   1      32.785  32.981  27.343  1.00  0.00    -0.246 OA
BRANCH  17  19
ATOM     19  C   UNL A   1      34.540  31.465  27.808  1.00  0.00     0.060 A 
ATOM     20  C   UNL A   1      34.794  30.117  28.074  1.00  0.00     0.016 A 
ATOM     21  C   UNL A   1      35.535  32.420  28.027  1.00  0.00     0.016 A 
ATOM     22  C   UNL A   1      36.014  29.717  28.602  1.00  0.00     0.010 A 
ATOM     23  C   UNL A   1      36.769  32.017  28.559  1.00  0.00     0.010 A 
ATOM     24  C   UNL A   1      37.001  30.667  28.882  1.00  0.00    -0.014 A 
BRANCH  24  25
ATOM     25  C   UNL A   1      38.210  30.226  29.618  1.00  0.00     0.031 A 
ATOM     26  C   UNL A   1      38.419  30.673  31.039  1.00  0.00     0.074 A 
ATOM     27  C   UNL A   1      39.069  29.360  29.048  1.00  0.00     0.049 A 
ATOM     28  N   UNL A   1      39.383  30.367  31.868  1.00  0.00    -0.248 NA
ATOM     29  C   UNL A   1      37.408  31.582  31.606  1.00  0.00     0.031 C 
ATOM     30  C   UNL A   1      38.959  28.838  27.686  1.00  0.00     0.029 A 
ATOM     31  N   UNL A   1      40.199  28.763  29.546  1.00  0.00    -0.354 N 
ATOM     32  C   UNL A   1      39.122  31.075  33.034  1.00  0.00     0.074 A 
ATOM     33  C   UNL A   1      37.907  31.830  32.808  1.00  0.00     0.031 C 
ATOM     34  C   UNL A   1      39.985  28.001  27.455  1.00  0.00     0.029 A 
ATOM     35  C   UNL A   1      40.834  27.946  28.641  1.00  0.00     0.049 A 
ATOM     36  H   UNL A   1      40.526  28.907  30.464  1.00  0.00     0.167 HD
ATOM     37  C   UNL A   1      39.817  31.082  34.196  1.00  0.00     0.034 A 
ATOM     38  C   UNL A   1      41.976  27.239  28.755  1.00  0.00     0.034 A 
ATOM     39  C   UNL A   1      40.992  30.290  34.439  1.00  0.00     0.049 A 
ATOM     40  C   UNL A   1      42.717  27.251  30.066  1.00  0.00     0.074 A 
ATOM     41  C   UNL A   1      41.748  30.207  35.595  1.00  0.00     0.029 A 
ATOM     42  N   UNL A   1      41.578  29.439  33.515  1.00  0.00    -0.354 N 
ATOM     43  N   UNL A   1      42.402  27.854  31.188  1.00  0.00    -0.248 NA
ATOM     44  C   UNL A   1      43.953  26.457  30.138  1.00  0.00     0.031 C 
ATOM     45  C   UNL A   1      42.796  29.308  35.366  1.00  0.00     0.029 A 
ATOM     46  C   UNL A   1      42.685  28.825  34.073  1.00  0.00     0.049 A 
ATOM     47  H   UNL A   1      41.253  29.293  32.597  1.00  0.00     0.167 HD
ATOM     48  C   UNL A   1      43.382  27.491  32.103  1.00  0.00     0.074 A 
ATOM     49  C   UNL A   1      44.285  26.592  31.415  1.00  0.00     0.031 C 
ATOM     50  C   UNL A   1      43.536  27.884  33.392  1.00  0.00     0.034 A 
BRANCH  37  51
ATOM     51  C   UNL A   1      39.305  31.954  35.310  1.00  0.00     0.023 A 
ATOM     52  C   UNL A   1      38.362  31.437  36.220  1.00  0.00     0.012 A 
ATOM     53  C   UNL A   1      39.798  33.262  35.489  1.00  0.00     0.148 A 
ATOM     54  C   UNL A   1      37.899  32.218  37.279  1.00  0.00     0.002 A 
ATOM     55  C   UNL A   1      39.358  34.019  36.567  1.00  0.00     0.091 A 
ATOM     56  F   UNL A   1      40.675  33.742  34.595  1.00  0.00    -0.205 F 
ATOM     57  C   UNL A   1      38.404  33.503  37.459  1.00  0.00     0.022 A 
BRANCH  55  58
ATOM     58  S   UNL A   1      40.000  35.661  36.920  1.00  0.00     0.127 S 
ATOM     59  O   UNL A   1      39.313  35.984  38.169  1.00  0.00    -0.237 OA
ATOM     60  O   UNL A   1      41.435  35.408  37.061  1.00  0.00    -0.237 OA
ATOM     61  O   UNL A   1      39.641  36.486  35.775  1.00  0.00    -0.744 OA
ENDBRANCH  55  58
ENDBRANCH  37  51
BRANCH  38  62
ATOM     62  C   UNL A   1      42.467  26.426  27.606  1.00  0.00     0.023 A 
ATOM     63  C   UNL A   1      43.339  27.006  26.665  1.00  0.00     0.012 A 
ATOM     64  C   UNL A   1      42.088  25.079  27.451  1.00  0.00     0.148 A 
ATOM     65  C   UNL A   1      43.802  26.267  25.576  1.00  0.00     0.002 A 
ATOM     66  C   UNL A   1      42.597  24.333  26.395  1.00  0.00     0.091 A 
ATOM     67  F   UNL A   1      41.236  24.550  28.341  1.00  0.00    -0.205 F 
ATOM     68  C   UNL A   1      43.442  24.928  25.447  1.00  0.00     0.022 A 
BRANCH  66  69
ATOM     69  S   UNL A   1      42.283  22.570  26.244  1.00  0.00     0.127 S 
ATOM     70  O   UNL A   1      40.825  22.528  26.191  1.00  0.00    -0.237 OA
ATOM     71  O   UNL A   1      42.954  22.243  24.985  1.00  0.00    -0.237 OA
ATOM     72  O   UNL A   1      42.900  21.969  27.420  1.00  0.00    -0.744 OA
ENDBRANCH  66  69
ENDBRANCH  38  62
BRANCH  50  73
ATOM     73  C   UNL A   1      44.710  27.327  34.154  1.00  0.00     0.023 A 
ATOM     74  C   UNL A   1      45.916  28.054  34.198  1.00  0.00     0.012 A 
ATOM     75  C   UNL A   1      44.600  26.125  34.877  1.00  0.00     0.148 A 
ATOM     76  C   UNL A   1      47.007  27.575  34.923  1.00  0.00     0.002 A 
ATOM     77  C   UNL A   1      45.678  25.674  35.633  1.00  0.00     0.091 A 
ATOM     78  F   UNL A   1      43.453  25.433  34.806  1.00  0.00    -0.205 F 
ATOM     79  C   UNL A   1      46.883  26.392  35.649  1.00  0.00     0.022 A 
BRANCH  77  80
ATOM     80  S   UNL A   1      45.561  24.208  36.665  1.00  0.00     0.127 S 
ATOM     81  O   UNL A   1      44.730  24.684  37.769  1.00  0.00    -0.237 OA
ATOM     82  O   UNL A   1      44.902  23.247  35.779  1.00  0.00    -0.237 OA
ATOM     83  O   UNL A   1      46.934  23.861  37.006  1.00  0.00    -0.744 OA
ENDBRANCH  77  80
ENDBRANCH  50  73
ENDBRANCH  24  25
ENDBRANCH  17  19
ENDBRANCH  16  17
ENDBRANCH   1  16
TORSDOF 16
ENDMDL
MODEL 3
REMARK VINA RESULT:     -10.8      2.879      4.896
REMARK SMILES CC1(C)CCC[C@@H]1[C@H](O)C(=O)OCCOC(=O)c1ccc(-c2c3nc(c(-c4cccc(S(=O)(=O)[O-])c4F)c4ccc([nH]4)c(-c4cccc(S(=O)(=O)[O-])c4F)c4nc(c(-c5cccc(S(=O)(=O)[O-])c5F)c5ccc2[nH]5)C=C4)C=C3)cc1
REMARK SMILES IDX 14 1 13 2 12 3 10 4 11 5 8 6 7 7 1 8 2 9 3 10 4 11 5 12 6 13
REMARK SMILES IDX 9 14 15 16 16 17 17 18 18 19 19 20 80 21 20 22 79 23 21 24
REMARK SMILES IDX 22 25 23 26 73 27 24 28 78 29 72 30 74 31 25 32 77 33 71 34
REMARK SMILES IDX 70 35 26 37 58 38 38 39 57 40 39 41 42 42 56 43 75 44 40 45
REMARK SMILES IDX 41 46 55 48 76 49 43 50 27 51 28 52 36 53 29 54 31 55 37 56
REMARK SMILES IDX 30 57 32 58 33 59 34 60 35 61 59 62 60 63 68 64 61 65 63 66
REMARK SMILES IDX 69 67 62 68 64 69 65 70 66 71 67 72 44 73 45 74 53 75 46 76
REMARK SMILES IDX 48 77 54 78 47 79 49 80 50 81 51 82 52 83
REMARK H PARENT 9 15 74 36 42 47
REMARK Flexibility Score: inf
ROOT
ATOM      1  C   UNL A   1      36.944  20.401  25.019  1.00  0.00     0.275 C 
ENDROOT
BRANCH   1   2
ATOM      2  C   UNL A   1      35.531  20.997  24.968  1.00  0.00     0.274 C 
BRANCH   2   3
ATOM      3  O   UNL A   1      35.234  21.741  26.162  1.00  0.00    -0.460 OA
BRANCH   3   4
ATOM      4  C   UNL A   1      33.969  21.600  26.653  1.00  0.00     0.335 C 
ATOM      5  O   UNL A   1      33.705  21.362  27.826  1.00  0.00    -0.249 OA
BRANCH   4   6
ATOM      6  C   UNL A   1      32.903  21.885  25.573  1.00  0.00     0.227 C 
BRANCH   6   7
ATOM      7  C   UNL A   1      32.495  23.362  25.516  1.00  0.00     0.035 C 
ATOM      8  C   UNL A   1      31.007  23.555  23.413  1.00  0.00     0.011 C 
ATOM      9  C   UNL A   1      32.312  23.977  24.095  1.00  0.00    -0.030 C 
ATOM     10  C   UNL A   1      33.485  23.687  23.136  1.00  0.00     0.011 C 
ATOM     11  C   UNL A   1      32.272  25.480  24.435  1.00  0.00     0.007 C 
ATOM     12  C   UNL A   1      33.322  25.676  25.522  1.00  0.00     0.001 C 
ATOM     13  C   UNL A   1      33.515  24.309  26.174  1.00  0.00     0.007 C 
ENDBRANCH   6   7
BRANCH   6  14
ATOM     14  O   UNL A   1      31.744  21.063  25.701  1.00  0.00    -0.381 OA
ATOM     15  H   UNL A   1      31.937  20.324  26.301  1.00  0.00     0.211 HD
ENDBRANCH   6  14
ENDBRANCH   4   6
ENDBRANCH   3   4
ENDBRANCH   2   3
ENDBRANCH   1   2
BRANCH   1  16
ATOM     16  O   UNL A   1      37.978  21.405  25.057  1.00  0.00    -0.458 OA
BRANCH  16  17
ATOM     17  C   UNL A   1      39.036  21.112  25.851  1.00  0.00     0.338 C 
ATOM     18  O   UNL A   1      39.617  20.038  25.919  1.00  0.00    -0.246 OA
BRANCH  17  19
ATOM     19  C   UNL A   1      39.521  22.314  26.558  1.00  0.00     0.060 A 
ATOM     20  C   UNL A   1      38.984  23.541  26.163  1.00  0.00     0.016 A 
ATOM     21  C   UNL A   1      40.552  22.274  27.500  1.00  0.00     0.016 A 
ATOM     22  C   UNL A   1      39.495  24.732  26.660  1.00  0.00     0.010 A 
ATOM     23  C   UNL A   1      41.069  23.477  28.004  1.00  0.00     0.010 A 
ATOM     24  C   UNL A   1      40.566  24.713  27.558  1.00  0.00    -0.014 A 
BRANCH  24  25
ATOM     25  C   UNL A   1      41.204  26.003  27.917  1.00  0.00     0.031 A 
ATOM     26  C   UNL A   1      42.598  26.300  27.436  1.00  0.00     0.074 A 
ATOM     27  C   UNL A   1      40.507  26.936  28.592  1.00  0.00     0.049 A 
ATOM     28  N   UNL A   1      43.316  27.380  27.603  1.00  0.00    -0.248 NA
ATOM     29  C   UNL A   1      43.274  25.245  26.662  1.00  0.00     0.031 C 
ATOM     30  C   UNL A   1      39.141  26.772  29.090  1.00  0.00     0.029 A 
ATOM     31  N   UNL A   1      40.851  28.209  28.970  1.00  0.00    -0.354 N 
ATOM     32  C   UNL A   1      44.538  27.122  26.995  1.00  0.00     0.074 A 
ATOM     33  C   UNL A   1      44.468  25.781  26.456  1.00  0.00     0.031 C 
ATOM     34  C   UNL A   1      38.765  27.902  29.712  1.00  0.00     0.029 A 
ATOM     35  C   UNL A   1      39.868  28.858  29.678  1.00  0.00     0.049 A 
ATOM     36  H   UNL A   1      41.720  28.619  28.755  1.00  0.00     0.167 HD
ATOM     37  C   UNL A   1      45.615  27.934  26.879  1.00  0.00     0.034 A 
ATOM     38  C   UNL A   1      39.861  30.082  30.241  1.00  0.00     0.034 A 
ATOM     39  C   UNL A   1      45.665  29.286  27.366  1.00  0.00     0.049 A 
ATOM     40  C   UNL A   1      41.066  30.970  30.077  1.00  0.00     0.074 A 
ATOM     41  C   UNL A   1      46.701  30.198  27.268  1.00  0.00     0.029 A 
ATOM     42  N   UNL A   1      44.633  29.924  28.036  1.00  0.00    -0.354 N 
ATOM     43  N   UNL A   1      42.177  30.741  29.418  1.00  0.00    -0.248 NA
ATOM     44  C   UNL A   1      41.003  32.298  30.705  1.00  0.00     0.031 C 
ATOM     45  C   UNL A   1      46.296  31.386  27.885  1.00  0.00     0.029 A 
ATOM     46  C   UNL A   1      45.005  31.217  28.357  1.00  0.00     0.049 A 
ATOM     47  H   UNL A   1      43.762  29.516  28.251  1.00  0.00     0.167 HD
ATOM     48  C   UNL A   1      42.931  31.903  29.529  1.00  0.00     0.074 A 
ATOM     49  C   UNL A   1      42.139  32.845  30.293  1.00  0.00     0.031 C 
ATOM     50  C   UNL A   1      44.178  32.162  29.062  1.00  0.00     0.034 A 
BRANCH  37  51
ATOM     51  C   UNL A   1      46.824  27.391  26.166  1.00  0.00     0.023 A 
ATOM     52  C   UNL A   1      47.662  26.468  26.821  1.00  0.00     0.012 A 
ATOM     53  C   UNL A   1      47.097  27.752  24.831  1.00  0.00     0.148 A 
ATOM     54  C   UNL A   1      48.769  25.929  26.166  1.00  0.00     0.002 A 
ATOM     55  C   UNL A   1      48.181  27.181  24.175  1.00  0.00     0.091 A 
ATOM     56  F   UNL A   1      46.301  28.651  24.236  1.00  0.00    -0.205 F 
ATOM     57  C   UNL A   1      49.022  26.276  24.842  1.00  0.00     0.022 A 
BRANCH  55  58
ATOM     58  S   UNL A   1      48.549  27.517  22.448  1.00  0.00     0.127 S 
ATOM     59  O   UNL A   1      49.838  28.199  22.548  1.00  0.00    -0.237 OA
ATOM     60  O   UNL A   1      48.616  26.169  21.879  1.00  0.00    -0.237 OA
ATOM     61  O   UNL A   1      47.446  28.329  21.953  1.00  0.00    -0.744 OA
ENDBRANCH  55  58
ENDBRANCH  37  51
BRANCH  38  62
ATOM     62  C   UNL A   1      38.655  30.557  30.977  1.00  0.00     0.023 A 
ATOM     63  C   UNL A   1      38.557  30.343  32.365  1.00  0.00     0.012 A 
ATOM     64  C   UNL A   1      37.615  31.233  30.312  1.00  0.00     0.148 A 
ATOM     65  C   UNL A   1      37.432  30.770  33.072  1.00  0.00     0.002 A 
ATOM     66  C   UNL A   1      36.523  31.705  31.032  1.00  0.00     0.091 A 
ATOM     67  F   UNL A   1      37.710  31.405  28.986  1.00  0.00    -0.205 F 
ATOM     68  C   UNL A   1      36.422  31.461  32.409  1.00  0.00     0.022 A 
BRANCH  66  69
ATOM     69  S   UNL A   1      35.251  32.719  30.268  1.00  0.00     0.127 S 
ATOM     70  O   UNL A   1      34.738  31.827  29.232  1.00  0.00    -0.237 OA
ATOM     71  O   UNL A   1      34.334  32.958  31.383  1.00  0.00    -0.237 OA
ATOM     72  O   UNL A   1      35.943  33.913  29.801  1.00  0.00    -0.744 OA
ENDBRANCH  66  69
ENDBRANCH  38  62
BRANCH  50  73
ATOM     73  C   UNL A   1      44.757  33.524  29.340  1.00  0.00     0.023 A 
ATOM     74  C   UNL A   1      45.465  33.746  30.538  1.00  0.00     0.012 A 
ATOM     75  C   UNL A   1      44.658  34.560  28.393  1.00  0.00     0.148 A 
ATOM     76  C   UNL A   1      46.037  34.989  30.803  1.00  0.00     0.002 A 
ATOM     77  C   UNL A   1      45.268  35.785  28.645  1.00  0.00     0.091 A 
ATOM     78  F   UNL A   1      43.961  34.340  27.268  1.00  0.00    -0.205 F 
ATOM     79  C   UNL A   1      45.949  36.004  29.852  1.00  0.00     0.022 A 
BRANCH  77  80
ATOM     80  S   UNL A   1      45.273  37.107  27.427  1.00  0.00     0.127 S 
ATOM     81  O   UNL A   1      45.957  38.177  28.148  1.00  0.00    -0.237 OA
ATOM     82  O   UNL A   1      46.044  36.523  26.328  1.00  0.00    -0.237 OA
ATOM     83  O   UNL A   1      43.872  37.349  27.109  1.00  0.00    -0.744 OA
ENDBRANCH  77  80
ENDBRANCH  50  73
ENDBRANCH  24  25
ENDBRANCH  17  19
ENDBRANCH  16  17
ENDBRANCH   1  16
TORSDOF 16
ENDMDL
