MODEL 1
REMARK VINA RESULT:     -10.5      0.000      0.000
REMARK SMILES O=C(OCCOC(=O)c1ccc(-n2cccc2)c(F)c1)c1ccc(-c2c3nc(c(-c4cccc(S(=O)(=O)[O-])c4F)c4ccc([nH]4)c(-c4cccc(S(=O)(=O)[O-])c4F)c4nc(c(-c5cccc(S(=O)(=O)[O-])c5F)c5ccc2[nH]5)C=C4)C=C3)cc1
REMARK SMILES IDX 4 1 3 2 2 3 1 4 21 5 22 6 83 7 23 8 82 9 24 10 25 11 26 12
REMARK SMILES IDX 76 13 27 14 81 15 75 16 77 17 28 18 80 19 74 20 73 21 29 23
REMARK SMILES IDX 61 24 41 25 60 26 42 27 45 28 59 29 78 30 43 31 44 32 58 34
REMARK SMILES IDX 79 35 46 36 30 37 31 38 39 39 32 40 34 41 40 42 33 43 35 44
REMARK SMILES IDX 36 45 37 46 38 47 62 48 63 49 71 50 64 51 66 52 72 53 65 54
REMARK SMILES IDX 67 55 68 56 69 57 70 58 47 59 48 60 56 61 49 62 51 63 57 64
REMARK SMILES IDX 50 65 52 66 53 67 54 68 55 69 5 70 6 71 7 72 8 73 9 74 10 75
REMARK SMILES IDX 20 76 11 77 18 78 12 79 19 80 13 81 14 82 17 83 15 84 16 85
REMARK H PARENT 77 22 45 33
REMARK Flexibility Score: inf
ROOT
ATOM      1  C   UNL A   1      34.658  32.124  27.922  1.00  0.00     0.275 C 
ENDROOT
BRANCH   1   2
ATOM      2  O   UNL A   1      35.903  31.403  27.992  1.00  0.00    -0.458 OA
BRANCH   2   3
ATOM      3  C   UNL A   1      35.980  30.050  28.040  1.00  0.00     0.338 C 
ATOM      4  O   UNL A   1      35.047  29.355  27.657  1.00  0.00    -0.246 OA
BRANCH   3   5
ATOM      5  C   UNL A   1      37.321  29.449  28.276  1.00  0.00     0.060 A 
ATOM      6  C   UNL A   1      37.643  28.666  29.388  1.00  0.00     0.016 A 
ATOM      7  C   UNL A   1      38.295  29.658  27.284  1.00  0.00     0.016 A 
ATOM      8  C   UNL A   1      38.942  28.215  29.580  1.00  0.00     0.010 A 
ATOM      9  C   UNL A   1      39.590  29.170  27.449  1.00  0.00     0.010 A 
ATOM     10  C   UNL A   1      39.917  28.472  28.613  1.00  0.00    -0.014 A 
BRANCH  10  11
ATOM     11  C   UNL A   1      41.233  27.821  28.786  1.00  0.00     0.031 A 
ATOM     12  C   UNL A   1      41.165  26.323  28.359  1.00  0.00     0.074 A 
ATOM     13  C   UNL A   1      42.213  28.602  29.346  1.00  0.00     0.049 A 
ATOM     14  N   UNL A   1      41.795  25.283  28.821  1.00  0.00    -0.248 NA
ATOM     15  C   UNL A   1      40.146  25.901  27.350  1.00  0.00     0.031 C 
ATOM     16  C   UNL A   1      42.077  30.047  29.663  1.00  0.00     0.029 A 
ATOM     17  N   UNL A   1      43.508  28.372  29.770  1.00  0.00    -0.354 N 
ATOM     18  C   UNL A   1      41.458  24.176  27.991  1.00  0.00     0.074 A 
ATOM     19  C   UNL A   1      40.330  24.583  27.223  1.00  0.00     0.031 C 
ATOM     20  C   UNL A   1      43.174  30.518  30.299  1.00  0.00     0.029 A 
ATOM     21  C   UNL A   1      44.150  29.453  30.437  1.00  0.00     0.049 A 
ATOM     22  H   UNL A   1      43.961  27.511  29.619  1.00  0.00     0.167 HD
ATOM     23  C   UNL A   1      42.235  23.054  27.878  1.00  0.00     0.034 A 
ATOM     24  C   UNL A   1      45.357  29.470  31.091  1.00  0.00     0.034 A 
ATOM     25  C   UNL A   1      43.370  23.205  28.724  1.00  0.00     0.049 A 
ATOM     26  C   UNL A   1      45.969  28.172  30.787  1.00  0.00     0.074 A 
ATOM     27  C   UNL A   1      43.536  23.135  30.080  1.00  0.00     0.029 A 
ATOM     28  N   UNL A   1      44.442  23.841  28.149  1.00  0.00    -0.354 N 
ATOM     29  N   UNL A   1      46.437  27.832  29.622  1.00  0.00    -0.248 NA
ATOM     30  C   UNL A   1      45.937  27.124  31.814  1.00  0.00     0.031 C 
ATOM     31  C   UNL A   1      44.462  24.164  30.328  1.00  0.00     0.029 A 
ATOM     32  C   UNL A   1      45.003  24.624  29.120  1.00  0.00     0.049 A 
ATOM     33  H   UNL A   1      44.748  23.750  27.218  1.00  0.00     0.167 HD
ATOM     34  C   UNL A   1      46.386  26.463  29.692  1.00  0.00     0.074 A 
ATOM     35  C   UNL A   1      46.422  26.117  31.096  1.00  0.00     0.031 C 
ATOM     36  C   UNL A   1      45.781  25.760  28.700  1.00  0.00     0.034 A 
BRANCH  23  37
ATOM     37  C   UNL A   1      42.313  21.874  26.923  1.00  0.00     0.023 A 
ATOM     38  C   UNL A   1      41.392  20.819  27.208  1.00  0.00     0.012 A 
ATOM     39  C   UNL A   1      43.380  21.574  26.059  1.00  0.00     0.148 A 
ATOM     40  C   UNL A   1      41.605  19.503  26.809  1.00  0.00     0.002 A 
ATOM     41  C   UNL A   1      43.557  20.256  25.610  1.00  0.00     0.091 A 
ATOM     42  F   UNL A   1      44.252  22.536  25.738  1.00  0.00    -0.205 F 
ATOM     43  C   UNL A   1      42.704  19.219  26.024  1.00  0.00     0.022 A 
BRANCH  41  44
ATOM     44  S   UNL A   1      44.877  19.731  24.507  1.00  0.00     0.127 S 
ATOM     45  O   UNL A   1      46.056  20.322  25.135  1.00  0.00    -0.237 OA
ATOM     46  O   UNL A   1      44.796  18.273  24.624  1.00  0.00    -0.237 OA
ATOM     47  O   UNL A   1      44.531  20.243  23.192  1.00  0.00    -0.744 OA
ENDBRANCH  41  44
ENDBRANCH  23  37
BRANCH  24  48
ATOM     48  C   UNL A   1      46.090  30.353  32.087  1.00  0.00     0.023 A 
ATOM     49  C   UNL A   1      45.502  30.950  33.211  1.00  0.00     0.012 A 
ATOM     50  C   UNL A   1      47.510  30.512  31.984  1.00  0.00     0.148 A 
ATOM     51  C   UNL A   1      46.291  31.552  34.218  1.00  0.00     0.002 A 
ATOM     52  C   UNL A   1      48.292  30.964  33.039  1.00  0.00     0.091 A 
ATOM     53  F   UNL A   1      48.123  30.258  30.823  1.00  0.00    -0.205 F 
ATOM     54  C   UNL A   1      47.683  31.505  34.164  1.00  0.00     0.022 A 
BRANCH  52  55
ATOM     55  S   UNL A   1      50.080  30.694  33.079  1.00  0.00     0.127 S 
ATOM     56  O   UNL A   1      50.558  31.595  32.034  1.00  0.00    -0.237 OA
ATOM     57  O   UNL A   1      50.404  31.109  34.445  1.00  0.00    -0.237 OA
ATOM     58  O   UNL A   1      50.286  29.276  32.816  1.00  0.00    -0.744 OA
ENDBRANCH  52  55
ENDBRANCH  24  48
BRANCH  36  59
ATOM     59  C   UNL A   1      45.767  26.429  27.326  1.00  0.00     0.023 A 
ATOM     60  C   UNL A   1      44.518  26.875  26.852  1.00  0.00     0.012 A 
ATOM     61  C   UNL A   1      46.874  26.575  26.453  1.00  0.00     0.148 A 
ATOM     62  C   UNL A   1      44.368  27.436  25.580  1.00  0.00     0.002 A 
ATOM     63  C   UNL A   1      46.723  27.118  25.170  1.00  0.00     0.091 A 
ATOM     64  F   UNL A   1      48.075  26.192  26.873  1.00  0.00    -0.205 F 
ATOM     65  C   UNL A   1      45.467  27.557  24.738  1.00  0.00     0.022 A 
BRANCH  63  66
ATOM     66  S   UNL A   1      48.061  27.233  23.959  1.00  0.00     0.127 S 
ATOM     67  O   UNL A   1      48.280  25.831  23.597  1.00  0.00    -0.237 OA
ATOM     68  O   UNL A   1      47.451  28.035  22.902  1.00  0.00    -0.237 OA
ATOM     69  O   UNL A   1      49.189  27.850  24.648  1.00  0.00    -0.744 OA
ENDBRANCH  63  66
ENDBRANCH  36  59
ENDBRANCH  10  11
ENDBRANCH   3   5
ENDBRANCH   2   3
ENDBRANCH   1   2
BRANCH   1  70
ATOM     70  C   UNL A   1      34.432  33.107  29.072  1.00  0.00     0.275 C 
BRANCH  70  71
ATOM     71  O   UNL A   1      35.545  33.130  29.980  1.00  0.00    -0.458 OA
BRANCH  71  72
ATOM     72  C   UNL A   1      35.326  32.580  31.196  1.00  0.00     0.338 C 
ATOM     73  O   UNL A   1      34.304  32.644  31.876  1.00  0.00    -0.246 OA
BRANCH  72  74
ATOM     74  C   UNL A   1      36.556  31.924  31.642  1.00  0.00     0.063 A 
ATOM     75  C   UNL A   1      37.711  32.066  30.867  1.00  0.00     0.018 A 
ATOM     76  C   UNL A   1      36.583  31.214  32.843  1.00  0.00     0.057 A 
ATOM     77  C   UNL A   1      38.908  31.504  31.310  1.00  0.00     0.030 A 
ATOM     78  C   UNL A   1      37.765  30.609  33.251  1.00  0.00     0.148 A 
ATOM     79  C   UNL A   1      38.934  30.768  32.505  1.00  0.00     0.081 A 
ATOM     80  F   UNL A   1      37.764  29.962  34.423  1.00  0.00    -0.205 F 
BRANCH  79  81
ATOM     81  N   UNL A   1      40.154  30.204  32.943  1.00  0.00    -0.321 N 
ATOM     82  C   UNL A   1      40.568  28.909  32.771  1.00  0.00     0.091 A 
ATOM     83  C   UNL A   1      41.158  30.885  33.608  1.00  0.00     0.091 A 
ATOM     84  C   UNL A   1      41.859  28.793  33.236  1.00  0.00     0.020 A 
ATOM     85  C   UNL A   1      42.217  30.029  33.808  1.00  0.00     0.020 A 
ENDBRANCH  79  81
ENDBRANCH  72  74
ENDBRANCH  71  72
ENDBRANCH  70  71
ENDBRANCH   1  70
TORSDOF 15
ENDMDL
MODEL 2
REMARK VINA RESULT:     -10.5      2.630      4.681
REMARK SMILES O=C(OCCOC(=O)c1ccc(-n2cccc2)c(F)c1)c1ccc(-c2c3nc(c(-c4cccc(S(=O)(=O)[O-])c4F)c4ccc([nH]4)c(-c4cccc(S(=O)(=O)[O-])c4F)c4nc(c(-c5cccc(S(=O)(=O)[O-])c5F)c5ccc2[nH]5)C=C4)C=C3)cc1
REMARK SMILES IDX 4 1 3 2 2 3 1 4 21 5 22 6 83 7 23 8 82 9 24 10 25 11 26 12
REMARK SMILES IDX 76 13 27 14 81 15 75 16 77 17 28 18 80 19 74 20 73 21 29 23
REMARK SMILES IDX 61 24 41 25 60 26 42 27 45 28 59 29 78 30 43 31 44 32 58 34
REMARK SMILES IDX 79 35 46 36 30 37 31 38 39 39 32 40 34 41 40 42 33 43 35 44
REMARK SMILES IDX 36 45 37 46 38 47 62 48 63 49 71 50 64 51 66 52 72 53 65 54
REMARK SMILES IDX 67 55 68 56 69 57 70 58 47 59 48 60 56 61 49 62 51 63 57 64
REMARK SMILES IDX 50 65 52 66 53 67 54 68 55 69 5 70 6 71 7 72 8 73 9 74 10 75
REMARK SMILES IDX 20 76 11 77 18 78 12 79 19 80 13 81 14 82 17 83 15 84 16 85
REMARK H PARENT 77 22 45 33
REMARK Flexibility Score: inf
ROOT
ATOM      1  C   UNL A   1      33.675  29.782  27.268  1.00  0.00     0.275 C 
ENDROOT
BRANCH   1   2
ATOM      2  O   UNL A   1      35.110  29.741  27.149  1.00  0.00    -0.458 OA
BRANCH   2   3
ATOM      3  C   UNL A   1      35.952  30.219  28.099  1.00  0.00     0.338 C 
ATOM      4  O   UNL A   1      35.547  30.981  28.969  1.00  0.00    -0.246 OA
BRANCH   3   5
ATOM      5  C   UNL A   1      37.280  29.560  28.231  1.00  0.00     0.060 A 
ATOM      6  C   UNL A   1      38.303  29.668  27.285  1.00  0.00     0.016 A 
ATOM      7  C   UNL A   1      37.512  28.828  29.407  1.00  0.00     0.016 A 
ATOM      8  C   UNL A   1      39.482  28.951  27.438  1.00  0.00     0.010 A 
ATOM      9  C   UNL A   1      38.712  28.141  29.589  1.00  0.00     0.010 A 
ATOM     10  C   UNL A   1      39.684  28.183  28.587  1.00  0.00    -0.014 A 
BRANCH  10  11
ATOM     11  C   UNL A   1      41.022  27.584  28.777  1.00  0.00     0.031 A 
ATOM     12  C   UNL A   1      41.019  26.085  28.347  1.00  0.00     0.074 A 
ATOM     13  C   UNL A   1      41.963  28.402  29.351  1.00  0.00     0.049 A 
ATOM     14  N   UNL A   1      41.683  25.070  28.815  1.00  0.00    -0.248 NA
ATOM     15  C   UNL A   1      40.031  25.625  27.323  1.00  0.00     0.031 C 
ATOM     16  C   UNL A   1      41.766  29.839  29.669  1.00  0.00     0.029 A 
ATOM     17  N   UNL A   1      43.261  28.222  29.792  1.00  0.00    -0.354 N 
ATOM     18  C   UNL A   1      41.402  23.952  27.979  1.00  0.00     0.074 A 
ATOM     19  C   UNL A   1      40.269  24.316  27.196  1.00  0.00     0.031 C 
ATOM     20  C   UNL A   1      42.835  30.352  30.320  1.00  0.00     0.029 A 
ATOM     21  C   UNL A   1      43.850  29.326  30.470  1.00  0.00     0.049 A 
ATOM     22  H   UNL A   1      43.749  27.380  29.646  1.00  0.00     0.167 HD
ATOM     23  C   UNL A   1      42.223  22.862  27.874  1.00  0.00     0.034 A 
ATOM     24  C   UNL A   1      45.047  29.389  31.140  1.00  0.00     0.034 A 
ATOM     25  C   UNL A   1      43.340  23.055  28.736  1.00  0.00     0.049 A 
ATOM     26  C   UNL A   1      45.713  28.116  30.842  1.00  0.00     0.074 A 
ATOM     27  C   UNL A   1      43.490  22.989  30.094  1.00  0.00     0.029 A 
ATOM     28  N   UNL A   1      44.394  23.735  28.176  1.00  0.00    -0.354 N 
ATOM     29  N   UNL A   1      46.210  27.798  29.683  1.00  0.00    -0.248 NA
ATOM     30  C   UNL A   1      45.709  27.066  31.867  1.00  0.00     0.031 C 
ATOM     31  C   UNL A   1      44.372  24.053  30.356  1.00  0.00     0.029 A 
ATOM     32  C   UNL A   1      44.910  24.537  29.156  1.00  0.00     0.049 A 
ATOM     33  H   UNL A   1      44.716  23.658  27.249  1.00  0.00     0.167 HD
ATOM     34  C   UNL A   1      46.212  26.428  29.749  1.00  0.00     0.074 A 
ATOM     35  C   UNL A   1      46.243  26.081  31.153  1.00  0.00     0.031 C 
ATOM     36  C   UNL A   1      45.648  25.704  28.748  1.00  0.00     0.034 A 
BRANCH  23  37
ATOM     37  C   UNL A   1      42.360  21.688  26.919  1.00  0.00     0.023 A 
ATOM     38  C   UNL A   1      41.555  20.555  27.252  1.00  0.00     0.012 A 
ATOM     39  C   UNL A   1      43.406  21.481  26.002  1.00  0.00     0.148 A 
ATOM     40  C   UNL A   1      41.868  19.261  26.844  1.00  0.00     0.002 A 
ATOM     41  C   UNL A   1      43.679  20.182  25.546  1.00  0.00     0.091 A 
ATOM     42  F   UNL A   1      44.169  22.516  25.635  1.00  0.00    -0.205 F 
ATOM     43  C   UNL A   1      42.947  19.074  26.005  1.00  0.00     0.022 A 
BRANCH  41  44
ATOM     44  S   UNL A   1      44.985  19.773  24.378  1.00  0.00     0.127 S 
ATOM     45  O   UNL A   1      44.841  18.325  24.250  1.00  0.00    -0.237 OA
ATOM     46  O   UNL A   1      44.569  20.529  23.195  1.00  0.00    -0.237 OA
ATOM     47  O   UNL A   1      46.223  20.239  24.980  1.00  0.00    -0.744 OA
ENDBRANCH  41  44
ENDBRANCH  23  37
BRANCH  24  48
ATOM     48  C   UNL A   1      45.731  30.298  32.147  1.00  0.00     0.023 A 
ATOM     49  C   UNL A   1      45.312  30.483  33.471  1.00  0.00     0.012 A 
ATOM     50  C   UNL A   1      46.968  30.933  31.804  1.00  0.00     0.148 A 
ATOM     51  C   UNL A   1      46.130  31.148  34.414  1.00  0.00     0.002 A 
ATOM     52  C   UNL A   1      47.837  31.448  32.758  1.00  0.00     0.091 A 
ATOM     53  F   UNL A   1      47.304  31.081  30.517  1.00  0.00    -0.205 F 
ATOM     54  C   UNL A   1      47.414  31.574  34.076  1.00  0.00     0.022 A 
BRANCH  52  55
ATOM     55  S   UNL A   1      49.573  31.783  32.380  1.00  0.00     0.127 S 
ATOM     56  O   UNL A   1      50.136  32.055  33.700  1.00  0.00    -0.237 OA
ATOM     57  O   UNL A   1      49.989  30.514  31.783  1.00  0.00    -0.237 OA
ATOM     58  O   UNL A   1      49.581  32.913  31.460  1.00  0.00    -0.744 OA
ENDBRANCH  52  55
ENDBRANCH  24  48
BRANCH  36  59
ATOM     59  C   UNL A   1      45.627  26.375  27.375  1.00  0.00     0.023 A 
ATOM     60  C   UNL A   1      44.372  26.805  26.902  1.00  0.00     0.012 A 
ATOM     61  C   UNL A   1      46.732  26.536  26.503  1.00  0.00     0.148 A 
ATOM     62  C   UNL A   1      44.215  27.367  25.631  1.00  0.00     0.002 A 
ATOM     63  C   UNL A   1      46.574  27.079  25.220  1.00  0.00     0.091 A 
ATOM     64  F   UNL A   1      47.938  26.167  26.923  1.00  0.00    -0.205 F 
ATOM     65  C   UNL A   1      45.313  27.503  24.789  1.00  0.00     0.022 A 
BRANCH  63  66
ATOM     66  S   UNL A   1      47.912  27.213  24.010  1.00  0.00     0.127 S 
ATOM     67  O   UNL A   1      47.291  28.000  22.941  1.00  0.00    -0.237 OA
ATOM     68  O   UNL A   1      48.935  27.932  24.763  1.00  0.00    -0.237 OA
ATOM     69  O   UNL A   1      48.254  25.850  23.621  1.00  0.00    -0.744 OA
ENDBRANCH  63  66
ENDBRANCH  36  59
ENDBRANCH  10  11
ENDBRANCH   3   5
ENDBRANCH   2   3
ENDBRANCH   1   2
BRANCH   1  70
ATOM     70  C   UNL A   1      33.015  28.413  27.440  1.00  0.00     0.275 C 
BRANCH  70  71
ATOM     71  O   UNL A   1      32.725  27.798  26.175  1.00  0.00    -0.458 OA
BRANCH  71  72
ATOM     72  C   UNL A   1      32.079  26.612  26.229  1.00  0.00     0.338 C 
ATOM     73  O   UNL A   1      30.893  26.414  26.489  1.00  0.00    -0.246 OA
BRANCH  72  74
ATOM     74  C   UNL A   1      33.046  25.539  25.991  1.00  0.00     0.063 A 
ATOM     75  C   UNL A   1      33.994  25.704  24.977  1.00  0.00     0.018 A 
ATOM     76  C   UNL A   1      33.050  24.400  26.796  1.00  0.00     0.057 A 
ATOM     77  C   UNL A   1      34.965  24.722  24.779  1.00  0.00     0.030 A 
ATOM     78  C   UNL A   1      33.985  23.400  26.559  1.00  0.00     0.148 A 
ATOM     79  C   UNL A   1      34.958  23.563  25.570  1.00  0.00     0.081 A 
ATOM     80  F   UNL A   1      33.981  22.334  27.369  1.00  0.00    -0.205 F 
BRANCH  79  81
ATOM     81  N   UNL A   1      35.948  22.577  25.361  1.00  0.00    -0.321 N 
ATOM     82  C   UNL A   1      37.306  22.752  25.426  1.00  0.00     0.091 A 
ATOM     83  C   UNL A   1      35.705  21.246  25.073  1.00  0.00     0.091 A 
ATOM     84  C   UNL A   1      37.916  21.526  25.277  1.00  0.00     0.020 A 
ATOM     85  C   UNL A   1      36.908  20.580  25.007  1.00  0.00     0.020 A 
ENDBRANCH  79  81
ENDBRANCH  72  74
ENDBRANCH  71  72
ENDBRANCH  70  71
ENDBRANCH   1  70
TORSDOF 15
ENDMDL
MODEL 3
REMARK VINA RESULT:     -10.4      3.822     10.987
REMARK SMILES O=C(OCCOC(=O)c1ccc(-n2cccc2)c(F)c1)c1ccc(-c2c3nc(c(-c4cccc(S(=O)(=O)[O-])c4F)c4ccc([nH]4)c(-c4cccc(S(=O)(=O)[O-])c4F)c4nc(c(-c5cccc(S(=O)(=O)[O-])c5F)c5ccc2[nH]5)C=C4)C=C3)cc1
REMARK SMILES IDX 4 1 3 2 2 3 1 4 21 5 22 6 83 7 23 8 82 9 24 10 25 11 26 12
REMARK SMILES IDX 76 13 27 14 81 15 75 16 77 17 28 18 80 19 74 20 73 21 29 23
REMARK SMILES IDX 61 24 41 25 60 26 42 27 45 28 59 29 78 30 43 31 44 32 58 34
REMARK SMILES IDX 79 35 46 36 30 37 31 38 39 39 32 40 34 41 40 42 33 43 35 44
REMARK SMILES IDX 36 45 37 46 38 47 62 48 63 49 71 50 64 51 66 52 72 53 65 54
REMARK SMILES IDX 67 55 68 56 69 57 70 58 47 59 48 60 56 61 49 62 51 63 57 64
REMARK SMILES IDX 50 65 52 66 53 67 54 68 55 69 5 70 6 71 7 72 8 73 9 74 10 75
REMARK SMILES IDX 20 76 11 77 18 78 12 79 19 80 13 81 14 82 17 83 15 84 16 85
REMARK H PARENT 77 22 45 33
REMARK Flexibility Score: inf
ROOT
ATOM      1  C   UNL A   1      40.065  21.789  26.902  1.00  0.00     0.275 C 
ENDROOT
BRANCH   1   2
ATOM      2  O   UNL A   1      40.132  23.129  27.427  1.00  0.00    -0.458 OA
BRANCH   2   3
ATOM      3  C   UNL A   1      39.415  24.164  26.924  1.00  0.00     0.338 C 
ATOM      4  O   UNL A   1      38.534  23.972  26.094  1.00  0.00    -0.246 OA
BRANCH   3   5
ATOM      5  C   UNL A   1      39.518  25.473  27.625  1.00  0.00     0.060 A 
ATOM      6  C   UNL A   1      39.181  25.669  28.968  1.00  0.00     0.016 A 
ATOM      7  C   UNL A   1      40.031  26.552  26.886  1.00  0.00     0.016 A 
ATOM      8  C   UNL A   1      39.221  26.940  29.525  1.00  0.00     0.010 A 
ATOM      9  C   UNL A   1      40.117  27.822  27.453  1.00  0.00     0.010 A 
ATOM     10  C   UNL A   1      39.684  28.018  28.767  1.00  0.00    -0.014 A 
BRANCH  10  11
ATOM     11  C   UNL A   1      39.869  29.308  29.463  1.00  0.00     0.031 A 
ATOM     12  C   UNL A   1      38.659  30.254  29.197  1.00  0.00     0.074 A 
ATOM     13  C   UNL A   1      41.063  29.461  30.123  1.00  0.00     0.049 A 
ATOM     14  N   UNL A   1      38.607  31.550  29.088  1.00  0.00    -0.248 NA
ATOM     15  C   UNL A   1      37.326  29.657  28.877  1.00  0.00     0.031 C 
ATOM     16  C   UNL A   1      42.093  28.403  30.281  1.00  0.00     0.029 A 
ATOM     17  N   UNL A   1      41.673  30.507  30.789  1.00  0.00    -0.354 N 
ATOM     18  C   UNL A   1      37.235  31.914  28.971  1.00  0.00     0.074 A 
ATOM     19  C   UNL A   1      36.527  30.711  28.685  1.00  0.00     0.031 C 
ATOM     20  C   UNL A   1      43.203  28.880  30.891  1.00  0.00     0.029 A 
ATOM     21  C   UNL A   1      43.009  30.279  31.222  1.00  0.00     0.049 A 
ATOM     22  H   UNL A   1      41.210  31.360  30.954  1.00  0.00     0.167 HD
ATOM     23  C   UNL A   1      36.756  33.158  29.280  1.00  0.00     0.034 A 
ATOM     24  C   UNL A   1      43.904  31.168  31.765  1.00  0.00     0.034 A 
ATOM     25  C   UNL A   1      37.847  33.970  29.698  1.00  0.00     0.049 A 
ATOM     26  C   UNL A   1      43.126  32.389  32.004  1.00  0.00     0.074 A 
ATOM     27  C   UNL A   1      38.870  34.575  29.021  1.00  0.00     0.029 A 
ATOM     28  N   UNL A   1      38.143  33.901  31.037  1.00  0.00    -0.354 N 
ATOM     29  N   UNL A   1      42.216  32.515  32.925  1.00  0.00    -0.248 NA
ATOM     30  C   UNL A   1      43.271  33.508  31.066  1.00  0.00     0.031 C 
ATOM     31  C   UNL A   1      39.959  34.405  29.895  1.00  0.00     0.029 A 
ATOM     32  C   UNL A   1      39.506  33.955  31.143  1.00  0.00     0.049 A 
ATOM     33  H   UNL A   1      37.499  33.827  31.777  1.00  0.00     0.167 HD
ATOM     34  C   UNL A   1      41.457  33.541  32.426  1.00  0.00     0.074 A 
ATOM     35  C   UNL A   1      42.312  34.297  31.538  1.00  0.00     0.031 C 
ATOM     36  C   UNL A   1      40.110  33.394  32.323  1.00  0.00     0.034 A 
BRANCH  23  37
ATOM     37  C   UNL A   1      35.386  33.769  29.526  1.00  0.00     0.023 A 
ATOM     38  C   UNL A   1      34.739  34.268  28.353  1.00  0.00     0.012 A 
ATOM     39  C   UNL A   1      34.876  34.193  30.766  1.00  0.00     0.148 A 
ATOM     40  C   UNL A   1      33.765  35.261  28.393  1.00  0.00     0.002 A 
ATOM     41  C   UNL A   1      33.851  35.151  30.800  1.00  0.00     0.091 A 
ATOM     42  F   UNL A   1      35.427  33.730  31.892  1.00  0.00    -0.205 F 
ATOM     43  C   UNL A   1      33.336  35.718  29.622  1.00  0.00     0.022 A 
BRANCH  41  44
ATOM     44  S   UNL A   1      33.109  35.785  32.312  1.00  0.00     0.127 S 
ATOM     45  O   UNL A   1      32.142  36.752  31.798  1.00  0.00    -0.237 OA
ATOM     46  O   UNL A   1      32.511  34.573  32.876  1.00  0.00    -0.237 OA
ATOM     47  O   UNL A   1      34.202  36.333  33.097  1.00  0.00    -0.744 OA
ENDBRANCH  41  44
ENDBRANCH  23  37
BRANCH  24  48
ATOM     48  C   UNL A   1      45.401  31.253  32.018  1.00  0.00     0.023 A 
ATOM     49  C   UNL A   1      46.388  31.024  31.051  1.00  0.00     0.012 A 
ATOM     50  C   UNL A   1      45.880  31.720  33.284  1.00  0.00     0.148 A 
ATOM     51  C   UNL A   1      47.742  31.356  31.293  1.00  0.00     0.002 A 
ATOM     52  C   UNL A   1      47.176  32.188  33.468  1.00  0.00     0.091 A 
ATOM     53  F   UNL A   1      45.079  31.678  34.354  1.00  0.00    -0.205 F 
ATOM     54  C   UNL A   1      48.125  31.993  32.472  1.00  0.00     0.022 A 
BRANCH  52  55
ATOM     55  S   UNL A   1      47.622  33.216  34.886  1.00  0.00     0.127 S 
ATOM     56  O   UNL A   1      47.648  32.250  35.981  1.00  0.00    -0.237 OA
ATOM     57  O   UNL A   1      48.933  33.719  34.477  1.00  0.00    -0.237 OA
ATOM     58  O   UNL A   1      46.590  34.240  34.990  1.00  0.00    -0.744 OA
ENDBRANCH  52  55
ENDBRANCH  24  48
BRANCH  36  59
ATOM     59  C   UNL A   1      39.472  32.418  33.310  1.00  0.00     0.023 A 
ATOM     60  C   UNL A   1      39.065  31.172  32.793  1.00  0.00     0.012 A 
ATOM     61  C   UNL A   1      39.181  32.673  34.674  1.00  0.00     0.148 A 
ATOM     62  C   UNL A   1      38.404  30.226  33.583  1.00  0.00     0.002 A 
ATOM     63  C   UNL A   1      38.501  31.734  35.461  1.00  0.00     0.091 A 
ATOM     64  F   UNL A   1      39.573  33.826  35.206  1.00  0.00    -0.205 F 
ATOM     65  C   UNL A   1      38.120  30.505  34.914  1.00  0.00     0.022 A 
BRANCH  63  66
ATOM     66  S   UNL A   1      37.995  32.031  37.173  1.00  0.00     0.127 S 
ATOM     67  O   UNL A   1      37.026  33.120  37.030  1.00  0.00    -0.237 OA
ATOM     68  O   UNL A   1      37.403  30.749  37.544  1.00  0.00    -0.237 OA
ATOM     69  O   UNL A   1      39.203  32.403  37.901  1.00  0.00    -0.744 OA
ENDBRANCH  63  66
ENDBRANCH  36  59
ENDBRANCH  10  11
ENDBRANCH   3   5
ENDBRANCH   2   3
ENDBRANCH   1   2
BRANCH   1  70
ATOM     70  C   UNL A   1      41.378  21.277  26.308  1.00  0.00     0.275 C 
BRANCH  70  71
ATOM     71  O   UNL A   1      41.921  22.193  25.344  1.00  0.00    -0.458 OA
BRANCH  71  72
ATOM     72  C   UNL A   1      43.265  22.342  25.361  1.00  0.00     0.338 C 
ATOM     73  O   UNL A   1      44.117  21.499  25.088  1.00  0.00    -0.246 OA
BRANCH  72  74
ATOM     74  C   UNL A   1      43.581  23.688  25.841  1.00  0.00     0.063 A 
ATOM     75  C   UNL A   1      44.309  24.543  25.008  1.00  0.00     0.018 A 
ATOM     76  C   UNL A   1      43.120  24.122  27.084  1.00  0.00     0.057 A 
ATOM     77  C   UNL A   1      44.563  25.851  25.420  1.00  0.00     0.030 A 
ATOM     78  C   UNL A   1      43.423  25.408  27.513  1.00  0.00     0.148 A 
ATOM     79  C   UNL A   1      44.122  26.284  26.681  1.00  0.00     0.081 A 
ATOM     80  F   UNL A   1      42.938  25.803  28.697  1.00  0.00    -0.205 F 
BRANCH  79  81
ATOM     81  N   UNL A   1      44.384  27.613  27.085  1.00  0.00    -0.321 N 
ATOM     82  C   UNL A   1      45.523  28.076  27.693  1.00  0.00     0.091 A 
ATOM     83  C   UNL A   1      43.530  28.687  26.911  1.00  0.00     0.091 A 
ATOM     84  C   UNL A   1      45.431  29.444  27.815  1.00  0.00     0.020 A 
ATOM     85  C   UNL A   1      44.153  29.826  27.364  1.00  0.00     0.020 A 
ENDBRANCH  79  81
ENDBRANCH  72  74
ENDBRANCH  71  72
ENDBRANCH  70  71
ENDBRANCH   1  70
TORSDOF 15
ENDMDL
