MODEL 1
REMARK VINA RESULT:     -13.1      0.000      0.000
REMARK SMILES C[NH+]1CCC([NH+]2CCC(Oc3ccc4ccccc4c3)(C(=O)OCCOC(=O)c3ccc(-c4c5nc(c(-c6cccc(S(=O)(=O)[O-])c6F)c6ccc([nH]6)c(-c6cccc(S(=O)(=O)[O-])c6F)c6nc(c(-c7cccc(S(=O)(=O)[O-])c7F)c7ccc4[nH]7)C=C6)C=C5)cc3)CC2)CC1
REMARK SMILES IDX 25 1 24 2 23 3 21 4 22 5 9 6 6 7 7 8 93 9 8 11 92 12 5 13
REMARK SMILES IDX 1 14 2 15 3 16 95 17 4 19 94 20 10 21 11 22 12 23 20 24
REMARK SMILES IDX 13 25 19 26 14 27 18 28 15 29 17 30 16 31 26 32 27 33 28 34
REMARK SMILES IDX 29 35 30 36 91 37 31 38 90 39 32 40 33 41 34 42 84 43 35 44
REMARK SMILES IDX 89 45 83 46 85 47 36 48 88 49 82 50 81 51 37 53 69 54 49 55
REMARK SMILES IDX 68 56 50 57 53 58 67 59 86 60 51 61 52 62 66 64 87 65 54 66
REMARK SMILES IDX 38 67 39 68 47 69 40 70 42 71 48 72 41 73 43 74 44 75 45 76
REMARK SMILES IDX 46 77 70 78 71 79 79 80 72 81 74 82 80 83 73 84 75 85 76 86
REMARK SMILES IDX 77 87 78 88 55 89 56 90 64 91 57 92 59 93 65 94 58 95 60 96
REMARK SMILES IDX 61 97 62 98 63 99
REMARK H PARENT 6 10 2 18 85 52 53 63
REMARK Flexibility Score: inf
ROOT
ATOM      1  C   UNL A   1      36.629  21.851  23.936  1.00  0.00     0.275 C 
ENDROOT
BRANCH   1   2
ATOM      2  C   UNL A   1      36.392  23.288  23.481  1.00  0.00     0.274 C 
BRANCH   2   3
ATOM      3  O   UNL A   1      35.346  23.912  24.254  1.00  0.00    -0.459 OA
BRANCH   3   4
ATOM      4  C   UNL A   1      34.218  24.267  23.569  1.00  0.00     0.351 C 
ATOM      5  O   UNL A   1      34.231  24.711  22.424  1.00  0.00    -0.247 OA
BRANCH   4   6
ATOM      6  C   UNL A   1      32.937  24.167  24.421  1.00  0.00     0.216 C 
ATOM      7  N   UNL A   1      32.140  21.344  24.758  1.00  0.00    -0.332 N 
ATOM      8  C   UNL A   1      33.282  21.889  25.505  1.00  0.00     0.267 C 
ATOM      9  C   UNL A   1      32.022  22.003  23.450  1.00  0.00     0.267 C 
ATOM     10  H   UNL A   1      31.311  21.549  25.317  1.00  0.00     0.348 HD
ATOM     11  C   UNL A   1      33.117  23.392  25.733  1.00  0.00     0.122 C 
ATOM     12  C   UNL A   1      31.821  23.514  23.581  1.00  0.00     0.122 C 
BRANCH   7  13
ATOM     13  C   UNL A   1      32.168  19.860  24.610  1.00  0.00     0.195 C 
ATOM     14  C   UNL A   1      33.618  15.813  24.258  1.00  0.00     0.332 C 
ATOM     15  N   UNL A   1      33.526  17.271  24.362  1.00  0.00    -0.337 N 
ATOM     16  C   UNL A   1      32.911  17.664  25.636  1.00  0.00     0.268 C 
ATOM     17  C   UNL A   1      32.756  17.807  23.233  1.00  0.00     0.268 C 
ATOM     18  H   UNL A   1      34.469  17.659  24.332  1.00  0.00     0.347 HD
ATOM     19  C   UNL A   1      32.901  19.190  25.786  1.00  0.00     0.126 C 
ATOM     20  C   UNL A   1      32.727  19.333  23.277  1.00  0.00     0.126 C 
ENDBRANCH   7  13
BRANCH   6  21
ATOM     21  O   UNL A   1      32.787  25.589  24.710  1.00  0.00    -0.475 OA
BRANCH  21  22
ATOM     22  C   UNL A   1      31.643  26.190  24.284  1.00  0.00     0.121 A 
ATOM     23  C   UNL A   1      30.408  25.715  24.706  1.00  0.00     0.047 A 
ATOM     24  C   UNL A   1      31.733  27.358  23.526  1.00  0.00     0.055 A 
ATOM     25  C   UNL A   1      29.244  26.372  24.314  1.00  0.00     0.012 A 
ATOM     26  C   UNL A   1      30.569  28.038  23.133  1.00  0.00    -0.015 A 
ATOM     27  C   UNL A   1      29.307  27.532  23.528  1.00  0.00    -0.018 A 
ATOM     28  C   UNL A   1      30.623  29.211  22.362  1.00  0.00     0.009 A 
ATOM     29  C   UNL A   1      28.140  28.205  23.135  1.00  0.00     0.009 A 
ATOM     30  C   UNL A   1      29.452  29.872  21.983  1.00  0.00     0.001 A 
ATOM     31  C   UNL A   1      28.213  29.368  22.367  1.00  0.00     0.001 A 
ENDBRANCH  21  22
ENDBRANCH   6  21
ENDBRANCH   4   6
ENDBRANCH   3   4
ENDBRANCH   2   3
ENDBRANCH   1   2
BRANCH   1  32
ATOM     32  O   UNL A   1      36.881  21.845  25.348  1.00  0.00    -0.458 OA
BRANCH  32  33
ATOM     33  C   UNL A   1      38.135  21.516  25.727  1.00  0.00     0.338 C 
ATOM     34  O   UNL A   1      38.679  20.432  25.554  1.00  0.00    -0.246 OA
BRANCH  33  35
ATOM     35  C   UNL A   1      38.818  22.684  26.333  1.00  0.00     0.060 A 
ATOM     36  C   UNL A   1      38.351  23.986  26.133  1.00  0.00     0.016 A 
ATOM     37  C   UNL A   1      40.026  22.487  27.007  1.00  0.00     0.016 A 
ATOM     38  C   UNL A   1      39.136  25.079  26.499  1.00  0.00     0.010 A 
ATOM     39  C   UNL A   1      40.759  23.585  27.469  1.00  0.00     0.010 A 
ATOM     40  C   UNL A   1      40.337  24.897  27.198  1.00  0.00    -0.014 A 
BRANCH  40  41
ATOM     41  C   UNL A   1      41.134  26.060  27.682  1.00  0.00     0.031 A 
ATOM     42  C   UNL A   1      40.504  27.123  28.544  1.00  0.00     0.074 A 
ATOM     43  C   UNL A   1      42.418  26.198  27.295  1.00  0.00     0.049 A 
ATOM     44  N   UNL A   1      40.950  28.315  28.845  1.00  0.00    -0.248 NA
ATOM     45  C   UNL A   1      39.192  26.811  29.133  1.00  0.00     0.031 C 
ATOM     46  C   UNL A   1      43.159  25.245  26.469  1.00  0.00     0.029 A 
ATOM     47  N   UNL A   1      43.319  27.210  27.523  1.00  0.00    -0.354 N 
ATOM     48  C   UNL A   1      39.944  28.925  29.587  1.00  0.00     0.074 A 
ATOM     49  C   UNL A   1      38.872  27.961  29.714  1.00  0.00     0.031 C 
ATOM     50  C   UNL A   1      44.401  25.706  26.269  1.00  0.00     0.029 A 
ATOM     51  C   UNL A   1      44.516  27.028  26.869  1.00  0.00     0.049 A 
ATOM     52  H   UNL A   1      43.128  27.987  28.098  1.00  0.00     0.167 HD
ATOM     53  C   UNL A   1      39.923  30.171  30.118  1.00  0.00     0.034 A 
ATOM     54  C   UNL A   1      45.572  27.851  26.713  1.00  0.00     0.034 A 
ATOM     55  C   UNL A   1      41.028  31.094  30.064  1.00  0.00     0.049 A 
ATOM     56  C   UNL A   1      45.533  29.217  27.327  1.00  0.00     0.074 A 
ATOM     57  C   UNL A   1      41.118  32.361  30.616  1.00  0.00     0.029 A 
ATOM     58  N   UNL A   1      42.240  30.845  29.440  1.00  0.00    -0.354 N 
ATOM     59  N   UNL A   1      44.585  29.768  28.046  1.00  0.00    -0.248 NA
ATOM     60  C   UNL A   1      46.706  30.075  27.114  1.00  0.00     0.031 C 
ATOM     61  C   UNL A   1      42.386  32.876  30.326  1.00  0.00     0.029 A 
ATOM     62  C   UNL A   1      43.085  31.930  29.596  1.00  0.00     0.049 A 
ATOM     63  H   UNL A   1      42.466  30.017  28.957  1.00  0.00     0.167 HD
ATOM     64  C   UNL A   1      45.048  31.035  28.376  1.00  0.00     0.074 A 
ATOM     65  C   UNL A   1      46.375  31.158  27.806  1.00  0.00     0.031 C 
ATOM     66  C   UNL A   1      44.419  32.019  29.062  1.00  0.00     0.034 A 
BRANCH  53  67
ATOM     67  C   UNL A   1      38.682  30.612  30.847  1.00  0.00     0.023 A 
ATOM     68  C   UNL A   1      38.626  30.509  32.250  1.00  0.00     0.012 A 
ATOM     69  C   UNL A   1      37.614  31.218  30.155  1.00  0.00     0.148 A 
ATOM     70  C   UNL A   1      37.521  30.992  32.953  1.00  0.00     0.002 A 
ATOM     71  C   UNL A   1      36.531  31.726  30.864  1.00  0.00     0.091 A 
ATOM     72  F   UNL A   1      37.672  31.281  28.816  1.00  0.00    -0.205 F 
ATOM     73  C   UNL A   1      36.481  31.610  32.262  1.00  0.00     0.022 A 
BRANCH  71  74
ATOM     74  S   UNL A   1      35.184  32.601  30.057  1.00  0.00     0.127 S 
ATOM     75  O   UNL A   1      34.292  32.871  31.182  1.00  0.00    -0.237 OA
ATOM     76  O   UNL A   1      35.855  33.784  29.516  1.00  0.00    -0.237 OA
ATOM     77  O   UNL A   1      34.671  31.686  29.047  1.00  0.00    -0.744 OA
ENDBRANCH  71  74
ENDBRANCH  53  67
BRANCH  54  78
ATOM     78  C   UNL A   1      46.752  27.372  25.941  1.00  0.00     0.023 A 
ATOM     79  C   UNL A   1      46.887  27.740  24.591  1.00  0.00     0.012 A 
ATOM     80  C   UNL A   1      47.790  26.652  26.565  1.00  0.00     0.148 A 
ATOM     81  C   UNL A   1      48.036  27.401  23.875  1.00  0.00     0.002 A 
ATOM     82  C   UNL A   1      48.960  26.379  25.867  1.00  0.00     0.091 A 
ATOM     83  F   UNL A   1      47.633  26.281  27.844  1.00  0.00    -0.205 F 
ATOM     84  C   UNL A   1      49.081  26.741  24.518  1.00  0.00     0.022 A 
BRANCH  82  85
ATOM     85  S   UNL A   1      50.404  25.704  26.698  1.00  0.00     0.127 S 
ATOM     86  O   UNL A   1      50.710  26.749  27.669  1.00  0.00    -0.237 OA
ATOM     87  O   UNL A   1      49.884  24.461  27.273  1.00  0.00    -0.237 OA
ATOM     88  O   UNL A   1      51.383  25.497  25.639  1.00  0.00    -0.744 OA
ENDBRANCH  82  85
ENDBRANCH  54  78
BRANCH  66  89
ATOM     89  C   UNL A   1      45.158  33.316  29.237  1.00  0.00     0.023 A 
ATOM     90  C   UNL A   1      46.048  33.460  30.321  1.00  0.00     0.012 A 
ATOM     91  C   UNL A   1      45.015  34.366  28.311  1.00  0.00     0.148 A 
ATOM     92  C   UNL A   1      46.767  34.640  30.492  1.00  0.00     0.002 A 
ATOM     93  C   UNL A   1      45.763  35.528  28.470  1.00  0.00     0.091 A 
ATOM     94  F   UNL A   1      44.145  34.219  27.302  1.00  0.00    -0.205 F 
ATOM     95  C   UNL A   1      46.634  35.670  29.563  1.00  0.00     0.022 A 
BRANCH  93  96
ATOM     96  S   UNL A   1      45.697  36.870  27.277  1.00  0.00     0.127 S 
ATOM     97  O   UNL A   1      46.186  36.216  26.064  1.00  0.00    -0.237 OA
ATOM     98  O   UNL A   1      44.272  37.207  27.257  1.00  0.00    -0.237 OA
ATOM     99  O   UNL A   1      46.551  37.919  27.820  1.00  0.00    -0.744 OA
ENDBRANCH  93  96
ENDBRANCH  66  89
ENDBRANCH  40  41
ENDBRANCH  33  35
ENDBRANCH  32  33
ENDBRANCH   1  32
TORSDOF 17
ENDMDL
MODEL 2
REMARK VINA RESULT:     -12.9      4.714      9.340
REMARK SMILES C[NH+]1CCC([NH+]2CCC(Oc3ccc4ccccc4c3)(C(=O)OCCOC(=O)c3ccc(-c4c5nc(c(-c6cccc(S(=O)(=O)[O-])c6F)c6ccc([nH]6)c(-c6cccc(S(=O)(=O)[O-])c6F)c6nc(c(-c7cccc(S(=O)(=O)[O-])c7F)c7ccc4[nH]7)C=C6)C=C5)cc3)CC2)CC1
REMARK SMILES IDX 25 1 24 2 23 3 21 4 22 5 9 6 6 7 7 8 93 9 8 11 92 12 5 13
REMARK SMILES IDX 1 14 2 15 3 16 95 17 4 19 94 20 10 21 11 22 12 23 20 24
REMARK SMILES IDX 13 25 19 26 14 27 18 28 15 29 17 30 16 31 26 32 27 33 28 34
REMARK SMILES IDX 29 35 30 36 91 37 31 38 90 39 32 40 33 41 34 42 84 43 35 44
REMARK SMILES IDX 89 45 83 46 85 47 36 48 88 49 82 50 81 51 37 53 69 54 49 55
REMARK SMILES IDX 68 56 50 57 53 58 67 59 86 60 51 61 52 62 66 64 87 65 54 66
REMARK SMILES IDX 38 67 39 68 47 69 40 70 42 71 48 72 41 73 43 74 44 75 45 76
REMARK SMILES IDX 46 77 70 78 71 79 79 80 72 81 74 82 80 83 73 84 75 85 76 86
REMARK SMILES IDX 77 87 78 88 55 89 56 90 64 91 57 92 59 93 65 94 58 95 60 96
REMARK SMILES IDX 61 97 62 98 63 99
REMARK H PARENT 6 10 2 18 85 52 53 63
REMARK Flexibility Score: inf
ROOT
ATOM      1  C   UNL A   1      31.624  29.471  25.551  1.00  0.00     0.275 C 
ENDROOT
BRANCH   1   2
ATOM      2  C   UNL A   1      31.403  28.268  26.463  1.00  0.00     0.274 C 
BRANCH   2   3
ATOM      3  O   UNL A   1      31.830  27.046  25.823  1.00  0.00    -0.459 OA
BRANCH   3   4
ATOM      4  C   UNL A   1      30.843  26.164  25.487  1.00  0.00     0.351 C 
ATOM      5  O   UNL A   1      29.940  25.831  26.249  1.00  0.00    -0.247 OA
BRANCH   4   6
ATOM      6  C   UNL A   1      31.043  25.537  24.092  1.00  0.00     0.216 C 
ATOM      7  N   UNL A   1      33.502  23.905  24.036  1.00  0.00    -0.332 N 
ATOM      8  C   UNL A   1      32.297  23.412  24.717  1.00  0.00     0.267 C 
ATOM      9  C   UNL A   1      33.579  25.370  24.127  1.00  0.00     0.267 C 
ATOM     10  H   UNL A   1      33.408  23.631  23.058  1.00  0.00     0.348 HD
ATOM     11  C   UNL A   1      31.035  24.003  24.088  1.00  0.00     0.122 C 
ATOM     12  C   UNL A   1      32.366  26.052  23.491  1.00  0.00     0.122 C 
BRANCH   7  13
ATOM     13  C   UNL A   1      34.767  23.271  24.511  1.00  0.00     0.195 C 
ATOM     14  C   UNL A   1      37.987  20.445  25.006  1.00  0.00     0.332 C 
ATOM     15  N   UNL A   1      36.739  21.102  24.610  1.00  0.00    -0.337 N 
ATOM     16  C   UNL A   1      37.015  22.318  23.833  1.00  0.00     0.268 C 
ATOM     17  C   UNL A   1      35.940  21.422  25.798  1.00  0.00     0.268 C 
ATOM     18  H   UNL A   1      36.209  20.462  24.018  1.00  0.00     0.347 HD
ATOM     19  C   UNL A   1      35.711  22.953  23.338  1.00  0.00     0.126 C 
ATOM     20  C   UNL A   1      34.596  22.026  25.398  1.00  0.00     0.126 C 
ENDBRANCH   7  13
BRANCH   6  21
ATOM     21  O   UNL A   1      29.814  26.033  23.481  1.00  0.00    -0.475 OA
BRANCH  21  22
ATOM     22  C   UNL A   1      29.772  27.355  23.158  1.00  0.00     0.121 A 
ATOM     23  C   UNL A   1      30.771  27.911  22.371  1.00  0.00     0.047 A 
ATOM     24  C   UNL A   1      28.654  28.105  23.524  1.00  0.00     0.055 A 
ATOM     25  C   UNL A   1      30.690  29.250  21.995  1.00  0.00     0.012 A 
ATOM     26  C   UNL A   1      28.552  29.454  23.143  1.00  0.00    -0.015 A 
ATOM     27  C   UNL A   1      29.590  30.034  22.374  1.00  0.00    -0.018 A 
ATOM     28  C   UNL A   1      27.446  30.241  23.501  1.00  0.00     0.009 A 
ATOM     29  C   UNL A   1      29.496  31.382  21.995  1.00  0.00     0.009 A 
ATOM     30  C   UNL A   1      27.365  31.580  23.111  1.00  0.00     0.001 A 
ATOM     31  C   UNL A   1      28.390  32.149  22.361  1.00  0.00     0.001 A 
ENDBRANCH  21  22
ENDBRANCH   6  21
ENDBRANCH   4   6
ENDBRANCH   3   4
ENDBRANCH   2   3
ENDBRANCH   1   2
BRANCH   1  32
ATOM     32  O   UNL A   1      32.930  30.009  25.796  1.00  0.00    -0.458 OA
BRANCH  32  33
ATOM     33  C   UNL A   1      33.004  31.002  26.709  1.00  0.00     0.338 C 
ATOM     34  O   UNL A   1      32.174  31.888  26.877  1.00  0.00    -0.246 OA
BRANCH  33  35
ATOM     35  C   UNL A   1      34.211  30.843  27.554  1.00  0.00     0.060 A 
ATOM     36  C   UNL A   1      35.053  31.923  27.833  1.00  0.00     0.016 A 
ATOM     37  C   UNL A   1      34.582  29.562  27.972  1.00  0.00     0.016 A 
ATOM     38  C   UNL A   1      36.301  31.710  28.417  1.00  0.00     0.010 A 
ATOM     39  C   UNL A   1      35.787  29.367  28.654  1.00  0.00     0.010 A 
ATOM     40  C   UNL A   1      36.676  30.434  28.862  1.00  0.00    -0.014 A 
BRANCH  40  41
ATOM     41  C   UNL A   1      37.964  30.213  29.578  1.00  0.00     0.031 A 
ATOM     42  C   UNL A   1      39.036  29.333  28.988  1.00  0.00     0.074 A 
ATOM     43  C   UNL A   1      38.153  30.755  30.798  1.00  0.00     0.049 A 
ATOM     44  N   UNL A   1      40.095  28.822  29.560  1.00  0.00    -0.248 NA
ATOM     45  C   UNL A   1      38.889  28.967  27.570  1.00  0.00     0.031 C 
ATOM     46  C   UNL A   1      37.208  31.633  31.488  1.00  0.00     0.029 A 
ATOM     47  N   UNL A   1      39.194  30.626  31.686  1.00  0.00    -0.354 N 
ATOM     48  C   UNL A   1      40.695  28.011  28.602  1.00  0.00     0.074 A 
ATOM     49  C   UNL A   1      39.896  28.118  27.400  1.00  0.00     0.031 C 
ATOM     50  C   UNL A   1      37.711  31.974  32.682  1.00  0.00     0.029 A 
ATOM     51  C   UNL A   1      38.969  31.265  32.883  1.00  0.00     0.049 A 
ATOM     52  H   UNL A   1      40.018  30.126  31.485  1.00  0.00     0.167 HD
ATOM     53  C   UNL A   1      41.813  27.256  28.716  1.00  0.00     0.034 A 
ATOM     54  C   UNL A   1      39.658  31.243  34.040  1.00  0.00     0.034 A 
ATOM     55  C   UNL A   1      42.653  27.222  29.886  1.00  0.00     0.049 A 
ATOM     56  C   UNL A   1      40.903  30.414  34.135  1.00  0.00     0.074 A 
ATOM     57  C   UNL A   1      43.834  26.523  30.078  1.00  0.00     0.029 A 
ATOM     58  N   UNL A   1      42.416  27.929  31.054  1.00  0.00    -0.354 N 
ATOM     59  N   UNL A   1      41.470  29.674  33.213  1.00  0.00    -0.248 NA
ATOM     60  C   UNL A   1      41.607  30.418  35.425  1.00  0.00     0.031 C 
ATOM     61  C   UNL A   1      44.310  26.811  31.361  1.00  0.00     0.029 A 
ATOM     62  C   UNL A   1      43.428  27.689  31.968  1.00  0.00     0.049 A 
ATOM     63  H   UNL A   1      41.641  28.516  31.211  1.00  0.00     0.167 HD
ATOM     64  C   UNL A   1      42.599  29.127  33.808  1.00  0.00     0.074 A 
ATOM     65  C   UNL A   1      42.655  29.648  35.160  1.00  0.00     0.031 C 
ATOM     66  C   UNL A   1      43.493  28.250  33.292  1.00  0.00     0.034 A 
BRANCH  53  67
ATOM     67  C   UNL A   1      42.232  26.424  27.533  1.00  0.00     0.023 A 
ATOM     68  C   UNL A   1      43.070  26.984  26.551  1.00  0.00     0.012 A 
ATOM     69  C   UNL A   1      41.879  25.062  27.447  1.00  0.00     0.148 A 
ATOM     70  C   UNL A   1      43.540  26.206  25.492  1.00  0.00     0.002 A 
ATOM     71  C   UNL A   1      42.378  24.285  26.408  1.00  0.00     0.091 A 
ATOM     72  F   UNL A   1      41.058  24.552  28.376  1.00  0.00    -0.205 F 
ATOM     73  C   UNL A   1      43.205  24.855  25.428  1.00  0.00     0.022 A 
BRANCH  71  74
ATOM     74  S   UNL A   1      42.053  22.520  26.290  1.00  0.00     0.127 S 
ATOM     75  O   UNL A   1      40.593  22.491  26.244  1.00  0.00    -0.237 OA
ATOM     76  O   UNL A   1      42.709  22.161  25.032  1.00  0.00    -0.237 OA
ATOM     77  O   UNL A   1      42.662  21.930  27.474  1.00  0.00    -0.744 OA
ENDBRANCH  71  74
ENDBRANCH  53  67
BRANCH  54  78
ATOM     78  C   UNL A   1      39.165  32.052  35.190  1.00  0.00     0.023 A 
ATOM     79  C   UNL A   1      38.322  31.453  36.142  1.00  0.00     0.012 A 
ATOM     80  C   UNL A   1      39.617  33.370  35.402  1.00  0.00     0.148 A 
ATOM     81  C   UNL A   1      37.937  32.153  37.287  1.00  0.00     0.002 A 
ATOM     82  C   UNL A   1      39.286  34.034  36.577  1.00  0.00     0.091 A 
ATOM     83  F   UNL A   1      40.395  33.938  34.469  1.00  0.00    -0.205 F 
ATOM     84  C   UNL A   1      38.436  33.433  37.515  1.00  0.00     0.022 A 
BRANCH  82  85
ATOM     85  S   UNL A   1      40.053  35.602  37.006  1.00  0.00     0.127 S 
ATOM     86  O   UNL A   1      39.654  36.451  35.888  1.00  0.00    -0.237 OA
ATOM     87  O   UNL A   1      39.415  35.926  38.284  1.00  0.00    -0.237 OA
ATOM     88  O   UNL A   1      41.476  35.305  37.118  1.00  0.00    -0.744 OA
ENDBRANCH  82  85
ENDBRANCH  54  78
BRANCH  66  89
ATOM     89  C   UNL A   1      44.609  27.797  34.191  1.00  0.00     0.023 A 
ATOM     90  C   UNL A   1      45.794  28.556  34.252  1.00  0.00     0.012 A 
ATOM     91  C   UNL A   1      44.470  26.659  35.007  1.00  0.00     0.148 A 
ATOM     92  C   UNL A   1      46.834  28.176  35.097  1.00  0.00     0.002 A 
ATOM     93  C   UNL A   1      45.500  26.305  35.872  1.00  0.00     0.091 A 
ATOM     94  F   UNL A   1      43.345  25.935  34.915  1.00  0.00    -0.205 F 
ATOM     95  C   UNL A   1      46.685  27.058  35.914  1.00  0.00     0.022 A 
BRANCH  93  96
ATOM     96  S   UNL A   1      45.353  24.918  37.005  1.00  0.00     0.127 S 
ATOM     97  O   UNL A   1      45.293  23.784  36.084  1.00  0.00    -0.237 OA
ATOM     98  O   UNL A   1      46.592  25.008  37.780  1.00  0.00    -0.237 OA
ATOM     99  O   UNL A   1      44.145  25.171  37.779  1.00  0.00    -0.744 OA
ENDBRANCH  93  96
ENDBRANCH  66  89
ENDBRANCH  40  41
ENDBRANCH  33  35
ENDBRANCH  32  33
ENDBRANCH   1  32
TORSDOF 17
ENDMDL
MODEL 3
REMARK VINA RESULT:     -12.8      4.580     10.097
REMARK SMILES C[NH+]1CCC([NH+]2CCC(Oc3ccc4ccccc4c3)(C(=O)OCCOC(=O)c3ccc(-c4c5nc(c(-c6cccc(S(=O)(=O)[O-])c6F)c6ccc([nH]6)c(-c6cccc(S(=O)(=O)[O-])c6F)c6nc(c(-c7cccc(S(=O)(=O)[O-])c7F)c7ccc4[nH]7)C=C6)C=C5)cc3)CC2)CC1
REMARK SMILES IDX 25 1 24 2 23 3 21 4 22 5 9 6 6 7 7 8 93 9 8 11 92 12 5 13
REMARK SMILES IDX 1 14 2 15 3 16 95 17 4 19 94 20 10 21 11 22 12 23 20 24
REMARK SMILES IDX 13 25 19 26 14 27 18 28 15 29 17 30 16 31 26 32 27 33 28 34
REMARK SMILES IDX 29 35 30 36 91 37 31 38 90 39 32 40 33 41 34 42 84 43 35 44
REMARK SMILES IDX 89 45 83 46 85 47 36 48 88 49 82 50 81 51 37 53 69 54 49 55
REMARK SMILES IDX 68 56 50 57 53 58 67 59 86 60 51 61 52 62 66 64 87 65 54 66
REMARK SMILES IDX 38 67 39 68 47 69 40 70 42 71 48 72 41 73 43 74 44 75 45 76
REMARK SMILES IDX 46 77 70 78 71 79 79 80 72 81 74 82 80 83 73 84 75 85 76 86
REMARK SMILES IDX 77 87 78 88 55 89 56 90 64 91 57 92 59 93 65 94 58 95 60 96
REMARK SMILES IDX 61 97 62 98 63 99
REMARK H PARENT 6 10 2 18 85 52 53 63
REMARK Flexibility Score: inf
ROOT
ATOM      1  C   UNL A   1      31.582  29.151  26.451  1.00  0.00     0.275 C 
ENDROOT
BRANCH   1   2
ATOM      2  C   UNL A   1      31.764  27.831  27.194  1.00  0.00     0.274 C 
BRANCH   2   3
ATOM      3  O   UNL A   1      32.549  26.902  26.418  1.00  0.00    -0.459 OA
BRANCH   3   4
ATOM      4  C   UNL A   1      32.010  25.660  26.237  1.00  0.00     0.351 C 
ATOM      5  O   UNL A   1      31.544  24.982  27.148  1.00  0.00    -0.247 OA
BRANCH   4   6
ATOM      6  C   UNL A   1      32.152  25.145  24.790  1.00  0.00     0.216 C 
ATOM      7  N   UNL A   1      30.648  26.872  22.927  1.00  0.00    -0.332 N 
ATOM      8  C   UNL A   1      31.922  27.327  23.499  1.00  0.00     0.267 C 
ATOM      9  C   UNL A   1      29.940  26.003  23.877  1.00  0.00     0.267 C 
ATOM     10  H   UNL A   1      30.887  26.336  22.092  1.00  0.00     0.348 HD
ATOM     11  C   UNL A   1      32.825  26.140  23.834  1.00  0.00     0.122 C 
ATOM     12  C   UNL A   1      30.759  24.765  24.249  1.00  0.00     0.122 C 
BRANCH   7  13
ATOM     13  C   UNL A   1      29.767  27.979  22.454  1.00  0.00     0.195 C 
ATOM     14  C   UNL A   1      27.654  31.736  22.291  1.00  0.00     0.332 C 
ATOM     15  N   UNL A   1      28.473  30.599  22.718  1.00  0.00    -0.337 N 
ATOM     16  C   UNL A   1      29.635  30.433  21.834  1.00  0.00     0.268 C 
ATOM     17  C   UNL A   1      27.663  29.376  22.736  1.00  0.00     0.268 C 
ATOM     18  H   UNL A   1      28.816  30.782  23.661  1.00  0.00     0.347 HD
ATOM     19  C   UNL A   1      30.542  29.304  22.336  1.00  0.00     0.126 C 
ATOM     20  C   UNL A   1      28.478  28.198  23.265  1.00  0.00     0.126 C 
ENDBRANCH   7  13
BRANCH   6  21
ATOM     21  O   UNL A   1      33.065  24.042  25.068  1.00  0.00    -0.475 OA
BRANCH  21  22
ATOM     22  C   UNL A   1      32.805  22.853  24.458  1.00  0.00     0.121 A 
ATOM     23  C   UNL A   1      32.596  22.806  23.086  1.00  0.00     0.047 A 
ATOM     24  C   UNL A   1      32.876  21.678  25.207  1.00  0.00     0.055 A 
ATOM     25  C   UNL A   1      32.390  21.579  22.460  1.00  0.00     0.012 A 
ATOM     26  C   UNL A   1      32.681  20.432  24.587  1.00  0.00    -0.015 A 
ATOM     27  C   UNL A   1      32.428  20.385  23.195  1.00  0.00    -0.018 A 
ATOM     28  C   UNL A   1      32.736  19.230  25.312  1.00  0.00     0.009 A 
ATOM     29  C   UNL A   1      32.228  19.144  22.572  1.00  0.00     0.009 A 
ATOM     30  C   UNL A   1      32.540  18.003  24.676  1.00  0.00     0.001 A 
ATOM     31  C   UNL A   1      32.285  17.960  23.308  1.00  0.00     0.001 A 
ENDBRANCH  21  22
ENDBRANCH   6  21
ENDBRANCH   4   6
ENDBRANCH   3   4
ENDBRANCH   2   3
ENDBRANCH   1   2
BRANCH   1  32
ATOM     32  O   UNL A   1      32.872  29.715  26.179  1.00  0.00    -0.458 OA
BRANCH  32  33
ATOM     33  C   UNL A   1      33.139  30.901  26.767  1.00  0.00     0.338 C 
ATOM     34  O   UNL A   1      32.444  31.909  26.704  1.00  0.00    -0.246 OA
BRANCH  33  35
ATOM     35  C   UNL A   1      34.374  30.812  27.581  1.00  0.00     0.060 A 
ATOM     36  C   UNL A   1      35.183  31.930  27.803  1.00  0.00     0.016 A 
ATOM     37  C   UNL A   1      34.805  29.559  28.024  1.00  0.00     0.016 A 
ATOM     38  C   UNL A   1      36.455  31.781  28.356  1.00  0.00     0.010 A 
ATOM     39  C   UNL A   1      36.035  29.429  28.676  1.00  0.00     0.010 A 
ATOM     40  C   UNL A   1      36.890  30.534  28.826  1.00  0.00    -0.014 A 
BRANCH  40  41
ATOM     41  C   UNL A   1      38.205  30.381  29.510  1.00  0.00     0.031 A 
ATOM     42  C   UNL A   1      39.309  29.563  28.890  1.00  0.00     0.074 A 
ATOM     43  C   UNL A   1      38.394  30.929  30.727  1.00  0.00     0.049 A 
ATOM     44  N   UNL A   1      40.408  29.109  29.434  1.00  0.00    -0.248 NA
ATOM     45  C   UNL A   1      39.148  29.195  27.474  1.00  0.00     0.031 C 
ATOM     46  C   UNL A   1      37.419  31.751  31.444  1.00  0.00     0.029 A 
ATOM     47  N   UNL A   1      39.461  30.854  31.589  1.00  0.00    -0.354 N 
ATOM     48  C   UNL A   1      41.028  28.336  28.458  1.00  0.00     0.074 A 
ATOM     49  C   UNL A   1      40.196  28.403  27.277  1.00  0.00     0.031 C 
ATOM     50  C   UNL A   1      37.931  32.114  32.627  1.00  0.00     0.029 A 
ATOM     51  C   UNL A   1      39.230  31.476  32.795  1.00  0.00     0.049 A 
ATOM     52  H   UNL A   1      40.307  30.401  31.366  1.00  0.00     0.167 HD
ATOM     53  C   UNL A   1      42.189  27.643  28.542  1.00  0.00     0.034 A 
ATOM     54  C   UNL A   1      39.948  31.488  33.935  1.00  0.00     0.034 A 
ATOM     55  C   UNL A   1      43.057  27.651  29.691  1.00  0.00     0.049 A 
ATOM     56  C   UNL A   1      41.239  30.728  33.996  1.00  0.00     0.074 A 
ATOM     57  C   UNL A   1      44.279  27.018  29.851  1.00  0.00     0.029 A 
ATOM     58  N   UNL A   1      42.810  28.341  30.868  1.00  0.00    -0.354 N 
ATOM     59  N   UNL A   1      41.822  30.023  33.057  1.00  0.00    -0.248 NA
ATOM     60  C   UNL A   1      41.972  30.767  35.268  1.00  0.00     0.031 C 
ATOM     61  C   UNL A   1      44.770  27.327  31.124  1.00  0.00     0.029 A 
ATOM     62  C   UNL A   1      43.856  28.153  31.755  1.00  0.00     0.049 A 
ATOM     63  H   UNL A   1      42.008  28.884  31.045  1.00  0.00     0.167 HD
ATOM     64  C   UNL A   1      42.994  29.537  33.622  1.00  0.00     0.074 A 
ATOM     65  C   UNL A   1      43.054  30.056  34.975  1.00  0.00     0.031 C 
ATOM     66  C   UNL A   1      43.922  28.713  33.080  1.00  0.00     0.034 A 
BRANCH  53  67
ATOM     67  C   UNL A   1      42.624  26.839  27.345  1.00  0.00     0.023 A 
ATOM     68  C   UNL A   1      43.438  27.437  26.365  1.00  0.00     0.012 A 
ATOM     69  C   UNL A   1      42.310  25.469  27.243  1.00  0.00     0.148 A 
ATOM     70  C   UNL A   1      43.924  26.687  25.293  1.00  0.00     0.002 A 
ATOM     71  C   UNL A   1      42.824  24.720  26.190  1.00  0.00     0.091 A 
ATOM     72  F   UNL A   1      41.510  24.923  28.170  1.00  0.00    -0.205 F 
ATOM     73  C   UNL A   1      43.628  25.328  25.212  1.00  0.00     0.022 A 
BRANCH  71  74
ATOM     74  S   UNL A   1      42.551  22.949  26.051  1.00  0.00     0.127 S 
ATOM     75  O   UNL A   1      43.144  22.660  24.747  1.00  0.00    -0.237 OA
ATOM     76  O   UNL A   1      43.302  22.423  27.191  1.00  0.00    -0.237 OA
ATOM     77  O   UNL A   1      41.109  22.766  26.145  1.00  0.00    -0.744 OA
ENDBRANCH  71  74
ENDBRANCH  53  67
BRANCH  54  78
ATOM     78  C   UNL A   1      39.440  32.264  35.100  1.00  0.00     0.023 A 
ATOM     79  C   UNL A   1      38.675  31.611  36.082  1.00  0.00     0.012 A 
ATOM     80  C   UNL A   1      39.803  33.612  35.294  1.00  0.00     0.148 A 
ATOM     81  C   UNL A   1      38.282  32.286  37.239  1.00  0.00     0.002 A 
ATOM     82  C   UNL A   1      39.468  34.256  36.479  1.00  0.00     0.091 A 
ATOM     83  F   UNL A   1      40.507  34.230  34.333  1.00  0.00    -0.205 F 
ATOM     84  C   UNL A   1      38.696  33.600  37.447  1.00  0.00     0.022 A 
BRANCH  82  85
ATOM     85  S   UNL A   1      40.136  35.876  36.878  1.00  0.00     0.127 S 
ATOM     86  O   UNL A   1      39.511  36.152  38.167  1.00  0.00    -0.237 OA
ATOM     87  O   UNL A   1      41.576  35.618  36.933  1.00  0.00    -0.237 OA
ATOM     88  O   UNL A   1      39.734  36.730  35.768  1.00  0.00    -0.744 OA
ENDBRANCH  82  85
ENDBRANCH  54  78
BRANCH  66  89
ATOM     89  C   UNL A   1      45.083  28.318  33.950  1.00  0.00     0.023 A 
ATOM     90  C   UNL A   1      46.206  29.166  34.023  1.00  0.00     0.012 A 
ATOM     91  C   UNL A   1      45.045  27.146  34.727  1.00  0.00     0.148 A 
ATOM     92  C   UNL A   1      47.285  28.841  34.842  1.00  0.00     0.002 A 
ATOM     93  C   UNL A   1      46.111  26.845  35.568  1.00  0.00     0.091 A 
ATOM     94  F   UNL A   1      43.979  26.340  34.623  1.00  0.00    -0.205 F 
ATOM     95  C   UNL A   1      47.235  27.687  35.622  1.00  0.00     0.022 A 
BRANCH  93  96
ATOM     96  S   UNL A   1      46.090  25.414  36.654  1.00  0.00     0.127 S 
ATOM     97  O   UNL A   1      44.823  25.594  37.360  1.00  0.00    -0.237 OA
ATOM     98  O   UNL A   1      46.107  24.297  35.708  1.00  0.00    -0.237 OA
ATOM     99  O   UNL A   1      47.292  25.524  37.470  1.00  0.00    -0.744 OA
ENDBRANCH  93  96
ENDBRANCH  66  89
ENDBRANCH  40  41
ENDBRANCH  33  35
ENDBRANCH  32  33
ENDBRANCH   1  32
TORSDOF 17
ENDMDL
