MODEL 1
REMARK VINA RESULT:     -12.3      0.000      0.000
REMARK SMILES CCc1ccnc(C(=O)c2[nH]c3ccc(OC(F)(F)F)cc3c2CC(=O)OCCOC(=O)c2ccc(-c3c4nc(c(-c5cccc(S(=O)(=O)[O-])c5F)c5ccc([nH]5)c(-c5cccc(S(=O)(=O)[O-])c5F)c5nc(c(-c6cccc(S(=O)(=O)[O-])c6F)c6ccc3[nH]6)C=C5)C=C4)cc2)c1
REMARK SMILES IDX 28 1 27 2 25 3 26 4 24 5 23 6 10 7 11 8 12 9 22 11 13 12
REMARK SMILES IDX 21 13 14 14 15 15 8 16 9 17 7 18 3 19 4 20 96 21 5 22 6 23
REMARK SMILES IDX 2 24 1 25 16 26 17 27 18 28 19 29 20 30 29 31 30 32 31 33
REMARK SMILES IDX 32 34 33 35 34 36 95 37 35 38 94 39 36 40 37 41 38 42 88 43
REMARK SMILES IDX 39 44 93 45 87 46 89 47 40 48 92 49 86 50 85 51 41 53 73 54
REMARK SMILES IDX 53 55 72 56 54 57 57 58 71 59 90 60 55 61 56 62 70 64 91 65
REMARK SMILES IDX 58 66 42 67 43 68 51 69 44 70 46 71 52 72 45 73 47 74 48 75
REMARK SMILES IDX 49 76 50 77 74 78 75 79 83 80 76 81 78 82 84 83 77 84 79 85
REMARK SMILES IDX 80 86 81 87 82 88 59 89 60 90 68 91 61 92 63 93 69 94 62 95
REMARK SMILES IDX 64 96 65 97 66 98 67 99
REMARK H PARENT 11 10 89 52 57 63
REMARK Flexibility Score: inf
ROOT
ATOM      1  C   UNL A   1      31.854  30.418  26.073  1.00  0.00     0.274 C 
ENDROOT
BRANCH   1   2
ATOM      2  O   UNL A   1      32.985  29.705  25.528  1.00  0.00    -0.462 OA
BRANCH   2   3
ATOM      3  C   UNL A   1      33.214  28.463  26.024  1.00  0.00     0.310 C 
ATOM      4  O   UNL A   1      33.491  28.231  27.197  1.00  0.00    -0.252 OA
BRANCH   3   5
ATOM      5  C   UNL A   1      32.942  27.343  25.041  1.00  0.00     0.161 C 
BRANCH   5   6
ATOM      6  C   UNL A   1      31.562  26.767  25.004  1.00  0.00     0.000 A 
ATOM      7  C   UNL A   1      31.138  25.526  25.477  1.00  0.00     0.093 A 
ATOM      8  N   UNL A   1      29.791  25.438  25.230  1.00  0.00    -0.352 N 
ATOM      9  C   UNL A   1      29.368  26.480  24.452  1.00  0.00     0.046 A 
ATOM     10  H   UNL A   1      29.206  24.721  25.567  1.00  0.00     0.167 HD
ATOM     11  C   UNL A   1      30.431  27.369  24.349  1.00  0.00     0.008 A 
ATOM     12  C   UNL A   1      28.129  26.695  23.848  1.00  0.00     0.030 A 
ATOM     13  C   UNL A   1      30.219  28.574  23.643  1.00  0.00     0.057 A 
ATOM     14  C   UNL A   1      27.956  27.878  23.126  1.00  0.00     0.049 A 
ATOM     15  C   UNL A   1      28.978  28.823  23.032  1.00  0.00     0.130 A 
BRANCH   7  16
ATOM     16  C   UNL A   1      31.800  24.424  26.160  1.00  0.00     0.227 C 
ATOM     17  O   UNL A   1      31.385  24.041  27.254  1.00  0.00    -0.285 OA
BRANCH  16  18
ATOM     18  C   UNL A   1      32.768  23.554  25.391  1.00  0.00     0.113 A 
ATOM     19  C   UNL A   1      34.995  23.163  24.557  1.00  0.00    -0.044 A 
ATOM     20  C   UNL A   1      34.437  22.338  23.580  1.00  0.00     0.024 A 
ATOM     21  C   UNL A   1      34.145  23.762  25.497  1.00  0.00     0.036 A 
ATOM     22  C   UNL A   1      33.064  22.164  23.566  1.00  0.00     0.112 A 
ATOM     23  N   UNL A   1      32.222  22.757  24.437  1.00  0.00    -0.253 NA
BRANCH  19  24
ATOM     24  C   UNL A   1      36.465  23.499  24.519  1.00  0.00     0.032 C 
ATOM     25  C   UNL A   1      37.013  23.709  25.926  1.00  0.00     0.009 C 
ENDBRANCH  19  24
ENDBRANCH  16  18
ENDBRANCH   7  16
BRANCH  15  26
ATOM     26  O   UNL A   1      28.903  30.022  22.375  1.00  0.00    -0.406 OA
BRANCH  26  27
ATOM     27  C   UNL A   1      28.101  31.037  22.954  1.00  0.00     0.573 C 
ATOM     28  F   UNL A   1      27.349  31.658  22.020  1.00  0.00    -0.132 F 
ATOM     29  F   UNL A   1      27.297  30.542  23.920  1.00  0.00    -0.132 F 
ATOM     30  F   UNL A   1      28.908  31.961  23.522  1.00  0.00    -0.132 F 
ENDBRANCH  26  27
ENDBRANCH  15  26
ENDBRANCH   5   6
ENDBRANCH   3   5
ENDBRANCH   2   3
ENDBRANCH   1   2
BRANCH   1  31
ATOM     31  C   UNL A   1      32.277  31.786  26.621  1.00  0.00     0.275 C 
BRANCH  31  32
ATOM     32  O   UNL A   1      33.137  31.663  27.773  1.00  0.00    -0.458 OA
BRANCH  32  33
ATOM     33  C   UNL A   1      34.161  32.536  27.778  1.00  0.00     0.338 C 
ATOM     34  O   UNL A   1      34.095  33.746  27.565  1.00  0.00    -0.246 OA
BRANCH  33  35
ATOM     35  C   UNL A   1      35.422  31.926  28.180  1.00  0.00     0.060 A 
ATOM     36  C   UNL A   1      35.407  30.595  28.602  1.00  0.00     0.016 A 
ATOM     37  C   UNL A   1      36.549  32.727  28.366  1.00  0.00     0.016 A 
ATOM     38  C   UNL A   1      36.501  30.081  29.288  1.00  0.00     0.010 A 
ATOM     39  C   UNL A   1      37.674  32.184  28.988  1.00  0.00     0.010 A 
ATOM     40  C   UNL A   1      37.646  30.869  29.482  1.00  0.00    -0.014 A 
BRANCH  40  41
ATOM     41  C   UNL A   1      38.829  30.289  30.161  1.00  0.00     0.031 A 
ATOM     42  C   UNL A   1      39.657  29.221  29.509  1.00  0.00     0.074 A 
ATOM     43  C   UNL A   1      39.141  30.736  31.391  1.00  0.00     0.049 A 
ATOM     44  N   UNL A   1      40.706  28.593  29.973  1.00  0.00    -0.248 NA
ATOM     45  C   UNL A   1      39.260  28.803  28.156  1.00  0.00     0.031 C 
ATOM     46  C   UNL A   1      38.396  31.760  32.125  1.00  0.00     0.029 A 
ATOM     47  N   UNL A   1      40.149  30.376  32.247  1.00  0.00    -0.354 N 
ATOM     48  C   UNL A   1      41.083  27.695  28.984  1.00  0.00     0.074 A 
ATOM     49  C   UNL A   1      40.148  27.852  27.890  1.00  0.00     0.031 C 
ATOM     50  C   UNL A   1      38.968  31.944  33.323  1.00  0.00     0.029 A 
ATOM     51  C   UNL A   1      40.087  31.018  33.460  1.00  0.00     0.049 A 
ATOM     52  H   UNL A   1      40.847  29.722  32.016  1.00  0.00     0.167 HD
ATOM     53  C   UNL A   1      42.126  26.831  28.981  1.00  0.00     0.034 A 
ATOM     54  C   UNL A   1      40.828  30.861  34.572  1.00  0.00     0.034 A 
ATOM     55  C   UNL A   1      43.057  26.686  30.068  1.00  0.00     0.049 A 
ATOM     56  C   UNL A   1      41.954  29.870  34.557  1.00  0.00     0.074 A 
ATOM     57  C   UNL A   1      44.169  25.867  30.148  1.00  0.00     0.029 A 
ATOM     58  N   UNL A   1      42.977  27.369  31.272  1.00  0.00    -0.354 N 
ATOM     59  N   UNL A   1      42.368  29.111  33.572  1.00  0.00    -0.248 NA
ATOM     60  C   UNL A   1      42.725  29.724  35.798  1.00  0.00     0.031 C 
ATOM     61  C   UNL A   1      44.756  26.048  31.406  1.00  0.00     0.029 A 
ATOM     62  C   UNL A   1      44.010  26.982  32.108  1.00  0.00     0.049 A 
ATOM     63  H   UNL A   1      42.286  28.033  31.500  1.00  0.00     0.167 HD
ATOM     64  C   UNL A   1      43.455  28.405  34.066  1.00  0.00     0.074 A 
ATOM     65  C   UNL A   1      43.653  28.847  35.433  1.00  0.00     0.031 C 
ATOM     66  C   UNL A   1      44.210  27.460  33.452  1.00  0.00     0.034 A 
BRANCH  53  67
ATOM     67  C   UNL A   1      42.346  26.006  27.742  1.00  0.00     0.023 A 
ATOM     68  C   UNL A   1      43.020  26.582  26.648  1.00  0.00     0.012 A 
ATOM     69  C   UNL A   1      41.942  24.659  27.675  1.00  0.00     0.148 A 
ATOM     70  C   UNL A   1      43.278  25.835  25.498  1.00  0.00     0.002 A 
ATOM     71  C   UNL A   1      42.224  23.913  26.534  1.00  0.00     0.091 A 
ATOM     72  F   UNL A   1      41.271  24.137  28.712  1.00  0.00    -0.205 F 
ATOM     73  C   UNL A   1      42.888  24.500  25.445  1.00  0.00     0.022 A 
BRANCH  71  74
ATOM     74  S   UNL A   1      41.797  22.172  26.407  1.00  0.00     0.127 S 
ATOM     75  O   UNL A   1      40.352  22.237  26.199  1.00  0.00    -0.237 OA
ATOM     76  O   UNL A   1      42.562  21.744  25.234  1.00  0.00    -0.237 OA
ATOM     77  O   UNL A   1      42.234  21.572  27.659  1.00  0.00    -0.744 OA
ENDBRANCH  71  74
ENDBRANCH  53  67
BRANCH  54  78
ATOM     78  C   UNL A   1      40.527  31.699  35.762  1.00  0.00     0.023 A 
ATOM     79  C   UNL A   1      41.373  32.777  36.080  1.00  0.00     0.012 A 
ATOM     80  C   UNL A   1      39.347  31.505  36.509  1.00  0.00     0.148 A 
ATOM     81  C   UNL A   1      41.050  33.646  37.122  1.00  0.00     0.002 A 
ATOM     82  C   UNL A   1      39.003  32.408  37.506  1.00  0.00     0.091 A 
ATOM     83  F   UNL A   1      38.566  30.457  36.208  1.00  0.00    -0.205 F 
ATOM     84  C   UNL A   1      39.857  33.475  37.822  1.00  0.00     0.022 A 
BRANCH  82  85
ATOM     85  S   UNL A   1      37.406  32.334  38.328  1.00  0.00     0.127 S 
ATOM     86  O   UNL A   1      37.671  33.055  39.568  1.00  0.00    -0.237 OA
ATOM     87  O   UNL A   1      36.533  33.033  37.383  1.00  0.00    -0.237 OA
ATOM     88  O   UNL A   1      37.116  30.912  38.459  1.00  0.00    -0.744 OA
ENDBRANCH  82  85
ENDBRANCH  54  78
BRANCH  66  89
ATOM     89  C   UNL A   1      45.310  26.831  34.260  1.00  0.00     0.023 A 
ATOM     90  C   UNL A   1      46.574  27.454  34.298  1.00  0.00     0.012 A 
ATOM     91  C   UNL A   1      45.084  25.672  35.024  1.00  0.00     0.148 A 
ATOM     92  C   UNL A   1      47.603  26.919  35.072  1.00  0.00     0.002 A 
ATOM     93  C   UNL A   1      46.105  25.164  35.820  1.00  0.00     0.091 A 
ATOM     94  F   UNL A   1      43.884  25.079  34.952  1.00  0.00    -0.205 F 
ATOM     95  C   UNL A   1      47.365  25.782  35.840  1.00  0.00     0.022 A 
BRANCH  93  96
ATOM     96  S   UNL A   1      45.841  23.750  36.895  1.00  0.00     0.127 S 
ATOM     97  O   UNL A   1      45.187  22.804  35.993  1.00  0.00    -0.237 OA
ATOM     98  O   UNL A   1      47.205  23.381  37.281  1.00  0.00    -0.237 OA
ATOM     99  O   UNL A   1      45.025  24.247  37.995  1.00  0.00    -0.744 OA
ENDBRANCH  93  96
ENDBRANCH  66  89
ENDBRANCH  40  41
ENDBRANCH  33  35
ENDBRANCH  32  33
ENDBRANCH  31  32
ENDBRANCH   1  31
TORSDOF 20
ENDMDL
MODEL 2
REMARK VINA RESULT:     -12.3      5.145      9.922
REMARK SMILES CCc1ccnc(C(=O)c2[nH]c3ccc(OC(F)(F)F)cc3c2CC(=O)OCCOC(=O)c2ccc(-c3c4nc(c(-c5cccc(S(=O)(=O)[O-])c5F)c5ccc([nH]5)c(-c5cccc(S(=O)(=O)[O-])c5F)c5nc(c(-c6cccc(S(=O)(=O)[O-])c6F)c6ccc3[nH]6)C=C5)C=C4)cc2)c1
REMARK SMILES IDX 28 1 27 2 25 3 26 4 24 5 23 6 10 7 11 8 12 9 22 11 13 12
REMARK SMILES IDX 21 13 14 14 15 15 8 16 9 17 7 18 3 19 4 20 96 21 5 22 6 23
REMARK SMILES IDX 2 24 1 25 16 26 17 27 18 28 19 29 20 30 29 31 30 32 31 33
REMARK SMILES IDX 32 34 33 35 34 36 95 37 35 38 94 39 36 40 37 41 38 42 88 43
REMARK SMILES IDX 39 44 93 45 87 46 89 47 40 48 92 49 86 50 85 51 41 53 73 54
REMARK SMILES IDX 53 55 72 56 54 57 57 58 71 59 90 60 55 61 56 62 70 64 91 65
REMARK SMILES IDX 58 66 42 67 43 68 51 69 44 70 46 71 52 72 45 73 47 74 48 75
REMARK SMILES IDX 49 76 50 77 74 78 75 79 83 80 76 81 78 82 84 83 77 84 79 85
REMARK SMILES IDX 80 86 81 87 82 88 59 89 60 90 68 91 61 92 63 93 69 94 62 95
REMARK SMILES IDX 64 96 65 97 66 98 67 99
REMARK H PARENT 11 10 89 52 57 63
REMARK Flexibility Score: inf
ROOT
ATOM      1  C   UNL A   1      36.047  21.725  24.604  1.00  0.00     0.274 C 
ENDROOT
BRANCH   1   2
ATOM      2  O   UNL A   1      35.890  22.613  23.476  1.00  0.00    -0.462 OA
BRANCH   2   3
ATOM      3  C   UNL A   1      35.242  23.782  23.710  1.00  0.00     0.310 C 
ATOM      4  O   UNL A   1      34.753  24.486  22.832  1.00  0.00    -0.252 OA
BRANCH   3   5
ATOM      5  C   UNL A   1      35.022  24.084  25.178  1.00  0.00     0.161 C 
BRANCH   5   6
ATOM      6  C   UNL A   1      33.615  24.098  25.685  1.00  0.00     0.000 A 
ATOM      7  C   UNL A   1      32.869  23.027  26.174  1.00  0.00     0.093 A 
ATOM      8  N   UNL A   1      31.636  23.519  26.524  1.00  0.00    -0.352 N 
ATOM      9  C   UNL A   1      31.491  24.813  26.108  1.00  0.00     0.046 A 
ATOM     10  H   UNL A   1      30.948  23.009  27.010  1.00  0.00     0.167 HD
ATOM     11  C   UNL A   1      32.731  25.234  25.642  1.00  0.00     0.008 A 
ATOM     12  C   UNL A   1      30.361  25.632  26.121  1.00  0.00     0.030 A 
ATOM     13  C   UNL A   1      32.858  26.574  25.215  1.00  0.00     0.057 A 
ATOM     14  C   UNL A   1      30.504  26.943  25.661  1.00  0.00     0.049 A 
ATOM     15  C   UNL A   1      31.739  27.425  25.226  1.00  0.00     0.130 A 
BRANCH   7  16
ATOM     16  C   UNL A   1      33.150  21.616  26.396  1.00  0.00     0.227 C 
ATOM     17  O   UNL A   1      33.465  21.222  27.518  1.00  0.00    -0.285 OA
BRANCH  16  18
ATOM     18  C   UNL A   1      32.742  20.608  25.346  1.00  0.00     0.113 A 
ATOM     19  C   UNL A   1      32.953  18.404  24.392  1.00  0.00    -0.044 A 
ATOM     20  C   UNL A   1      32.477  18.928  23.190  1.00  0.00     0.024 A 
ATOM     21  C   UNL A   1      33.063  19.257  25.499  1.00  0.00     0.036 A 
ATOM     22  C   UNL A   1      32.154  20.273  23.134  1.00  0.00     0.112 A 
ATOM     23  N   UNL A   1      32.285  21.120  24.175  1.00  0.00    -0.253 NA
BRANCH  19  24
ATOM     24  C   UNL A   1      33.454  16.984  24.457  1.00  0.00     0.032 C 
ATOM     25  C   UNL A   1      34.054  16.554  23.122  1.00  0.00     0.009 C 
ENDBRANCH  19  24
ENDBRANCH  16  18
ENDBRANCH   7  16
BRANCH  15  26
ATOM     26  O   UNL A   1      31.993  28.695  24.784  1.00  0.00    -0.406 OA
BRANCH  26  27
ATOM     27  C   UNL A   1      32.266  29.687  25.759  1.00  0.00     0.573 C 
ATOM     28  F   UNL A   1      31.657  30.853  25.455  1.00  0.00    -0.132 F 
ATOM     29  F   UNL A   1      31.881  29.288  26.991  1.00  0.00    -0.132 F 
ATOM     30  F   UNL A   1      33.600  29.909  25.795  1.00  0.00    -0.132 F 
ENDBRANCH  26  27
ENDBRANCH  15  26
ENDBRANCH   5   6
ENDBRANCH   3   5
ENDBRANCH   2   3
ENDBRANCH   1   2
BRANCH   1  31
ATOM     31  C   UNL A   1      37.459  21.127  24.643  1.00  0.00     0.275 C 
BRANCH  31  32
ATOM     32  O   UNL A   1      37.918  20.915  25.993  1.00  0.00    -0.458 OA
BRANCH  32  33
ATOM     33  C   UNL A   1      39.256  20.988  26.126  1.00  0.00     0.338 C 
ATOM     34  O   UNL A   1      40.077  20.155  25.747  1.00  0.00    -0.246 OA
BRANCH  33  35
ATOM     35  C   UNL A   1      39.698  22.254  26.697  1.00  0.00     0.060 A 
ATOM     36  C   UNL A   1      39.235  23.438  26.118  1.00  0.00     0.016 A 
ATOM     37  C   UNL A   1      40.738  22.267  27.626  1.00  0.00     0.016 A 
ATOM     38  C   UNL A   1      39.871  24.638  26.412  1.00  0.00     0.010 A 
ATOM     39  C   UNL A   1      41.323  23.485  27.976  1.00  0.00     0.010 A 
ATOM     40  C   UNL A   1      40.917  24.673  27.347  1.00  0.00    -0.014 A 
BRANCH  40  41
ATOM     41  C   UNL A   1      41.544  25.970  27.697  1.00  0.00     0.031 A 
ATOM     42  C   UNL A   1      40.782  27.032  28.432  1.00  0.00     0.074 A 
ATOM     43  C   UNL A   1      42.821  26.180  27.328  1.00  0.00     0.049 A 
ATOM     44  N   UNL A   1      41.173  28.226  28.795  1.00  0.00    -0.248 NA
ATOM     45  C   UNL A   1      39.398  26.714  28.817  1.00  0.00     0.031 C 
ATOM     46  C   UNL A   1      43.651  25.222  26.596  1.00  0.00     0.029 A 
ATOM     47  N   UNL A   1      43.635  27.269  27.498  1.00  0.00    -0.354 N 
ATOM     48  C   UNL A   1      40.085  28.810  29.430  1.00  0.00     0.074 A 
ATOM     49  C   UNL A   1      39.009  27.842  29.401  1.00  0.00     0.031 C 
ATOM     50  C   UNL A   1      44.855  25.765  26.375  1.00  0.00     0.029 A 
ATOM     51  C   UNL A   1      44.865  27.125  26.905  1.00  0.00     0.049 A 
ATOM     52  H   UNL A   1      43.365  28.075  27.995  1.00  0.00     0.167 HD
ATOM     53  C   UNL A   1      39.997  30.035  30.000  1.00  0.00     0.034 A 
ATOM     54  C   UNL A   1      45.881  27.997  26.773  1.00  0.00     0.034 A 
ATOM     55  C   UNL A   1      41.074  30.989  30.031  1.00  0.00     0.049 A 
ATOM     56  C   UNL A   1      45.746  29.362  27.380  1.00  0.00     0.074 A 
ATOM     57  C   UNL A   1      41.099  32.242  30.618  1.00  0.00     0.029 A 
ATOM     58  N   UNL A   1      42.314  30.800  29.440  1.00  0.00    -0.354 N 
ATOM     59  N   UNL A   1      44.752  29.856  28.078  1.00  0.00    -0.248 NA
ATOM     60  C   UNL A   1      46.875  30.284  27.199  1.00  0.00     0.031 C 
ATOM     61  C   UNL A   1      42.352  32.815  30.372  1.00  0.00     0.029 A 
ATOM     62  C   UNL A   1      43.108  31.917  29.634  1.00  0.00     0.049 A 
ATOM     63  H   UNL A   1      42.589  29.989  28.954  1.00  0.00     0.167 HD
ATOM     64  C   UNL A   1      45.137  31.142  28.431  1.00  0.00     0.074 A 
ATOM     65  C   UNL A   1      46.469  31.341  27.892  1.00  0.00     0.031 C 
ATOM     66  C   UNL A   1      44.444  32.082  29.120  1.00  0.00     0.034 A 
BRANCH  53  67
ATOM     67  C   UNL A   1      38.706  30.397  30.681  1.00  0.00     0.023 A 
ATOM     68  C   UNL A   1      38.521  30.041  32.031  1.00  0.00     0.012 A 
ATOM     69  C   UNL A   1      37.705  31.131  30.016  1.00  0.00     0.148 A 
ATOM     70  C   UNL A   1      37.353  30.395  32.707  1.00  0.00     0.002 A 
ATOM     71  C   UNL A   1      36.553  31.502  30.704  1.00  0.00     0.091 A 
ATOM     72  F   UNL A   1      37.882  31.432  28.722  1.00  0.00    -0.205 F 
ATOM     73  C   UNL A   1      36.375  31.132  32.047  1.00  0.00     0.022 A 
BRANCH  71  74
ATOM     74  S   UNL A   1      35.266  32.495  29.937  1.00  0.00     0.127 S 
ATOM     75  O   UNL A   1      34.350  32.704  31.057  1.00  0.00    -0.237 OA
ATOM     76  O   UNL A   1      35.997  33.692  29.518  1.00  0.00    -0.237 OA
ATOM     77  O   UNL A   1      34.755  31.689  28.838  1.00  0.00    -0.744 OA
ENDBRANCH  71  74
ENDBRANCH  53  67
BRANCH  54  78
ATOM     78  C   UNL A   1      47.113  27.566  26.063  1.00  0.00     0.023 A 
ATOM     79  C   UNL A   1      48.051  26.758  26.732  1.00  0.00     0.012 A 
ATOM     80  C   UNL A   1      47.305  27.856  24.696  1.00  0.00     0.148 A 
ATOM     81  C   UNL A   1      49.156  26.247  26.052  1.00  0.00     0.002 A 
ATOM     82  C   UNL A   1      48.375  27.295  24.012  1.00  0.00     0.091 A 
ATOM     83  F   UNL A   1      46.414  28.649  24.081  1.00  0.00    -0.205 F 
ATOM     84  C   UNL A   1      49.310  26.498  24.690  1.00  0.00     0.022 A 
BRANCH  82  85
ATOM     85  S   UNL A   1      48.533  27.448  22.229  1.00  0.00     0.127 S 
ATOM     86  O   UNL A   1      47.305  28.153  21.877  1.00  0.00    -0.237 OA
ATOM     87  O   UNL A   1      49.758  28.237  22.088  1.00  0.00    -0.237 OA
ATOM     88  O   UNL A   1      48.652  26.079  21.742  1.00  0.00    -0.744 OA
ENDBRANCH  82  85
ENDBRANCH  54  78
BRANCH  66  89
ATOM     89  C   UNL A   1      45.108  33.415  29.319  1.00  0.00     0.023 A 
ATOM     90  C   UNL A   1      45.922  33.613  30.451  1.00  0.00     0.012 A 
ATOM     91  C   UNL A   1      44.982  34.442  28.366  1.00  0.00     0.148 A 
ATOM     92  C   UNL A   1      46.586  34.824  30.642  1.00  0.00     0.002 A 
ATOM     93  C   UNL A   1      45.675  35.634  28.545  1.00  0.00     0.091 A 
ATOM     94  F   UNL A   1      44.180  34.244  27.309  1.00  0.00    -0.205 F 
ATOM     95  C   UNL A   1      46.472  35.829  29.685  1.00  0.00     0.022 A 
BRANCH  93  96
ATOM     96  S   UNL A   1      45.635  36.939  27.312  1.00  0.00     0.127 S 
ATOM     97  O   UNL A   1      46.523  37.938  27.901  1.00  0.00    -0.237 OA
ATOM     98  O   UNL A   1      46.169  36.273  26.123  1.00  0.00    -0.237 OA
ATOM     99  O   UNL A   1      44.233  37.321  27.200  1.00  0.00    -0.744 OA
ENDBRANCH  93  96
ENDBRANCH  66  89
ENDBRANCH  40  41
ENDBRANCH  33  35
ENDBRANCH  32  33
ENDBRANCH  31  32
ENDBRANCH   1  31
TORSDOF 20
ENDMDL
MODEL 3
REMARK VINA RESULT:     -12.2      5.397     10.572
REMARK SMILES CCc1ccnc(C(=O)c2[nH]c3ccc(OC(F)(F)F)cc3c2CC(=O)OCCOC(=O)c2ccc(-c3c4nc(c(-c5cccc(S(=O)(=O)[O-])c5F)c5ccc([nH]5)c(-c5cccc(S(=O)(=O)[O-])c5F)c5nc(c(-c6cccc(S(=O)(=O)[O-])c6F)c6ccc3[nH]6)C=C5)C=C4)cc2)c1
REMARK SMILES IDX 28 1 27 2 25 3 26 4 24 5 23 6 10 7 11 8 12 9 22 11 13 12
REMARK SMILES IDX 21 13 14 14 15 15 8 16 9 17 7 18 3 19 4 20 96 21 5 22 6 23
REMARK SMILES IDX 2 24 1 25 16 26 17 27 18 28 19 29 20 30 29 31 30 32 31 33
REMARK SMILES IDX 32 34 33 35 34 36 95 37 35 38 94 39 36 40 37 41 38 42 88 43
REMARK SMILES IDX 39 44 93 45 87 46 89 47 40 48 92 49 86 50 85 51 41 53 73 54
REMARK SMILES IDX 53 55 72 56 54 57 57 58 71 59 90 60 55 61 56 62 70 64 91 65
REMARK SMILES IDX 58 66 42 67 43 68 51 69 44 70 46 71 52 72 45 73 47 74 48 75
REMARK SMILES IDX 49 76 50 77 74 78 75 79 83 80 76 81 78 82 84 83 77 84 79 85
REMARK SMILES IDX 80 86 81 87 82 88 59 89 60 90 68 91 61 92 63 93 69 94 62 95
REMARK SMILES IDX 64 96 65 97 66 98 67 99
REMARK H PARENT 11 10 89 52 57 63
REMARK Flexibility Score: inf
ROOT
ATOM      1  C   UNL A   1      35.635  22.437  26.480  1.00  0.00     0.274 C 
ENDROOT
BRANCH   1   2
ATOM      2  O   UNL A   1      34.311  22.736  25.986  1.00  0.00    -0.462 OA
BRANCH   2   3
ATOM      3  C   UNL A   1      33.280  22.491  26.834  1.00  0.00     0.310 C 
ATOM      4  O   UNL A   1      33.361  22.565  28.056  1.00  0.00    -0.252 OA
BRANCH   3   5
ATOM      5  C   UNL A   1      31.949  22.270  26.143  1.00  0.00     0.161 C 
BRANCH   5   6
ATOM      6  C   UNL A   1      31.965  21.958  24.681  1.00  0.00     0.000 A 
ATOM      7  C   UNL A   1      31.630  22.799  23.621  1.00  0.00     0.093 A 
ATOM      8  N   UNL A   1      31.800  22.079  22.464  1.00  0.00    -0.352 N 
ATOM      9  C   UNL A   1      32.043  20.762  22.740  1.00  0.00     0.046 A 
ATOM     10  H   UNL A   1      31.753  22.460  21.558  1.00  0.00     0.167 HD
ATOM     11  C   UNL A   1      32.224  20.660  24.114  1.00  0.00     0.008 A 
ATOM     12  C   UNL A   1      32.123  19.671  21.874  1.00  0.00     0.030 A 
ATOM     13  C   UNL A   1      32.559  19.395  24.645  1.00  0.00     0.057 A 
ATOM     14  C   UNL A   1      32.422  18.424  22.428  1.00  0.00     0.049 A 
ATOM     15  C   UNL A   1      32.657  18.279  23.796  1.00  0.00     0.130 A 
BRANCH   7  16
ATOM     16  C   UNL A   1      31.210  24.190  23.528  1.00  0.00     0.227 C 
ATOM     17  O   UNL A   1      30.084  24.464  23.115  1.00  0.00    -0.285 OA
BRANCH  16  18
ATOM     18  C   UNL A   1      32.018  25.254  24.234  1.00  0.00     0.113 A 
ATOM     19  C   UNL A   1      32.112  27.385  25.356  1.00  0.00    -0.044 A 
ATOM     20  C   UNL A   1      33.465  27.450  25.025  1.00  0.00     0.024 A 
ATOM     21  C   UNL A   1      31.380  26.252  24.974  1.00  0.00     0.036 A 
ATOM     22  C   UNL A   1      34.025  26.403  24.314  1.00  0.00     0.112 A 
ATOM     23  N   UNL A   1      33.334  25.318  23.905  1.00  0.00    -0.253 NA
BRANCH  19  24
ATOM     24  C   UNL A   1      31.429  28.566  25.998  1.00  0.00     0.032 C 
ATOM     25  C   UNL A   1      32.175  29.015  27.250  1.00  0.00     0.009 C 
ENDBRANCH  19  24
ENDBRANCH  16  18
ENDBRANCH   7  16
BRANCH  15  26
ATOM     26  O   UNL A   1      32.983  17.112  24.433  1.00  0.00    -0.406 OA
BRANCH  26  27
ATOM     27  C   UNL A   1      34.299  16.615  24.258  1.00  0.00     0.573 C 
ATOM     28  F   UNL A   1      34.670  15.837  25.298  1.00  0.00    -0.132 F 
ATOM     29  F   UNL A   1      34.413  15.913  23.109  1.00  0.00    -0.132 F 
ATOM     30  F   UNL A   1      35.155  17.659  24.191  1.00  0.00    -0.132 F 
ENDBRANCH  26  27
ENDBRANCH  15  26
ENDBRANCH   5   6
ENDBRANCH   3   5
ENDBRANCH   2   3
ENDBRANCH   1   2
BRANCH   1  31
ATOM     31  C   UNL A   1      36.235  21.229  25.751  1.00  0.00     0.275 C 
BRANCH  31  32
ATOM     32  O   UNL A   1      37.446  21.571  25.045  1.00  0.00    -0.458 OA
BRANCH  32  33
ATOM     33  C   UNL A   1      38.567  21.350  25.758  1.00  0.00     0.338 C 
ATOM     34  O   UNL A   1      39.173  20.285  25.858  1.00  0.00    -0.246 OA
BRANCH  33  35
ATOM     35  C   UNL A   1      39.103  22.564  26.358  1.00  0.00     0.060 A 
ATOM     36  C   UNL A   1      38.681  23.795  25.851  1.00  0.00     0.016 A 
ATOM     37  C   UNL A   1      40.182  22.481  27.238  1.00  0.00     0.016 A 
ATOM     38  C   UNL A   1      39.394  24.946  26.165  1.00  0.00     0.010 A 
ATOM     39  C   UNL A   1      40.848  23.649  27.611  1.00  0.00     0.010 A 
ATOM     40  C   UNL A   1      40.480  24.884  27.051  1.00  0.00    -0.014 A 
BRANCH  40  41
ATOM     41  C   UNL A   1      41.193  26.129  27.425  1.00  0.00     0.031 A 
ATOM     42  C   UNL A   1      40.522  27.199  28.235  1.00  0.00     0.074 A 
ATOM     43  C   UNL A   1      42.463  26.286  27.009  1.00  0.00     0.049 A 
ATOM     44  N   UNL A   1      40.994  28.354  28.627  1.00  0.00    -0.248 NA
ATOM     45  C   UNL A   1      39.140  26.941  28.666  1.00  0.00     0.031 C 
ATOM     46  C   UNL A   1      43.207  25.316  26.204  1.00  0.00     0.029 A 
ATOM     47  N   UNL A   1      43.343  27.321  27.187  1.00  0.00    -0.354 N 
ATOM     48  C   UNL A   1      39.967  28.968  29.331  1.00  0.00     0.074 A 
ATOM     49  C   UNL A   1      38.839  28.062  29.311  1.00  0.00     0.031 C 
ATOM     50  C   UNL A   1      44.430  25.802  25.952  1.00  0.00     0.029 A 
ATOM     51  C   UNL A   1      44.538  27.135  26.535  1.00  0.00     0.049 A 
ATOM     52  H   UNL A   1      43.139  28.118  27.727  1.00  0.00     0.167 HD
ATOM     53  C   UNL A   1      39.971  30.171  29.953  1.00  0.00     0.034 A 
ATOM     54  C   UNL A   1      45.594  27.957  26.395  1.00  0.00     0.034 A 
ATOM     55  C   UNL A   1      41.100  31.063  29.976  1.00  0.00     0.049 A 
ATOM     56  C   UNL A   1      45.560  29.300  27.061  1.00  0.00     0.074 A 
ATOM     57  C   UNL A   1      41.219  32.287  30.611  1.00  0.00     0.029 A 
ATOM     58  N   UNL A   1      42.302  30.833  29.324  1.00  0.00    -0.354 N 
ATOM     59  N   UNL A   1      44.626  29.817  27.821  1.00  0.00    -0.248 NA
ATOM     60  C   UNL A   1      46.731  30.166  26.868  1.00  0.00     0.031 C 
ATOM     61  C   UNL A   1      42.491  32.802  30.333  1.00  0.00     0.029 A 
ATOM     62  C   UNL A   1      43.164  31.896  29.528  1.00  0.00     0.049 A 
ATOM     63  H   UNL A   1      42.512  30.030  28.794  1.00  0.00     0.167 HD
ATOM     64  C   UNL A   1      45.096  31.064  28.207  1.00  0.00     0.074 A 
ATOM     65  C   UNL A   1      46.413  31.213  27.619  1.00  0.00     0.031 C 
ATOM     66  C   UNL A   1      44.485  32.010  28.963  1.00  0.00     0.034 A 
BRANCH  53  67
ATOM     67  C   UNL A   1      38.731  30.573  30.704  1.00  0.00     0.023 A 
ATOM     68  C   UNL A   1      38.645  30.294  32.082  1.00  0.00     0.012 A 
ATOM     69  C   UNL A   1      37.684  31.270  30.073  1.00  0.00     0.148 A 
ATOM     70  C   UNL A   1      37.528  30.688  32.819  1.00  0.00     0.002 A 
ATOM     71  C   UNL A   1      36.583  31.681  30.819  1.00  0.00     0.091 A 
ATOM     72  F   UNL A   1      37.767  31.497  28.754  1.00  0.00    -0.205 F 
ATOM     73  C   UNL A   1      36.503  31.388  32.190  1.00  0.00     0.022 A 
BRANCH  71  74
ATOM     74  S   UNL A   1      35.242  32.632  30.093  1.00  0.00     0.127 S 
ATOM     75  O   UNL A   1      34.357  32.817  31.241  1.00  0.00    -0.237 OA
ATOM     76  O   UNL A   1      35.923  33.849  29.646  1.00  0.00    -0.237 OA
ATOM     77  O   UNL A   1      34.721  31.806  29.013  1.00  0.00    -0.744 OA
ENDBRANCH  71  74
ENDBRANCH  53  67
BRANCH  54  78
ATOM     78  C   UNL A   1      46.770  27.490  25.614  1.00  0.00     0.023 A 
ATOM     79  C   UNL A   1      46.846  27.777  24.239  1.00  0.00     0.012 A 
ATOM     80  C   UNL A   1      47.863  26.865  26.249  1.00  0.00     0.148 A 
ATOM     81  C   UNL A   1      47.989  27.451  23.511  1.00  0.00     0.002 A 
ATOM     82  C   UNL A   1      49.020  26.596  25.530  1.00  0.00     0.091 A 
ATOM     83  F   UNL A   1      47.762  26.575  27.555  1.00  0.00    -0.205 F 
ATOM     84  C   UNL A   1      49.083  26.878  24.157  1.00  0.00     0.022 A 
BRANCH  82  85
ATOM     85  S   UNL A   1      50.514  26.013  26.341  1.00  0.00     0.127 S 
ATOM     86  O   UNL A   1      50.078  24.737  26.896  1.00  0.00    -0.237 OA
ATOM     87  O   UNL A   1      51.457  25.911  25.226  1.00  0.00    -0.237 OA
ATOM     88  O   UNL A   1      50.850  27.054  27.305  1.00  0.00    -0.744 OA
ENDBRANCH  82  85
ENDBRANCH  54  78
BRANCH  66  89
ATOM     89  C   UNL A   1      45.230  33.296  29.186  1.00  0.00     0.023 A 
ATOM     90  C   UNL A   1      46.081  33.410  30.302  1.00  0.00     0.012 A 
ATOM     91  C   UNL A   1      45.142  34.359  28.269  1.00  0.00     0.148 A 
ATOM     92  C   UNL A   1      46.819  34.574  30.513  1.00  0.00     0.002 A 
ATOM     93  C   UNL A   1      45.906  35.503  28.467  1.00  0.00     0.091 A 
ATOM     94  F   UNL A   1      44.304  34.241  27.227  1.00  0.00    -0.205 F 
ATOM     95  C   UNL A   1      46.740  35.614  29.591  1.00  0.00     0.022 A 
BRANCH  93  96
ATOM     96  S   UNL A   1      45.912  36.847  27.276  1.00  0.00     0.127 S 
ATOM     97  O   UNL A   1      46.849  37.787  27.887  1.00  0.00    -0.237 OA
ATOM     98  O   UNL A   1      46.406  36.197  26.060  1.00  0.00    -0.237 OA
ATOM     99  O   UNL A   1      44.528  37.293  27.191  1.00  0.00    -0.744 OA
ENDBRANCH  93  96
ENDBRANCH  66  89
ENDBRANCH  40  41
ENDBRANCH  33  35
ENDBRANCH  32  33
ENDBRANCH  31  32
ENDBRANCH   1  31
TORSDOF 20
ENDMDL
