MODEL 1
REMARK VINA RESULT:     -10.4      0.000      0.000
REMARK SMILES COC(=O)c1cc(CSc2csc(C(=O)OCCOC(=O)c3ccc(-c4c5nc(c(-c6cccc(S(=O)(=O)[O-])c6F)c6ccc([nH]6)c(-c6cccc(S(=O)(=O)[O-])c6F)c6nc(c(-c7cccc(S(=O)(=O)[O-])c7F)c7ccc4[nH]7)C=C6)C=C5)cc3)c2)oc1C
REMARK SMILES IDX 17 1 16 2 14 3 15 4 13 5 10 6 11 7 85 8 12 9 9 10 8 11 7 12
REMARK SMILES IDX 5 13 6 14 87 15 86 16 88 17 3 18 4 19 2 20 1 21 18 22 19 23
REMARK SMILES IDX 20 24 21 25 22 26 23 27 84 28 24 29 83 30 25 31 26 32 27 33
REMARK SMILES IDX 77 34 28 35 82 36 76 37 78 38 29 39 81 40 75 41 74 42 30 44
REMARK SMILES IDX 62 45 42 46 61 47 43 48 46 49 60 50 79 51 44 52 45 53 59 55
REMARK SMILES IDX 80 56 47 57 31 58 32 59 40 60 33 61 35 62 41 63 34 64 36 65
REMARK SMILES IDX 37 66 38 67 39 68 63 69 64 70 72 71 65 72 67 73 73 74 66 75
REMARK SMILES IDX 68 76 69 77 70 78 71 79 48 80 49 81 57 82 50 83 52 84 58 85
REMARK SMILES IDX 51 86 53 87 54 88 55 89 56 90
REMARK H PARENT 78 43 46 54
REMARK Flexibility Score: inf
ROOT
ATOM      1  C   UNL A   1      31.409  30.308  25.856  1.00  0.00     0.275 C 
ENDROOT
BRANCH   1   2
ATOM      2  O   UNL A   1      31.417  28.996  26.459  1.00  0.00    -0.458 OA
BRANCH   2   3
ATOM      3  C   UNL A   1      32.476  28.202  26.111  1.00  0.00     0.348 C 
ATOM      4  O   UNL A   1      33.499  28.103  26.774  1.00  0.00    -0.245 OA
BRANCH   3   5
ATOM      5  C   UNL A   1      32.180  27.445  24.907  1.00  0.00     0.113 A 
ATOM      6  C   UNL A   1      32.242  26.315  22.859  1.00  0.00     0.019 A 
ATOM      7  C   UNL A   1      30.891  26.430  23.075  1.00  0.00     0.080 A 
ATOM      8  C   UNL A   1      32.988  27.001  23.873  1.00  0.00     0.042 A 
ATOM      9  S   UNL A   1      30.562  26.921  24.665  1.00  0.00    -0.136 S 
BRANCH   6  10
ATOM     10  S   UNL A   1      33.015  25.473  21.525  1.00  0.00    -0.117 SA
BRANCH  10  11
ATOM     11  C   UNL A   1      32.799  23.701  21.886  1.00  0.00     0.150 C 
BRANCH  11  12
ATOM     12  C   UNL A   1      33.719  23.099  22.896  1.00  0.00     0.115 A 
ATOM     13  C   UNL A   1      35.408  22.437  24.247  1.00  0.00     0.101 A 
ATOM     14  C   UNL A   1      35.025  23.383  23.250  1.00  0.00     0.062 A 
ATOM     15  C   UNL A   1      34.281  21.661  24.462  1.00  0.00     0.115 A 
ATOM     16  O   UNL A   1      33.255  22.070  23.659  1.00  0.00    -0.465 OA
ATOM     17  C   UNL A   1      33.967  20.545  25.379  1.00  0.00     0.088 C 
BRANCH  13  18
ATOM     18  C   UNL A   1      36.681  22.291  24.935  1.00  0.00     0.341 C 
ATOM     19  O   UNL A   1      36.977  22.906  25.951  1.00  0.00    -0.246 OA
BRANCH  18  20
ATOM     20  O   UNL A   1      37.525  21.440  24.281  1.00  0.00    -0.465 OA
ATOM     21  C   UNL A   1      37.813  20.237  24.999  1.00  0.00     0.282 C 
ENDBRANCH  18  20
ENDBRANCH  13  18
ENDBRANCH  11  12
ENDBRANCH  10  11
ENDBRANCH   6  10
ENDBRANCH   3   5
ENDBRANCH   2   3
ENDBRANCH   1   2
BRANCH   1  22
ATOM     22  C   UNL A   1      31.949  31.379  26.807  1.00  0.00     0.275 C 
BRANCH  22  23
ATOM     23  O   UNL A   1      33.380  31.290  26.930  1.00  0.00    -0.458 OA
BRANCH  23  24
ATOM     24  C   UNL A   1      33.979  32.343  27.534  1.00  0.00     0.338 C 
ATOM     25  O   UNL A   1      33.512  33.455  27.717  1.00  0.00    -0.246 OA
BRANCH  24  26
ATOM     26  C   UNL A   1      35.290  31.935  28.060  1.00  0.00     0.060 A 
ATOM     27  C   UNL A   1      35.523  30.574  28.210  1.00  0.00     0.016 A 
ATOM     28  C   UNL A   1      36.220  32.857  28.529  1.00  0.00     0.016 A 
ATOM     29  C   UNL A   1      36.632  30.113  28.908  1.00  0.00     0.010 A 
ATOM     30  C   UNL A   1      37.393  32.391  29.144  1.00  0.00     0.010 A 
ATOM     31  C   UNL A   1      37.597  31.015  29.367  1.00  0.00    -0.014 A 
BRANCH  31  32
ATOM     32  C   UNL A   1      38.812  30.509  30.065  1.00  0.00     0.031 A 
ATOM     33  C   UNL A   1      39.708  29.497  29.403  1.00  0.00     0.074 A 
ATOM     34  C   UNL A   1      39.112  30.958  31.300  1.00  0.00     0.049 A 
ATOM     35  N   UNL A   1      40.730  28.847  29.899  1.00  0.00    -0.248 NA
ATOM     36  C   UNL A   1      39.415  29.166  27.998  1.00  0.00     0.031 C 
ATOM     37  C   UNL A   1      38.343  31.957  32.048  1.00  0.00     0.029 A 
ATOM     38  N   UNL A   1      40.135  30.624  32.156  1.00  0.00    -0.354 N 
ATOM     39  C   UNL A   1      41.160  27.985  28.897  1.00  0.00     0.074 A 
ATOM     40  C   UNL A   1      40.292  28.201  27.758  1.00  0.00     0.031 C 
ATOM     41  C   UNL A   1      38.920  32.158  33.242  1.00  0.00     0.029 A 
ATOM     42  C   UNL A   1      40.050  31.248  33.380  1.00  0.00     0.049 A 
ATOM     43  H   UNL A   1      40.857  30.000  31.916  1.00  0.00     0.167 HD
ATOM     44  C   UNL A   1      42.185  27.100  28.922  1.00  0.00     0.034 A 
ATOM     45  C   UNL A   1      40.766  31.076  34.508  1.00  0.00     0.034 A 
ATOM     46  C   UNL A   1      43.074  26.925  30.040  1.00  0.00     0.049 A 
ATOM     47  C   UNL A   1      41.879  30.067  34.517  1.00  0.00     0.074 A 
ATOM     48  C   UNL A   1      44.173  26.090  30.142  1.00  0.00     0.029 A 
ATOM     49  N   UNL A   1      42.966  27.590  31.253  1.00  0.00    -0.354 N 
ATOM     50  N   UNL A   1      42.317  29.312  33.539  1.00  0.00    -0.248 NA
ATOM     51  C   UNL A   1      42.606  29.893  35.783  1.00  0.00     0.031 C 
ATOM     52  C   UNL A   1      44.711  26.227  31.427  1.00  0.00     0.029 A 
ATOM     53  C   UNL A   1      43.966  27.171  32.116  1.00  0.00     0.049 A 
ATOM     54  H   UNL A   1      42.279  28.262  31.468  1.00  0.00     0.167 HD
ATOM     55  C   UNL A   1      43.380  28.588  34.063  1.00  0.00     0.074 A 
ATOM     56  C   UNL A   1      43.541  29.019  35.437  1.00  0.00     0.031 C 
ATOM     57  C   UNL A   1      44.140  27.637  33.467  1.00  0.00     0.034 A 
BRANCH  44  58
ATOM     58  C   UNL A   1      42.411  26.252  27.696  1.00  0.00     0.023 A 
ATOM     59  C   UNL A   1      43.127  26.774  26.599  1.00  0.00     0.012 A 
ATOM     60  C   UNL A   1      41.962  24.917  27.653  1.00  0.00     0.148 A 
ATOM     61  C   UNL A   1      43.362  25.993  25.467  1.00  0.00     0.002 A 
ATOM     62  C   UNL A   1      42.237  24.131  26.539  1.00  0.00     0.091 A 
ATOM     63  F   UNL A   1      41.266  24.442  28.697  1.00  0.00    -0.205 F 
ATOM     64  C   UNL A   1      42.926  24.671  25.442  1.00  0.00     0.022 A 
BRANCH  62  65
ATOM     65  S   UNL A   1      41.785  22.395  26.441  1.00  0.00     0.127 S 
ATOM     66  O   UNL A   1      42.310  21.882  27.707  1.00  0.00    -0.237 OA
ATOM     67  O   UNL A   1      40.325  22.461  26.370  1.00  0.00    -0.237 OA
ATOM     68  O   UNL A   1      42.429  21.878  25.242  1.00  0.00    -0.744 OA
ENDBRANCH  62  65
ENDBRANCH  44  58
BRANCH  45  69
ATOM     69  C   UNL A   1      40.441  31.876  35.724  1.00  0.00     0.023 A 
ATOM     70  C   UNL A   1      41.327  32.885  36.149  1.00  0.00     0.012 A 
ATOM     71  C   UNL A   1      39.246  31.665  36.442  1.00  0.00     0.148 A 
ATOM     72  C   UNL A   1      41.039  33.653  37.277  1.00  0.00     0.002 A 
ATOM     73  C   UNL A   1      38.937  32.473  37.528  1.00  0.00     0.091 A 
ATOM     74  F   UNL A   1      38.426  30.686  36.034  1.00  0.00    -0.205 F 
ATOM     75  C   UNL A   1      39.840  33.457  37.958  1.00  0.00     0.022 A 
BRANCH  73  76
ATOM     76  S   UNL A   1      37.357  32.381  38.378  1.00  0.00     0.127 S 
ATOM     77  O   UNL A   1      36.457  32.987  37.400  1.00  0.00    -0.237 OA
ATOM     78  O   UNL A   1      37.193  30.938  38.556  1.00  0.00    -0.237 OA
ATOM     79  O   UNL A   1      37.535  33.123  39.619  1.00  0.00    -0.744 OA
ENDBRANCH  73  76
ENDBRANCH  45  69
BRANCH  57  80
ATOM     80  C   UNL A   1      45.234  27.008  34.290  1.00  0.00     0.023 A 
ATOM     81  C   UNL A   1      46.515  27.595  34.313  1.00  0.00     0.012 A 
ATOM     82  C   UNL A   1      44.977  25.875  35.087  1.00  0.00     0.148 A 
ATOM     83  C   UNL A   1      47.532  27.046  35.093  1.00  0.00     0.002 A 
ATOM     84  C   UNL A   1      45.982  25.363  35.900  1.00  0.00     0.091 A 
ATOM     85  F   UNL A   1      43.757  25.321  35.036  1.00  0.00    -0.205 F 
ATOM     86  C   UNL A   1      47.262  25.940  35.895  1.00  0.00     0.022 A 
BRANCH  84  87
ATOM     87  S   UNL A   1      45.702  23.999  37.034  1.00  0.00     0.127 S 
ATOM     88  O   UNL A   1      47.033  23.813  37.610  1.00  0.00    -0.237 OA
ATOM     89  O   UNL A   1      44.713  24.560  37.955  1.00  0.00    -0.237 OA
ATOM     90  O   UNL A   1      45.214  22.893  36.222  1.00  0.00    -0.744 OA
ENDBRANCH  84  87
ENDBRANCH  57  80
ENDBRANCH  31  32
ENDBRANCH  24  26
ENDBRANCH  23  24
ENDBRANCH  22  23
ENDBRANCH   1  22
TORSDOF 19
ENDMDL
MODEL 2
REMARK VINA RESULT:     -10.3      6.428     10.351
REMARK SMILES COC(=O)c1cc(CSc2csc(C(=O)OCCOC(=O)c3ccc(-c4c5nc(c(-c6cccc(S(=O)(=O)[O-])c6F)c6ccc([nH]6)c(-c6cccc(S(=O)(=O)[O-])c6F)c6nc(c(-c7cccc(S(=O)(=O)[O-])c7F)c7ccc4[nH]7)C=C6)C=C5)cc3)c2)oc1C
REMARK SMILES IDX 17 1 16 2 14 3 15 4 13 5 10 6 11 7 85 8 12 9 9 10 8 11 7 12
REMARK SMILES IDX 5 13 6 14 87 15 86 16 88 17 3 18 4 19 2 20 1 21 18 22 19 23
REMARK SMILES IDX 20 24 21 25 22 26 23 27 84 28 24 29 83 30 25 31 26 32 27 33
REMARK SMILES IDX 77 34 28 35 82 36 76 37 78 38 29 39 81 40 75 41 74 42 30 44
REMARK SMILES IDX 62 45 42 46 61 47 43 48 46 49 60 50 79 51 44 52 45 53 59 55
REMARK SMILES IDX 80 56 47 57 31 58 32 59 40 60 33 61 35 62 41 63 34 64 36 65
REMARK SMILES IDX 37 66 38 67 39 68 63 69 64 70 72 71 65 72 67 73 73 74 66 75
REMARK SMILES IDX 68 76 69 77 70 78 71 79 48 80 49 81 57 82 50 83 52 84 58 85
REMARK SMILES IDX 51 86 53 87 54 88 55 89 56 90
REMARK H PARENT 78 43 46 54
REMARK Flexibility Score: inf
ROOT
ATOM      1  C   UNL A   1      42.191  19.128  26.439  1.00  0.00     0.275 C 
ENDROOT
BRANCH   1   2
ATOM      2  O   UNL A   1      41.615  20.249  25.733  1.00  0.00    -0.458 OA
BRANCH   2   3
ATOM      3  C   UNL A   1      41.371  21.357  26.498  1.00  0.00     0.348 C 
ATOM      4  O   UNL A   1      42.209  21.887  27.215  1.00  0.00    -0.245 OA
BRANCH   3   5
ATOM      5  C   UNL A   1      40.023  21.850  26.278  1.00  0.00     0.113 A 
ATOM      6  C   UNL A   1      37.790  22.164  25.650  1.00  0.00     0.019 A 
ATOM      7  C   UNL A   1      38.145  23.424  26.063  1.00  0.00     0.080 A 
ATOM      8  C   UNL A   1      38.916  21.275  25.676  1.00  0.00     0.042 A 
ATOM      9  S   UNL A   1      39.627  23.407  26.888  1.00  0.00    -0.136 S 
BRANCH   6  10
ATOM     10  S   UNL A   1      36.194  21.651  25.128  1.00  0.00    -0.117 SA
BRANCH  10  11
ATOM     11  C   UNL A   1      35.027  22.720  26.029  1.00  0.00     0.150 C 
BRANCH  11  12
ATOM     12  C   UNL A   1      34.490  23.904  25.296  1.00  0.00     0.115 A 
ATOM     13  C   UNL A   1      33.703  25.448  23.842  1.00  0.00     0.101 A 
ATOM     14  C   UNL A   1      34.061  24.075  23.992  1.00  0.00     0.062 A 
ATOM     15  C   UNL A   1      33.901  26.013  25.091  1.00  0.00     0.115 A 
ATOM     16  O   UNL A   1      34.360  25.078  25.974  1.00  0.00    -0.465 OA
ATOM     17  C   UNL A   1      33.686  27.366  25.647  1.00  0.00     0.088 C 
BRANCH  13  18
ATOM     18  C   UNL A   1      33.210  26.145  22.664  1.00  0.00     0.341 C 
ATOM     19  O   UNL A   1      33.838  26.233  21.617  1.00  0.00    -0.246 OA
BRANCH  18  20
ATOM     20  O   UNL A   1      32.002  26.739  22.885  1.00  0.00    -0.465 OA
ATOM     21  C   UNL A   1      30.906  25.823  22.962  1.00  0.00     0.282 C 
ENDBRANCH  18  20
ENDBRANCH  13  18
ENDBRANCH  11  12
ENDBRANCH  10  11
ENDBRANCH   6  10
ENDBRANCH   3   5
ENDBRANCH   2   3
ENDBRANCH   1   2
BRANCH   1  22
ATOM     22  C   UNL A   1      43.333  18.481  25.651  1.00  0.00     0.275 C 
BRANCH  22  23
ATOM     23  O   UNL A   1      43.647  19.242  24.470  1.00  0.00    -0.458 OA
BRANCH  23  24
ATOM     24  C   UNL A   1      44.903  19.741  24.415  1.00  0.00     0.338 C 
ATOM     25  O   UNL A   1      45.895  19.199  23.954  1.00  0.00    -0.246 OA
BRANCH  24  26
ATOM     26  C   UNL A   1      44.912  21.125  24.910  1.00  0.00     0.060 A 
ATOM     27  C   UNL A   1      44.533  22.124  24.022  1.00  0.00     0.016 A 
ATOM     28  C   UNL A   1      45.410  21.461  26.164  1.00  0.00     0.016 A 
ATOM     29  C   UNL A   1      44.731  23.463  24.329  1.00  0.00     0.010 A 
ATOM     30  C   UNL A   1      45.515  22.815  26.517  1.00  0.00     0.010 A 
ATOM     31  C   UNL A   1      45.204  23.831  25.592  1.00  0.00    -0.014 A 
BRANCH  31  32
ATOM     32  C   UNL A   1      45.359  25.273  25.934  1.00  0.00     0.031 A 
ATOM     33  C   UNL A   1      46.707  25.938  25.857  1.00  0.00     0.074 A 
ATOM     34  C   UNL A   1      44.283  25.991  26.316  1.00  0.00     0.049 A 
ATOM     35  N   UNL A   1      47.060  27.139  26.236  1.00  0.00    -0.248 NA
ATOM     36  C   UNL A   1      47.808  25.145  25.285  1.00  0.00     0.031 C 
ATOM     37  C   UNL A   1      42.913  25.478  26.409  1.00  0.00     0.029 A 
ATOM     38  N   UNL A   1      44.170  27.301  26.713  1.00  0.00    -0.354 N 
ATOM     39  C   UNL A   1      48.429  27.226  26.013  1.00  0.00     0.074 A 
ATOM     40  C   UNL A   1      48.844  25.956  25.455  1.00  0.00     0.031 C 
ATOM     41  C   UNL A   1      42.101  26.459  26.829  1.00  0.00     0.029 A 
ATOM     42  C   UNL A   1      42.898  27.645  27.113  1.00  0.00     0.049 A 
ATOM     43  H   UNL A   1      44.925  27.933  26.713  1.00  0.00     0.167 HD
ATOM     44  C   UNL A   1      49.262  28.269  26.245  1.00  0.00     0.034 A 
ATOM     45  C   UNL A   1      42.429  28.768  27.691  1.00  0.00     0.034 A 
ATOM     46  C   UNL A   1      48.835  29.546  26.755  1.00  0.00     0.049 A 
ATOM     47  C   UNL A   1      43.380  29.898  27.964  1.00  0.00     0.074 A 
ATOM     48  C   UNL A   1      49.595  30.681  26.976  1.00  0.00     0.029 A 
ATOM     49  N   UNL A   1      47.536  29.858  27.127  1.00  0.00    -0.354 N 
ATOM     50  N   UNL A   1      44.657  29.989  27.680  1.00  0.00    -0.248 NA
ATOM     51  C   UNL A   1      42.824  31.087  28.626  1.00  0.00     0.031 C 
ATOM     52  C   UNL A   1      48.762  31.669  27.512  1.00  0.00     0.029 A 
ATOM     53  C   UNL A   1      47.476  31.161  27.595  1.00  0.00     0.049 A 
ATOM     54  H   UNL A   1      46.769  29.244  27.068  1.00  0.00     0.167 HD
ATOM     55  C   UNL A   1      45.053  31.248  28.112  1.00  0.00     0.074 A 
ATOM     56  C   UNL A   1      43.873  31.897  28.647  1.00  0.00     0.031 C 
ATOM     57  C   UNL A   1      46.287  31.809  28.088  1.00  0.00     0.034 A 
BRANCH  44  58
ATOM     58  C   UNL A   1      50.727  28.079  25.943  1.00  0.00     0.023 A 
ATOM     59  C   UNL A   1      51.213  28.308  24.640  1.00  0.00     0.012 A 
ATOM     60  C   UNL A   1      51.631  27.728  26.966  1.00  0.00     0.148 A 
ATOM     61  C   UNL A   1      52.570  28.156  24.352  1.00  0.00     0.002 A 
ATOM     62  C   UNL A   1      52.988  27.622  26.680  1.00  0.00     0.091 A 
ATOM     63  F   UNL A   1      51.149  27.496  28.195  1.00  0.00    -0.205 F 
ATOM     64  C   UNL A   1      53.457  27.823  25.372  1.00  0.00     0.022 A 
BRANCH  62  65
ATOM     65  S   UNL A   1      54.220  27.272  27.941  1.00  0.00     0.127 S 
ATOM     66  O   UNL A   1      55.455  27.283  27.157  1.00  0.00    -0.237 OA
ATOM     67  O   UNL A   1      54.063  28.410  28.847  1.00  0.00    -0.237 OA
ATOM     68  O   UNL A   1      53.855  25.984  28.513  1.00  0.00    -0.744 OA
ENDBRANCH  62  65
ENDBRANCH  44  58
BRANCH  45  69
ATOM     69  C   UNL A   1      40.986  28.870  28.055  1.00  0.00     0.023 A 
ATOM     70  C   UNL A   1      40.043  29.214  27.067  1.00  0.00     0.012 A 
ATOM     71  C   UNL A   1      40.541  28.595  29.363  1.00  0.00     0.148 A 
ATOM     72  C   UNL A   1      38.686  29.305  27.382  1.00  0.00     0.002 A 
ATOM     73  C   UNL A   1      39.183  28.628  29.656  1.00  0.00     0.091 A 
ATOM     74  F   UNL A   1      41.456  28.289  30.294  1.00  0.00    -0.205 F 
ATOM     75  C   UNL A   1      38.255  29.000  28.671  1.00  0.00     0.022 A 
BRANCH  73  76
ATOM     76  S   UNL A   1      38.529  28.120  31.250  1.00  0.00     0.127 S 
ATOM     77  O   UNL A   1      37.194  28.713  31.227  1.00  0.00    -0.237 OA
ATOM     78  O   UNL A   1      38.556  26.661  31.137  1.00  0.00    -0.237 OA
ATOM     79  O   UNL A   1      39.445  28.663  32.243  1.00  0.00    -0.744 OA
ENDBRANCH  73  76
ENDBRANCH  45  69
BRANCH  57  80
ATOM     80  C   UNL A   1      46.426  33.205  28.636  1.00  0.00     0.023 A 
ATOM     81  C   UNL A   1      46.801  33.391  29.982  1.00  0.00     0.012 A 
ATOM     82  C   UNL A   1      46.245  34.328  27.805  1.00  0.00     0.148 A 
ATOM     83  C   UNL A   1      46.964  34.675  30.500  1.00  0.00     0.002 A 
ATOM     84  C   UNL A   1      46.459  35.603  28.316  1.00  0.00     0.091 A 
ATOM     85  F   UNL A   1      45.870  34.129  26.534  1.00  0.00    -0.205 F 
ATOM     86  C   UNL A   1      46.806  35.779  29.665  1.00  0.00     0.022 A 
BRANCH  84  87
ATOM     87  S   UNL A   1      46.369  37.078  27.294  1.00  0.00     0.127 S 
ATOM     88  O   UNL A   1      47.053  38.062  28.132  1.00  0.00    -0.237 OA
ATOM     89  O   UNL A   1      47.112  36.672  26.100  1.00  0.00    -0.237 OA
ATOM     90  O   UNL A   1      44.952  37.327  27.070  1.00  0.00    -0.744 OA
ENDBRANCH  84  87
ENDBRANCH  57  80
ENDBRANCH  31  32
ENDBRANCH  24  26
ENDBRANCH  23  24
ENDBRANCH  22  23
ENDBRANCH   1  22
TORSDOF 19
ENDMDL
MODEL 3
REMARK VINA RESULT:     -10.3      2.509      3.160
REMARK SMILES COC(=O)c1cc(CSc2csc(C(=O)OCCOC(=O)c3ccc(-c4c5nc(c(-c6cccc(S(=O)(=O)[O-])c6F)c6ccc([nH]6)c(-c6cccc(S(=O)(=O)[O-])c6F)c6nc(c(-c7cccc(S(=O)(=O)[O-])c7F)c7ccc4[nH]7)C=C6)C=C5)cc3)c2)oc1C
REMARK SMILES IDX 17 1 16 2 14 3 15 4 13 5 10 6 11 7 85 8 12 9 9 10 8 11 7 12
REMARK SMILES IDX 5 13 6 14 87 15 86 16 88 17 3 18 4 19 2 20 1 21 18 22 19 23
REMARK SMILES IDX 20 24 21 25 22 26 23 27 84 28 24 29 83 30 25 31 26 32 27 33
REMARK SMILES IDX 77 34 28 35 82 36 76 37 78 38 29 39 81 40 75 41 74 42 30 44
REMARK SMILES IDX 62 45 42 46 61 47 43 48 46 49 60 50 79 51 44 52 45 53 59 55
REMARK SMILES IDX 80 56 47 57 31 58 32 59 40 60 33 61 35 62 41 63 34 64 36 65
REMARK SMILES IDX 37 66 38 67 39 68 63 69 64 70 72 71 65 72 67 73 73 74 66 75
REMARK SMILES IDX 68 76 69 77 70 78 71 79 48 80 49 81 57 82 50 83 52 84 58 85
REMARK SMILES IDX 51 86 53 87 54 88 55 89 56 90
REMARK H PARENT 78 43 46 54
REMARK Flexibility Score: inf
ROOT
ATOM      1  C   UNL A   1      33.126  31.334  27.293  1.00  0.00     0.275 C 
ENDROOT
BRANCH   1   2
ATOM      2  O   UNL A   1      32.605  30.471  26.259  1.00  0.00    -0.458 OA
BRANCH   2   3
ATOM      3  C   UNL A   1      33.408  29.416  25.921  1.00  0.00     0.348 C 
ATOM      4  O   UNL A   1      34.381  29.064  26.574  1.00  0.00    -0.245 OA
BRANCH   3   5
ATOM      5  C   UNL A   1      32.901  28.738  24.741  1.00  0.00     0.113 A 
ATOM      6  C   UNL A   1      32.592  27.422  22.831  1.00  0.00     0.019 A 
ATOM      7  C   UNL A   1      31.504  28.257  22.775  1.00  0.00     0.080 A 
ATOM      8  C   UNL A   1      33.460  27.775  23.917  1.00  0.00     0.042 A 
ATOM      9  S   UNL A   1      31.300  29.101  24.233  1.00  0.00    -0.136 S 
BRANCH   6  10
ATOM     10  S   UNL A   1      32.943  26.094  21.735  1.00  0.00    -0.117 SA
BRANCH  10  11
ATOM     11  C   UNL A   1      32.179  24.628  22.497  1.00  0.00     0.150 C 
BRANCH  11  12
ATOM     12  C   UNL A   1      33.075  23.728  23.282  1.00  0.00     0.115 A 
ATOM     13  C   UNL A   1      34.199  22.051  24.302  1.00  0.00     0.101 A 
ATOM     14  C   UNL A   1      33.217  22.353  23.312  1.00  0.00     0.062 A 
ATOM     15  C   UNL A   1      34.621  23.281  24.781  1.00  0.00     0.115 A 
ATOM     16  O   UNL A   1      33.955  24.294  24.154  1.00  0.00    -0.465 OA
ATOM     17  C   UNL A   1      35.636  23.700  25.770  1.00  0.00     0.088 C 
BRANCH  13  18
ATOM     18  C   UNL A   1      34.700  20.756  24.735  1.00  0.00     0.341 C 
ATOM     19  O   UNL A   1      35.798  20.591  25.251  1.00  0.00    -0.246 OA
BRANCH  18  20
ATOM     20  O   UNL A   1      33.831  19.744  24.442  1.00  0.00    -0.465 OA
ATOM     21  C   UNL A   1      32.914  19.439  25.497  1.00  0.00     0.282 C 
ENDBRANCH  18  20
ENDBRANCH  13  18
ENDBRANCH  11  12
ENDBRANCH  10  11
ENDBRANCH   6  10
ENDBRANCH   3   5
ENDBRANCH   2   3
ENDBRANCH   1   2
BRANCH   1  22
ATOM     22  C   UNL A   1      32.430  32.698  27.305  1.00  0.00     0.275 C 
BRANCH  22  23
ATOM     23  O   UNL A   1      33.382  33.766  27.457  1.00  0.00    -0.458 OA
BRANCH  23  24
ATOM     24  C   UNL A   1      33.378  34.383  28.662  1.00  0.00     0.338 C 
ATOM     25  O   UNL A   1      32.537  35.151  29.097  1.00  0.00    -0.246 OA
BRANCH  24  26
ATOM     26  C   UNL A   1      34.516  33.912  29.465  1.00  0.00     0.060 A 
ATOM     27  C   UNL A   1      35.785  34.323  29.080  1.00  0.00     0.016 A 
ATOM     28  C   UNL A   1      34.366  32.979  30.487  1.00  0.00     0.016 A 
ATOM     29  C   UNL A   1      36.920  33.747  29.634  1.00  0.00     0.010 A 
ATOM     30  C   UNL A   1      35.511  32.471  31.120  1.00  0.00     0.010 A 
ATOM     31  C   UNL A   1      36.801  32.827  30.681  1.00  0.00    -0.014 A 
BRANCH  31  32
ATOM     32  C   UNL A   1      38.026  32.257  31.309  1.00  0.00     0.031 A 
ATOM     33  C   UNL A   1      38.764  31.120  30.654  1.00  0.00     0.074 A 
ATOM     34  C   UNL A   1      38.478  32.762  32.475  1.00  0.00     0.049 A 
ATOM     35  N   UNL A   1      39.765  30.413  31.110  1.00  0.00    -0.248 NA
ATOM     36  C   UNL A   1      38.313  30.720  29.310  1.00  0.00     0.031 C 
ATOM     37  C   UNL A   1      37.873  33.879  33.205  1.00  0.00     0.029 A 
ATOM     38  N   UNL A   1      39.542  32.393  33.262  1.00  0.00    -0.354 N 
ATOM     39  C   UNL A   1      40.022  29.445  30.146  1.00  0.00     0.074 A 
ATOM     40  C   UNL A   1      39.075  29.661  29.072  1.00  0.00     0.031 C 
ATOM     41  C   UNL A   1      38.574  34.108  34.324  1.00  0.00     0.029 A 
ATOM     42  C   UNL A   1      39.628  33.107  34.436  1.00  0.00     0.049 A 
ATOM     43  H   UNL A   1      40.181  31.688  33.012  1.00  0.00     0.167 HD
ATOM     44  C   UNL A   1      40.963  28.470  30.152  1.00  0.00     0.034 A 
ATOM     45  C   UNL A   1      40.427  32.948  35.509  1.00  0.00     0.034 A 
ATOM     46  C   UNL A   1      41.934  28.291  31.200  1.00  0.00     0.049 A 
ATOM     47  C   UNL A   1      41.442  31.841  35.501  1.00  0.00     0.074 A 
ATOM     48  C   UNL A   1      42.959  27.364  31.273  1.00  0.00     0.029 A 
ATOM     49  N   UNL A   1      41.998  29.047  32.361  1.00  0.00    -0.354 N 
ATOM     50  N   UNL A   1      41.719  30.981  34.552  1.00  0.00    -0.248 NA
ATOM     51  C   UNL A   1      42.266  31.688  36.710  1.00  0.00     0.031 C 
ATOM     52  C   UNL A   1      43.624  27.540  32.492  1.00  0.00     0.029 A 
ATOM     53  C   UNL A   1      43.032  28.597  33.165  1.00  0.00     0.049 A 
ATOM     54  H   UNL A   1      41.396  29.795  32.581  1.00  0.00     0.167 HD
ATOM     55  C   UNL A   1      42.758  30.198  35.038  1.00  0.00     0.074 A 
ATOM     56  C   UNL A   1      43.083  30.707  36.355  1.00  0.00     0.031 C 
ATOM     57  C   UNL A   1      43.372  29.138  34.456  1.00  0.00     0.034 A 
BRANCH  44  58
ATOM     58  C   UNL A   1      40.999  27.520  28.982  1.00  0.00     0.023 A 
ATOM     59  C   UNL A   1      40.081  26.452  28.913  1.00  0.00     0.012 A 
ATOM     60  C   UNL A   1      41.906  27.719  27.922  1.00  0.00     0.148 A 
ATOM     61  C   UNL A   1      40.089  25.577  27.826  1.00  0.00     0.002 A 
ATOM     62  C   UNL A   1      41.879  26.870  26.822  1.00  0.00     0.091 A 
ATOM     63  F   UNL A   1      42.784  28.728  28.013  1.00  0.00    -0.205 F 
ATOM     64  C   UNL A   1      40.980  25.792  26.778  1.00  0.00     0.022 A 
BRANCH  62  65
ATOM     65  S   UNL A   1      42.934  27.107  25.387  1.00  0.00     0.127 S 
ATOM     66  O   UNL A   1      42.818  25.812  24.718  1.00  0.00    -0.237 OA
ATOM     67  O   UNL A   1      42.268  28.211  24.696  1.00  0.00    -0.237 OA
ATOM     68  O   UNL A   1      44.256  27.426  25.908  1.00  0.00    -0.744 OA
ENDBRANCH  62  65
ENDBRANCH  44  58
BRANCH  45  69
ATOM     69  C   UNL A   1      40.289  33.859  36.681  1.00  0.00     0.023 A 
ATOM     70  C   UNL A   1      39.204  33.695  37.565  1.00  0.00     0.012 A 
ATOM     71  C   UNL A   1      41.242  34.864  36.944  1.00  0.00     0.148 A 
ATOM     72  C   UNL A   1      39.060  34.529  38.674  1.00  0.00     0.002 A 
ATOM     73  C   UNL A   1      41.126  35.650  38.082  1.00  0.00     0.091 A 
ATOM     74  F   UNL A   1      42.256  35.017  36.080  1.00  0.00    -0.205 F 
ATOM     75  C   UNL A   1      40.027  35.496  38.941  1.00  0.00     0.022 A 
BRANCH  73  76
ATOM     76  S   UNL A   1      42.392  36.826  38.574  1.00  0.00     0.127 S 
ATOM     77  O   UNL A   1      43.399  35.948  39.167  1.00  0.00    -0.237 OA
ATOM     78  O   UNL A   1      42.771  37.418  37.291  1.00  0.00    -0.237 OA
ATOM     79  O   UNL A   1      41.738  37.748  39.492  1.00  0.00    -0.744 OA
ENDBRANCH  73  76
ENDBRANCH  45  69
BRANCH  57  80
ATOM     80  C   UNL A   1      44.478  28.468  35.229  1.00  0.00     0.023 A 
ATOM     81  C   UNL A   1      45.818  28.823  34.979  1.00  0.00     0.012 A 
ATOM     82  C   UNL A   1      44.186  27.535  36.243  1.00  0.00     0.148 A 
ATOM     83  C   UNL A   1      46.854  28.237  35.705  1.00  0.00     0.002 A 
ATOM     84  C   UNL A   1      45.220  26.992  36.996  1.00  0.00     0.091 A 
ATOM     85  F   UNL A   1      42.906  27.196  36.452  1.00  0.00    -0.205 F 
ATOM     86  C   UNL A   1      46.555  27.332  36.721  1.00  0.00     0.022 A 
BRANCH  84  87
ATOM     87  S   UNL A   1      44.926  25.890  38.384  1.00  0.00     0.127 S 
ATOM     88  O   UNL A   1      44.328  24.731  37.723  1.00  0.00    -0.237 OA
ATOM     89  O   UNL A   1      46.279  25.669  38.896  1.00  0.00    -0.237 OA
ATOM     90  O   UNL A   1      44.046  26.612  39.293  1.00  0.00    -0.744 OA
ENDBRANCH  84  87
ENDBRANCH  57  80
ENDBRANCH  31  32
ENDBRANCH  24  26
ENDBRANCH  23  24
ENDBRANCH  22  23
ENDBRANCH   1  22
TORSDOF 19
ENDMDL
