MODEL 1
REMARK VINA RESULT:     -11.9      0.000      0.000
REMARK SMILES CC[C@H]1Sc2ccc(S(=O)(=O)N3CCC(C(=O)OCCOC(=O)c4ccc(-c5c6nc(c(-c7cccc(S(=O)(=O)[O-])c7F)c7ccc([nH]7)c(-c7cccc(S(=O)(=O)[O-])c7F)c7nc(c(-c8cccc(S(=O)(=O)[O-])c8F)c8ccc5[nH]8)C=C7)C=C6)cc4)CC3)cc2NC1=O
REMARK SMILES IDX 19 1 18 2 16 3 17 4 15 5 12 6 13 7 88 8 14 9 87 10 9 11
REMARK SMILES IDX 10 12 11 13 8 14 3 15 4 16 92 17 5 18 91 19 93 20 6 21 90 22
REMARK SMILES IDX 7 24 89 25 2 26 1 27 20 28 21 29 22 30 23 31 24 32 25 33
REMARK SMILES IDX 86 34 26 35 85 36 27 37 28 38 29 39 79 40 30 41 84 42 78 43
REMARK SMILES IDX 80 44 31 45 83 46 77 47 76 48 32 50 64 51 44 52 63 53 45 54
REMARK SMILES IDX 48 55 62 56 81 57 46 58 47 59 61 61 82 62 49 63 33 64 34 65
REMARK SMILES IDX 42 66 35 67 37 68 43 69 36 70 38 71 39 72 40 73 41 74 65 75
REMARK SMILES IDX 66 76 74 77 67 78 69 79 75 80 68 81 70 82 71 83 72 84 73 85
REMARK SMILES IDX 50 86 51 87 59 88 52 89 54 90 60 91 53 92 55 93 56 94 57 95
REMARK SMILES IDX 58 96
REMARK H PARENT 91 23 80 49 48 60
REMARK Flexibility Score: inf
ROOT
ATOM      1  C   UNL A   1      31.417  31.480  26.467  1.00  0.00     0.274 C 
ENDROOT
BRANCH   1   2
ATOM      2  O   UNL A   1      32.464  30.497  26.351  1.00  0.00    -0.462 OA
BRANCH   2   3
ATOM      3  C   UNL A   1      32.113  29.227  26.670  1.00  0.00     0.309 C 
ATOM      4  O   UNL A   1      31.596  28.884  27.726  1.00  0.00    -0.252 OA
BRANCH   3   5
ATOM      5  C   UNL A   1      32.438  28.224  25.585  1.00  0.00     0.102 C 
ATOM      6  N   UNL A   1      32.725  25.824  24.046  1.00  0.00    -0.198 NA
ATOM      7  C   UNL A   1      33.930  26.454  24.644  1.00  0.00     0.103 C 
ATOM      8  C   UNL A   1      31.481  26.626  23.942  1.00  0.00     0.103 C 
ATOM      9  C   UNL A   1      33.590  27.272  25.884  1.00  0.00     0.032 C 
ATOM     10  C   UNL A   1      31.208  27.410  25.218  1.00  0.00     0.032 C 
BRANCH   6  11
ATOM     11  S   UNL A   1      33.000  24.695  22.794  1.00  0.00     0.243 S 
ATOM     12  O   UNL A   1      34.392  24.800  22.407  1.00  0.00    -0.207 OA
ATOM     13  O   UNL A   1      31.939  24.859  21.822  1.00  0.00    -0.207 OA
BRANCH  11  14
ATOM     14  C   UNL A   1      32.797  23.055  23.468  1.00  0.00     0.084 A 
ATOM     15  C   UNL A   1      33.130  17.907  24.022  1.00  0.00     0.141 C 
ATOM     16  S   UNL A   1      32.607  18.931  25.451  1.00  0.00    -0.111 SA
ATOM     17  C   UNL A   1      32.291  18.256  22.796  1.00  0.00     0.237 C 
ATOM     18  C   UNL A   1      32.679  20.524  24.663  1.00  0.00     0.032 A 
ATOM     19  N   UNL A   1      32.106  19.577  22.476  1.00  0.00    -0.324 N 
ATOM     20  O   UNL A   1      31.886  17.403  22.007  1.00  0.00    -0.273 OA
ATOM     21  C   UNL A   1      32.970  21.649  25.436  1.00  0.00     0.018 A 
ATOM     22  C   UNL A   1      32.417  20.674  23.294  1.00  0.00     0.056 A 
ATOM     23  H   UNL A   1      31.720  19.774  21.593  1.00  0.00     0.170 HD
ATOM     24  C   UNL A   1      33.043  22.911  24.839  1.00  0.00     0.023 A 
ATOM     25  C   UNL A   1      32.453  21.939  22.703  1.00  0.00     0.049 A 
BRANCH  15  26
ATOM     26  C   UNL A   1      34.628  18.117  23.733  1.00  0.00     0.021 C 
ATOM     27  C   UNL A   1      35.355  18.751  24.911  1.00  0.00     0.005 C 
ENDBRANCH  15  26
ENDBRANCH  11  14
ENDBRANCH   6  11
ENDBRANCH   3   5
ENDBRANCH   2   3
ENDBRANCH   1   2
BRANCH   1  28
ATOM     28  C   UNL A   1      31.975  32.850  26.859  1.00  0.00     0.275 C 
BRANCH  28  29
ATOM     29  O   UNL A   1      32.862  32.770  27.991  1.00  0.00    -0.458 OA
BRANCH  29  30
ATOM     30  C   UNL A   1      33.933  33.596  27.937  1.00  0.00     0.338 C 
ATOM     31  O   UNL A   1      33.927  34.792  27.697  1.00  0.00    -0.246 OA
BRANCH  30  32
ATOM     32  C   UNL A   1      35.153  32.889  28.354  1.00  0.00     0.060 A 
ATOM     33  C   UNL A   1      34.999  31.668  29.014  1.00  0.00     0.016 A 
ATOM     34  C   UNL A   1      36.417  33.466  28.223  1.00  0.00     0.016 A 
ATOM     35  C   UNL A   1      36.099  31.025  29.566  1.00  0.00     0.010 A 
ATOM     36  C   UNL A   1      37.528  32.808  28.765  1.00  0.00     0.010 A 
ATOM     37  C   UNL A   1      37.375  31.594  29.459  1.00  0.00    -0.014 A 
BRANCH  37  38
ATOM     38  C   UNL A   1      38.523  30.914  30.111  1.00  0.00     0.031 A 
ATOM     39  C   UNL A   1      38.906  31.252  31.524  1.00  0.00     0.074 A 
ATOM     40  C   UNL A   1      39.199  29.965  29.438  1.00  0.00     0.049 A 
ATOM     41  N   UNL A   1      39.862  30.753  32.264  1.00  0.00    -0.248 NA
ATOM     42  C   UNL A   1      38.116  32.297  32.194  1.00  0.00     0.031 C 
ATOM     43  C   UNL A   1      38.920  29.548  28.062  1.00  0.00     0.029 A 
ATOM     44  N   UNL A   1      40.258  29.179  29.817  1.00  0.00    -0.354 N 
ATOM     45  C   UNL A   1      39.817  31.443  33.468  1.00  0.00     0.074 A 
ATOM     46  C   UNL A   1      38.743  32.408  33.357  1.00  0.00     0.031 C 
ATOM     47  C   UNL A   1      39.776  28.573  27.719  1.00  0.00     0.029 A 
ATOM     48  C   UNL A   1      40.686  28.322  28.832  1.00  0.00     0.049 A 
ATOM     49  H   UNL A   1      40.670  29.224  30.709  1.00  0.00     0.167 HD
ATOM     50  C   UNL A   1      40.591  31.282  34.569  1.00  0.00     0.034 A 
ATOM     51  C   UNL A   1      41.705  27.440  28.822  1.00  0.00     0.034 A 
ATOM     52  C   UNL A   1      41.638  30.300  34.684  1.00  0.00     0.049 A 
ATOM     53  C   UNL A   1      42.541  27.274  30.060  1.00  0.00     0.074 A 
ATOM     54  C   UNL A   1      42.450  30.033  35.772  1.00  0.00     0.029 A 
ATOM     55  N   UNL A   1      42.022  29.428  33.677  1.00  0.00    -0.354 N 
ATOM     56  N   UNL A   1      42.427  27.872  31.222  1.00  0.00    -0.248 NA
ATOM     57  C   UNL A   1      43.631  26.290  29.997  1.00  0.00     0.031 C 
ATOM     58  C   UNL A   1      43.344  29.017  35.412  1.00  0.00     0.029 A 
ATOM     59  C   UNL A   1      43.067  28.629  34.111  1.00  0.00     0.049 A 
ATOM     60  H   UNL A   1      41.613  29.383  32.782  1.00  0.00     0.167 HD
ATOM     61  C   UNL A   1      43.403  27.313  32.037  1.00  0.00     0.074 A 
ATOM     62  C   UNL A   1      44.088  26.315  31.241  1.00  0.00     0.031 C 
ATOM     63  C   UNL A   1      43.713  27.608  33.324  1.00  0.00     0.034 A 
BRANCH  50  64
ATOM     64  C   UNL A   1      40.321  32.183  35.748  1.00  0.00     0.023 A 
ATOM     65  C   UNL A   1      41.144  33.305  35.976  1.00  0.00     0.012 A 
ATOM     66  C   UNL A   1      39.231  31.942  36.607  1.00  0.00     0.148 A 
ATOM     67  C   UNL A   1      40.910  34.149  37.061  1.00  0.00     0.002 A 
ATOM     68  C   UNL A   1      38.977  32.812  37.661  1.00  0.00     0.091 A 
ATOM     69  F   UNL A   1      38.472  30.858  36.390  1.00  0.00    -0.205 F 
ATOM     70  C   UNL A   1      39.823  33.909  37.897  1.00  0.00     0.022 A 
BRANCH  68  71
ATOM     71  S   UNL A   1      37.555  32.630  38.744  1.00  0.00     0.127 S 
ATOM     72  O   UNL A   1      37.669  31.229  39.146  1.00  0.00    -0.237 OA
ATOM     73  O   UNL A   1      37.849  33.593  39.806  1.00  0.00    -0.237 OA
ATOM     74  O   UNL A   1      36.391  32.959  37.934  1.00  0.00    -0.744 OA
ENDBRANCH  68  71
ENDBRANCH  50  64
BRANCH  51  75
ATOM     75  C   UNL A   1      41.953  26.614  27.607  1.00  0.00     0.023 A 
ATOM     76  C   UNL A   1      42.590  27.193  26.492  1.00  0.00     0.012 A 
ATOM     77  C   UNL A   1      41.603  25.250  27.566  1.00  0.00     0.148 A 
ATOM     78  C   UNL A   1      42.852  26.435  25.350  1.00  0.00     0.002 A 
ATOM     79  C   UNL A   1      41.921  24.487  26.449  1.00  0.00     0.091 A 
ATOM     80  F   UNL A   1      40.984  24.722  28.631  1.00  0.00    -0.205 F 
ATOM     81  C   UNL A   1      42.529  25.081  25.333  1.00  0.00     0.022 A 
BRANCH  79  82
ATOM     82  S   UNL A   1      41.670  22.708  26.395  1.00  0.00     0.127 S 
ATOM     83  O   UNL A   1      42.396  22.341  25.182  1.00  0.00    -0.237 OA
ATOM     84  O   UNL A   1      42.298  22.277  27.644  1.00  0.00    -0.237 OA
ATOM     85  O   UNL A   1      40.227  22.514  26.350  1.00  0.00    -0.744 OA
ENDBRANCH  79  82
ENDBRANCH  51  75
BRANCH  63  86
ATOM     86  C   UNL A   1      44.824  26.819  33.970  1.00  0.00     0.023 A 
ATOM     87  C   UNL A   1      46.167  27.193  33.760  1.00  0.00     0.012 A 
ATOM     88  C   UNL A   1      44.534  25.741  34.829  1.00  0.00     0.148 A 
ATOM     89  C   UNL A   1      47.203  26.481  34.362  1.00  0.00     0.002 A 
ATOM     90  C   UNL A   1      45.570  25.068  35.466  1.00  0.00     0.091 A 
ATOM     91  F   UNL A   1      43.252  25.386  35.003  1.00  0.00    -0.205 F 
ATOM     92  C   UNL A   1      46.905  25.426  35.222  1.00  0.00     0.022 A 
BRANCH  90  93
ATOM     93  S   UNL A   1      45.272  23.762  36.664  1.00  0.00     0.127 S 
ATOM     94  O   UNL A   1      44.402  24.434  37.628  1.00  0.00    -0.237 OA
ATOM     95  O   UNL A   1      44.610  22.740  35.854  1.00  0.00    -0.237 OA
ATOM     96  O   UNL A   1      46.584  23.375  37.165  1.00  0.00    -0.744 OA
ENDBRANCH  90  93
ENDBRANCH  63  86
ENDBRANCH  37  38
ENDBRANCH  30  32
ENDBRANCH  29  30
ENDBRANCH  28  29
ENDBRANCH   1  28
TORSDOF 17
ENDMDL
MODEL 2
REMARK VINA RESULT:     -11.8      2.298      7.926
REMARK SMILES CC[C@H]1Sc2ccc(S(=O)(=O)N3CCC(C(=O)OCCOC(=O)c4ccc(-c5c6nc(c(-c7cccc(S(=O)(=O)[O-])c7F)c7ccc([nH]7)c(-c7cccc(S(=O)(=O)[O-])c7F)c7nc(c(-c8cccc(S(=O)(=O)[O-])c8F)c8ccc5[nH]8)C=C7)C=C6)cc4)CC3)cc2NC1=O
REMARK SMILES IDX 19 1 18 2 16 3 17 4 15 5 12 6 13 7 88 8 14 9 87 10 9 11
REMARK SMILES IDX 10 12 11 13 8 14 3 15 4 16 92 17 5 18 91 19 93 20 6 21 90 22
REMARK SMILES IDX 7 24 89 25 2 26 1 27 20 28 21 29 22 30 23 31 24 32 25 33
REMARK SMILES IDX 86 34 26 35 85 36 27 37 28 38 29 39 79 40 30 41 84 42 78 43
REMARK SMILES IDX 80 44 31 45 83 46 77 47 76 48 32 50 64 51 44 52 63 53 45 54
REMARK SMILES IDX 48 55 62 56 81 57 46 58 47 59 61 61 82 62 49 63 33 64 34 65
REMARK SMILES IDX 42 66 35 67 37 68 43 69 36 70 38 71 39 72 40 73 41 74 65 75
REMARK SMILES IDX 66 76 74 77 67 78 69 79 75 80 68 81 70 82 71 83 72 84 73 85
REMARK SMILES IDX 50 86 51 87 59 88 52 89 54 90 60 91 53 92 55 93 56 94 57 95
REMARK SMILES IDX 58 96
REMARK H PARENT 91 23 80 49 48 60
REMARK Flexibility Score: inf
ROOT
ATOM      1  C   UNL A   1      31.300  32.492  26.879  1.00  0.00     0.274 C 
ENDROOT
BRANCH   1   2
ATOM      2  O   UNL A   1      31.550  31.496  25.869  1.00  0.00    -0.462 OA
BRANCH   2   3
ATOM      3  C   UNL A   1      32.012  30.305  26.321  1.00  0.00     0.309 C 
ATOM      4  O   UNL A   1      32.168  30.012  27.500  1.00  0.00    -0.252 OA
BRANCH   3   5
ATOM      5  C   UNL A   1      32.349  29.333  25.213  1.00  0.00     0.102 C 
ATOM      6  N   UNL A   1      32.315  27.151  23.355  1.00  0.00    -0.198 NA
ATOM      7  C   UNL A   1      33.310  27.153  24.458  1.00  0.00     0.103 C 
ATOM      8  C   UNL A   1      31.624  28.420  23.019  1.00  0.00     0.103 C 
ATOM      9  C   UNL A   1      32.828  27.957  25.659  1.00  0.00     0.032 C 
ATOM     10  C   UNL A   1      31.170  29.162  24.268  1.00  0.00     0.032 C 
BRANCH   6  11
ATOM     11  S   UNL A   1      32.632  26.098  22.048  1.00  0.00     0.243 S 
ATOM     12  O   UNL A   1      33.820  26.580  21.374  1.00  0.00    -0.207 OA
ATOM     13  O   UNL A   1      31.388  25.911  21.330  1.00  0.00    -0.207 OA
BRANCH  11  14
ATOM     14  C   UNL A   1      33.058  24.497  22.713  1.00  0.00     0.084 A 
ATOM     15  C   UNL A   1      35.380  20.828  25.553  1.00  0.00     0.141 C 
ATOM     16  S   UNL A   1      33.816  20.432  24.681  1.00  0.00    -0.111 SA
ATOM     17  C   UNL A   1      36.374  21.456  24.581  1.00  0.00     0.237 C 
ATOM     18  C   UNL A   1      33.541  22.014  23.918  1.00  0.00     0.032 A 
ATOM     19  N   UNL A   1      35.945  22.463  23.755  1.00  0.00    -0.324 N 
ATOM     20  O   UNL A   1      37.576  21.190  24.600  1.00  0.00    -0.273 OA
ATOM     21  C   UNL A   1      32.231  22.426  23.666  1.00  0.00     0.018 A 
ATOM     22  C   UNL A   1      34.610  22.837  23.537  1.00  0.00     0.056 A 
ATOM     23  H   UNL A   1      36.635  22.971  23.271  1.00  0.00     0.170 HD
ATOM     24  C   UNL A   1      31.987  23.669  23.077  1.00  0.00     0.023 A 
ATOM     25  C   UNL A   1      34.369  24.065  22.915  1.00  0.00     0.049 A 
BRANCH  15  26
ATOM     26  C   UNL A   1      35.107  21.775  26.738  1.00  0.00     0.021 C 
ATOM     27  C   UNL A   1      33.768  21.485  27.404  1.00  0.00     0.005 C 
ENDBRANCH  15  26
ENDBRANCH  11  14
ENDBRANCH   6  11
ENDBRANCH   3   5
ENDBRANCH   2   3
ENDBRANCH   1   2
BRANCH   1  28
ATOM     28  C   UNL A   1      32.591  33.192  27.310  1.00  0.00     0.275 C 
BRANCH  28  29
ATOM     29  O   UNL A   1      32.402  34.003  28.485  1.00  0.00    -0.458 OA
BRANCH  29  30
ATOM     30  C   UNL A   1      33.361  34.934  28.697  1.00  0.00     0.338 C 
ATOM     31  O   UNL A   1      33.349  36.097  28.330  1.00  0.00    -0.246 OA
BRANCH  30  32
ATOM     32  C   UNL A   1      34.411  34.404  29.579  1.00  0.00     0.060 A 
ATOM     33  C   UNL A   1      35.738  34.593  29.188  1.00  0.00     0.016 A 
ATOM     34  C   UNL A   1      34.108  33.625  30.696  1.00  0.00     0.016 A 
ATOM     35  C   UNL A   1      36.771  33.988  29.894  1.00  0.00     0.010 A 
ATOM     36  C   UNL A   1      35.151  33.029  31.417  1.00  0.00     0.010 A 
ATOM     37  C   UNL A   1      36.487  33.189  31.010  1.00  0.00    -0.014 A 
BRANCH  37  38
ATOM     38  C   UNL A   1      37.606  32.507  31.709  1.00  0.00     0.031 A 
ATOM     39  C   UNL A   1      38.366  31.400  31.033  1.00  0.00     0.074 A 
ATOM     40  C   UNL A   1      37.961  32.911  32.943  1.00  0.00     0.049 A 
ATOM     41  N   UNL A   1      39.380  30.703  31.475  1.00  0.00    -0.248 NA
ATOM     42  C   UNL A   1      37.921  31.019  29.683  1.00  0.00     0.031 C 
ATOM     43  C   UNL A   1      37.300  33.976  33.702  1.00  0.00     0.029 A 
ATOM     44  N   UNL A   1      38.959  32.477  33.777  1.00  0.00    -0.354 N 
ATOM     45  C   UNL A   1      39.672  29.777  30.482  1.00  0.00     0.074 A 
ATOM     46  C   UNL A   1      38.719  29.995  29.413  1.00  0.00     0.031 C 
ATOM     47  C   UNL A   1      37.923  34.122  34.881  1.00  0.00     0.029 A 
ATOM     48  C   UNL A   1      38.997  33.140  34.980  1.00  0.00     0.049 A 
ATOM     49  H   UNL A   1      39.589  31.761  33.535  1.00  0.00     0.167 HD
ATOM     50  C   UNL A   1      40.651  28.840  30.455  1.00  0.00     0.034 A 
ATOM     51  C   UNL A   1      39.801  32.968  36.048  1.00  0.00     0.034 A 
ATOM     52  C   UNL A   1      41.616  28.649  31.508  1.00  0.00     0.049 A 
ATOM     53  C   UNL A   1      40.885  31.927  35.989  1.00  0.00     0.074 A 
ATOM     54  C   UNL A   1      42.669  27.754  31.557  1.00  0.00     0.029 A 
ATOM     55  N   UNL A   1      41.642  29.360  32.699  1.00  0.00    -0.354 N 
ATOM     56  N   UNL A   1      41.205  31.122  35.004  1.00  0.00    -0.248 NA
ATOM     57  C   UNL A   1      41.738  31.792  37.177  1.00  0.00     0.031 C 
ATOM     58  C   UNL A   1      43.316  27.905  32.789  1.00  0.00     0.029 A 
ATOM     59  C   UNL A   1      42.685  28.917  33.495  1.00  0.00     0.049 A 
ATOM     60  H   UNL A   1      41.011  30.076  32.944  1.00  0.00     0.167 HD
ATOM     61  C   UNL A   1      42.316  30.410  35.439  1.00  0.00     0.074 A 
ATOM     62  C   UNL A   1      42.625  30.894  36.770  1.00  0.00     0.031 C 
ATOM     63  C   UNL A   1      43.010  29.436  34.800  1.00  0.00     0.034 A 
BRANCH  50  64
ATOM     64  C   UNL A   1      40.737  27.957  29.237  1.00  0.00     0.023 A 
ATOM     65  C   UNL A   1      39.947  26.792  29.158  1.00  0.00     0.012 A 
ATOM     66  C   UNL A   1      41.569  28.300  28.153  1.00  0.00     0.148 A 
ATOM     67  C   UNL A   1      40.013  25.962  28.039  1.00  0.00     0.002 A 
ATOM     68  C   UNL A   1      41.597  27.491  27.021  1.00  0.00     0.091 A 
ATOM     69  F   UNL A   1      42.331  29.399  28.253  1.00  0.00    -0.205 F 
ATOM     70  C   UNL A   1      40.830  26.316  26.968  1.00  0.00     0.022 A 
BRANCH  68  71
ATOM     71  S   UNL A   1      42.557  27.906  25.561  1.00  0.00     0.127 S 
ATOM     72  O   UNL A   1      42.358  26.720  24.730  1.00  0.00    -0.237 OA
ATOM     73  O   UNL A   1      41.880  29.109  25.076  1.00  0.00    -0.237 OA
ATOM     74  O   UNL A   1      43.920  28.125  26.027  1.00  0.00    -0.744 OA
ENDBRANCH  68  71
ENDBRANCH  50  64
BRANCH  51  75
ATOM     75  C   UNL A   1      39.633  33.839  37.245  1.00  0.00     0.023 A 
ATOM     76  C   UNL A   1      40.111  35.163  37.212  1.00  0.00     0.012 A 
ATOM     77  C   UNL A   1      38.964  33.379  38.396  1.00  0.00     0.148 A 
ATOM     78  C   UNL A   1      39.948  36.006  38.313  1.00  0.00     0.002 A 
ATOM     79  C   UNL A   1      38.753  34.241  39.465  1.00  0.00     0.091 A 
ATOM     80  F   UNL A   1      38.530  32.111  38.414  1.00  0.00    -0.205 F 
ATOM     81  C   UNL A   1      39.259  35.549  39.433  1.00  0.00     0.022 A 
BRANCH  79  82
ATOM     82  S   UNL A   1      37.755  33.784  40.889  1.00  0.00     0.127 S 
ATOM     83  O   UNL A   1      38.645  32.865  41.594  1.00  0.00    -0.237 OA
ATOM     84  O   UNL A   1      37.557  35.077  41.545  1.00  0.00    -0.237 OA
ATOM     85  O   UNL A   1      36.540  33.193  40.346  1.00  0.00    -0.744 OA
ENDBRANCH  79  82
ENDBRANCH  51  75
BRANCH  63  86
ATOM     86  C   UNL A   1      44.198  28.845  35.516  1.00  0.00     0.023 A 
ATOM     87  C   UNL A   1      45.485  29.382  35.309  1.00  0.00     0.012 A 
ATOM     88  C   UNL A   1      44.030  27.792  36.438  1.00  0.00     0.148 A 
ATOM     89  C   UNL A   1      46.589  28.854  35.976  1.00  0.00     0.002 A 
ATOM     90  C   UNL A   1      45.128  27.304  37.137  1.00  0.00     0.091 A 
ATOM     91  F   UNL A   1      42.802  27.279  36.609  1.00  0.00    -0.205 F 
ATOM     92  C   UNL A   1      46.410  27.824  36.896  1.00  0.00     0.022 A 
BRANCH  90  93
ATOM     93  S   UNL A   1      44.973  26.047  38.410  1.00  0.00     0.127 S 
ATOM     94  O   UNL A   1      46.371  25.798  38.757  1.00  0.00    -0.237 OA
ATOM     95  O   UNL A   1      44.203  26.741  39.443  1.00  0.00    -0.237 OA
ATOM     96  O   UNL A   1      44.273  24.932  37.786  1.00  0.00    -0.744 OA
ENDBRANCH  90  93
ENDBRANCH  63  86
ENDBRANCH  37  38
ENDBRANCH  30  32
ENDBRANCH  29  30
ENDBRANCH  28  29
ENDBRANCH   1  28
TORSDOF 17
ENDMDL
MODEL 3
REMARK VINA RESULT:     -11.5      4.841      7.712
REMARK SMILES CC[C@H]1Sc2ccc(S(=O)(=O)N3CCC(C(=O)OCCOC(=O)c4ccc(-c5c6nc(c(-c7cccc(S(=O)(=O)[O-])c7F)c7ccc([nH]7)c(-c7cccc(S(=O)(=O)[O-])c7F)c7nc(c(-c8cccc(S(=O)(=O)[O-])c8F)c8ccc5[nH]8)C=C7)C=C6)cc4)CC3)cc2NC1=O
REMARK SMILES IDX 19 1 18 2 16 3 17 4 15 5 12 6 13 7 88 8 14 9 87 10 9 11
REMARK SMILES IDX 10 12 11 13 8 14 3 15 4 16 92 17 5 18 91 19 93 20 6 21 90 22
REMARK SMILES IDX 7 24 89 25 2 26 1 27 20 28 21 29 22 30 23 31 24 32 25 33
REMARK SMILES IDX 86 34 26 35 85 36 27 37 28 38 29 39 79 40 30 41 84 42 78 43
REMARK SMILES IDX 80 44 31 45 83 46 77 47 76 48 32 50 64 51 44 52 63 53 45 54
REMARK SMILES IDX 48 55 62 56 81 57 46 58 47 59 61 61 82 62 49 63 33 64 34 65
REMARK SMILES IDX 42 66 35 67 37 68 43 69 36 70 38 71 39 72 40 73 41 74 65 75
REMARK SMILES IDX 66 76 74 77 67 78 69 79 75 80 68 81 70 82 71 83 72 84 73 85
REMARK SMILES IDX 50 86 51 87 59 88 52 89 54 90 60 91 53 92 55 93 56 94 57 95
REMARK SMILES IDX 58 96
REMARK H PARENT 91 23 80 49 48 60
REMARK Flexibility Score: inf
ROOT
ATOM      1  C   UNL A   1      34.588  34.513  28.766  1.00  0.00     0.274 C 
ENDROOT
BRANCH   1   2
ATOM      2  O   UNL A   1      34.503  34.389  30.198  1.00  0.00    -0.462 OA
BRANCH   2   3
ATOM      3  C   UNL A   1      35.289  33.434  30.753  1.00  0.00     0.309 C 
ATOM      4  O   UNL A   1      34.888  32.372  31.211  1.00  0.00    -0.252 OA
BRANCH   3   5
ATOM      5  C   UNL A   1      36.755  33.804  30.776  1.00  0.00     0.102 C 
ATOM      6  N   UNL A   1      39.620  33.718  30.805  1.00  0.00    -0.198 NA
ATOM      7  C   UNL A   1      38.891  34.125  32.034  1.00  0.00     0.103 C 
ATOM      8  C   UNL A   1      38.892  33.725  29.512  1.00  0.00     0.103 C 
ATOM      9  C   UNL A   1      37.487  33.535  32.086  1.00  0.00     0.032 C 
ATOM     10  C   UNL A   1      37.503  33.118  29.644  1.00  0.00     0.032 C 
BRANCH   6  11
ATOM     11  S   UNL A   1      41.279  34.119  30.737  1.00  0.00     0.243 S 
ATOM     12  O   UNL A   1      41.671  34.588  32.051  1.00  0.00    -0.207 OA
ATOM     13  O   UNL A   1      41.479  34.938  29.561  1.00  0.00    -0.207 OA
BRANCH  11  14
ATOM     14  C   UNL A   1      42.204  32.619  30.453  1.00  0.00     0.084 A 
ATOM     15  C   UNL A   1      44.909  28.912  28.032  1.00  0.00     0.141 C 
ATOM     16  S   UNL A   1      44.920  28.979  29.865  1.00  0.00    -0.111 SA
ATOM     17  C   UNL A   1      43.472  28.943  27.518  1.00  0.00     0.237 C 
ATOM     18  C   UNL A   1      43.857  30.390  30.075  1.00  0.00     0.032 A 
ATOM     19  N   UNL A   1      42.607  29.876  28.031  1.00  0.00    -0.324 N 
ATOM     20  O   UNL A   1      43.094  28.257  26.569  1.00  0.00    -0.273 OA
ATOM     21  C   UNL A   1      44.031  31.208  31.193  1.00  0.00     0.018 A 
ATOM     22  C   UNL A   1      42.832  30.674  29.162  1.00  0.00     0.056 A 
ATOM     23  H   UNL A   1      41.749  29.996  27.564  1.00  0.00     0.170 HD
ATOM     24  C   UNL A   1      43.216  32.328  31.376  1.00  0.00     0.023 A 
ATOM     25  C   UNL A   1      41.993  31.773  29.363  1.00  0.00     0.049 A 
BRANCH  15  26
ATOM     26  C   UNL A   1      45.720  30.086  27.449  1.00  0.00     0.021 C 
ATOM     27  C   UNL A   1      46.381  29.722  26.126  1.00  0.00     0.005 C 
ENDBRANCH  15  26
ENDBRANCH  11  14
ENDBRANCH   6  11
ENDBRANCH   3   5
ENDBRANCH   2   3
ENDBRANCH   1   2
BRANCH   1  28
ATOM     28  C   UNL A   1      33.965  33.307  28.059  1.00  0.00     0.275 C 
BRANCH  28  29
ATOM     29  O   UNL A   1      34.962  32.441  27.485  1.00  0.00    -0.458 OA
BRANCH  29  30
ATOM     30  C   UNL A   1      34.695  31.118  27.585  1.00  0.00     0.338 C 
ATOM     31  O   UNL A   1      33.657  30.553  27.282  1.00  0.00    -0.246 OA
BRANCH  30  32
ATOM     32  C   UNL A   1      35.898  30.376  27.990  1.00  0.00     0.060 A 
ATOM     33  C   UNL A   1      35.863  29.709  29.216  1.00  0.00     0.016 A 
ATOM     34  C   UNL A   1      37.081  30.436  27.252  1.00  0.00     0.016 A 
ATOM     35  C   UNL A   1      37.012  29.117  29.726  1.00  0.00     0.010 A 
ATOM     36  C   UNL A   1      38.234  29.825  27.759  1.00  0.00     0.010 A 
ATOM     37  C   UNL A   1      38.214  29.180  29.009  1.00  0.00    -0.014 A 
BRANCH  37  38
ATOM     38  C   UNL A   1      39.440  28.591  29.607  1.00  0.00     0.031 A 
ATOM     39  C   UNL A   1      39.965  29.097  30.921  1.00  0.00     0.074 A 
ATOM     40  C   UNL A   1      40.059  27.573  28.980  1.00  0.00     0.049 A 
ATOM     41  N   UNL A   1      41.005  28.696  31.605  1.00  0.00    -0.248 NA
ATOM     42  C   UNL A   1      39.230  30.208  31.546  1.00  0.00     0.031 C 
ATOM     43  C   UNL A   1      39.642  26.995  27.700  1.00  0.00     0.029 A 
ATOM     44  N   UNL A   1      41.168  26.846  29.330  1.00  0.00    -0.354 N 
ATOM     45  C   UNL A   1      41.076  29.524  32.717  1.00  0.00     0.074 A 
ATOM     46  C   UNL A   1      39.976  30.461  32.612  1.00  0.00     0.031 C 
ATOM     47  C   UNL A   1      40.475  25.992  27.383  1.00  0.00     0.029 A 
ATOM     48  C   UNL A   1      41.504  25.882  28.411  1.00  0.00     0.049 A 
ATOM     49  H   UNL A   1      41.673  27.000  30.160  1.00  0.00     0.167 HD
ATOM     50  C   UNL A   1      41.967  29.500  33.738  1.00  0.00     0.034 A 
ATOM     51  C   UNL A   1      42.534  25.013  28.393  1.00  0.00     0.034 A 
ATOM     52  C   UNL A   1      43.040  28.547  33.853  1.00  0.00     0.049 A 
ATOM     53  C   UNL A   1      43.502  25.001  29.543  1.00  0.00     0.074 A 
ATOM     54  C   UNL A   1      43.970  28.416  34.869  1.00  0.00     0.029 A 
ATOM     55  N   UNL A   1      43.331  27.564  32.918  1.00  0.00    -0.354 N 
ATOM     56  N   UNL A   1      43.501  25.732  30.633  1.00  0.00    -0.248 NA
ATOM     57  C   UNL A   1      44.599  24.025  29.477  1.00  0.00     0.031 C 
ATOM     58  C   UNL A   1      44.841  27.372  34.535  1.00  0.00     0.029 A 
ATOM     59  C   UNL A   1      44.433  26.831  33.326  1.00  0.00     0.049 A 
ATOM     60  H   UNL A   1      42.829  27.411  32.084  1.00  0.00     0.167 HD
ATOM     61  C   UNL A   1      44.571  25.281  31.396  1.00  0.00     0.074 A 
ATOM     62  C   UNL A   1      45.186  24.200  30.652  1.00  0.00     0.031 C 
ATOM     63  C   UNL A   1      45.011  25.729  32.598  1.00  0.00     0.034 A 
BRANCH  50  64
ATOM     64  C   UNL A   1      41.807  30.532  34.826  1.00  0.00     0.023 A 
ATOM     65  C   UNL A   1      40.676  30.495  35.667  1.00  0.00     0.012 A 
ATOM     66  C   UNL A   1      42.794  31.513  35.042  1.00  0.00     0.148 A 
ATOM     67  C   UNL A   1      40.511  31.441  36.679  1.00  0.00     0.002 A 
ATOM     68  C   UNL A   1      42.645  32.427  36.081  1.00  0.00     0.091 A 
ATOM     69  F   UNL A   1      43.852  31.549  34.220  1.00  0.00    -0.205 F 
ATOM     70  C   UNL A   1      41.498  32.399  36.891  1.00  0.00     0.022 A 
BRANCH  68  71
ATOM     71  S   UNL A   1      43.899  33.648  36.482  1.00  0.00     0.127 S 
ATOM     72  O   UNL A   1      45.055  32.800  36.769  1.00  0.00    -0.237 OA
ATOM     73  O   UNL A   1      43.999  34.410  35.237  1.00  0.00    -0.237 OA
ATOM     74  O   UNL A   1      43.376  34.402  37.613  1.00  0.00    -0.744 OA
ENDBRANCH  68  71
ENDBRANCH  50  64
BRANCH  51  75
ATOM     75  C   UNL A   1      42.667  24.051  27.263  1.00  0.00     0.023 A 
ATOM     76  C   UNL A   1      43.438  24.403  26.138  1.00  0.00     0.012 A 
ATOM     77  C   UNL A   1      42.073  22.774  27.316  1.00  0.00     0.148 A 
ATOM     78  C   UNL A   1      43.594  23.511  25.076  1.00  0.00     0.002 A 
ATOM     79  C   UNL A   1      42.282  21.870  26.282  1.00  0.00     0.091 A 
ATOM     80  F   UNL A   1      41.331  22.464  28.388  1.00  0.00    -0.205 F 
ATOM     81  C   UNL A   1      43.028  22.242  25.153  1.00  0.00     0.022 A 
BRANCH  79  82
ATOM     82  S   UNL A   1      41.710  20.168  26.360  1.00  0.00     0.127 S 
ATOM     83  O   UNL A   1      42.276  19.720  27.630  1.00  0.00    -0.237 OA
ATOM     84  O   UNL A   1      40.257  20.339  26.359  1.00  0.00    -0.237 OA
ATOM     85  O   UNL A   1      42.238  19.518  25.169  1.00  0.00    -0.744 OA
ENDBRANCH  79  82
ENDBRANCH  51  75
BRANCH  63  86
ATOM     86  C   UNL A   1      46.201  25.031  33.206  1.00  0.00     0.023 A 
ATOM     87  C   UNL A   1      47.497  25.550  33.013  1.00  0.00     0.012 A 
ATOM     88  C   UNL A   1      46.028  23.889  34.015  1.00  0.00     0.148 A 
ATOM     89  C   UNL A   1      48.605  24.922  33.582  1.00  0.00     0.002 A 
ATOM     90  C   UNL A   1      47.132  23.299  34.620  1.00  0.00     0.091 A 
ATOM     91  F   UNL A   1      44.791  23.396  34.174  1.00  0.00    -0.205 F 
ATOM     92  C   UNL A   1      48.422  23.805  34.392  1.00  0.00     0.022 A 
BRANCH  90  93
ATOM     93  S   UNL A   1      46.977  21.916  35.757  1.00  0.00     0.127 S 
ATOM     94  O   UNL A   1      46.137  22.486  36.808  1.00  0.00    -0.237 OA
ATOM     95  O   UNL A   1      46.318  20.905  34.931  1.00  0.00    -0.237 OA
ATOM     96  O   UNL A   1      48.336  21.575  36.156  1.00  0.00    -0.744 OA
ENDBRANCH  90  93
ENDBRANCH  63  86
ENDBRANCH  37  38
ENDBRANCH  30  32
ENDBRANCH  29  30
ENDBRANCH  28  29
ENDBRANCH   1  28
TORSDOF 17
ENDMDL
