MODEL 1
REMARK VINA RESULT:     -11.4      0.000      0.000
REMARK SMILES CCC[NH+]1CCN(c2ccc(C(=O)OCCOC(=O)c3ccc(-c4c5nc(c(-c6cccc(S(=O)(=O)[O-])c6F)c6ccc([nH]6)c(-c6cccc(S(=O)(=O)[O-])c6F)c6nc(c(-c7cccc(S(=O)(=O)[O-])c7F)c7ccc4[nH]7)C=C6)C=C5)cc3)cc2NS(=O)(=O)CC)CC1
REMARK SMILES IDX 15 1 14 2 12 3 13 4 11 5 8 6 9 7 84 8 10 9 83 10 7 11 4 12
REMARK SMILES IDX 5 13 92 14 6 16 91 17 3 18 2 19 1 20 85 21 86 23 87 24 88 25
REMARK SMILES IDX 89 26 90 27 16 28 17 29 18 30 19 31 20 32 21 33 82 34 22 35
REMARK SMILES IDX 81 36 23 37 24 38 25 39 75 40 26 41 80 42 74 43 76 44 27 45
REMARK SMILES IDX 79 46 73 47 72 48 28 50 60 51 40 52 59 53 41 54 44 55 58 56
REMARK SMILES IDX 77 57 42 58 43 59 57 61 78 62 45 63 29 64 30 65 38 66 31 67
REMARK SMILES IDX 33 68 39 69 32 70 34 71 35 72 36 73 37 74 61 75 62 76 70 77
REMARK SMILES IDX 63 78 65 79 71 80 64 81 66 82 67 83 68 84 69 85 46 86 47 87
REMARK SMILES IDX 55 88 48 89 50 90 56 91 49 92 51 93 52 94 53 95 54 96
REMARK H PARENT 4 15 85 22 76 49 44 60
REMARK Flexibility Score: inf
ROOT
ATOM      1  C   UNL A   1      32.292  29.206  25.249  1.00  0.00     0.275 C 
ENDROOT
BRANCH   1   2
ATOM      2  O   UNL A   1      31.416  28.078  25.461  1.00  0.00    -0.458 OA
BRANCH   2   3
ATOM      3  C   UNL A   1      31.506  27.442  26.665  1.00  0.00     0.338 C 
ATOM      4  O   UNL A   1      31.217  27.882  27.753  1.00  0.00    -0.246 OA
BRANCH   3   5
ATOM      5  C   UNL A   1      31.938  26.043  26.417  1.00  0.00     0.062 A 
ATOM      6  C   UNL A   1      32.529  23.407  25.622  1.00  0.00     0.062 A 
ATOM      7  C   UNL A   1      31.569  23.655  26.606  1.00  0.00     0.029 A 
ATOM      8  C   UNL A   1      33.204  24.522  25.053  1.00  0.00     0.073 A 
ATOM      9  C   UNL A   1      31.275  24.964  27.002  1.00  0.00     0.018 A 
ATOM     10  C   UNL A   1      32.964  25.813  25.510  1.00  0.00     0.044 A 
BRANCH   6  11
ATOM     11  N   UNL A   1      32.819  22.120  25.179  1.00  0.00    -0.359 N 
ATOM     12  N   UNL A   1      33.568  19.428  24.280  1.00  0.00    -0.332 N 
ATOM     13  C   UNL A   1      32.529  20.253  23.616  1.00  0.00     0.283 C 
ATOM     14  C   UNL A   1      34.476  20.301  25.066  1.00  0.00     0.283 C 
ATOM     15  H   UNL A   1      34.115  18.962  23.556  1.00  0.00     0.348 HD
ATOM     16  C   UNL A   1      31.807  21.286  24.518  1.00  0.00     0.178 C 
ATOM     17  C   UNL A   1      33.787  21.346  25.976  1.00  0.00     0.178 C 
BRANCH  12  18
ATOM     18  C   UNL A   1      32.994  18.348  25.091  1.00  0.00     0.262 C 
BRANCH  18  19
ATOM     19  C   UNL A   1      33.422  16.975  24.546  1.00  0.00     0.058 C 
ATOM     20  C   UNL A   1      34.040  17.009  23.156  1.00  0.00     0.010 C 
ENDBRANCH  18  19
ENDBRANCH  12  18
ENDBRANCH   6  11
BRANCH   8  21
ATOM     21  N   UNL A   1      33.906  24.284  23.833  1.00  0.00    -0.281 N 
ATOM     22  H   UNL A   1      34.806  23.893  23.918  1.00  0.00     0.180 HD
BRANCH  21  23
ATOM     23  S   UNL A   1      33.387  24.587  22.302  1.00  0.00     0.232 S 
ATOM     24  O   UNL A   1      34.029  25.794  21.824  1.00  0.00    -0.207 OA
ATOM     25  O   UNL A   1      33.551  23.340  21.582  1.00  0.00    -0.207 OA
BRANCH  23  26
ATOM     26  C   UNL A   1      31.620  24.906  22.417  1.00  0.00     0.156 C 
ATOM     27  C   UNL A   1      31.214  26.362  22.349  1.00  0.00     0.023 C 
ENDBRANCH  23  26
ENDBRANCH  21  23
ENDBRANCH   8  21
ENDBRANCH   3   5
ENDBRANCH   2   3
ENDBRANCH   1   2
BRANCH   1  28
ATOM     28  C   UNL A   1      31.670  30.508  25.757  1.00  0.00     0.275 C 
BRANCH  28  29
ATOM     29  O   UNL A   1      32.103  30.766  27.103  1.00  0.00    -0.458 OA
BRANCH  29  30
ATOM     30  C   UNL A   1      32.902  31.846  27.258  1.00  0.00     0.338 C 
ATOM     31  O   UNL A   1      32.590  33.022  27.168  1.00  0.00    -0.246 OA
BRANCH  30  32
ATOM     32  C   UNL A   1      34.234  31.413  27.698  1.00  0.00     0.060 A 
ATOM     33  C   UNL A   1      34.420  30.056  27.920  1.00  0.00     0.016 A 
ATOM     34  C   UNL A   1      35.220  32.321  28.068  1.00  0.00     0.016 A 
ATOM     35  C   UNL A   1      35.514  29.605  28.645  1.00  0.00     0.010 A 
ATOM     36  C   UNL A   1      36.394  31.847  28.671  1.00  0.00     0.010 A 
ATOM     37  C   UNL A   1      36.536  30.488  29.016  1.00  0.00    -0.014 A 
BRANCH  37  38
ATOM     38  C   UNL A   1      37.722  29.989  29.776  1.00  0.00     0.031 A 
ATOM     39  C   UNL A   1      37.956  30.431  31.201  1.00  0.00     0.074 A 
ATOM     40  C   UNL A   1      38.594  29.134  29.199  1.00  0.00     0.049 A 
ATOM     41  N   UNL A   1      39.013  30.268  31.954  1.00  0.00    -0.248 NA
ATOM     42  C   UNL A   1      36.866  31.170  31.861  1.00  0.00     0.031 C 
ATOM     43  C   UNL A   1      38.486  28.599  27.839  1.00  0.00     0.029 A 
ATOM     44  N   UNL A   1      39.754  28.571  29.678  1.00  0.00    -0.354 N 
ATOM     45  C   UNL A   1      38.756  30.960  33.132  1.00  0.00     0.074 A 
ATOM     46  C   UNL A   1      37.433  31.530  33.004  1.00  0.00     0.031 C 
ATOM     47  C   UNL A   1      39.508  27.764  27.607  1.00  0.00     0.029 A 
ATOM     48  C   UNL A   1      40.408  27.792  28.750  1.00  0.00     0.049 A 
ATOM     49  H   UNL A   1      40.083  28.711  30.595  1.00  0.00     0.167 HD
ATOM     50  C   UNL A   1      39.549  31.106  34.222  1.00  0.00     0.034 A 
ATOM     51  C   UNL A   1      41.625  27.214  28.778  1.00  0.00     0.034 A 
ATOM     52  C   UNL A   1      40.830  30.469  34.376  1.00  0.00     0.049 A 
ATOM     53  C   UNL A   1      42.484  27.391  29.997  1.00  0.00     0.074 A 
ATOM     54  C   UNL A   1      41.688  30.513  35.462  1.00  0.00     0.029 A 
ATOM     55  N   UNL A   1      41.436  29.665  33.423  1.00  0.00    -0.354 N 
ATOM     56  N   UNL A   1      42.211  28.023  31.111  1.00  0.00    -0.248 NA
ATOM     57  C   UNL A   1      43.815  26.770  29.965  1.00  0.00     0.031 C 
ATOM     58  C   UNL A   1      42.822  29.755  35.155  1.00  0.00     0.029 A 
ATOM     59  C   UNL A   1      42.658  29.213  33.890  1.00  0.00     0.049 A 
ATOM     60  H   UNL A   1      41.053  29.447  32.542  1.00  0.00     0.167 HD
ATOM     61  C   UNL A   1      43.325  27.860  31.923  1.00  0.00     0.074 A 
ATOM     62  C   UNL A   1      44.266  27.043  31.182  1.00  0.00     0.031 C 
ATOM     63  C   UNL A   1      43.559  28.358  33.160  1.00  0.00     0.034 A 
BRANCH  50  64
ATOM     64  C   UNL A   1      39.054  31.983  35.346  1.00  0.00     0.023 A 
ATOM     65  C   UNL A   1      39.173  33.384  35.258  1.00  0.00     0.012 A 
ATOM     66  C   UNL A   1      38.415  31.414  36.466  1.00  0.00     0.148 A 
ATOM     67  C   UNL A   1      38.695  34.203  36.282  1.00  0.00     0.002 A 
ATOM     68  C   UNL A   1      37.899  32.239  37.461  1.00  0.00     0.091 A 
ATOM     69  F   UNL A   1      38.326  30.079  36.543  1.00  0.00    -0.205 F 
ATOM     70  C   UNL A   1      38.050  33.632  37.375  1.00  0.00     0.022 A 
BRANCH  68  71
ATOM     71  S   UNL A   1      36.982  31.603  38.869  1.00  0.00     0.127 S 
ATOM     72  O   UNL A   1      37.982  31.682  39.932  1.00  0.00    -0.237 OA
ATOM     73  O   UNL A   1      35.890  32.571  38.987  1.00  0.00    -0.237 OA
ATOM     74  O   UNL A   1      36.564  30.257  38.503  1.00  0.00    -0.744 OA
ENDBRANCH  68  71
ENDBRANCH  50  64
BRANCH  51  75
ATOM     75  C   UNL A   1      42.104  26.430  27.602  1.00  0.00     0.023 A 
ATOM     76  C   UNL A   1      42.890  27.060  26.620  1.00  0.00     0.012 A 
ATOM     77  C   UNL A   1      41.824  25.054  27.478  1.00  0.00     0.148 A 
ATOM     78  C   UNL A   1      43.371  26.339  25.525  1.00  0.00     0.002 A 
ATOM     79  C   UNL A   1      42.361  24.329  26.423  1.00  0.00     0.091 A 
ATOM     80  F   UNL A   1      41.054  24.475  28.411  1.00  0.00    -0.205 F 
ATOM     81  C   UNL A   1      43.121  24.972  25.434  1.00  0.00     0.022 A 
BRANCH  79  82
ATOM     82  S   UNL A   1      42.215  22.542  26.315  1.00  0.00     0.127 S 
ATOM     83  O   UNL A   1      42.787  22.273  24.998  1.00  0.00    -0.237 OA
ATOM     84  O   UNL A   1      43.034  22.102  27.445  1.00  0.00    -0.237 OA
ATOM     85  O   UNL A   1      40.794  22.257  26.460  1.00  0.00    -0.744 OA
ENDBRANCH  79  82
ENDBRANCH  51  75
BRANCH  63  86
ATOM     86  C   UNL A   1      44.867  28.002  33.814  1.00  0.00     0.023 A 
ATOM     87  C   UNL A   1      45.984  28.845  33.659  1.00  0.00     0.012 A 
ATOM     88  C   UNL A   1      44.968  26.861  34.635  1.00  0.00     0.148 A 
ATOM     89  C   UNL A   1      47.191  28.544  34.285  1.00  0.00     0.002 A 
ATOM     90  C   UNL A   1      46.160  26.593  35.296  1.00  0.00     0.091 A 
ATOM     91  F   UNL A   1      43.899  26.061  34.751  1.00  0.00    -0.205 F 
ATOM     92  C   UNL A   1      47.275  27.425  35.112  1.00  0.00     0.022 A 
BRANCH  90  93
ATOM     93  S   UNL A   1      46.332  25.231  36.453  1.00  0.00     0.127 S 
ATOM     94  O   UNL A   1      45.079  25.315  37.201  1.00  0.00    -0.237 OA
ATOM     95  O   UNL A   1      46.435  24.077  35.560  1.00  0.00    -0.237 OA
ATOM     96  O   UNL A   1      47.538  25.507  37.224  1.00  0.00    -0.744 OA
ENDBRANCH  90  93
ENDBRANCH  63  86
ENDBRANCH  37  38
ENDBRANCH  30  32
ENDBRANCH  29  30
ENDBRANCH  28  29
ENDBRANCH   1  28
TORSDOF 20
ENDMDL
MODEL 2
REMARK VINA RESULT:     -11.4      1.286      7.671
REMARK SMILES CCC[NH+]1CCN(c2ccc(C(=O)OCCOC(=O)c3ccc(-c4c5nc(c(-c6cccc(S(=O)(=O)[O-])c6F)c6ccc([nH]6)c(-c6cccc(S(=O)(=O)[O-])c6F)c6nc(c(-c7cccc(S(=O)(=O)[O-])c7F)c7ccc4[nH]7)C=C6)C=C5)cc3)cc2NS(=O)(=O)CC)CC1
REMARK SMILES IDX 15 1 14 2 12 3 13 4 11 5 8 6 9 7 84 8 10 9 83 10 7 11 4 12
REMARK SMILES IDX 5 13 92 14 6 16 91 17 3 18 2 19 1 20 85 21 86 23 87 24 88 25
REMARK SMILES IDX 89 26 90 27 16 28 17 29 18 30 19 31 20 32 21 33 82 34 22 35
REMARK SMILES IDX 81 36 23 37 24 38 25 39 75 40 26 41 80 42 74 43 76 44 27 45
REMARK SMILES IDX 79 46 73 47 72 48 28 50 60 51 40 52 59 53 41 54 44 55 58 56
REMARK SMILES IDX 77 57 42 58 43 59 57 61 78 62 45 63 29 64 30 65 38 66 31 67
REMARK SMILES IDX 33 68 39 69 32 70 34 71 35 72 36 73 37 74 61 75 62 76 70 77
REMARK SMILES IDX 63 78 65 79 71 80 64 81 66 82 67 83 68 84 69 85 46 86 47 87
REMARK SMILES IDX 55 88 48 89 50 90 56 91 49 92 51 93 52 94 53 95 54 96
REMARK H PARENT 4 15 85 22 76 49 44 60
REMARK Flexibility Score: inf
ROOT
ATOM      1  C   UNL A   1      31.520  28.176  24.739  1.00  0.00     0.275 C 
ENDROOT
BRANCH   1   2
ATOM      2  O   UNL A   1      32.147  27.817  23.489  1.00  0.00    -0.458 OA
BRANCH   2   3
ATOM      3  C   UNL A   1      31.442  26.999  22.654  1.00  0.00     0.338 C 
ATOM      4  O   UNL A   1      30.666  27.327  21.786  1.00  0.00    -0.246 OA
BRANCH   3   5
ATOM      5  C   UNL A   1      31.858  25.598  22.917  1.00  0.00     0.062 A 
ATOM      6  C   UNL A   1      32.778  23.077  23.768  1.00  0.00     0.062 A 
ATOM      7  C   UNL A   1      33.546  23.860  22.905  1.00  0.00     0.029 A 
ATOM      8  C   UNL A   1      31.516  23.585  24.185  1.00  0.00     0.073 A 
ATOM      9  C   UNL A   1      33.091  25.113  22.481  1.00  0.00     0.018 A 
ATOM     10  C   UNL A   1      31.035  24.794  23.695  1.00  0.00     0.044 A 
BRANCH   6  11
ATOM     11  N   UNL A   1      33.218  21.843  24.237  1.00  0.00    -0.359 N 
ATOM     12  N   UNL A   1      34.012  19.208  25.259  1.00  0.00    -0.332 N 
ATOM     13  C   UNL A   1      34.847  20.426  25.399  1.00  0.00     0.283 C 
ATOM     14  C   UNL A   1      32.597  19.594  25.027  1.00  0.00     0.283 C 
ATOM     15  H   UNL A   1      34.064  18.684  26.134  1.00  0.00     0.348 HD
ATOM     16  C   UNL A   1      34.647  21.512  24.311  1.00  0.00     0.178 C 
ATOM     17  C   UNL A   1      32.361  20.678  23.949  1.00  0.00     0.178 C 
BRANCH  12  18
ATOM     18  C   UNL A   1      34.517  18.296  24.227  1.00  0.00     0.262 C 
BRANCH  18  19
ATOM     19  C   UNL A   1      33.882  16.904  24.376  1.00  0.00     0.058 C 
ATOM     20  C   UNL A   1      34.787  15.857  25.009  1.00  0.00     0.010 C 
ENDBRANCH  18  19
ENDBRANCH  12  18
ENDBRANCH   6  11
BRANCH   8  21
ATOM     21  N   UNL A   1      30.917  22.950  25.314  1.00  0.00    -0.281 N 
ATOM     22  H   UNL A   1      30.387  22.141  25.129  1.00  0.00     0.180 HD
BRANCH  21  23
ATOM     23  S   UNL A   1      31.012  23.411  26.891  1.00  0.00     0.232 S 
ATOM     24  O   UNL A   1      31.408  24.803  26.943  1.00  0.00    -0.207 OA
ATOM     25  O   UNL A   1      29.766  22.985  27.495  1.00  0.00    -0.207 OA
BRANCH  23  26
ATOM     26  C   UNL A   1      32.326  22.430  27.631  1.00  0.00     0.156 C 
ATOM     27  C   UNL A   1      33.716  23.018  27.528  1.00  0.00     0.023 C 
ENDBRANCH  23  26
ENDBRANCH  21  23
ENDBRANCH   8  21
ENDBRANCH   3   5
ENDBRANCH   2   3
ENDBRANCH   1   2
BRANCH   1  28
ATOM     28  C   UNL A   1      31.599  29.681  24.998  1.00  0.00     0.275 C 
BRANCH  28  29
ATOM     29  O   UNL A   1      32.879  30.017  25.557  1.00  0.00    -0.458 OA
BRANCH  29  30
ATOM     30  C   UNL A   1      32.858  30.952  26.533  1.00  0.00     0.338 C 
ATOM     31  O   UNL A   1      32.043  31.847  26.691  1.00  0.00    -0.246 OA
BRANCH  30  32
ATOM     32  C   UNL A   1      33.919  30.670  27.508  1.00  0.00     0.060 A 
ATOM     33  C   UNL A   1      34.610  31.756  28.027  1.00  0.00     0.016 A 
ATOM     34  C   UNL A   1      34.359  29.377  27.767  1.00  0.00     0.016 A 
ATOM     35  C   UNL A   1      35.823  31.574  28.677  1.00  0.00     0.010 A 
ATOM     36  C   UNL A   1      35.508  29.190  28.549  1.00  0.00     0.010 A 
ATOM     37  C   UNL A   1      36.286  30.286  28.972  1.00  0.00    -0.014 A 
BRANCH  37  38
ATOM     38  C   UNL A   1      37.582  30.100  29.693  1.00  0.00     0.031 A 
ATOM     39  C   UNL A   1      38.694  29.292  29.067  1.00  0.00     0.074 A 
ATOM     40  C   UNL A   1      37.773  30.654  30.909  1.00  0.00     0.049 A 
ATOM     41  N   UNL A   1      39.804  28.857  29.606  1.00  0.00    -0.248 NA
ATOM     42  C   UNL A   1      38.530  28.907  27.655  1.00  0.00     0.031 C 
ATOM     43  C   UNL A   1      36.801  31.481  31.630  1.00  0.00     0.029 A 
ATOM     44  N   UNL A   1      38.849  30.599  31.765  1.00  0.00    -0.354 N 
ATOM     45  C   UNL A   1      40.420  28.073  28.637  1.00  0.00     0.074 A 
ATOM     46  C   UNL A   1      39.570  28.107  27.467  1.00  0.00     0.031 C 
ATOM     47  C   UNL A   1      37.332  31.882  32.792  1.00  0.00     0.029 A 
ATOM     48  C   UNL A   1      38.632  31.250  32.959  1.00  0.00     0.049 A 
ATOM     49  H   UNL A   1      39.691  30.139  31.546  1.00  0.00     0.167 HD
ATOM     50  C   UNL A   1      41.588  27.389  28.714  1.00  0.00     0.034 A 
ATOM     51  C   UNL A   1      39.360  31.287  34.093  1.00  0.00     0.034 A 
ATOM     52  C   UNL A   1      42.468  27.425  29.852  1.00  0.00     0.049 A 
ATOM     53  C   UNL A   1      40.649  30.521  34.153  1.00  0.00     0.074 A 
ATOM     54  C   UNL A   1      43.697  26.808  30.008  1.00  0.00     0.029 A 
ATOM     55  N   UNL A   1      42.221  28.124  31.024  1.00  0.00    -0.354 N 
ATOM     56  N   UNL A   1      41.228  29.810  33.217  1.00  0.00    -0.248 NA
ATOM     57  C   UNL A   1      41.388  30.566  35.421  1.00  0.00     0.031 C 
ATOM     58  C   UNL A   1      44.181  27.114  31.285  1.00  0.00     0.029 A 
ATOM     59  C   UNL A   1      43.269  27.947  31.911  1.00  0.00     0.049 A 
ATOM     60  H   UNL A   1      41.418  28.665  31.200  1.00  0.00     0.167 HD
ATOM     61  C   UNL A   1      42.410  29.340  33.774  1.00  0.00     0.074 A 
ATOM     62  C   UNL A   1      42.477  29.872  35.120  1.00  0.00     0.031 C 
ATOM     63  C   UNL A   1      43.345  28.525  33.229  1.00  0.00     0.034 A 
BRANCH  50  64
ATOM     64  C   UNL A   1      41.993  26.544  27.532  1.00  0.00     0.023 A 
ATOM     65  C   UNL A   1      42.708  27.118  26.461  1.00  0.00     0.012 A 
ATOM     66  C   UNL A   1      41.715  25.162  27.513  1.00  0.00     0.148 A 
ATOM     67  C   UNL A   1      43.109  26.337  25.376  1.00  0.00     0.002 A 
ATOM     68  C   UNL A   1      42.158  24.382  26.450  1.00  0.00     0.091 A 
ATOM     69  F   UNL A   1      41.018  24.636  28.530  1.00  0.00    -0.205 F 
ATOM     70  C   UNL A   1      42.844  24.970  25.376  1.00  0.00     0.022 A 
BRANCH  68  71
ATOM     71  S   UNL A   1      41.935  22.600  26.396  1.00  0.00     0.127 S 
ATOM     72  O   UNL A   1      42.612  22.256  25.147  1.00  0.00    -0.237 OA
ATOM     73  O   UNL A   1      42.633  22.165  27.607  1.00  0.00    -0.237 OA
ATOM     74  O   UNL A   1      40.496  22.374  26.411  1.00  0.00    -0.744 OA
ENDBRANCH  68  71
ENDBRANCH  50  64
BRANCH  51  75
ATOM     75  C   UNL A   1      38.869  32.067  35.267  1.00  0.00     0.023 A 
ATOM     76  C   UNL A   1      38.902  33.473  35.231  1.00  0.00     0.012 A 
ATOM     77  C   UNL A   1      38.327  31.422  36.398  1.00  0.00     0.148 A 
ATOM     78  C   UNL A   1      38.423  34.223  36.308  1.00  0.00     0.002 A 
ATOM     79  C   UNL A   1      37.791  32.174  37.435  1.00  0.00     0.091 A 
ATOM     80  F   UNL A   1      38.325  30.081  36.425  1.00  0.00    -0.205 F 
ATOM     81  C   UNL A   1      37.854  33.575  37.401  1.00  0.00     0.022 A 
BRANCH  79  82
ATOM     82  S   UNL A   1      36.905  31.423  38.805  1.00  0.00     0.127 S 
ATOM     83  O   UNL A   1      37.854  31.591  39.903  1.00  0.00    -0.237 OA
ATOM     84  O   UNL A   1      35.710  32.263  38.890  1.00  0.00    -0.237 OA
ATOM     85  O   UNL A   1      36.643  30.050  38.396  1.00  0.00    -0.744 OA
ENDBRANCH  79  82
ENDBRANCH  51  75
BRANCH  63  86
ATOM     86  C   UNL A   1      44.545  28.189  34.071  1.00  0.00     0.023 A 
ATOM     87  C   UNL A   1      45.682  29.019  34.040  1.00  0.00     0.012 A 
ATOM     88  C   UNL A   1      44.519  27.082  34.943  1.00  0.00     0.148 A 
ATOM     89  C   UNL A   1      46.787  28.737  34.840  1.00  0.00     0.002 A 
ATOM     90  C   UNL A   1      45.604  26.835  35.774  1.00  0.00     0.091 A 
ATOM     91  F   UNL A   1      43.434  26.293  34.941  1.00  0.00    -0.205 F 
ATOM     92  C   UNL A   1      46.743  27.653  35.714  1.00  0.00     0.022 A 
BRANCH  90  93
ATOM     93  S   UNL A   1      45.598  25.521  36.997  1.00  0.00     0.127 S 
ATOM     94  O   UNL A   1      44.402  25.841  37.774  1.00  0.00    -0.237 OA
ATOM     95  O   UNL A   1      45.484  24.323  36.165  1.00  0.00    -0.237 OA
ATOM     96  O   UNL A   1      46.860  25.636  37.718  1.00  0.00    -0.744 OA
ENDBRANCH  90  93
ENDBRANCH  63  86
ENDBRANCH  37  38
ENDBRANCH  30  32
ENDBRANCH  29  30
ENDBRANCH  28  29
ENDBRANCH   1  28
TORSDOF 20
ENDMDL
MODEL 3
REMARK VINA RESULT:     -10.8      1.655      2.079
REMARK SMILES CCC[NH+]1CCN(c2ccc(C(=O)OCCOC(=O)c3ccc(-c4c5nc(c(-c6cccc(S(=O)(=O)[O-])c6F)c6ccc([nH]6)c(-c6cccc(S(=O)(=O)[O-])c6F)c6nc(c(-c7cccc(S(=O)(=O)[O-])c7F)c7ccc4[nH]7)C=C6)C=C5)cc3)cc2NS(=O)(=O)CC)CC1
REMARK SMILES IDX 15 1 14 2 12 3 13 4 11 5 8 6 9 7 84 8 10 9 83 10 7 11 4 12
REMARK SMILES IDX 5 13 92 14 6 16 91 17 3 18 2 19 1 20 85 21 86 23 87 24 88 25
REMARK SMILES IDX 89 26 90 27 16 28 17 29 18 30 19 31 20 32 21 33 82 34 22 35
REMARK SMILES IDX 81 36 23 37 24 38 25 39 75 40 26 41 80 42 74 43 76 44 27 45
REMARK SMILES IDX 79 46 73 47 72 48 28 50 60 51 40 52 59 53 41 54 44 55 58 56
REMARK SMILES IDX 77 57 42 58 43 59 57 61 78 62 45 63 29 64 30 65 38 66 31 67
REMARK SMILES IDX 33 68 39 69 32 70 34 71 35 72 36 73 37 74 61 75 62 76 70 77
REMARK SMILES IDX 63 78 65 79 71 80 64 81 66 82 67 83 68 84 69 85 46 86 47 87
REMARK SMILES IDX 55 88 48 89 50 90 56 91 49 92 51 93 52 94 53 95 54 96
REMARK H PARENT 4 15 85 22 76 49 44 60
REMARK Flexibility Score: inf
ROOT
ATOM      1  C   UNL A   1      32.451  28.934  25.158  1.00  0.00     0.275 C 
ENDROOT
BRANCH   1   2
ATOM      2  O   UNL A   1      31.421  27.944  25.365  1.00  0.00    -0.458 OA
BRANCH   2   3
ATOM      3  C   UNL A   1      31.437  27.272  26.552  1.00  0.00     0.338 C 
ATOM      4  O   UNL A   1      31.193  27.714  27.651  1.00  0.00    -0.246 OA
BRANCH   3   5
ATOM      5  C   UNL A   1      31.716  25.841  26.271  1.00  0.00     0.062 A 
ATOM      6  C   UNL A   1      32.275  23.238  25.355  1.00  0.00     0.062 A 
ATOM      7  C   UNL A   1      30.962  23.631  25.622  1.00  0.00     0.029 A 
ATOM      8  C   UNL A   1      33.313  24.184  25.577  1.00  0.00     0.073 A 
ATOM      9  C   UNL A   1      30.683  24.924  26.077  1.00  0.00     0.018 A 
ATOM     10  C   UNL A   1      33.035  25.439  26.107  1.00  0.00     0.044 A 
BRANCH   6  11
ATOM     11  N   UNL A   1      32.583  21.971  24.867  1.00  0.00    -0.359 N 
ATOM     12  N   UNL A   1      33.351  19.302  23.916  1.00  0.00    -0.332 N 
ATOM     13  C   UNL A   1      32.670  20.310  23.066  1.00  0.00     0.283 C 
ATOM     14  C   UNL A   1      34.016  19.977  25.059  1.00  0.00     0.283 C 
ATOM     15  H   UNL A   1      34.066  18.841  23.353  1.00  0.00     0.348 HD
ATOM     16  C   UNL A   1      31.781  21.336  23.813  1.00  0.00     0.178 C 
ATOM     17  C   UNL A   1      33.157  21.011  25.826  1.00  0.00     0.178 C 
BRANCH  12  18
ATOM     18  C   UNL A   1      32.447  18.232  24.352  1.00  0.00     0.262 C 
BRANCH  18  19
ATOM     19  C   UNL A   1      33.177  16.879  24.370  1.00  0.00     0.058 C 
ATOM     20  C   UNL A   1      34.009  16.590  23.129  1.00  0.00     0.010 C 
ENDBRANCH  18  19
ENDBRANCH  12  18
ENDBRANCH   6  11
BRANCH   8  21
ATOM     21  N   UNL A   1      34.577  23.892  24.981  1.00  0.00    -0.281 N 
ATOM     22  H   UNL A   1      34.618  23.947  23.999  1.00  0.00     0.180 HD
BRANCH  21  23
ATOM     23  S   UNL A   1      35.974  23.476  25.744  1.00  0.00     0.232 S 
ATOM     24  O   UNL A   1      36.750  24.677  25.976  1.00  0.00    -0.207 OA
ATOM     25  O   UNL A   1      35.573  22.641  26.858  1.00  0.00    -0.207 OA
BRANCH  23  26
ATOM     26  C   UNL A   1      36.890  22.434  24.599  1.00  0.00     0.156 C 
ATOM     27  C   UNL A   1      36.530  22.595  23.139  1.00  0.00     0.023 C 
ENDBRANCH  23  26
ENDBRANCH  21  23
ENDBRANCH   8  21
ENDBRANCH   3   5
ENDBRANCH   2   3
ENDBRANCH   1   2
BRANCH   1  28
ATOM     28  C   UNL A   1      31.989  30.328  25.587  1.00  0.00     0.275 C 
BRANCH  28  29
ATOM     29  O   UNL A   1      32.297  30.543  26.973  1.00  0.00    -0.458 OA
BRANCH  29  30
ATOM     30  C   UNL A   1      33.040  31.641  27.239  1.00  0.00     0.338 C 
ATOM     31  O   UNL A   1      32.677  32.806  27.226  1.00  0.00    -0.246 OA
BRANCH  30  32
ATOM     32  C   UNL A   1      34.374  31.234  27.696  1.00  0.00     0.060 A 
ATOM     33  C   UNL A   1      34.624  29.872  27.795  1.00  0.00     0.016 A 
ATOM     34  C   UNL A   1      35.294  32.148  28.196  1.00  0.00     0.016 A 
ATOM     35  C   UNL A   1      35.710  29.407  28.523  1.00  0.00     0.010 A 
ATOM     36  C   UNL A   1      36.466  31.676  28.803  1.00  0.00     0.010 A 
ATOM     37  C   UNL A   1      36.667  30.298  29.022  1.00  0.00    -0.014 A 
BRANCH  37  38
ATOM     38  C   UNL A   1      37.846  29.787  29.785  1.00  0.00     0.031 A 
ATOM     39  C   UNL A   1      38.086  30.231  31.208  1.00  0.00     0.074 A 
ATOM     40  C   UNL A   1      38.707  28.919  29.210  1.00  0.00     0.049 A 
ATOM     41  N   UNL A   1      39.141  30.056  31.962  1.00  0.00    -0.248 NA
ATOM     42  C   UNL A   1      37.006  30.985  31.866  1.00  0.00     0.031 C 
ATOM     43  C   UNL A   1      38.593  28.381  27.852  1.00  0.00     0.029 A 
ATOM     44  N   UNL A   1      39.860  28.343  29.692  1.00  0.00    -0.354 N 
ATOM     45  C   UNL A   1      38.893  30.756  33.138  1.00  0.00     0.074 A 
ATOM     46  C   UNL A   1      37.577  31.341  33.008  1.00  0.00     0.031 C 
ATOM     47  C   UNL A   1      39.604  27.532  27.622  1.00  0.00     0.029 A 
ATOM     48  C   UNL A   1      40.504  27.552  28.766  1.00  0.00     0.049 A 
ATOM     49  H   UNL A   1      40.191  28.481  30.608  1.00  0.00     0.167 HD
ATOM     50  C   UNL A   1      39.687  30.894  34.228  1.00  0.00     0.034 A 
ATOM     51  C   UNL A   1      41.714  26.959  28.796  1.00  0.00     0.034 A 
ATOM     52  C   UNL A   1      40.960  30.242  34.384  1.00  0.00     0.049 A 
ATOM     53  C   UNL A   1      42.574  27.128  30.015  1.00  0.00     0.074 A 
ATOM     54  C   UNL A   1      41.818  30.278  35.470  1.00  0.00     0.029 A 
ATOM     55  N   UNL A   1      41.555  29.426  33.434  1.00  0.00    -0.354 N 
ATOM     56  N   UNL A   1      42.309  27.768  31.126  1.00  0.00    -0.248 NA
ATOM     57  C   UNL A   1      43.897  26.490  29.985  1.00  0.00     0.031 C 
ATOM     58  C   UNL A   1      42.942  29.504  35.165  1.00  0.00     0.029 A 
ATOM     59  C   UNL A   1      42.771  28.961  33.902  1.00  0.00     0.049 A 
ATOM     60  H   UNL A   1      41.170  29.211  32.553  1.00  0.00     0.167 HD
ATOM     61  C   UNL A   1      43.422  27.593  31.939  1.00  0.00     0.074 A 
ATOM     62  C   UNL A   1      44.352  26.762  31.201  1.00  0.00     0.031 C 
ATOM     63  C   UNL A   1      43.662  28.092  33.175  1.00  0.00     0.034 A 
BRANCH  50  64
ATOM     64  C   UNL A   1      39.203  31.781  35.348  1.00  0.00     0.023 A 
ATOM     65  C   UNL A   1      38.283  31.290  36.296  1.00  0.00     0.012 A 
ATOM     66  C   UNL A   1      39.712  33.088  35.494  1.00  0.00     0.148 A 
ATOM     67  C   UNL A   1      37.851  32.096  37.350  1.00  0.00     0.002 A 
ATOM     68  C   UNL A   1      39.312  33.869  36.573  1.00  0.00     0.091 A 
ATOM     69  F   UNL A   1      40.572  33.546  34.574  1.00  0.00    -0.205 F 
ATOM     70  C   UNL A   1      38.373  33.379  37.494  1.00  0.00     0.022 A 
BRANCH  68  71
ATOM     71  S   UNL A   1      39.986  35.504  36.890  1.00  0.00     0.127 S 
ATOM     72  O   UNL A   1      39.304  35.869  38.130  1.00  0.00    -0.237 OA
ATOM     73  O   UNL A   1      41.416  35.223  37.041  1.00  0.00    -0.237 OA
ATOM     74  O   UNL A   1      39.646  36.312  35.728  1.00  0.00    -0.744 OA
ENDBRANCH  68  71
ENDBRANCH  50  64
BRANCH  51  75
ATOM     75  C   UNL A   1      42.183  26.165  27.623  1.00  0.00     0.023 A 
ATOM     76  C   UNL A   1      43.027  26.765  26.670  1.00  0.00     0.012 A 
ATOM     77  C   UNL A   1      41.835  24.807  27.473  1.00  0.00     0.148 A 
ATOM     78  C   UNL A   1      43.499  26.033  25.578  1.00  0.00     0.002 A 
ATOM     79  C   UNL A   1      42.362  24.067  26.423  1.00  0.00     0.091 A 
ATOM     80  F   UNL A   1      41.011  24.258  28.378  1.00  0.00    -0.205 F 
ATOM     81  C   UNL A   1      43.181  24.682  25.463  1.00  0.00     0.022 A 
BRANCH  79  82
ATOM     82  S   UNL A   1      42.126  22.292  26.287  1.00  0.00     0.127 S 
ATOM     83  O   UNL A   1      40.677  22.194  26.126  1.00  0.00    -0.237 OA
ATOM     84  O   UNL A   1      42.902  21.973  25.088  1.00  0.00    -0.237 OA
ATOM     85  O   UNL A   1      42.667  21.730  27.517  1.00  0.00    -0.744 OA
ENDBRANCH  79  82
ENDBRANCH  51  75
BRANCH  63  86
ATOM     86  C   UNL A   1      44.964  27.720  33.830  1.00  0.00     0.023 A 
ATOM     87  C   UNL A   1      46.090  28.553  33.679  1.00  0.00     0.012 A 
ATOM     88  C   UNL A   1      45.053  26.578  34.650  1.00  0.00     0.148 A 
ATOM     89  C   UNL A   1      47.294  28.237  34.306  1.00  0.00     0.002 A 
ATOM     90  C   UNL A   1      46.241  26.296  35.312  1.00  0.00     0.091 A 
ATOM     91  F   UNL A   1      43.974  25.788  34.763  1.00  0.00    -0.205 F 
ATOM     92  C   UNL A   1      47.365  27.117  35.132  1.00  0.00     0.022 A 
BRANCH  90  93
ATOM     93  S   UNL A   1      46.396  24.930  36.467  1.00  0.00     0.127 S 
ATOM     94  O   UNL A   1      46.520  23.788  35.564  1.00  0.00    -0.237 OA
ATOM     95  O   UNL A   1      47.621  25.273  37.190  1.00  0.00    -0.237 OA
ATOM     96  O   UNL A   1      45.188  24.953  37.282  1.00  0.00    -0.744 OA
ENDBRANCH  90  93
ENDBRANCH  63  86
ENDBRANCH  37  38
ENDBRANCH  30  32
ENDBRANCH  29  30
ENDBRANCH  28  29
ENDBRANCH   1  28
TORSDOF 20
ENDMDL
