MODEL 1
REMARK VINA RESULT:     -10.3      0.000      0.000
REMARK SMILES O=C(CNC(=O)c1ccc(Cl)cc1Cl)OCCOC(=O)c1ccc(-c2c3nc(c(-c4cccc(S(=O)(=O)[O-])c4F)c4ccc([nH]4)c(-c4cccc(S(=O)(=O)[O-])c4F)c4nc(c(-c5cccc(S(=O)(=O)[O-])c5F)c5ccc2[nH]5)C=C4)C=C3)cc1
REMARK SMILES IDX 17 1 16 2 15 3 2 4 1 5 3 6 4 7 5 8 6 10 7 11 8 12 13 13 9 14
REMARK SMILES IDX 12 15 14 16 10 17 11 18 18 19 19 20 20 21 21 22 22 23 83 24
REMARK SMILES IDX 23 25 82 26 24 27 25 28 26 29 76 30 27 31 81 32 75 33 77 34
REMARK SMILES IDX 28 35 80 36 74 37 73 38 29 40 61 41 41 42 60 43 42 44 45 45
REMARK SMILES IDX 59 46 78 47 43 48 44 49 58 51 79 52 46 53 30 54 31 55 39 56
REMARK SMILES IDX 32 57 34 58 40 59 33 60 35 61 36 62 37 63 38 64 62 65 63 66
REMARK SMILES IDX 71 67 64 68 66 69 72 70 65 71 67 72 68 73 69 74 70 75 47 76
REMARK SMILES IDX 48 77 56 78 49 79 51 80 57 81 50 82 52 83 53 84 54 85 55 86
REMARK H PARENT 4 9 77 39 45 50
REMARK Flexibility Score: inf
ROOT
ATOM      1  C   UNL A   1      33.259  33.417  27.957  1.00  0.00     0.275 C 
ENDROOT
BRANCH   1   2
ATOM      2  C   UNL A   1      33.533  34.754  28.648  1.00  0.00     0.274 C 
BRANCH   2   3
ATOM      3  O   UNL A   1      32.713  34.938  29.817  1.00  0.00    -0.461 OA
BRANCH   3   4
ATOM      4  C   UNL A   1      33.021  35.759  30.852  1.00  0.00     0.325 C 
ATOM      5  O   UNL A   1      32.431  36.830  30.980  1.00  0.00    -0.250 OA
BRANCH   4   6
ATOM      6  C   UNL A   1      34.098  35.329  31.850  1.00  0.00     0.239 C 
BRANCH   6   7
ATOM      7  N   UNL A   1      34.227  33.900  32.085  1.00  0.00    -0.341 N 
ATOM      8  C   UNL A   1      35.300  33.062  31.897  1.00  0.00     0.253 C 
ATOM      9  H   UNL A   1      33.415  33.463  32.433  1.00  0.00     0.164 HD
ATOM     10  O   UNL A   1      35.212  31.879  32.206  1.00  0.00    -0.269 OA
BRANCH   8  11
ATOM     11  C   UNL A   1      36.554  33.556  31.281  1.00  0.00     0.058 A 
ATOM     12  C   UNL A   1      36.759  33.433  29.900  1.00  0.00     0.017 A 
ATOM     13  C   UNL A   1      37.536  34.174  32.073  1.00  0.00     0.055 A 
ATOM     14  C   UNL A   1      37.960  33.871  29.329  1.00  0.00     0.021 A 
ATOM     15  C   UNL A   1      38.735  34.610  31.497  1.00  0.00     0.041 A 
ATOM     16  Cl  UNL A   1      37.389  34.349  33.788  1.00  0.00    -0.083 Cl
ATOM     17  C   UNL A   1      38.944  34.445  30.131  1.00  0.00     0.042 A 
ATOM     18  Cl  UNL A   1      40.439  34.938  29.438  1.00  0.00    -0.084 Cl
ENDBRANCH   8  11
ENDBRANCH   6   7
ENDBRANCH   4   6
ENDBRANCH   3   4
ENDBRANCH   2   3
ENDBRANCH   1   2
BRANCH   1  19
ATOM     19  O   UNL A   1      33.995  32.357  28.590  1.00  0.00    -0.458 OA
BRANCH  19  20
ATOM     20  C   UNL A   1      34.196  31.246  27.834  1.00  0.00     0.338 C 
ATOM     21  O   UNL A   1      33.532  30.889  26.877  1.00  0.00    -0.246 OA
BRANCH  20  22
ATOM     22  C   UNL A   1      35.485  30.624  28.221  1.00  0.00     0.060 A 
ATOM     23  C   UNL A   1      35.529  29.881  29.406  1.00  0.00     0.016 A 
ATOM     24  C   UNL A   1      36.627  30.733  27.422  1.00  0.00     0.016 A 
ATOM     25  C   UNL A   1      36.721  29.272  29.808  1.00  0.00     0.010 A 
ATOM     26  C   UNL A   1      37.814  30.103  27.814  1.00  0.00     0.010 A 
ATOM     27  C   UNL A   1      37.881  29.395  29.027  1.00  0.00    -0.014 A 
BRANCH  27  28
ATOM     28  C   UNL A   1      39.185  28.894  29.537  1.00  0.00     0.031 A 
ATOM     29  C   UNL A   1      39.808  29.548  30.744  1.00  0.00     0.074 A 
ATOM     30  C   UNL A   1      39.825  27.873  28.934  1.00  0.00     0.049 A 
ATOM     31  N   UNL A   1      40.920  29.251  31.364  1.00  0.00    -0.248 NA
ATOM     32  C   UNL A   1      39.089  30.697  31.320  1.00  0.00     0.031 C 
ATOM     33  C   UNL A   1      39.366  27.170  27.738  1.00  0.00     0.029 A 
ATOM     34  N   UNL A   1      41.020  27.266  29.241  1.00  0.00    -0.354 N 
ATOM     35  C   UNL A   1      41.046  30.183  32.385  1.00  0.00     0.074 A 
ATOM     36  C   UNL A   1      39.913  31.076  32.284  1.00  0.00     0.031 C 
ATOM     37  C   UNL A   1      40.274  26.237  27.403  1.00  0.00     0.029 A 
ATOM     38  C   UNL A   1      41.384  26.279  28.356  1.00  0.00     0.049 A 
ATOM     39  H   UNL A   1      41.564  27.515  30.023  1.00  0.00     0.167 HD
ATOM     40  C   UNL A   1      41.997  30.273  33.346  1.00  0.00     0.034 A 
ATOM     41  C   UNL A   1      42.483  25.496  28.317  1.00  0.00     0.034 A 
ATOM     42  C   UNL A   1      43.104  29.370  33.485  1.00  0.00     0.049 A 
ATOM     43  C   UNL A   1      43.522  25.610  29.404  1.00  0.00     0.074 A 
ATOM     44  C   UNL A   1      44.070  29.341  34.476  1.00  0.00     0.029 A 
ATOM     45  N   UNL A   1      43.403  28.342  32.607  1.00  0.00    -0.354 N 
ATOM     46  N   UNL A   1      43.532  26.386  30.459  1.00  0.00    -0.248 NA
ATOM     47  C   UNL A   1      44.684  24.710  29.313  1.00  0.00     0.031 C 
ATOM     48  C   UNL A   1      44.963  28.304  34.187  1.00  0.00     0.029 A 
ATOM     49  C   UNL A   1      44.544  27.678  33.025  1.00  0.00     0.049 A 
ATOM     50  H   UNL A   1      42.880  28.116  31.803  1.00  0.00     0.167 HD
ATOM     51  C   UNL A   1      44.675  26.041  31.176  1.00  0.00     0.074 A 
ATOM     52  C   UNL A   1      45.323  24.975  30.444  1.00  0.00     0.031 C 
ATOM     53  C   UNL A   1      45.151  26.573  32.330  1.00  0.00     0.034 A 
BRANCH  40  54
ATOM     54  C   UNL A   1      41.847  31.368  34.366  1.00  0.00     0.023 A 
ATOM     55  C   UNL A   1      41.210  31.088  35.591  1.00  0.00     0.012 A 
ATOM     56  C   UNL A   1      42.380  32.652  34.139  1.00  0.00     0.148 A 
ATOM     57  C   UNL A   1      41.077  32.077  36.565  1.00  0.00     0.002 A 
ATOM     58  C   UNL A   1      42.278  33.621  35.129  1.00  0.00     0.091 A 
ATOM     59  F   UNL A   1      42.958  32.905  32.956  1.00  0.00    -0.205 F 
ATOM     60  C   UNL A   1      41.620  33.338  36.338  1.00  0.00     0.022 A 
BRANCH  58  61
ATOM     61  S   UNL A   1      43.006  35.254  34.957  1.00  0.00     0.127 S 
ATOM     62  O   UNL A   1      44.412  34.928  34.728  1.00  0.00    -0.237 OA
ATOM     63  O   UNL A   1      42.304  35.785  33.787  1.00  0.00    -0.237 OA
ATOM     64  O   UNL A   1      42.717  35.951  36.203  1.00  0.00    -0.744 OA
ENDBRANCH  58  61
ENDBRANCH  40  54
BRANCH  41  65
ATOM     65  C   UNL A   1      42.635  24.481  27.237  1.00  0.00     0.023 A 
ATOM     66  C   UNL A   1      43.350  24.815  26.069  1.00  0.00     0.012 A 
ATOM     67  C   UNL A   1      42.078  23.194  27.357  1.00  0.00     0.148 A 
ATOM     68  C   UNL A   1      43.479  23.895  25.027  1.00  0.00     0.002 A 
ATOM     69  C   UNL A   1      42.254  22.266  26.336  1.00  0.00     0.091 A 
ATOM     70  F   UNL A   1      41.386  22.903  28.467  1.00  0.00    -0.205 F 
ATOM     71  C   UNL A   1      42.940  22.620  25.165  1.00  0.00     0.022 A 
BRANCH  69  72
ATOM     72  S   UNL A   1      41.693  20.566  26.477  1.00  0.00     0.127 S 
ATOM     73  O   UNL A   1      40.254  20.708  26.273  1.00  0.00    -0.237 OA
ATOM     74  O   UNL A   1      42.412  19.919  25.379  1.00  0.00    -0.237 OA
ATOM     75  O   UNL A   1      42.107  20.128  27.803  1.00  0.00    -0.744 OA
ENDBRANCH  69  72
ENDBRANCH  41  65
BRANCH  53  76
ATOM     76  C   UNL A   1      46.421  26.000  32.907  1.00  0.00     0.023 A 
ATOM     77  C   UNL A   1      47.654  26.624  32.635  1.00  0.00     0.012 A 
ATOM     78  C   UNL A   1      46.382  24.906  33.793  1.00  0.00     0.148 A 
ATOM     79  C   UNL A   1      48.831  26.154  33.216  1.00  0.00     0.002 A 
ATOM     80  C   UNL A   1      47.553  24.469  34.404  1.00  0.00     0.091 A 
ATOM     81  F   UNL A   1      45.202  24.312  34.027  1.00  0.00    -0.205 F 
ATOM     82  C   UNL A   1      48.779  25.086  34.109  1.00  0.00     0.022 A 
BRANCH  80  83
ATOM     83  S   UNL A   1      47.563  23.164  35.640  1.00  0.00     0.127 S 
ATOM     84  O   UNL A   1      46.637  23.694  36.640  1.00  0.00    -0.237 OA
ATOM     85  O   UNL A   1      47.055  22.016  34.889  1.00  0.00    -0.237 OA
ATOM     86  O   UNL A   1      48.948  23.036  36.071  1.00  0.00    -0.744 OA
ENDBRANCH  80  83
ENDBRANCH  53  76
ENDBRANCH  27  28
ENDBRANCH  20  22
ENDBRANCH  19  20
ENDBRANCH   1  19
TORSDOF 16
ENDMDL
MODEL 2
REMARK VINA RESULT:     -10.2      4.409     11.743
REMARK SMILES O=C(CNC(=O)c1ccc(Cl)cc1Cl)OCCOC(=O)c1ccc(-c2c3nc(c(-c4cccc(S(=O)(=O)[O-])c4F)c4ccc([nH]4)c(-c4cccc(S(=O)(=O)[O-])c4F)c4nc(c(-c5cccc(S(=O)(=O)[O-])c5F)c5ccc2[nH]5)C=C4)C=C3)cc1
REMARK SMILES IDX 17 1 16 2 15 3 2 4 1 5 3 6 4 7 5 8 6 10 7 11 8 12 13 13 9 14
REMARK SMILES IDX 12 15 14 16 10 17 11 18 18 19 19 20 20 21 21 22 22 23 83 24
REMARK SMILES IDX 23 25 82 26 24 27 25 28 26 29 76 30 27 31 81 32 75 33 77 34
REMARK SMILES IDX 28 35 80 36 74 37 73 38 29 40 61 41 41 42 60 43 42 44 45 45
REMARK SMILES IDX 59 46 78 47 43 48 44 49 58 51 79 52 46 53 30 54 31 55 39 56
REMARK SMILES IDX 32 57 34 58 40 59 33 60 35 61 36 62 37 63 38 64 62 65 63 66
REMARK SMILES IDX 71 67 64 68 66 69 72 70 65 71 67 72 68 73 69 74 70 75 47 76
REMARK SMILES IDX 48 77 56 78 49 79 51 80 57 81 50 82 52 83 53 84 54 85 55 86
REMARK H PARENT 4 9 77 39 45 50
REMARK Flexibility Score: inf
ROOT
ATOM      1  C   UNL A   1      40.271  20.277  26.162  1.00  0.00     0.275 C 
ENDROOT
BRANCH   1   2
ATOM      2  C   UNL A   1      41.615  19.615  26.469  1.00  0.00     0.274 C 
BRANCH   2   3
ATOM      3  O   UNL A   1      42.378  19.358  25.276  1.00  0.00    -0.461 OA
BRANCH   3   4
ATOM      4  C   UNL A   1      43.733  19.315  25.223  1.00  0.00     0.325 C 
ATOM      5  O   UNL A   1      44.305  18.237  25.067  1.00  0.00    -0.250 OA
BRANCH   4   6
ATOM      6  C   UNL A   1      44.527  20.616  25.351  1.00  0.00     0.239 C 
BRANCH   6   7
ATOM      7  N   UNL A   1      43.895  21.812  24.820  1.00  0.00    -0.341 N 
ATOM      8  C   UNL A   1      43.589  23.003  25.435  1.00  0.00     0.253 C 
ATOM      9  H   UNL A   1      43.645  21.761  23.869  1.00  0.00     0.164 HD
ATOM     10  O   UNL A   1      43.091  23.915  24.785  1.00  0.00    -0.269 OA
BRANCH   8  11
ATOM     11  C   UNL A   1      43.811  23.189  26.889  1.00  0.00     0.058 A 
ATOM     12  C   UNL A   1      42.778  22.930  27.800  1.00  0.00     0.017 A 
ATOM     13  C   UNL A   1      45.066  23.602  27.367  1.00  0.00     0.055 A 
ATOM     14  C   UNL A   1      42.982  23.140  29.169  1.00  0.00     0.021 A 
ATOM     15  C   UNL A   1      45.265  23.810  28.736  1.00  0.00     0.041 A 
ATOM     16  Cl  UNL A   1      46.395  23.973  26.322  1.00  0.00    -0.083 Cl
ATOM     17  C   UNL A   1      44.219  23.589  29.627  1.00  0.00     0.042 A 
ATOM     18  Cl  UNL A   1      44.456  23.894  31.303  1.00  0.00    -0.084 Cl
ENDBRANCH   8  11
ENDBRANCH   6   7
ENDBRANCH   4   6
ENDBRANCH   3   4
ENDBRANCH   2   3
ENDBRANCH   1   2
BRANCH   1  19
ATOM     19  O   UNL A   1      40.404  21.709  26.138  1.00  0.00    -0.458 OA
BRANCH  19  20
ATOM     20  C   UNL A   1      39.242  22.409  26.205  1.00  0.00     0.338 C 
ATOM     21  O   UNL A   1      38.119  21.972  26.023  1.00  0.00    -0.246 OA
BRANCH  20  22
ATOM     22  C   UNL A   1      39.522  23.763  26.741  1.00  0.00     0.060 A 
ATOM     23  C   UNL A   1      40.001  24.736  25.856  1.00  0.00     0.016 A 
ATOM     24  C   UNL A   1      39.288  24.091  28.079  1.00  0.00     0.016 A 
ATOM     25  C   UNL A   1      40.274  26.028  26.315  1.00  0.00     0.010 A 
ATOM     26  C   UNL A   1      39.540  25.391  28.532  1.00  0.00     0.010 A 
ATOM     27  C   UNL A   1      40.067  26.362  27.662  1.00  0.00    -0.014 A 
BRANCH  27  28
ATOM     28  C   UNL A   1      40.516  27.680  28.185  1.00  0.00     0.031 A 
ATOM     29  C   UNL A   1      41.989  27.995  28.227  1.00  0.00     0.074 A 
ATOM     30  C   UNL A   1      39.632  28.593  28.632  1.00  0.00     0.049 A 
ATOM     31  N   UNL A   1      42.590  29.089  28.618  1.00  0.00    -0.248 NA
ATOM     32  C   UNL A   1      42.907  26.933  27.782  1.00  0.00     0.031 C 
ATOM     33  C   UNL A   1      38.183  28.414  28.689  1.00  0.00     0.029 A 
ATOM     34  N   UNL A   1      39.835  29.852  29.145  1.00  0.00    -0.354 N 
ATOM     35  C   UNL A   1      43.951  28.842  28.488  1.00  0.00     0.074 A 
ATOM     36  C   UNL A   1      44.090  27.484  28.011  1.00  0.00     0.031 C 
ATOM     37  C   UNL A   1      37.627  29.516  29.222  1.00  0.00     0.029 A 
ATOM     38  C   UNL A   1      38.680  30.478  29.550  1.00  0.00     0.049 A 
ATOM     39  H   UNL A   1      40.725  30.267  29.216  1.00  0.00     0.167 HD
ATOM     40  C   UNL A   1      44.994  29.676  28.710  1.00  0.00     0.034 A 
ATOM     41  C   UNL A   1      38.489  31.687  30.119  1.00  0.00     0.034 A 
ATOM     42  C   UNL A   1      44.871  31.040  29.143  1.00  0.00     0.049 A 
ATOM     43  C   UNL A   1      39.668  32.601  30.347  1.00  0.00     0.074 A 
ATOM     44  C   UNL A   1      45.872  31.980  29.317  1.00  0.00     0.029 A 
ATOM     45  N   UNL A   1      43.680  31.659  29.481  1.00  0.00    -0.354 N 
ATOM     46  N   UNL A   1      40.930  32.410  30.054  1.00  0.00    -0.248 NA
ATOM     47  C   UNL A   1      39.387  33.915  30.949  1.00  0.00     0.031 C 
ATOM     48  C   UNL A   1      45.286  33.164  29.776  1.00  0.00     0.029 A 
ATOM     49  C   UNL A   1      43.919  32.965  29.873  1.00  0.00     0.049 A 
ATOM     50  H   UNL A   1      42.792  31.232  29.446  1.00  0.00     0.167 HD
ATOM     51  C   UNL A   1      41.585  33.590  30.398  1.00  0.00     0.074 A 
ATOM     52  C   UNL A   1      40.578  34.496  30.905  1.00  0.00     0.031 C 
ATOM     53  C   UNL A   1      42.906  33.888  30.315  1.00  0.00     0.034 A 
BRANCH  40  54
ATOM     54  C   UNL A   1      46.375  29.147  28.431  1.00  0.00     0.023 A 
ATOM     55  C   UNL A   1      46.972  29.400  27.180  1.00  0.00     0.012 A 
ATOM     56  C   UNL A   1      47.099  28.449  29.417  1.00  0.00     0.148 A 
ATOM     57  C   UNL A   1      48.258  28.942  26.901  1.00  0.00     0.002 A 
ATOM     58  C   UNL A   1      48.395  28.029  29.145  1.00  0.00     0.091 A 
ATOM     59  F   UNL A   1      46.502  28.195  30.590  1.00  0.00    -0.205 F 
ATOM     60  C   UNL A   1      48.973  28.266  27.887  1.00  0.00     0.022 A 
BRANCH  58  61
ATOM     61  S   UNL A   1      49.420  27.211  30.373  1.00  0.00     0.127 S 
ATOM     62  O   UNL A   1      48.576  26.080  30.755  1.00  0.00    -0.237 OA
ATOM     63  O   UNL A   1      50.607  26.851  29.597  1.00  0.00    -0.237 OA
ATOM     64  O   UNL A   1      49.655  28.200  31.416  1.00  0.00    -0.744 OA
ENDBRANCH  58  61
ENDBRANCH  40  54
BRANCH  41  65
ATOM     65  C   UNL A   1      37.112  32.140  30.462  1.00  0.00     0.023 A 
ATOM     66  C   UNL A   1      36.619  31.931  31.766  1.00  0.00     0.012 A 
ATOM     67  C   UNL A   1      36.290  32.771  29.509  1.00  0.00     0.148 A 
ATOM     68  C   UNL A   1      35.321  32.314  32.105  1.00  0.00     0.002 A 
ATOM     69  C   UNL A   1      35.015  33.196  29.868  1.00  0.00     0.091 A 
ATOM     70  F   UNL A   1      36.771  32.943  28.270  1.00  0.00    -0.205 F 
ATOM     71  C   UNL A   1      34.523  32.954  31.160  1.00  0.00     0.022 A 
BRANCH  69  72
ATOM     72  S   UNL A   1      33.964  34.130  28.751  1.00  0.00     0.127 S 
ATOM     73  O   UNL A   1      33.586  33.111  27.775  1.00  0.00    -0.237 OA
ATOM     74  O   UNL A   1      32.886  34.562  29.642  1.00  0.00    -0.237 OA
ATOM     75  O   UNL A   1      34.796  35.214  28.249  1.00  0.00    -0.744 OA
ENDBRANCH  69  72
ENDBRANCH  41  65
BRANCH  53  76
ATOM     76  C   UNL A   1      43.355  35.260  30.749  1.00  0.00     0.023 A 
ATOM     77  C   UNL A   1      43.844  35.452  32.055  1.00  0.00     0.012 A 
ATOM     78  C   UNL A   1      43.382  36.333  29.837  1.00  0.00     0.148 A 
ATOM     79  C   UNL A   1      44.332  36.697  32.455  1.00  0.00     0.002 A 
ATOM     80  C   UNL A   1      43.909  37.559  30.228  1.00  0.00     0.091 A 
ATOM     81  F   UNL A   1      42.895  36.138  28.602  1.00  0.00    -0.205 F 
ATOM     82  C   UNL A   1      44.376  37.745  31.540  1.00  0.00     0.022 A 
BRANCH  80  83
ATOM     83  S   UNL A   1      44.095  38.934  29.085  1.00  0.00     0.127 S 
ATOM     84  O   UNL A   1      44.733  39.941  29.931  1.00  0.00    -0.237 OA
ATOM     85  O   UNL A   1      44.962  38.369  28.051  1.00  0.00    -0.237 OA
ATOM     86  O   UNL A   1      42.749  39.257  28.630  1.00  0.00    -0.744 OA
ENDBRANCH  80  83
ENDBRANCH  53  76
ENDBRANCH  27  28
ENDBRANCH  20  22
ENDBRANCH  19  20
ENDBRANCH   1  19
TORSDOF 16
ENDMDL
MODEL 3
REMARK VINA RESULT:     -10.1      5.156     11.958
REMARK SMILES O=C(CNC(=O)c1ccc(Cl)cc1Cl)OCCOC(=O)c1ccc(-c2c3nc(c(-c4cccc(S(=O)(=O)[O-])c4F)c4ccc([nH]4)c(-c4cccc(S(=O)(=O)[O-])c4F)c4nc(c(-c5cccc(S(=O)(=O)[O-])c5F)c5ccc2[nH]5)C=C4)C=C3)cc1
REMARK SMILES IDX 17 1 16 2 15 3 2 4 1 5 3 6 4 7 5 8 6 10 7 11 8 12 13 13 9 14
REMARK SMILES IDX 12 15 14 16 10 17 11 18 18 19 19 20 20 21 21 22 22 23 83 24
REMARK SMILES IDX 23 25 82 26 24 27 25 28 26 29 76 30 27 31 81 32 75 33 77 34
REMARK SMILES IDX 28 35 80 36 74 37 73 38 29 40 61 41 41 42 60 43 42 44 45 45
REMARK SMILES IDX 59 46 78 47 43 48 44 49 58 51 79 52 46 53 30 54 31 55 39 56
REMARK SMILES IDX 32 57 34 58 40 59 33 60 35 61 36 62 37 63 38 64 62 65 63 66
REMARK SMILES IDX 71 67 64 68 66 69 72 70 65 71 67 72 68 73 69 74 70 75 47 76
REMARK SMILES IDX 48 77 56 78 49 79 51 80 57 81 50 82 52 83 53 84 54 85 55 86
REMARK H PARENT 4 9 77 39 45 50
REMARK Flexibility Score: inf
ROOT
ATOM      1  C   UNL A   1      40.138  20.038  26.045  1.00  0.00     0.275 C 
ENDROOT
BRANCH   1   2
ATOM      2  C   UNL A   1      41.524  19.468  26.348  1.00  0.00     0.274 C 
BRANCH   2   3
ATOM      3  O   UNL A   1      42.346  19.388  25.170  1.00  0.00    -0.461 OA
BRANCH   3   4
ATOM      4  C   UNL A   1      43.697  19.262  25.180  1.00  0.00     0.325 C 
ATOM      5  O   UNL A   1      44.208  18.146  25.106  1.00  0.00    -0.250 OA
BRANCH   4   6
ATOM      6  C   UNL A   1      44.563  20.519  25.278  1.00  0.00     0.239 C 
BRANCH   6   7
ATOM      7  N   UNL A   1      43.982  21.745  24.756  1.00  0.00    -0.341 N 
ATOM      8  C   UNL A   1      43.661  22.918  25.396  1.00  0.00     0.253 C 
ATOM      9  H   UNL A   1      43.786  21.732  23.790  1.00  0.00     0.164 HD
ATOM     10  O   UNL A   1      43.216  23.862  24.753  1.00  0.00    -0.269 OA
BRANCH   8  11
ATOM     11  C   UNL A   1      43.802  23.048  26.865  1.00  0.00     0.058 A 
ATOM     12  C   UNL A   1      42.731  22.721  27.709  1.00  0.00     0.017 A 
ATOM     13  C   UNL A   1      45.017  23.477  27.425  1.00  0.00     0.055 A 
ATOM     14  C   UNL A   1      42.858  22.877  29.094  1.00  0.00     0.021 A 
ATOM     15  C   UNL A   1      45.139  23.631  28.811  1.00  0.00     0.041 A 
ATOM     16  Cl  UNL A   1      46.385  23.930  26.469  1.00  0.00    -0.083 Cl
ATOM     17  C   UNL A   1      44.055  23.343  29.636  1.00  0.00     0.042 A 
ATOM     18  Cl  UNL A   1      44.196  23.583  31.333  1.00  0.00    -0.084 Cl
ENDBRANCH   8  11
ENDBRANCH   6   7
ENDBRANCH   4   6
ENDBRANCH   3   4
ENDBRANCH   2   3
ENDBRANCH   1   2
BRANCH   1  19
ATOM     19  O   UNL A   1      39.891  21.218  26.830  1.00  0.00    -0.458 OA
BRANCH  19  20
ATOM     20  C   UNL A   1      39.053  22.131  26.271  1.00  0.00     0.338 C 
ATOM     21  O   UNL A   1      38.048  21.895  25.624  1.00  0.00    -0.246 OA
BRANCH  20  22
ATOM     22  C   UNL A   1      39.431  23.485  26.741  1.00  0.00     0.060 A 
ATOM     23  C   UNL A   1      39.922  24.397  25.799  1.00  0.00     0.016 A 
ATOM     24  C   UNL A   1      39.277  23.875  28.075  1.00  0.00     0.016 A 
ATOM     25  C   UNL A   1      40.286  25.687  26.195  1.00  0.00     0.010 A 
ATOM     26  C   UNL A   1      39.620  25.174  28.465  1.00  0.00     0.010 A 
ATOM     27  C   UNL A   1      40.159  26.081  27.536  1.00  0.00    -0.014 A 
BRANCH  27  28
ATOM     28  C   UNL A   1      40.703  27.390  27.987  1.00  0.00     0.031 A 
ATOM     29  C   UNL A   1      42.177  27.669  27.838  1.00  0.00     0.074 A 
ATOM     30  C   UNL A   1      39.905  28.326  28.537  1.00  0.00     0.049 A 
ATOM     31  N   UNL A   1      42.849  28.749  28.141  1.00  0.00    -0.248 NA
ATOM     32  C   UNL A   1      43.004  26.583  27.287  1.00  0.00     0.031 C 
ATOM     33  C   UNL A   1      38.472  28.184  28.781  1.00  0.00     0.029 A 
ATOM     34  N   UNL A   1      40.203  29.582  29.011  1.00  0.00    -0.354 N 
ATOM     35  C   UNL A   1      44.175  28.469  27.839  1.00  0.00     0.074 A 
ATOM     36  C   UNL A   1      44.219  27.105  27.358  1.00  0.00     0.031 C 
ATOM     37  C   UNL A   1      38.016  29.301  29.373  1.00  0.00     0.029 A 
ATOM     38  C   UNL A   1      39.124  30.238  29.556  1.00  0.00     0.049 A 
ATOM     39  H   UNL A   1      41.104  29.975  28.964  1.00  0.00     0.167 HD
ATOM     40  C   UNL A   1      45.258  29.278  27.920  1.00  0.00     0.034 A 
ATOM     41  C   UNL A   1      39.037  31.454  30.136  1.00  0.00     0.034 A 
ATOM     42  C   UNL A   1      45.224  30.646  28.355  1.00  0.00     0.049 A 
ATOM     43  C   UNL A   1      40.257  32.339  30.204  1.00  0.00     0.074 A 
ATOM     44  C   UNL A   1      46.262  31.561  28.392  1.00  0.00     0.029 A 
ATOM     45  N   UNL A   1      44.101  31.295  28.838  1.00  0.00    -0.354 N 
ATOM     46  N   UNL A   1      41.466  32.116  29.753  1.00  0.00    -0.248 NA
ATOM     47  C   UNL A   1      40.087  33.662  30.828  1.00  0.00     0.031 C 
ATOM     48  C   UNL A   1      45.767  32.762  28.914  1.00  0.00     0.029 A 
ATOM     49  C   UNL A   1      44.420  32.596  29.187  1.00  0.00     0.049 A 
ATOM     50  H   UNL A   1      43.206  30.890  28.921  1.00  0.00     0.167 HD
ATOM     51  C   UNL A   1      42.188  33.281  30.002  1.00  0.00     0.074 A 
ATOM     52  C   UNL A   1      41.276  34.214  30.627  1.00  0.00     0.031 C 
ATOM     53  C   UNL A   1      43.494  33.546  29.748  1.00  0.00     0.034 A 
BRANCH  40  54
ATOM     54  C   UNL A   1      46.578  28.713  27.470  1.00  0.00     0.023 A 
ATOM     55  C   UNL A   1      47.595  28.492  28.420  1.00  0.00     0.012 A 
ATOM     56  C   UNL A   1      46.795  28.353  26.126  1.00  0.00     0.148 A 
ATOM     57  C   UNL A   1      48.819  27.950  28.037  1.00  0.00     0.002 A 
ATOM     58  C   UNL A   1      48.004  27.776  25.758  1.00  0.00     0.091 A 
ATOM     59  F   UNL A   1      45.824  28.597  25.233  1.00  0.00    -0.205 F 
ATOM     60  C   UNL A   1      49.020  27.582  26.709  1.00  0.00     0.022 A 
BRANCH  58  61
ATOM     61  S   UNL A   1      48.331  27.207  24.086  1.00  0.00     0.127 S 
ATOM     62  O   UNL A   1      47.552  25.971  24.038  1.00  0.00    -0.237 OA
ATOM     63  O   UNL A   1      47.790  28.300  23.275  1.00  0.00    -0.237 OA
ATOM     64  O   UNL A   1      49.775  27.045  23.996  1.00  0.00    -0.744 OA
ENDBRANCH  58  61
ENDBRANCH  40  54
BRANCH  41  65
ATOM     65  C   UNL A   1      37.727  31.942  30.649  1.00  0.00     0.023 A 
ATOM     66  C   UNL A   1      37.415  31.784  32.015  1.00  0.00     0.012 A 
ATOM     67  C   UNL A   1      36.790  32.557  29.798  1.00  0.00     0.148 A 
ATOM     68  C   UNL A   1      36.182  32.201  32.516  1.00  0.00     0.002 A 
ATOM     69  C   UNL A   1      35.582  33.015  30.314  1.00  0.00     0.091 A 
ATOM     70  F   UNL A   1      37.097  32.680  28.499  1.00  0.00    -0.205 F 
ATOM     71  C   UNL A   1      35.270  32.824  31.669  1.00  0.00     0.022 A 
BRANCH  69  72
ATOM     72  S   UNL A   1      34.399  33.931  29.320  1.00  0.00     0.127 S 
ATOM     73  O   UNL A   1      33.861  32.884  28.456  1.00  0.00    -0.237 OA
ATOM     74  O   UNL A   1      33.473  34.429  30.338  1.00  0.00    -0.237 OA
ATOM     75  O   UNL A   1      35.171  34.970  28.655  1.00  0.00    -0.744 OA
ENDBRANCH  69  72
ENDBRANCH  41  65
BRANCH  53  76
ATOM     76  C   UNL A   1      44.027  34.908  30.111  1.00  0.00     0.023 A 
ATOM     77  C   UNL A   1      44.640  35.106  31.364  1.00  0.00     0.012 A 
ATOM     78  C   UNL A   1      44.009  35.964  29.178  1.00  0.00     0.148 A 
ATOM     79  C   UNL A   1      45.204  36.339  31.692  1.00  0.00     0.002 A 
ATOM     80  C   UNL A   1      44.611  37.177  29.494  1.00  0.00     0.091 A 
ATOM     81  F   UNL A   1      43.405  35.764  27.997  1.00  0.00    -0.205 F 
ATOM     82  C   UNL A   1      45.201  37.368  30.754  1.00  0.00     0.022 A 
BRANCH  80  83
ATOM     83  S   UNL A   1      44.739  38.523  28.311  1.00  0.00     0.127 S 
ATOM     84  O   UNL A   1      45.346  37.854  27.161  1.00  0.00    -0.237 OA
ATOM     85  O   UNL A   1      43.340  38.909  28.122  1.00  0.00    -0.237 OA
ATOM     86  O   UNL A   1      45.562  39.540  28.952  1.00  0.00    -0.744 OA
ENDBRANCH  80  83
ENDBRANCH  53  76
ENDBRANCH  27  28
ENDBRANCH  20  22
ENDBRANCH  19  20
ENDBRANCH   1  19
TORSDOF 16
ENDMDL
