MODEL 1
REMARK VINA RESULT:      -9.5      0.000      0.000
REMARK SMILES C[C@@H](C(=O)OCCOC(=O)c1ccc(-c2c3nc(c(-c4cccc(S(=O)(=O)[O-])c4F)c4ccc([nH]4)c(-c4cccc(S(=O)(=O)[O-])c4F)c4nc(c(-c5cccc(S(=O)(=O)[O-])c5F)c5ccc2[nH]5)C=C4)C=C3)cc1)c1ccc(Cc2cccs2)cc1F
REMARK SMILES IDX 6 1 5 2 3 3 4 4 2 5 1 6 74 7 75 8 85 9 76 10 84 11 86 12
REMARK SMILES IDX 77 13 78 14 79 15 80 16 83 17 81 18 82 19 7 20 8 21 9 22
REMARK SMILES IDX 10 23 11 24 12 25 73 26 13 27 72 28 14 29 15 30 16 31 66 32
REMARK SMILES IDX 17 33 71 34 65 35 67 36 18 37 70 38 64 39 63 40 19 42 51 43
REMARK SMILES IDX 31 44 50 45 32 46 35 47 49 48 68 49 33 50 34 51 48 53 69 54
REMARK SMILES IDX 36 55 20 56 21 57 29 58 22 59 24 60 30 61 23 62 25 63 26 64
REMARK SMILES IDX 27 65 28 66 52 67 53 68 61 69 54 70 56 71 62 72 55 73 57 74
REMARK SMILES IDX 58 75 59 76 60 77 37 78 38 79 46 80 39 81 41 82 47 83 40 84
REMARK SMILES IDX 42 85 43 86 44 87 45 88
REMARK H PARENT 67 41 35 52
REMARK Flexibility Score: inf
ROOT
ATOM      1  C   UNL A   1      33.274  34.540  29.151  1.00  0.00     0.274 C 
ENDROOT
BRANCH   1   2
ATOM      2  O   UNL A   1      34.153  35.097  30.149  1.00  0.00    -0.462 OA
BRANCH   2   3
ATOM      3  C   UNL A   1      34.265  34.425  31.328  1.00  0.00     0.313 C 
ATOM      4  O   UNL A   1      33.575  34.657  32.314  1.00  0.00    -0.252 OA
BRANCH   3   5
ATOM      5  C   UNL A   1      35.389  33.377  31.292  1.00  0.00     0.129 C 
ATOM      6  C   UNL A   1      35.106  32.129  32.123  1.00  0.00     0.025 C 
BRANCH   5   7
ATOM      7  C   UNL A   1      36.718  33.988  31.682  1.00  0.00     0.002 A 
ATOM      8  C   UNL A   1      37.733  34.205  30.737  1.00  0.00     0.008 A 
ATOM      9  C   UNL A   1      36.977  34.246  33.034  1.00  0.00     0.127 A 
ATOM     10  C   UNL A   1      38.999  34.560  31.159  1.00  0.00     0.004 A 
ATOM     11  C   UNL A   1      38.250  34.543  33.470  1.00  0.00     0.043 A 
ATOM     12  F   UNL A   1      36.002  34.129  33.944  1.00  0.00    -0.207 F 
ATOM     13  C   UNL A   1      39.271  34.581  32.532  1.00  0.00    -0.040 A 
BRANCH  13  14
ATOM     14  C   UNL A   1      40.678  34.528  32.978  1.00  0.00     0.082 C 
BRANCH  14  15
ATOM     15  C   UNL A   1      41.712  33.677  32.214  1.00  0.00     0.009 A 
ATOM     16  C   UNL A   1      41.834  32.238  31.289  1.00  0.00     0.016 A 
ATOM     17  S   UNL A   1      43.054  35.332  31.718  1.00  0.00    -0.149 S 
ATOM     18  C   UNL A   1      42.926  32.461  29.711  1.00  0.00     0.012 A 
ATOM     19  C   UNL A   1      43.768  34.307  29.909  1.00  0.00     0.065 A 
ENDBRANCH  14  15
ENDBRANCH  13  14
ENDBRANCH   5   7
ENDBRANCH   3   5
ENDBRANCH   2   3
ENDBRANCH   1   2
BRANCH   1  20
ATOM     20  C   UNL A   1      33.950  34.540  27.776  1.00  0.00     0.275 C 
BRANCH  20  21
ATOM     21  O   UNL A   1      35.072  33.625  27.742  1.00  0.00    -0.458 OA
BRANCH  21  22
ATOM     22  C   UNL A   1      34.777  32.300  27.669  1.00  0.00     0.338 C 
ATOM     23  O   UNL A   1      33.834  31.798  27.077  1.00  0.00    -0.246 OA
BRANCH  22  24
ATOM     24  C   UNL A   1      35.919  31.491  28.158  1.00  0.00     0.060 A 
ATOM     25  C   UNL A   1      35.540  30.330  28.762  1.00  0.00     0.016 A 
ATOM     26  C   UNL A   1      37.256  31.873  28.307  1.00  0.00     0.016 A 
ATOM     27  C   UNL A   1      36.433  29.661  29.596  1.00  0.00     0.010 A 
ATOM     28  C   UNL A   1      38.196  31.041  29.031  1.00  0.00     0.010 A 
ATOM     29  C   UNL A   1      37.806  29.882  29.747  1.00  0.00    -0.014 A 
BRANCH  29  30
ATOM     30  C   UNL A   1      38.797  28.956  30.665  1.00  0.00     0.031 A 
ATOM     31  C   UNL A   1      39.208  29.630  31.988  1.00  0.00     0.074 A 
ATOM     32  C   UNL A   1      39.401  27.610  30.533  1.00  0.00     0.049 A 
ATOM     33  N   UNL A   1      40.192  29.371  32.814  1.00  0.00    -0.248 NA
ATOM     34  C   UNL A   1      38.353  30.745  32.449  1.00  0.00     0.031 C 
ATOM     35  C   UNL A   1      39.276  25.783  29.359  1.00  0.00     0.029 A 
ATOM     36  N   UNL A   1      41.256  27.971  30.357  1.00  0.00    -0.354 N 
ATOM     37  C   UNL A   1      40.120  30.329  33.829  1.00  0.00     0.074 A 
ATOM     38  C   UNL A   1      38.994  31.178  33.523  1.00  0.00     0.031 C 
ATOM     39  C   UNL A   1      40.772  25.465  28.677  1.00  0.00     0.029 A 
ATOM     40  C   UNL A   1      42.081  26.691  29.336  1.00  0.00     0.049 A 
ATOM     41  H   UNL A   1      41.713  28.745  30.760  1.00  0.00     0.167 HD
ATOM     42  C   UNL A   1      40.911  30.488  34.920  1.00  0.00     0.034 A 
ATOM     43  C   UNL A   1      43.237  26.008  29.641  1.00  0.00     0.034 A 
ATOM     44  C   UNL A   1      42.032  29.633  35.212  1.00  0.00     0.049 A 
ATOM     45  C   UNL A   1      43.794  26.072  31.047  1.00  0.00     0.074 A 
ATOM     46  C   UNL A   1      42.860  29.652  36.320  1.00  0.00     0.029 A 
ATOM     47  N   UNL A   1      42.499  28.628  34.376  1.00  0.00    -0.354 N 
ATOM     48  N   UNL A   1      43.456  26.848  32.051  1.00  0.00    -0.248 NA
ATOM     49  C   UNL A   1      44.744  25.005  31.406  1.00  0.00     0.031 C 
ATOM     50  C   UNL A   1      43.870  28.708  36.120  1.00  0.00     0.029 A 
ATOM     51  C   UNL A   1      43.625  28.044  34.928  1.00  0.00     0.049 A 
ATOM     52  H   UNL A   1      42.090  28.369  33.519  1.00  0.00     0.167 HD
ATOM     53  C   UNL A   1      44.183  26.391  33.145  1.00  0.00     0.074 A 
ATOM     54  C   UNL A   1      44.869  25.189  32.712  1.00  0.00     0.031 C 
ATOM     55  C   UNL A   1      44.337  26.919  34.385  1.00  0.00     0.034 A 
BRANCH  42  56
ATOM     56  C   UNL A   1      40.610  31.623  35.881  1.00  0.00     0.023 A 
ATOM     57  C   UNL A   1      41.453  32.752  35.943  1.00  0.00     0.012 A 
ATOM     58  C   UNL A   1      39.445  31.602  36.679  1.00  0.00     0.148 A 
ATOM     59  C   UNL A   1      41.171  33.812  36.808  1.00  0.00     0.002 A 
ATOM     60  C   UNL A   1      39.143  32.684  37.502  1.00  0.00     0.091 A 
ATOM     61  F   UNL A   1      38.649  30.526  36.617  1.00  0.00    -0.205 F 
ATOM     62  C   UNL A   1      40.013  33.783  37.580  1.00  0.00     0.022 A 
BRANCH  60  63
ATOM     63  S   UNL A   1      37.637  32.779  38.480  1.00  0.00     0.127 S 
ATOM     64  O   UNL A   1      36.637  33.070  37.453  1.00  0.00    -0.237 OA
ATOM     65  O   UNL A   1      37.555  31.432  39.046  1.00  0.00    -0.237 OA
ATOM     66  O   UNL A   1      37.851  33.840  39.453  1.00  0.00    -0.744 OA
ENDBRANCH  60  63
ENDBRANCH  42  56
BRANCH  43  67
ATOM     67  C   UNL A   1      43.452  24.793  28.779  1.00  0.00     0.023 A 
ATOM     68  C   UNL A   1      42.998  23.509  29.181  1.00  0.00     0.012 A 
ATOM     69  C   UNL A   1      43.821  24.989  27.440  1.00  0.00     0.148 A 
ATOM     70  C   UNL A   1      42.912  22.458  28.265  1.00  0.00     0.002 A 
ATOM     71  C   UNL A   1      43.654  23.961  26.518  1.00  0.00     0.091 A 
ATOM     72  F   UNL A   1      44.236  26.210  27.069  1.00  0.00    -0.205 F 
ATOM     73  C   UNL A   1      43.218  22.691  26.927  1.00  0.00     0.022 A 
BRANCH  71  74
ATOM     74  S   UNL A   1      43.758  24.311  24.760  1.00  0.00     0.127 S 
ATOM     75  O   UNL A   1      42.778  25.381  24.608  1.00  0.00    -0.237 OA
ATOM     76  O   UNL A   1      45.153  24.721  24.597  1.00  0.00    -0.237 OA
ATOM     77  O   UNL A   1      43.438  23.043  24.115  1.00  0.00    -0.744 OA
ENDBRANCH  71  74
ENDBRANCH  43  67
BRANCH  55  78
ATOM     78  C   UNL A   1      45.447  26.326  35.222  1.00  0.00     0.023 A 
ATOM     79  C   UNL A   1      46.760  26.819  35.045  1.00  0.00     0.012 A 
ATOM     80  C   UNL A   1      45.204  25.346  36.200  1.00  0.00     0.148 A 
ATOM     81  C   UNL A   1      47.822  26.297  35.775  1.00  0.00     0.002 A 
ATOM     82  C   UNL A   1      46.260  24.874  36.969  1.00  0.00     0.091 A 
ATOM     83  F   UNL A   1      43.952  24.891  36.355  1.00  0.00    -0.205 F 
ATOM     84  C   UNL A   1      47.570  25.332  36.743  1.00  0.00     0.022 A 
BRANCH  82  85
ATOM     85  S   UNL A   1      46.034  23.701  38.307  1.00  0.00     0.127 S 
ATOM     86  O   UNL A   1      47.341  23.744  38.963  1.00  0.00    -0.237 OA
ATOM     87  O   UNL A   1      44.947  24.314  39.070  1.00  0.00    -0.237 OA
ATOM     88  O   UNL A   1      45.698  22.430  37.679  1.00  0.00    -0.744 OA
ENDBRANCH  82  85
ENDBRANCH  55  78
ENDBRANCH  29  30
ENDBRANCH  22  24
ENDBRANCH  21  22
ENDBRANCH  20  21
ENDBRANCH   1  20
TORSDOF 17
ENDMDL
MODEL 2
REMARK VINA RESULT:      -9.0      4.349     10.680
REMARK SMILES C[C@@H](C(=O)OCCOC(=O)c1ccc(-c2c3nc(c(-c4cccc(S(=O)(=O)[O-])c4F)c4ccc([nH]4)c(-c4cccc(S(=O)(=O)[O-])c4F)c4nc(c(-c5cccc(S(=O)(=O)[O-])c5F)c5ccc2[nH]5)C=C4)C=C3)cc1)c1ccc(Cc2cccs2)cc1F
REMARK SMILES IDX 6 1 5 2 3 3 4 4 2 5 1 6 74 7 75 8 85 9 76 10 84 11 86 12
REMARK SMILES IDX 77 13 78 14 79 15 80 16 83 17 81 18 82 19 7 20 8 21 9 22
REMARK SMILES IDX 10 23 11 24 12 25 73 26 13 27 72 28 14 29 15 30 16 31 66 32
REMARK SMILES IDX 17 33 71 34 65 35 67 36 18 37 70 38 64 39 63 40 19 42 51 43
REMARK SMILES IDX 31 44 50 45 32 46 35 47 49 48 68 49 33 50 34 51 48 53 69 54
REMARK SMILES IDX 36 55 20 56 21 57 29 58 22 59 24 60 30 61 23 62 25 63 26 64
REMARK SMILES IDX 27 65 28 66 52 67 53 68 61 69 54 70 56 71 62 72 55 73 57 74
REMARK SMILES IDX 58 75 59 76 60 77 37 78 38 79 46 80 39 81 41 82 47 83 40 84
REMARK SMILES IDX 42 85 43 86 44 87 45 88
REMARK H PARENT 67 41 35 52
REMARK Flexibility Score: inf
ROOT
ATOM      1  C   UNL A   1      31.456  28.065  26.080  1.00  0.00     0.274 C 
ENDROOT
BRANCH   1   2
ATOM      2  O   UNL A   1      32.244  26.899  25.764  1.00  0.00    -0.462 OA
BRANCH   2   3
ATOM      3  C   UNL A   1      32.099  26.365  24.521  1.00  0.00     0.313 C 
ATOM      4  O   UNL A   1      31.031  25.971  24.066  1.00  0.00    -0.252 OA
BRANCH   3   5
ATOM      5  C   UNL A   1      33.439  26.270  23.773  1.00  0.00     0.129 C 
ATOM      6  C   UNL A   1      33.356  26.635  22.293  1.00  0.00     0.025 C 
BRANCH   5   7
ATOM      7  C   UNL A   1      34.069  24.905  23.951  1.00  0.00     0.002 A 
ATOM      8  C   UNL A   1      33.877  23.879  23.012  1.00  0.00     0.008 A 
ATOM      9  C   UNL A   1      34.771  24.629  25.132  1.00  0.00     0.127 A 
ATOM     10  C   UNL A   1      34.283  22.593  23.309  1.00  0.00     0.004 A 
ATOM     11  C   UNL A   1      35.126  23.340  25.462  1.00  0.00     0.043 A 
ATOM     12  F   UNL A   1      35.041  25.609  26.003  1.00  0.00    -0.207 F 
ATOM     13  C   UNL A   1      34.771  22.319  24.592  1.00  0.00    -0.040 A 
BRANCH  13  14
ATOM     14  C   UNL A   1      34.795  20.918  25.060  1.00  0.00     0.082 C 
BRANCH  14  15
ATOM     15  C   UNL A   1      33.736  19.909  24.570  1.00  0.00     0.009 A 
ATOM     16  C   UNL A   1      32.337  19.817  23.584  1.00  0.00     0.016 A 
ATOM     17  S   UNL A   1      35.022  18.144  24.694  1.00  0.00    -0.149 S 
ATOM     18  C   UNL A   1      32.325  18.249  22.457  1.00  0.00     0.012 A 
ATOM     19  C   UNL A   1      33.900  17.126  23.100  1.00  0.00     0.065 A 
ENDBRANCH  14  15
ENDBRANCH  13  14
ENDBRANCH   5   7
ENDBRANCH   3   5
ENDBRANCH   2   3
ENDBRANCH   1   2
BRANCH   1  20
ATOM     20  C   UNL A   1      31.612  29.132  24.991  1.00  0.00     0.275 C 
BRANCH  20  21
ATOM     21  O   UNL A   1      32.752  29.986  25.251  1.00  0.00    -0.458 OA
BRANCH  21  22
ATOM     22  C   UNL A   1      32.667  30.806  26.333  1.00  0.00     0.338 C 
ATOM     23  O   UNL A   1      31.708  31.492  26.650  1.00  0.00    -0.246 OA
BRANCH  22  24
ATOM     24  C   UNL A   1      33.790  30.545  27.265  1.00  0.00     0.060 A 
ATOM     25  C   UNL A   1      34.331  31.680  27.790  1.00  0.00     0.016 A 
ATOM     26  C   UNL A   1      34.502  29.358  27.461  1.00  0.00     0.016 A 
ATOM     27  C   UNL A   1      35.601  31.640  28.362  1.00  0.00     0.010 A 
ATOM     28  C   UNL A   1      35.730  29.338  28.230  1.00  0.00     0.010 A 
ATOM     29  C   UNL A   1      36.361  30.516  28.702  1.00  0.00    -0.014 A 
BRANCH  29  30
ATOM     30  C   UNL A   1      37.797  30.573  29.487  1.00  0.00     0.031 A 
ATOM     31  C   UNL A   1      38.833  29.574  28.936  1.00  0.00     0.074 A 
ATOM     32  C   UNL A   1      38.352  31.363  30.611  1.00  0.00     0.049 A 
ATOM     33  N   UNL A   1      39.938  29.105  29.463  1.00  0.00    -0.248 NA
ATOM     34  C   UNL A   1      38.584  29.057  27.573  1.00  0.00     0.031 C 
ATOM     35  C   UNL A   1      37.958  33.122  31.828  1.00  0.00     0.029 A 
ATOM     36  N   UNL A   1      38.586  30.075  31.985  1.00  0.00    -0.354 N 
ATOM     37  C   UNL A   1      40.458  28.192  28.542  1.00  0.00     0.074 A 
ATOM     38  C   UNL A   1      39.554  28.169  27.418  1.00  0.00     0.031 C 
ATOM     39  C   UNL A   1      37.896  32.672  33.440  1.00  0.00     0.029 A 
ATOM     40  C   UNL A   1      38.393  30.837  33.641  1.00  0.00     0.049 A 
ATOM     41  H   UNL A   1      38.784  29.123  31.828  1.00  0.00     0.167 HD
ATOM     42  C   UNL A   1      41.587  27.443  28.617  1.00  0.00     0.034 A 
ATOM     43  C   UNL A   1      39.243  30.708  34.716  1.00  0.00     0.034 A 
ATOM     44  C   UNL A   1      42.480  27.475  29.746  1.00  0.00     0.049 A 
ATOM     45  C   UNL A   1      40.619  30.113  34.512  1.00  0.00     0.074 A 
ATOM     46  C   UNL A   1      43.686  26.817  29.905  1.00  0.00     0.029 A 
ATOM     47  N   UNL A   1      42.247  28.179  30.920  1.00  0.00    -0.354 N 
ATOM     48  N   UNL A   1      41.123  29.496  33.468  1.00  0.00    -0.248 NA
ATOM     49  C   UNL A   1      41.602  30.401  35.572  1.00  0.00     0.031 C 
ATOM     50  C   UNL A   1      44.147  27.066  31.201  1.00  0.00     0.029 A 
ATOM     51  C   UNL A   1      43.270  27.943  31.820  1.00  0.00     0.049 A 
ATOM     52  H   UNL A   1      41.470  28.760  31.087  1.00  0.00     0.167 HD
ATOM     53  C   UNL A   1      42.466  29.286  33.763  1.00  0.00     0.074 A 
ATOM     54  C   UNL A   1      42.724  29.963  35.020  1.00  0.00     0.031 C 
ATOM     55  C   UNL A   1      43.410  28.561  33.111  1.00  0.00     0.034 A 
BRANCH  42  56
ATOM     56  C   UNL A   1      41.930  26.520  27.463  1.00  0.00     0.023 A 
ATOM     57  C   UNL A   1      42.671  26.994  26.361  1.00  0.00     0.012 A 
ATOM     58  C   UNL A   1      41.575  25.153  27.504  1.00  0.00     0.148 A 
ATOM     59  C   UNL A   1      43.011  26.145  25.305  1.00  0.00     0.002 A 
ATOM     60  C   UNL A   1      41.960  24.301  26.472  1.00  0.00     0.091 A 
ATOM     61  F   UNL A   1      40.869  24.709  28.553  1.00  0.00    -0.205 F 
ATOM     62  C   UNL A   1      42.664  24.798  25.365  1.00  0.00     0.022 A 
BRANCH  60  63
ATOM     63  S   UNL A   1      41.628  22.533  26.488  1.00  0.00     0.127 S 
ATOM     64  O   UNL A   1      40.186  22.502  26.250  1.00  0.00    -0.237 OA
ATOM     65  O   UNL A   1      42.441  22.060  25.368  1.00  0.00    -0.237 OA
ATOM     66  O   UNL A   1      42.049  22.053  27.797  1.00  0.00    -0.744 OA
ENDBRANCH  60  63
ENDBRANCH  42  56
BRANCH  43  67
ATOM     67  C   UNL A   1      38.993  31.727  35.796  1.00  0.00     0.023 A 
ATOM     68  C   UNL A   1      39.147  33.117  35.552  1.00  0.00     0.012 A 
ATOM     69  C   UNL A   1      38.305  31.316  36.946  1.00  0.00     0.148 A 
ATOM     70  C   UNL A   1      38.620  34.064  36.434  1.00  0.00     0.002 A 
ATOM     71  C   UNL A   1      37.713  32.264  37.775  1.00  0.00     0.091 A 
ATOM     72  F   UNL A   1      38.155  30.000  37.159  1.00  0.00    -0.205 F 
ATOM     73  C   UNL A   1      37.883  33.636  37.535  1.00  0.00     0.022 A 
BRANCH  71  74
ATOM     74  S   UNL A   1      36.526  31.748  39.019  1.00  0.00     0.127 S 
ATOM     75  O   UNL A   1      37.262  31.987  40.255  1.00  0.00    -0.237 OA
ATOM     76  O   UNL A   1      35.401  32.653  38.782  1.00  0.00    -0.237 OA
ATOM     77  O   UNL A   1      36.238  30.355  38.695  1.00  0.00    -0.744 OA
ENDBRANCH  71  74
ENDBRANCH  43  67
BRANCH  55  78
ATOM     78  C   UNL A   1      44.684  28.294  33.878  1.00  0.00     0.023 A 
ATOM     79  C   UNL A   1      45.768  29.186  33.713  1.00  0.00     0.012 A 
ATOM     80  C   UNL A   1      44.802  27.225  34.782  1.00  0.00     0.148 A 
ATOM     81  C   UNL A   1      46.970  28.978  34.379  1.00  0.00     0.002 A 
ATOM     82  C   UNL A   1      45.985  27.061  35.493  1.00  0.00     0.091 A 
ATOM     83  F   UNL A   1      43.763  26.390  34.928  1.00  0.00    -0.205 F 
ATOM     84  C   UNL A   1      47.075  27.921  35.276  1.00  0.00     0.022 A 
BRANCH  82  85
ATOM     85  S   UNL A   1      46.195  25.790  36.742  1.00  0.00     0.127 S 
ATOM     86  O   UNL A   1      47.558  26.051  37.204  1.00  0.00    -0.237 OA
ATOM     87  O   UNL A   1      45.147  26.132  37.704  1.00  0.00    -0.237 OA
ATOM     88  O   UNL A   1      46.006  24.516  36.060  1.00  0.00    -0.744 OA
ENDBRANCH  82  85
ENDBRANCH  55  78
ENDBRANCH  29  30
ENDBRANCH  22  24
ENDBRANCH  21  22
ENDBRANCH  20  21
ENDBRANCH   1  20
TORSDOF 17
ENDMDL
MODEL 3
REMARK VINA RESULT:      -8.8      4.841     10.551
REMARK SMILES C[C@@H](C(=O)OCCOC(=O)c1ccc(-c2c3nc(c(-c4cccc(S(=O)(=O)[O-])c4F)c4ccc([nH]4)c(-c4cccc(S(=O)(=O)[O-])c4F)c4nc(c(-c5cccc(S(=O)(=O)[O-])c5F)c5ccc2[nH]5)C=C4)C=C3)cc1)c1ccc(Cc2cccs2)cc1F
REMARK SMILES IDX 6 1 5 2 3 3 4 4 2 5 1 6 74 7 75 8 85 9 76 10 84 11 86 12
REMARK SMILES IDX 77 13 78 14 79 15 80 16 83 17 81 18 82 19 7 20 8 21 9 22
REMARK SMILES IDX 10 23 11 24 12 25 73 26 13 27 72 28 14 29 15 30 16 31 66 32
REMARK SMILES IDX 17 33 71 34 65 35 67 36 18 37 70 38 64 39 63 40 19 42 51 43
REMARK SMILES IDX 31 44 50 45 32 46 35 47 49 48 68 49 33 50 34 51 48 53 69 54
REMARK SMILES IDX 36 55 20 56 21 57 29 58 22 59 24 60 30 61 23 62 25 63 26 64
REMARK SMILES IDX 27 65 28 66 52 67 53 68 61 69 54 70 56 71 62 72 55 73 57 74
REMARK SMILES IDX 58 75 59 76 60 77 37 78 38 79 46 80 39 81 41 82 47 83 40 84
REMARK SMILES IDX 42 85 43 86 44 87 45 88
REMARK H PARENT 67 41 35 52
REMARK Flexibility Score: inf
ROOT
ATOM      1  C   UNL A   1      31.874  27.341  26.811  1.00  0.00     0.274 C 
ENDROOT
BRANCH   1   2
ATOM      2  O   UNL A   1      32.885  26.767  25.957  1.00  0.00    -0.462 OA
BRANCH   2   3
ATOM      3  C   UNL A   1      32.793  25.437  25.687  1.00  0.00     0.313 C 
ATOM      4  O   UNL A   1      32.872  24.560  26.539  1.00  0.00    -0.252 OA
BRANCH   3   5
ATOM      5  C   UNL A   1      32.628  25.163  24.183  1.00  0.00     0.129 C 
ATOM      6  C   UNL A   1      33.885  25.424  23.359  1.00  0.00     0.025 C 
BRANCH   5   7
ATOM      7  C   UNL A   1      31.450  25.925  23.615  1.00  0.00     0.002 A 
ATOM      8  C   UNL A   1      31.625  26.962  22.685  1.00  0.00     0.008 A 
ATOM      9  C   UNL A   1      30.166  25.659  24.108  1.00  0.00     0.127 A 
ATOM     10  C   UNL A   1      30.558  27.774  22.353  1.00  0.00     0.004 A 
ATOM     11  C   UNL A   1      29.110  26.498  23.828  1.00  0.00     0.043 A 
ATOM     12  F   UNL A   1      29.958  24.622  24.929  1.00  0.00    -0.207 F 
ATOM     13  C   UNL A   1      29.351  27.616  23.043  1.00  0.00    -0.040 A 
BRANCH  13  14
ATOM     14  C   UNL A   1      28.369  28.719  23.020  1.00  0.00     0.082 C 
BRANCH  14  15
ATOM     15  C   UNL A   1      28.627  29.982  22.173  1.00  0.00     0.009 A 
ATOM     16  C   UNL A   1      28.084  30.768  20.750  1.00  0.00     0.016 A 
ATOM     17  S   UNL A   1      29.340  31.226  23.824  1.00  0.00    -0.149 S 
ATOM     18  C   UNL A   1      27.869  32.672  20.990  1.00  0.00     0.012 A 
ATOM     19  C   UNL A   1      28.667  33.065  22.824  1.00  0.00     0.065 A 
ENDBRANCH  14  15
ENDBRANCH  13  14
ENDBRANCH   5   7
ENDBRANCH   3   5
ENDBRANCH   2   3
ENDBRANCH   1   2
BRANCH   1  20
ATOM     20  C   UNL A   1      31.281  28.601  26.174  1.00  0.00     0.275 C 
BRANCH  20  21
ATOM     21  O   UNL A   1      32.321  29.497  25.714  1.00  0.00    -0.458 OA
BRANCH  21  22
ATOM     22  C   UNL A   1      32.489  30.650  26.416  1.00  0.00     0.338 C 
ATOM     23  O   UNL A   1      31.690  31.569  26.502  1.00  0.00    -0.246 OA
BRANCH  22  24
ATOM     24  C   UNL A   1      33.658  30.536  27.320  1.00  0.00     0.060 A 
ATOM     25  C   UNL A   1      33.989  31.710  27.927  1.00  0.00     0.016 A 
ATOM     26  C   UNL A   1      34.581  29.490  27.423  1.00  0.00     0.016 A 
ATOM     27  C   UNL A   1      35.254  31.866  28.488  1.00  0.00     0.010 A 
ATOM     28  C   UNL A   1      35.806  29.644  28.182  1.00  0.00     0.010 A 
ATOM     29  C   UNL A   1      36.216  30.881  28.738  1.00  0.00    -0.014 A 
BRANCH  29  30
ATOM     30  C   UNL A   1      37.631  31.147  29.518  1.00  0.00     0.031 A 
ATOM     31  C   UNL A   1      38.791  30.280  28.990  1.00  0.00     0.074 A 
ATOM     32  C   UNL A   1      38.076  32.031  30.622  1.00  0.00     0.049 A 
ATOM     33  N   UNL A   1      39.947  29.975  29.526  1.00  0.00    -0.248 NA
ATOM     34  C   UNL A   1      38.614  29.702  27.641  1.00  0.00     0.031 C 
ATOM     35  C   UNL A   1      37.451  33.752  31.796  1.00  0.00     0.029 A 
ATOM     36  N   UNL A   1      38.477  30.819  32.026  1.00  0.00    -0.354 N 
ATOM     37  C   UNL A   1      40.585  29.116  28.626  1.00  0.00     0.074 A 
ATOM     38  C   UNL A   1      39.693  28.947  27.505  1.00  0.00     0.031 C 
ATOM     39  C   UNL A   1      37.447  33.337  33.419  1.00  0.00     0.029 A 
ATOM     40  C   UNL A   1      38.183  31.589  33.664  1.00  0.00     0.049 A 
ATOM     41  H   UNL A   1      38.799  29.898  31.892  1.00  0.00     0.167 HD
ATOM     42  C   UNL A   1      41.804  28.526  28.717  1.00  0.00     0.034 A 
ATOM     43  C   UNL A   1      39.041  31.601  34.740  1.00  0.00     0.034 A 
ATOM     44  C   UNL A   1      42.683  28.704  29.843  1.00  0.00     0.049 A 
ATOM     45  C   UNL A   1      40.485  31.188  34.547  1.00  0.00     0.074 A 
ATOM     46  C   UNL A   1      43.966  28.216  30.015  1.00  0.00     0.029 A 
ATOM     47  N   UNL A   1      42.358  29.399  30.999  1.00  0.00    -0.354 N 
ATOM     48  N   UNL A   1      41.067  30.618  33.517  1.00  0.00    -0.248 NA
ATOM     49  C   UNL A   1      41.420  31.630  35.597  1.00  0.00     0.031 C 
ATOM     50  C   UNL A   1      44.388  28.555  31.303  1.00  0.00     0.029 A 
ATOM     51  C   UNL A   1      43.402  29.324  31.903  1.00  0.00     0.049 A 
ATOM     52  H   UNL A   1      41.510  29.876  31.154  1.00  0.00     0.167 HD
ATOM     53  C   UNL A   1      42.426  30.595  33.814  1.00  0.00     0.074 A 
ATOM     54  C   UNL A   1      42.590  31.331  35.053  1.00  0.00     0.031 C 
ATOM     55  C   UNL A   1      43.458  29.986  33.178  1.00  0.00     0.034 A 
BRANCH  42  56
ATOM     56  C   UNL A   1      42.267  27.628  27.585  1.00  0.00     0.023 A 
ATOM     57  C   UNL A   1      42.896  28.176  26.447  1.00  0.00     0.012 A 
ATOM     58  C   UNL A   1      42.141  26.225  27.681  1.00  0.00     0.148 A 
ATOM     59  C   UNL A   1      43.346  27.354  25.411  1.00  0.00     0.002 A 
ATOM     60  C   UNL A   1      42.636  25.409  26.668  1.00  0.00     0.091 A 
ATOM     61  F   UNL A   1      41.541  25.711  28.763  1.00  0.00    -0.205 F 
ATOM     62  C   UNL A   1      43.225  25.971  25.525  1.00  0.00     0.022 A 
BRANCH  60  63
ATOM     63  S   UNL A   1      42.599  23.612  26.752  1.00  0.00     0.127 S 
ATOM     64  O   UNL A   1      42.684  23.250  25.337  1.00  0.00    -0.237 OA
ATOM     65  O   UNL A   1      43.802  23.318  27.530  1.00  0.00    -0.237 OA
ATOM     66  O   UNL A   1      41.346  23.263  27.406  1.00  0.00    -0.744 OA
ENDBRANCH  60  63
ENDBRANCH  42  56
BRANCH  43  67
ATOM     67  C   UNL A   1      38.658  32.603  35.795  1.00  0.00     0.023 A 
ATOM     68  C   UNL A   1      38.005  32.206  36.991  1.00  0.00     0.012 A 
ATOM     69  C   UNL A   1      39.230  33.882  35.731  1.00  0.00     0.148 A 
ATOM     70  C   UNL A   1      37.935  33.065  38.091  1.00  0.00     0.002 A 
ATOM     71  C   UNL A   1      39.227  34.699  36.857  1.00  0.00     0.091 A 
ATOM     72  F   UNL A   1      39.855  34.241  34.600  1.00  0.00    -0.205 F 
ATOM     73  C   UNL A   1      38.567  34.304  38.031  1.00  0.00     0.022 A 
BRANCH  71  74
ATOM     74  S   UNL A   1      40.272  36.157  36.906  1.00  0.00     0.127 S 
ATOM     75  O   UNL A   1      39.957  36.796  35.633  1.00  0.00    -0.237 OA
ATOM     76  O   UNL A   1      39.782  36.863  38.091  1.00  0.00    -0.237 OA
ATOM     77  O   UNL A   1      41.626  35.634  37.051  1.00  0.00    -0.744 OA
ENDBRANCH  71  74
ENDBRANCH  43  67
BRANCH  55  78
ATOM     78  C   UNL A   1      44.755  29.909  33.948  1.00  0.00     0.023 A 
ATOM     79  C   UNL A   1      45.697  30.950  33.786  1.00  0.00     0.012 A 
ATOM     80  C   UNL A   1      45.027  28.868  34.853  1.00  0.00     0.148 A 
ATOM     81  C   UNL A   1      46.915  30.922  34.456  1.00  0.00     0.002 A 
ATOM     82  C   UNL A   1      46.219  28.880  35.567  1.00  0.00     0.091 A 
ATOM     83  F   UNL A   1      44.122  27.890  34.996  1.00  0.00    -0.205 F 
ATOM     84  C   UNL A   1      47.171  29.891  35.353  1.00  0.00     0.022 A 
BRANCH  82  85
ATOM     85  S   UNL A   1      46.610  27.653  36.816  1.00  0.00     0.127 S 
ATOM     86  O   UNL A   1      47.790  28.242  37.450  1.00  0.00    -0.237 OA
ATOM     87  O   UNL A   1      45.403  27.665  37.643  1.00  0.00    -0.237 OA
ATOM     88  O   UNL A   1      46.849  26.407  36.101  1.00  0.00    -0.744 OA
ENDBRANCH  82  85
ENDBRANCH  55  78
ENDBRANCH  29  30
ENDBRANCH  22  24
ENDBRANCH  21  22
ENDBRANCH  20  21
ENDBRANCH   1  20
TORSDOF 17
ENDMDL
