MODEL 1
REMARK VINA RESULT:     -12.0      0.000      0.000
REMARK SMILES C=CCn1nc(C(=O)OCCOC(=O)c2ccc(-c3c4nc(c(-c5cccc(S(=O)(=O)[O-])c5F)c5ccc([nH]5)c(-c5cccc(S(=O)(=O)[O-])c5F)c5nc(c(-c6cccc(S(=O)(=O)[O-])c6F)c6ccc3[nH]6)C=C5)C=C4)cc2)c2c1CC[C@@H]([NH+]1CCC(C(C)(C)O)CC1)C2
REMARK SMILES IDX 10 1 9 2 7 3 8 4 6 5 4 6 5 7 79 8 78 9 80 10 93 11 81 12
REMARK SMILES IDX 82 13 3 14 2 15 1 16 83 17 84 18 92 19 85 21 91 22 86 23
REMARK SMILES IDX 87 24 88 25 89 26 90 27 11 29 12 30 13 31 14 32 15 33 16 34
REMARK SMILES IDX 77 35 17 36 76 37 18 38 19 39 20 40 70 41 21 42 75 43 69 44
REMARK SMILES IDX 71 45 22 46 74 47 68 48 67 49 23 51 55 52 35 53 54 54 36 55
REMARK SMILES IDX 39 56 53 57 72 58 37 59 38 60 52 62 73 63 40 64 24 65 25 66
REMARK SMILES IDX 33 67 26 68 28 69 34 70 27 71 29 72 30 73 31 74 32 75 56 76
REMARK SMILES IDX 57 77 65 78 58 79 60 80 66 81 59 82 61 83 62 84 63 85 64 86
REMARK SMILES IDX 41 87 42 88 50 89 43 90 45 91 51 92 44 93 46 94 47 95 48 96
REMARK SMILES IDX 49 97
REMARK H PARENT 83 20 90 28 71 50 39 61
REMARK Flexibility Score: inf
ROOT
ATOM      1  C   UNL A   1      33.709  30.281  27.059  1.00  0.00     0.275 C 
ENDROOT
BRANCH   1   2
ATOM      2  O   UNL A   1      32.319  30.039  27.321  1.00  0.00    -0.457 OA
BRANCH   2   3
ATOM      3  C   UNL A   1      31.829  28.760  27.232  1.00  0.00     0.359 C 
ATOM      4  O   UNL A   1      31.723  28.000  28.194  1.00  0.00    -0.244 OA
BRANCH   3   5
ATOM      5  C   UNL A   1      31.450  28.437  25.845  1.00  0.00     0.174 A 
ATOM      6  N   UNL A   1      30.671  28.568  23.856  1.00  0.00    -0.265 N 
ATOM      7  N   UNL A   1      30.977  29.329  24.941  1.00  0.00    -0.165 NA
ATOM      8  C   UNL A   1      30.674  27.240  24.172  1.00  0.00     0.043 A 
ATOM      9  C   UNL A   1      31.496  27.144  25.267  1.00  0.00     0.014 A 
ATOM     10  C   UNL A   1      30.037  26.103  23.486  1.00  0.00     0.062 C 
ATOM     11  C   UNL A   1      32.096  25.866  25.739  1.00  0.00     0.105 C 
ATOM     12  C   UNL A   1      30.524  24.775  24.105  1.00  0.00     0.072 C 
ATOM     13  C   UNL A   1      31.977  24.744  24.662  1.00  0.00     0.189 C 
BRANCH   6  14
ATOM     14  C   UNL A   1      30.364  29.189  22.566  1.00  0.00     0.171 C 
BRANCH  14  15
ATOM     15  C   UNL A   1      28.887  29.441  22.359  1.00  0.00    -0.011 C 
ATOM     16  C   UNL A   1      28.157  30.373  22.993  1.00  0.00     0.006 C 
ENDBRANCH  14  15
ENDBRANCH   6  14
BRANCH  13  17
ATOM     17  N   UNL A   1      33.153  24.673  23.772  1.00  0.00    -0.332 N 
ATOM     18  C   UNL A   1      33.262  23.640  22.756  1.00  0.00     0.262 C 
ATOM     19  C   UNL A   1      34.454  24.902  24.379  1.00  0.00     0.262 C 
ATOM     20  H   UNL A   1      32.872  25.501  23.247  1.00  0.00     0.348 HD
ATOM     21  C   UNL A   1      33.824  22.307  23.247  1.00  0.00     0.068 C 
ATOM     22  C   UNL A   1      34.988  23.695  25.131  1.00  0.00     0.068 C 
ATOM     23  C   UNL A   1      34.873  22.339  24.390  1.00  0.00     0.031 C 
BRANCH  23  24
ATOM     24  C   UNL A   1      34.757  21.142  25.413  1.00  0.00     0.062 C 
ATOM     25  C   UNL A   1      34.311  21.565  26.817  1.00  0.00     0.042 C 
ATOM     26  C   UNL A   1      33.805  20.067  24.876  1.00  0.00     0.042 C 
BRANCH  24  27
ATOM     27  O   UNL A   1      36.023  20.493  25.568  1.00  0.00    -0.390 OA
ATOM     28  H   UNL A   1      36.711  21.015  25.125  1.00  0.00     0.211 HD
ENDBRANCH  24  27
ENDBRANCH  23  24
ENDBRANCH  13  17
ENDBRANCH   3   5
ENDBRANCH   2   3
ENDBRANCH   1   2
BRANCH   1  29
ATOM     29  C   UNL A   1      34.077  31.716  27.402  1.00  0.00     0.275 C 
BRANCH  29  30
ATOM     30  O   UNL A   1      33.009  32.287  28.139  1.00  0.00    -0.458 OA
BRANCH  30  31
ATOM     31  C   UNL A   1      33.113  33.602  28.428  1.00  0.00     0.338 C 
ATOM     32  O   UNL A   1      32.438  34.511  27.979  1.00  0.00    -0.246 OA
BRANCH  31  33
ATOM     33  C   UNL A   1      34.296  33.781  29.271  1.00  0.00     0.060 A 
ATOM     34  C   UNL A   1      35.404  34.382  28.665  1.00  0.00     0.016 A 
ATOM     35  C   UNL A   1      34.397  32.980  30.415  1.00  0.00     0.016 A 
ATOM     36  C   UNL A   1      36.646  33.923  29.023  1.00  0.00     0.010 A 
ATOM     37  C   UNL A   1      35.624  32.477  30.726  1.00  0.00     0.010 A 
ATOM     38  C   UNL A   1      36.710  32.892  29.960  1.00  0.00    -0.014 A 
BRANCH  38  39
ATOM     39  C   UNL A   1      37.977  32.260  30.215  1.00  0.00     0.031 A 
ATOM     40  C   UNL A   1      38.075  30.943  29.552  1.00  0.00     0.074 A 
ATOM     41  C   UNL A   1      38.952  32.938  30.849  1.00  0.00     0.049 A 
ATOM     42  N   UNL A   1      38.190  29.791  30.119  1.00  0.00    -0.248 NA
ATOM     43  C   UNL A   1      37.786  30.873  28.107  1.00  0.00     0.031 C 
ATOM     44  C   UNL A   1      38.966  34.351  31.250  1.00  0.00     0.029 A 
ATOM     45  N   UNL A   1      40.222  32.541  31.106  1.00  0.00    -0.354 N 
ATOM     46  C   UNL A   1      38.224  28.875  29.071  1.00  0.00     0.074 A 
ATOM     47  C   UNL A   1      37.722  29.557  27.914  1.00  0.00     0.031 C 
ATOM     48  C   UNL A   1      40.250  34.744  31.419  1.00  0.00     0.029 A 
ATOM     49  C   UNL A   1      41.120  33.596  31.236  1.00  0.00     0.049 A 
ATOM     50  H   UNL A   1      40.485  31.596  31.192  1.00  0.00     0.167 HD
ATOM     51  C   UNL A   1      38.930  27.719  29.175  1.00  0.00     0.034 A 
ATOM     52  C   UNL A   1      42.464  33.522  31.047  1.00  0.00     0.034 A 
ATOM     53  C   UNL A   1      39.267  27.444  30.548  1.00  0.00     0.049 A 
ATOM     54  C   UNL A   1      42.838  32.085  31.143  1.00  0.00     0.074 A 
ATOM     55  C   UNL A   1      38.529  27.230  31.696  1.00  0.00     0.029 A 
ATOM     56  N   UNL A   1      40.530  27.798  30.961  1.00  0.00    -0.354 N 
ATOM     57  N   UNL A   1      42.717  31.389  32.240  1.00  0.00    -0.248 NA
ATOM     58  C   UNL A   1      42.856  31.308  29.910  1.00  0.00     0.031 C 
ATOM     59  C   UNL A   1      39.241  27.919  32.719  1.00  0.00     0.029 A 
ATOM     60  C   UNL A   1      40.410  28.443  32.165  1.00  0.00     0.049 A 
ATOM     61  H   UNL A   1      41.369  27.620  30.478  1.00  0.00     0.167 HD
ATOM     62  C   UNL A   1      42.172  30.178  31.823  1.00  0.00     0.074 A 
ATOM     63  C   UNL A   1      42.375  30.149  30.373  1.00  0.00     0.031 C 
ATOM     64  C   UNL A   1      41.325  29.467  32.625  1.00  0.00     0.034 A 
BRANCH  51  65
ATOM     65  C   UNL A   1      39.639  27.040  28.030  1.00  0.00     0.023 A 
ATOM     66  C   UNL A   1      39.361  25.669  27.838  1.00  0.00     0.012 A 
ATOM     67  C   UNL A   1      40.738  27.577  27.315  1.00  0.00     0.148 A 
ATOM     68  C   UNL A   1      40.170  24.863  27.033  1.00  0.00     0.002 A 
ATOM     69  C   UNL A   1      41.495  26.787  26.460  1.00  0.00     0.091 A 
ATOM     70  F   UNL A   1      41.155  28.822  27.550  1.00  0.00    -0.205 F 
ATOM     71  C   UNL A   1      41.235  25.421  26.341  1.00  0.00     0.022 A 
BRANCH  69  72
ATOM     72  S   UNL A   1      42.864  27.465  25.511  1.00  0.00     0.127 S 
ATOM     73  O   UNL A   1      42.194  28.499  24.728  1.00  0.00    -0.237 OA
ATOM     74  O   UNL A   1      43.744  27.962  26.570  1.00  0.00    -0.237 OA
ATOM     75  O   UNL A   1      43.414  26.347  24.755  1.00  0.00    -0.744 OA
ENDBRANCH  69  72
ENDBRANCH  51  65
BRANCH  52  76
ATOM     76  C   UNL A   1      43.352  34.536  30.420  1.00  0.00     0.023 A 
ATOM     77  C   UNL A   1      44.683  34.683  30.859  1.00  0.00     0.012 A 
ATOM     78  C   UNL A   1      42.981  35.187  29.220  1.00  0.00     0.148 A 
ATOM     79  C   UNL A   1      45.610  35.439  30.123  1.00  0.00     0.002 A 
ATOM     80  C   UNL A   1      43.897  35.954  28.505  1.00  0.00     0.091 A 
ATOM     81  F   UNL A   1      41.761  34.975  28.715  1.00  0.00    -0.205 F 
ATOM     82  C   UNL A   1      45.218  36.074  28.947  1.00  0.00     0.022 A 
BRANCH  80  83
ATOM     83  S   UNL A   1      43.439  36.782  26.975  1.00  0.00     0.127 S 
ATOM     84  O   UNL A   1      42.326  37.629  27.407  1.00  0.00    -0.237 OA
ATOM     85  O   UNL A   1      44.664  37.501  26.642  1.00  0.00    -0.237 OA
ATOM     86  O   UNL A   1      43.053  35.721  26.053  1.00  0.00    -0.744 OA
ENDBRANCH  80  83
ENDBRANCH  52  76
BRANCH  64  87
ATOM     87  C   UNL A   1      41.127  29.934  34.049  1.00  0.00     0.023 A 
ATOM     88  C   UNL A   1      42.080  29.701  35.065  1.00  0.00     0.012 A 
ATOM     89  C   UNL A   1      40.062  30.809  34.315  1.00  0.00     0.148 A 
ATOM     90  C   UNL A   1      41.962  30.308  36.319  1.00  0.00     0.002 A 
ATOM     91  C   UNL A   1      39.976  31.451  35.544  1.00  0.00     0.091 A 
ATOM     92  F   UNL A   1      39.168  31.030  33.339  1.00  0.00    -0.205 F 
ATOM     93  C   UNL A   1      40.918  31.196  36.554  1.00  0.00     0.022 A 
BRANCH  91  94
ATOM     94  S   UNL A   1      38.738  32.710  35.853  1.00  0.00     0.127 S 
ATOM     95  O   UNL A   1      39.010  33.673  34.789  1.00  0.00    -0.237 OA
ATOM     96  O   UNL A   1      37.486  31.967  35.700  1.00  0.00    -0.237 OA
ATOM     97  O   UNL A   1      38.982  33.186  37.210  1.00  0.00    -0.744 OA
ENDBRANCH  91  94
ENDBRANCH  64  87
ENDBRANCH  38  39
ENDBRANCH  31  33
ENDBRANCH  30  31
ENDBRANCH  29  30
ENDBRANCH   1  29
TORSDOF 19
ENDMDL
MODEL 2
REMARK VINA RESULT:     -11.8      3.741      7.741
REMARK SMILES C=CCn1nc(C(=O)OCCOC(=O)c2ccc(-c3c4nc(c(-c5cccc(S(=O)(=O)[O-])c5F)c5ccc([nH]5)c(-c5cccc(S(=O)(=O)[O-])c5F)c5nc(c(-c6cccc(S(=O)(=O)[O-])c6F)c6ccc3[nH]6)C=C5)C=C4)cc2)c2c1CC[C@@H]([NH+]1CCC(C(C)(C)O)CC1)C2
REMARK SMILES IDX 10 1 9 2 7 3 8 4 6 5 4 6 5 7 79 8 78 9 80 10 93 11 81 12
REMARK SMILES IDX 82 13 3 14 2 15 1 16 83 17 84 18 92 19 85 21 91 22 86 23
REMARK SMILES IDX 87 24 88 25 89 26 90 27 11 29 12 30 13 31 14 32 15 33 16 34
REMARK SMILES IDX 77 35 17 36 76 37 18 38 19 39 20 40 70 41 21 42 75 43 69 44
REMARK SMILES IDX 71 45 22 46 74 47 68 48 67 49 23 51 55 52 35 53 54 54 36 55
REMARK SMILES IDX 39 56 53 57 72 58 37 59 38 60 52 62 73 63 40 64 24 65 25 66
REMARK SMILES IDX 33 67 26 68 28 69 34 70 27 71 29 72 30 73 31 74 32 75 56 76
REMARK SMILES IDX 57 77 65 78 58 79 60 80 66 81 59 82 61 83 62 84 63 85 64 86
REMARK SMILES IDX 41 87 42 88 50 89 43 90 45 91 51 92 44 93 46 94 47 95 48 96
REMARK SMILES IDX 49 97
REMARK H PARENT 83 20 90 28 71 50 39 61
REMARK Flexibility Score: inf
ROOT
ATOM      1  C   UNL A   1      33.010  29.696  26.658  1.00  0.00     0.275 C 
ENDROOT
BRANCH   1   2
ATOM      2  O   UNL A   1      32.734  30.193  25.340  1.00  0.00    -0.457 OA
BRANCH   2   3
ATOM      3  C   UNL A   1      32.871  29.355  24.262  1.00  0.00     0.359 C 
ATOM      4  O   UNL A   1      33.851  29.352  23.518  1.00  0.00    -0.244 OA
BRANCH   3   5
ATOM      5  C   UNL A   1      31.698  28.473  24.129  1.00  0.00     0.174 A 
ATOM      6  N   UNL A   1      29.704  27.755  23.828  1.00  0.00    -0.265 N 
ATOM      7  N   UNL A   1      30.480  28.861  23.676  1.00  0.00    -0.165 NA
ATOM      8  C   UNL A   1      30.326  26.823  24.609  1.00  0.00     0.043 A 
ATOM      9  C   UNL A   1      31.664  27.102  24.484  1.00  0.00     0.014 A 
ATOM     10  C   UNL A   1      29.760  25.693  25.365  1.00  0.00     0.062 C 
ATOM     11  C   UNL A   1      32.744  26.143  24.849  1.00  0.00     0.105 C 
ATOM     12  C   UNL A   1      30.897  24.797  25.901  1.00  0.00     0.072 C 
ATOM     13  C   UNL A   1      32.188  24.698  25.039  1.00  0.00     0.189 C 
BRANCH   6  14
ATOM     14  C   UNL A   1      28.374  27.682  23.220  1.00  0.00     0.171 C 
BRANCH  14  15
ATOM     15  C   UNL A   1      27.736  29.037  23.009  1.00  0.00    -0.011 C 
ATOM     16  C   UNL A   1      27.909  29.823  21.934  1.00  0.00     0.006 C 
ENDBRANCH  14  15
ENDBRANCH   6  14
BRANCH  13  17
ATOM     17  N   UNL A   1      32.240  23.894  23.800  1.00  0.00    -0.332 N 
ATOM     18  C   UNL A   1      31.583  22.601  23.720  1.00  0.00     0.262 C 
ATOM     19  C   UNL A   1      33.514  23.841  23.102  1.00  0.00     0.262 C 
ATOM     20  H   UNL A   1      31.605  24.520  23.305  1.00  0.00     0.348 HD
ATOM     21  C   UNL A   1      32.399  21.427  24.259  1.00  0.00     0.068 C 
ATOM     22  C   UNL A   1      34.506  22.880  23.732  1.00  0.00     0.068 C 
ATOM     23  C   UNL A   1      33.943  21.488  24.111  1.00  0.00     0.031 C 
BRANCH  23  24
ATOM     24  C   UNL A   1      34.737  20.866  25.326  1.00  0.00     0.062 C 
ATOM     25  C   UNL A   1      36.200  20.540  25.012  1.00  0.00     0.042 C 
ATOM     26  C   UNL A   1      34.670  21.796  26.544  1.00  0.00     0.042 C 
BRANCH  24  27
ATOM     27  O   UNL A   1      34.129  19.639  25.744  1.00  0.00    -0.390 OA
ATOM     28  H   UNL A   1      33.960  19.670  26.699  1.00  0.00     0.211 HD
ENDBRANCH  24  27
ENDBRANCH  23  24
ENDBRANCH  13  17
ENDBRANCH   3   5
ENDBRANCH   2   3
ENDBRANCH   1   2
BRANCH   1  29
ATOM     29  C   UNL A   1      33.679  30.766  27.506  1.00  0.00     0.275 C 
BRANCH  29  30
ATOM     30  O   UNL A   1      35.083  30.592  27.416  1.00  0.00    -0.458 OA
BRANCH  30  31
ATOM     31  C   UNL A   1      35.846  31.561  27.966  1.00  0.00     0.338 C 
ATOM     32  O   UNL A   1      35.891  32.735  27.645  1.00  0.00    -0.246 OA
BRANCH  31  33
ATOM     33  C   UNL A   1      36.744  30.927  28.934  1.00  0.00     0.060 A 
ATOM     34  C   UNL A   1      37.745  31.739  29.474  1.00  0.00     0.016 A 
ATOM     35  C   UNL A   1      36.826  29.529  28.913  1.00  0.00     0.016 A 
ATOM     36  C   UNL A   1      38.967  31.161  29.710  1.00  0.00     0.010 A 
ATOM     37  C   UNL A   1      38.055  28.968  29.084  1.00  0.00     0.010 A 
ATOM     38  C   UNL A   1      39.119  29.812  29.388  1.00  0.00    -0.014 A 
BRANCH  38  39
ATOM     39  C   UNL A   1      40.432  29.226  29.442  1.00  0.00     0.031 A 
ATOM     40  C   UNL A   1      40.891  29.042  30.835  1.00  0.00     0.074 A 
ATOM     41  C   UNL A   1      41.017  28.779  28.315  1.00  0.00     0.049 A 
ATOM     42  N   UNL A   1      41.898  29.612  31.406  1.00  0.00    -0.248 NA
ATOM     43  C   UNL A   1      40.005  28.320  31.767  1.00  0.00     0.031 C 
ATOM     44  C   UNL A   1      40.443  28.687  26.967  1.00  0.00     0.029 A 
ATOM     45  N   UNL A   1      42.201  28.135  28.181  1.00  0.00    -0.354 N 
ATOM     46  C   UNL A   1      41.896  29.124  32.709  1.00  0.00     0.074 A 
ATOM     47  C   UNL A   1      40.597  28.559  32.935  1.00  0.00     0.031 C 
ATOM     48  C   UNL A   1      41.152  27.784  26.251  1.00  0.00     0.029 A 
ATOM     49  C   UNL A   1      42.269  27.322  27.056  1.00  0.00     0.049 A 
ATOM     50  H   UNL A   1      42.944  28.234  28.820  1.00  0.00     0.167 HD
ATOM     51  C   UNL A   1      43.056  28.969  33.399  1.00  0.00     0.034 A 
ATOM     52  C   UNL A   1      43.096  26.254  26.896  1.00  0.00     0.034 A 
ATOM     53  C   UNL A   1      44.130  29.695  32.770  1.00  0.00     0.049 A 
ATOM     54  C   UNL A   1      44.190  26.399  27.893  1.00  0.00     0.074 A 
ATOM     55  C   UNL A   1      44.349  31.026  32.477  1.00  0.00     0.029 A 
ATOM     56  N   UNL A   1      44.972  28.975  31.954  1.00  0.00    -0.354 N 
ATOM     57  N   UNL A   1      45.057  27.374  27.863  1.00  0.00    -0.248 NA
ATOM     58  C   UNL A   1      44.007  25.768  29.193  1.00  0.00     0.031 C 
ATOM     59  C   UNL A   1      44.954  31.019  31.187  1.00  0.00     0.029 A 
ATOM     60  C   UNL A   1      45.147  29.692  30.800  1.00  0.00     0.049 A 
ATOM     61  H   UNL A   1      45.375  28.102  32.163  1.00  0.00     0.167 HD
ATOM     62  C   UNL A   1      45.162  27.785  29.187  1.00  0.00     0.074 A 
ATOM     63  C   UNL A   1      44.573  26.698  29.972  1.00  0.00     0.031 C 
ATOM     64  C   UNL A   1      45.411  29.090  29.509  1.00  0.00     0.034 A 
BRANCH  51  65
ATOM     65  C   UNL A   1      43.316  27.877  34.407  1.00  0.00     0.023 A 
ATOM     66  C   UNL A   1      43.647  28.291  35.715  1.00  0.00     0.012 A 
ATOM     67  C   UNL A   1      43.518  26.510  34.097  1.00  0.00     0.148 A 
ATOM     68  C   UNL A   1      44.209  27.409  36.643  1.00  0.00     0.002 A 
ATOM     69  C   UNL A   1      44.009  25.621  35.045  1.00  0.00     0.091 A 
ATOM     70  F   UNL A   1      43.367  26.070  32.846  1.00  0.00    -0.205 F 
ATOM     71  C   UNL A   1      44.388  26.073  36.309  1.00  0.00     0.022 A 
BRANCH  69  72
ATOM     72  S   UNL A   1      44.227  23.874  34.680  1.00  0.00     0.127 S 
ATOM     73  O   UNL A   1      44.782  23.379  35.936  1.00  0.00    -0.237 OA
ATOM     74  O   UNL A   1      42.853  23.454  34.401  1.00  0.00    -0.237 OA
ATOM     75  O   UNL A   1      45.112  23.818  33.523  1.00  0.00    -0.744 OA
ENDBRANCH  69  72
ENDBRANCH  51  65
BRANCH  52  76
ATOM     76  C   UNL A   1      42.794  24.961  26.227  1.00  0.00     0.023 A 
ATOM     77  C   UNL A   1      43.664  24.451  25.242  1.00  0.00     0.012 A 
ATOM     78  C   UNL A   1      41.792  24.098  26.728  1.00  0.00     0.148 A 
ATOM     79  C   UNL A   1      43.546  23.129  24.786  1.00  0.00     0.002 A 
ATOM     80  C   UNL A   1      41.664  22.794  26.257  1.00  0.00     0.091 A 
ATOM     81  F   UNL A   1      41.024  24.512  27.743  1.00  0.00    -0.205 F 
ATOM     82  C   UNL A   1      42.547  22.300  25.292  1.00  0.00     0.022 A 
BRANCH  80  83
ATOM     83  S   UNL A   1      40.397  21.685  26.890  1.00  0.00     0.127 S 
ATOM     84  O   UNL A   1      40.750  21.595  28.308  1.00  0.00    -0.237 OA
ATOM     85  O   UNL A   1      39.175  22.430  26.608  1.00  0.00    -0.237 OA
ATOM     86  O   UNL A   1      40.566  20.436  26.157  1.00  0.00    -0.744 OA
ENDBRANCH  80  83
ENDBRANCH  52  76
BRANCH  64  87
ATOM     87  C   UNL A   1      45.746  30.050  28.390  1.00  0.00     0.023 A 
ATOM     88  C   UNL A   1      44.764  30.818  27.728  1.00  0.00     0.012 A 
ATOM     89  C   UNL A   1      47.099  30.340  28.152  1.00  0.00     0.148 A 
ATOM     90  C   UNL A   1      45.121  31.834  26.835  1.00  0.00     0.002 A 
ATOM     91  C   UNL A   1      47.451  31.383  27.305  1.00  0.00     0.091 A 
ATOM     92  F   UNL A   1      48.023  29.610  28.795  1.00  0.00    -0.205 F 
ATOM     93  C   UNL A   1      46.466  32.127  26.636  1.00  0.00     0.022 A 
BRANCH  91  94
ATOM     94  S   UNL A   1      49.158  31.898  27.121  1.00  0.00     0.127 S 
ATOM     95  O   UNL A   1      49.526  32.230  28.495  1.00  0.00    -0.237 OA
ATOM     96  O   UNL A   1      49.797  30.693  26.590  1.00  0.00    -0.237 OA
ATOM     97  O   UNL A   1      49.139  33.018  26.187  1.00  0.00    -0.744 OA
ENDBRANCH  91  94
ENDBRANCH  64  87
ENDBRANCH  38  39
ENDBRANCH  31  33
ENDBRANCH  30  31
ENDBRANCH  29  30
ENDBRANCH   1  29
TORSDOF 19
ENDMDL
MODEL 3
REMARK VINA RESULT:     -11.8      4.439      9.873
REMARK SMILES C=CCn1nc(C(=O)OCCOC(=O)c2ccc(-c3c4nc(c(-c5cccc(S(=O)(=O)[O-])c5F)c5ccc([nH]5)c(-c5cccc(S(=O)(=O)[O-])c5F)c5nc(c(-c6cccc(S(=O)(=O)[O-])c6F)c6ccc3[nH]6)C=C5)C=C4)cc2)c2c1CC[C@@H]([NH+]1CCC(C(C)(C)O)CC1)C2
REMARK SMILES IDX 10 1 9 2 7 3 8 4 6 5 4 6 5 7 79 8 78 9 80 10 93 11 81 12
REMARK SMILES IDX 82 13 3 14 2 15 1 16 83 17 84 18 92 19 85 21 91 22 86 23
REMARK SMILES IDX 87 24 88 25 89 26 90 27 11 29 12 30 13 31 14 32 15 33 16 34
REMARK SMILES IDX 77 35 17 36 76 37 18 38 19 39 20 40 70 41 21 42 75 43 69 44
REMARK SMILES IDX 71 45 22 46 74 47 68 48 67 49 23 51 55 52 35 53 54 54 36 55
REMARK SMILES IDX 39 56 53 57 72 58 37 59 38 60 52 62 73 63 40 64 24 65 25 66
REMARK SMILES IDX 33 67 26 68 28 69 34 70 27 71 29 72 30 73 31 74 32 75 56 76
REMARK SMILES IDX 57 77 65 78 58 79 60 80 66 81 59 82 61 83 62 84 63 85 64 86
REMARK SMILES IDX 41 87 42 88 50 89 43 90 45 91 51 92 44 93 46 94 47 95 48 96
REMARK SMILES IDX 49 97
REMARK H PARENT 83 20 90 28 71 50 39 61
REMARK Flexibility Score: inf
ROOT
ATOM      1  C   UNL A   1      38.096  23.114  25.726  1.00  0.00     0.275 C 
ENDROOT
BRANCH   1   2
ATOM      2  O   UNL A   1      36.841  23.662  25.300  1.00  0.00    -0.457 OA
BRANCH   2   3
ATOM      3  C   UNL A   1      36.322  23.294  24.084  1.00  0.00     0.359 C 
ATOM      4  O   UNL A   1      36.974  23.275  23.040  1.00  0.00    -0.244 OA
BRANCH   3   5
ATOM      5  C   UNL A   1      34.901  22.925  24.207  1.00  0.00     0.174 A 
ATOM      6  N   UNL A   1      33.095  21.810  24.481  1.00  0.00    -0.265 N 
ATOM      7  N   UNL A   1      34.443  21.722  24.632  1.00  0.00    -0.165 NA
ATOM      8  C   UNL A   1      32.756  22.895  23.725  1.00  0.00     0.043 A 
ATOM      9  C   UNL A   1      33.809  23.763  23.870  1.00  0.00     0.014 A 
ATOM     10  C   UNL A   1      31.521  23.176  22.974  1.00  0.00     0.062 C 
ATOM     11  C   UNL A   1      33.734  25.213  23.538  1.00  0.00     0.105 C 
ATOM     12  C   UNL A   1      31.531  24.635  22.471  1.00  0.00     0.072 C 
ATOM     13  C   UNL A   1      32.260  25.686  23.358  1.00  0.00     0.189 C 
BRANCH   6  14
ATOM     14  C   UNL A   1      32.207  20.803  25.067  1.00  0.00     0.171 C 
BRANCH  14  15
ATOM     15  C   UNL A   1      32.564  19.387  24.673  1.00  0.00    -0.011 C 
ATOM     16  C   UNL A   1      32.461  18.870  23.439  1.00  0.00     0.006 C 
ENDBRANCH  14  15
ENDBRANCH   6  14
BRANCH  13  17
ATOM     17  N   UNL A   1      31.663  26.200  24.607  1.00  0.00    -0.332 N 
ATOM     18  C   UNL A   1      30.260  25.981  24.912  1.00  0.00     0.262 C 
ATOM     19  C   UNL A   1      32.051  27.539  25.021  1.00  0.00     0.262 C 
ATOM     20  H   UNL A   1      32.147  25.512  25.184  1.00  0.00     0.348 HD
ATOM     21  C   UNL A   1      29.298  26.993  24.291  1.00  0.00     0.068 C 
ATOM     22  C   UNL A   1      31.330  28.637  24.259  1.00  0.00     0.068 C 
ATOM     23  C   UNL A   1      29.800  28.450  24.103  1.00  0.00     0.031 C 
BRANCH  23  24
ATOM     24  C   UNL A   1      29.274  29.153  22.791  1.00  0.00     0.062 C 
ATOM     25  C   UNL A   1      27.820  28.815  22.443  1.00  0.00     0.042 C 
ATOM     26  C   UNL A   1      29.435  30.675  22.895  1.00  0.00     0.042 C 
BRANCH  24  27
ATOM     27  O   UNL A   1      30.062  28.759  21.663  1.00  0.00    -0.390 OA
ATOM     28  H   UNL A   1      29.998  27.799  21.542  1.00  0.00     0.211 HD
ENDBRANCH  24  27
ENDBRANCH  23  24
ENDBRANCH  13  17
ENDBRANCH   3   5
ENDBRANCH   2   3
ENDBRANCH   1   2
BRANCH   1  29
ATOM     29  C   UNL A   1      38.015  21.598  25.824  1.00  0.00     0.275 C 
BRANCH  29  30
ATOM     30  O   UNL A   1      39.078  21.045  25.067  1.00  0.00    -0.458 OA
BRANCH  30  31
ATOM     31  C   UNL A   1      39.791  20.064  25.661  1.00  0.00     0.338 C 
ATOM     32  O   UNL A   1      39.494  18.886  25.749  1.00  0.00    -0.246 OA
BRANCH  31  33
ATOM     33  C   UNL A   1      40.936  20.687  26.329  1.00  0.00     0.060 A 
ATOM     34  C   UNL A   1      40.947  20.623  27.726  1.00  0.00     0.016 A 
ATOM     35  C   UNL A   1      41.662  21.641  25.605  1.00  0.00     0.016 A 
ATOM     36  C   UNL A   1      41.436  21.711  28.403  1.00  0.00     0.010 A 
ATOM     37  C   UNL A   1      42.088  22.748  26.274  1.00  0.00     0.010 A 
ATOM     38  C   UNL A   1      41.881  22.797  27.649  1.00  0.00    -0.014 A 
BRANCH  38  39
ATOM     39  C   UNL A   1      42.221  24.022  28.324  1.00  0.00     0.031 A 
ATOM     40  C   UNL A   1      41.177  25.052  28.144  1.00  0.00     0.074 A 
ATOM     41  C   UNL A   1      43.295  24.069  29.134  1.00  0.00     0.049 A 
ATOM     42  N   UNL A   1      41.296  26.185  27.539  1.00  0.00    -0.248 NA
ATOM     43  C   UNL A   1      39.785  24.693  28.473  1.00  0.00     0.031 C 
ATOM     44  C   UNL A   1      44.168  22.965  29.552  1.00  0.00     0.029 A 
ATOM     45  N   UNL A   1      43.721  25.098  29.906  1.00  0.00    -0.354 N 
ATOM     46  C   UNL A   1      40.037  26.774  27.627  1.00  0.00     0.074 A 
ATOM     47  C   UNL A   1      39.117  25.729  27.969  1.00  0.00     0.031 C 
ATOM     48  C   UNL A   1      44.808  23.322  30.691  1.00  0.00     0.029 A 
ATOM     49  C   UNL A   1      44.461  24.695  31.012  1.00  0.00     0.049 A 
ATOM     50  H   UNL A   1      43.526  26.041  29.703  1.00  0.00     0.167 HD
ATOM     51  C   UNL A   1      39.901  28.124  27.693  1.00  0.00     0.034 A 
ATOM     52  C   UNL A   1      44.628  25.407  32.158  1.00  0.00     0.034 A 
ATOM     53  C   UNL A   1      41.116  28.785  27.292  1.00  0.00     0.049 A 
ATOM     54  C   UNL A   1      44.293  26.822  31.843  1.00  0.00     0.074 A 
ATOM     55  C   UNL A   1      41.864  28.804  26.132  1.00  0.00     0.029 A 
ATOM     56  N   UNL A   1      41.954  29.209  28.298  1.00  0.00    -0.354 N 
ATOM     57  N   UNL A   1      44.986  27.550  31.011  1.00  0.00    -0.248 NA
ATOM     58  C   UNL A   1      42.916  27.252  32.051  1.00  0.00     0.031 C 
ATOM     59  C   UNL A   1      43.218  28.780  26.571  1.00  0.00     0.029 A 
ATOM     60  C   UNL A   1      43.229  28.833  27.966  1.00  0.00     0.049 A 
ATOM     61  H   UNL A   1      41.684  29.696  29.110  1.00  0.00     0.167 HD
ATOM     62  C   UNL A   1      44.028  28.211  30.248  1.00  0.00     0.074 A 
ATOM     63  C   UNL A   1      42.779  28.067  30.998  1.00  0.00     0.031 C 
ATOM     64  C   UNL A   1      44.257  28.526  28.939  1.00  0.00     0.034 A 
BRANCH  51  65
ATOM     65  C   UNL A   1      38.823  28.841  28.469  1.00  0.00     0.023 A 
ATOM     66  C   UNL A   1      38.049  29.781  27.754  1.00  0.00     0.012 A 
ATOM     67  C   UNL A   1      38.701  28.851  29.880  1.00  0.00     0.148 A 
ATOM     68  C   UNL A   1      37.250  30.722  28.408  1.00  0.00     0.002 A 
ATOM     69  C   UNL A   1      37.850  29.741  30.522  1.00  0.00     0.091 A 
ATOM     70  F   UNL A   1      39.502  28.097  30.634  1.00  0.00    -0.205 F 
ATOM     71  C   UNL A   1      37.147  30.700  29.793  1.00  0.00     0.022 A 
BRANCH  69  72
ATOM     72  S   UNL A   1      37.649  29.734  32.310  1.00  0.00     0.127 S 
ATOM     73  O   UNL A   1      36.520  30.643  32.481  1.00  0.00    -0.237 OA
ATOM     74  O   UNL A   1      37.356  28.325  32.572  1.00  0.00    -0.237 OA
ATOM     75  O   UNL A   1      38.923  30.188  32.852  1.00  0.00    -0.744 OA
ENDBRANCH  69  72
ENDBRANCH  51  65
BRANCH  52  76
ATOM     76  C   UNL A   1      44.675  24.891  33.551  1.00  0.00     0.023 A 
ATOM     77  C   UNL A   1      43.481  24.623  34.250  1.00  0.00     0.012 A 
ATOM     78  C   UNL A   1      45.884  24.418  34.113  1.00  0.00     0.148 A 
ATOM     79  C   UNL A   1      43.492  23.901  35.454  1.00  0.00     0.002 A 
ATOM     80  C   UNL A   1      45.894  23.722  35.318  1.00  0.00     0.091 A 
ATOM     81  F   UNL A   1      47.021  24.555  33.420  1.00  0.00    -0.205 F 
ATOM     82  C   UNL A   1      44.697  23.450  35.989  1.00  0.00     0.022 A 
BRANCH  80  83
ATOM     83  S   UNL A   1      47.424  23.111  36.039  1.00  0.00     0.127 S 
ATOM     84  O   UNL A   1      48.191  24.344  36.221  1.00  0.00    -0.237 OA
ATOM     85  O   UNL A   1      46.951  22.495  37.274  1.00  0.00    -0.237 OA
ATOM     86  O   UNL A   1      47.990  22.201  35.050  1.00  0.00    -0.744 OA
ENDBRANCH  80  83
ENDBRANCH  52  76
BRANCH  64  87
ATOM     87  C   UNL A   1      45.644  28.300  28.381  1.00  0.00     0.023 A 
ATOM     88  C   UNL A   1      46.714  29.190  28.621  1.00  0.00     0.012 A 
ATOM     89  C   UNL A   1      45.922  27.061  27.784  1.00  0.00     0.148 A 
ATOM     90  C   UNL A   1      48.024  28.859  28.258  1.00  0.00     0.002 A 
ATOM     91  C   UNL A   1      47.230  26.714  27.472  1.00  0.00     0.091 A 
ATOM     92  F   UNL A   1      44.899  26.220  27.570  1.00  0.00    -0.205 F 
ATOM     93  C   UNL A   1      48.284  27.614  27.697  1.00  0.00     0.022 A 
BRANCH  91  94
ATOM     94  S   UNL A   1      47.643  25.072  26.881  1.00  0.00     0.127 S 
ATOM     95  O   UNL A   1      48.912  24.815  27.558  1.00  0.00    -0.237 OA
ATOM     96  O   UNL A   1      46.518  24.270  27.364  1.00  0.00    -0.237 OA
ATOM     97  O   UNL A   1      47.715  25.176  25.428  1.00  0.00    -0.744 OA
ENDBRANCH  91  94
ENDBRANCH  64  87
ENDBRANCH  38  39
ENDBRANCH  31  33
ENDBRANCH  30  31
ENDBRANCH  29  30
ENDBRANCH   1  29
TORSDOF 19
ENDMDL
