MODEL 1
REMARK VINA RESULT:     -12.5      0.000      0.000
REMARK SMILES Cc1ccc(-c2nc(C)cc(N3CCCC[C@H]3C(=O)OCCOC(=O)c3ccc(-c4c5nc(c(-c6cccc(S(=O)(=O)[O-])c6F)c6ccc([nH]6)c(-c6cccc(S(=O)(=O)[O-])c6F)c6nc(c(-c7cccc(S(=O)(=O)[O-])c7F)c7ccc4[nH]7)C=C6)C=C5)cc3)n2)cc1
REMARK SMILES IDX 22 1 21 2 20 3 18 4 19 5 17 6 12 7 13 8 14 9 16 10 15 11
REMARK SMILES IDX 11 12 6 13 7 14 89 15 8 16 9 17 10 18 5 19 1 20 2 21 3 22
REMARK SMILES IDX 91 23 4 24 90 25 23 26 24 27 25 28 26 29 27 30 88 31 28 32
REMARK SMILES IDX 87 33 29 34 30 35 31 36 81 37 32 38 86 39 80 40 82 41 33 42
REMARK SMILES IDX 85 43 79 44 78 45 34 47 66 48 46 49 65 50 47 51 50 52 64 53
REMARK SMILES IDX 83 54 48 55 49 56 63 58 84 59 51 60 35 61 36 62 44 63 37 64
REMARK SMILES IDX 39 65 45 66 38 67 40 68 41 69 42 70 43 71 67 72 68 73 76 74
REMARK SMILES IDX 69 75 71 76 77 77 70 78 72 79 73 80 74 81 75 82 52 83 53 84
REMARK SMILES IDX 61 85 54 86 56 87 62 88 55 89 57 90 58 91 59 92 60 93
REMARK H PARENT 82 46 50 57
REMARK Flexibility Score: inf
ROOT
ATOM      1  C   UNL A   1      37.676  23.685  25.878  1.00  0.00     0.275 C 
ENDROOT
BRANCH   1   2
ATOM      2  C   UNL A   1      36.422  22.770  25.730  1.00  0.00     0.274 C 
BRANCH   2   3
ATOM      3  O   UNL A   1      35.119  23.321  25.964  1.00  0.00    -0.461 OA
BRANCH   3   4
ATOM      4  C   UNL A   1      34.139  22.424  26.221  1.00  0.00     0.328 C 
ATOM      5  O   UNL A   1      34.385  21.335  26.731  1.00  0.00    -0.250 OA
BRANCH   4   6
ATOM      6  C   UNL A   1      32.724  22.977  25.878  1.00  0.00     0.193 C 
ATOM      7  N   UNL A   1      32.793  23.845  24.687  1.00  0.00    -0.343 N 
ATOM      8  C   UNL A   1      33.281  23.242  23.457  1.00  0.00     0.119 C 
ATOM      9  C   UNL A   1      32.700  21.844  23.204  1.00  0.00     0.022 C 
ATOM     10  C   UNL A   1      31.811  21.786  25.576  1.00  0.00     0.037 C 
ATOM     11  C   UNL A   1      32.397  20.973  24.427  1.00  0.00     0.005 C 
BRANCH   7  12
ATOM     12  C   UNL A   1      32.093  25.035  24.568  1.00  0.00     0.133 A 
ATOM     13  C   UNL A   1      31.941  27.272  25.034  1.00  0.00     0.161 A 
ATOM     14  N   UNL A   1      30.648  27.375  24.707  1.00  0.00    -0.233 NA
ATOM     15  N   UNL A   1      32.700  26.161  24.976  1.00  0.00    -0.211 NA
ATOM     16  C   UNL A   1      30.058  26.259  24.275  1.00  0.00     0.043 A 
ATOM     17  C   UNL A   1      28.609  26.415  23.931  1.00  0.00     0.067 C 
ATOM     18  C   UNL A   1      30.741  25.051  24.245  1.00  0.00     0.070 A 
BRANCH  13  19
ATOM     19  C   UNL A   1      32.464  28.409  25.778  1.00  0.00     0.019 A 
ATOM     20  C   UNL A   1      33.856  31.825  27.997  1.00  0.00     0.044 C 
ATOM     21  C   UNL A   1      33.395  30.643  27.205  1.00  0.00    -0.051 A 
ATOM     22  C   UNL A   1      32.168  30.702  26.540  1.00  0.00     0.004 A 
ATOM     23  C   UNL A   1      34.162  29.472  27.135  1.00  0.00     0.004 A 
ATOM     24  C   UNL A   1      31.714  29.598  25.828  1.00  0.00     0.012 A 
ATOM     25  C   UNL A   1      33.697  28.360  26.432  1.00  0.00     0.012 A 
ENDBRANCH  13  19
ENDBRANCH   7  12
ENDBRANCH   4   6
ENDBRANCH   3   4
ENDBRANCH   2   3
ENDBRANCH   1   2
BRANCH   1  26
ATOM     26  O   UNL A   1      38.844  23.400  26.726  1.00  0.00    -0.458 OA
BRANCH  26  27
ATOM     27  C   UNL A   1      40.055  23.978  26.947  1.00  0.00     0.338 C 
ATOM     28  O   UNL A   1      41.097  23.387  26.783  1.00  0.00    -0.246 OA
BRANCH  27  29
ATOM     29  C   UNL A   1      40.047  25.380  27.369  1.00  0.00     0.060 A 
ATOM     30  C   UNL A   1      40.586  26.385  26.550  1.00  0.00     0.016 A 
ATOM     31  C   UNL A   1      39.397  25.694  28.545  1.00  0.00     0.016 A 
ATOM     32  C   UNL A   1      40.411  27.717  26.864  1.00  0.00     0.010 A 
ATOM     33  C   UNL A   1      38.980  26.980  28.721  1.00  0.00     0.010 A 
ATOM     34  C   UNL A   1      39.640  27.973  27.980  1.00  0.00    -0.014 A 
BRANCH  34  35
ATOM     35  C   UNL A   1      39.933  29.103  28.832  1.00  0.00     0.031 A 
ATOM     36  C   UNL A   1      38.971  30.184  28.898  1.00  0.00     0.074 A 
ATOM     37  C   UNL A   1      40.914  28.730  29.693  1.00  0.00     0.049 A 
ATOM     38  N   UNL A   1      39.283  31.372  29.264  1.00  0.00    -0.248 NA
ATOM     39  C   UNL A   1      37.585  30.069  28.430  1.00  0.00     0.031 C 
ATOM     40  C   UNL A   1      41.124  28.984  31.100  1.00  0.00     0.029 A 
ATOM     41  N   UNL A   1      41.937  27.823  29.372  1.00  0.00    -0.354 N 
ATOM     42  C   UNL A   1      38.079  31.956  29.575  1.00  0.00     0.074 A 
ATOM     43  C   UNL A   1      37.117  31.284  28.742  1.00  0.00     0.031 C 
ATOM     44  C   UNL A   1      42.319  28.457  31.456  1.00  0.00     0.029 A 
ATOM     45  C   UNL A   1      42.995  27.984  30.248  1.00  0.00     0.049 A 
ATOM     46  H   UNL A   1      41.906  27.171  28.635  1.00  0.00     0.167 HD
ATOM     47  C   UNL A   1      37.992  32.635  30.752  1.00  0.00     0.034 A 
ATOM     48  C   UNL A   1      44.207  28.380  29.751  1.00  0.00     0.034 A 
ATOM     49  C   UNL A   1      39.311  32.615  31.437  1.00  0.00     0.049 A 
ATOM     50  C   UNL A   1      44.367  29.869  30.059  1.00  0.00     0.074 A 
ATOM     51  C   UNL A   1      39.776  31.929  32.546  1.00  0.00     0.029 A 
ATOM     52  N   UNL A   1      40.449  33.083  30.776  1.00  0.00    -0.354 N 
ATOM     53  N   UNL A   1      43.445  30.618  30.599  1.00  0.00    -0.248 NA
ATOM     54  C   UNL A   1      45.564  30.628  29.723  1.00  0.00     0.031 C 
ATOM     55  C   UNL A   1      41.204  31.914  32.490  1.00  0.00     0.029 A 
ATOM     56  C   UNL A   1      41.616  32.601  31.361  1.00  0.00     0.049 A 
ATOM     57  H   UNL A   1      40.428  33.678  29.992  1.00  0.00     0.167 HD
ATOM     58  C   UNL A   1      43.802  31.932  30.521  1.00  0.00     0.074 A 
ATOM     59  C   UNL A   1      45.177  31.874  30.043  1.00  0.00     0.031 C 
ATOM     60  C   UNL A   1      42.922  32.951  30.784  1.00  0.00     0.034 A 
BRANCH  47  61
ATOM     61  C   UNL A   1      36.715  33.074  31.461  1.00  0.00     0.023 A 
ATOM     62  C   UNL A   1      36.569  32.629  32.794  1.00  0.00     0.012 A 
ATOM     63  C   UNL A   1      35.644  33.859  30.957  1.00  0.00     0.148 A 
ATOM     64  C   UNL A   1      35.444  32.927  33.573  1.00  0.00     0.002 A 
ATOM     65  C   UNL A   1      34.541  34.198  31.750  1.00  0.00     0.091 A 
ATOM     66  F   UNL A   1      35.630  34.251  29.684  1.00  0.00    -0.205 F 
ATOM     67  C   UNL A   1      34.435  33.724  33.058  1.00  0.00     0.022 A 
BRANCH  65  68
ATOM     68  S   UNL A   1      33.207  35.269  31.168  1.00  0.00     0.127 S 
ATOM     69  O   UNL A   1      32.212  35.126  32.231  1.00  0.00    -0.237 OA
ATOM     70  O   UNL A   1      33.858  36.579  31.118  1.00  0.00    -0.237 OA
ATOM     71  O   UNL A   1      32.795  34.750  29.870  1.00  0.00    -0.744 OA
ENDBRANCH  65  68
ENDBRANCH  47  61
BRANCH  48  72
ATOM     72  C   UNL A   1      44.518  27.778  28.387  1.00  0.00     0.023 A 
ATOM     73  C   UNL A   1      44.429  28.608  27.234  1.00  0.00     0.012 A 
ATOM     74  C   UNL A   1      45.309  26.626  28.300  1.00  0.00     0.148 A 
ATOM     75  C   UNL A   1      45.244  28.383  26.117  1.00  0.00     0.002 A 
ATOM     76  C   UNL A   1      46.187  26.465  27.238  1.00  0.00     0.091 A 
ATOM     77  F   UNL A   1      45.279  25.718  29.280  1.00  0.00    -0.205 F 
ATOM     78  C   UNL A   1      46.165  27.340  26.146  1.00  0.00     0.022 A 
BRANCH  76  79
ATOM     79  S   UNL A   1      47.579  25.351  27.479  1.00  0.00     0.127 S 
ATOM     80  O   UNL A   1      48.098  25.785  28.771  1.00  0.00    -0.237 OA
ATOM     81  O   UNL A   1      46.968  24.031  27.520  1.00  0.00    -0.237 OA
ATOM     82  O   UNL A   1      48.415  25.659  26.326  1.00  0.00    -0.744 OA
ENDBRANCH  76  79
ENDBRANCH  48  72
BRANCH  60  83
ATOM     83  C   UNL A   1      43.230  34.414  30.527  1.00  0.00     0.023 A 
ATOM     84  C   UNL A   1      43.612  35.300  31.550  1.00  0.00     0.012 A 
ATOM     85  C   UNL A   1      43.244  34.928  29.206  1.00  0.00     0.148 A 
ATOM     86  C   UNL A   1      43.855  36.653  31.303  1.00  0.00     0.002 A 
ATOM     87  C   UNL A   1      43.641  36.234  28.949  1.00  0.00     0.091 A 
ATOM     88  F   UNL A   1      42.839  34.167  28.179  1.00  0.00    -0.205 F 
ATOM     89  C   UNL A   1      43.889  37.118  29.997  1.00  0.00     0.022 A 
BRANCH  87  90
ATOM     90  S   UNL A   1      43.998  36.776  27.274  1.00  0.00     0.127 S 
ATOM     91  O   UNL A   1      42.667  36.799  26.673  1.00  0.00    -0.237 OA
ATOM     92  O   UNL A   1      44.592  38.096  27.493  1.00  0.00    -0.237 OA
ATOM     93  O   UNL A   1      44.928  35.788  26.741  1.00  0.00    -0.744 OA
ENDBRANCH  87  90
ENDBRANCH  60  83
ENDBRANCH  34  35
ENDBRANCH  27  29
ENDBRANCH  26  27
ENDBRANCH   1  26
TORSDOF 16
ENDMDL
MODEL 2
REMARK VINA RESULT:     -12.4      3.989      9.679
REMARK SMILES Cc1ccc(-c2nc(C)cc(N3CCCC[C@H]3C(=O)OCCOC(=O)c3ccc(-c4c5nc(c(-c6cccc(S(=O)(=O)[O-])c6F)c6ccc([nH]6)c(-c6cccc(S(=O)(=O)[O-])c6F)c6nc(c(-c7cccc(S(=O)(=O)[O-])c7F)c7ccc4[nH]7)C=C6)C=C5)cc3)n2)cc1
REMARK SMILES IDX 22 1 21 2 20 3 18 4 19 5 17 6 12 7 13 8 14 9 16 10 15 11
REMARK SMILES IDX 11 12 6 13 7 14 89 15 8 16 9 17 10 18 5 19 1 20 2 21 3 22
REMARK SMILES IDX 91 23 4 24 90 25 23 26 24 27 25 28 26 29 27 30 88 31 28 32
REMARK SMILES IDX 87 33 29 34 30 35 31 36 81 37 32 38 86 39 80 40 82 41 33 42
REMARK SMILES IDX 85 43 79 44 78 45 34 47 66 48 46 49 65 50 47 51 50 52 64 53
REMARK SMILES IDX 83 54 48 55 49 56 63 58 84 59 51 60 35 61 36 62 44 63 37 64
REMARK SMILES IDX 39 65 45 66 38 67 40 68 41 69 42 70 43 71 67 72 68 73 76 74
REMARK SMILES IDX 69 75 71 76 77 77 70 78 72 79 73 80 74 81 75 82 52 83 53 84
REMARK SMILES IDX 61 85 54 86 56 87 62 88 55 89 57 90 58 91 59 92 60 93
REMARK H PARENT 82 46 50 57
REMARK Flexibility Score: inf
ROOT
ATOM      1  C   UNL A   1      33.674  30.442  27.375  1.00  0.00     0.275 C 
ENDROOT
BRANCH   1   2
ATOM      2  C   UNL A   1      32.308  29.796  26.992  1.00  0.00     0.274 C 
BRANCH   2   3
ATOM      3  O   UNL A   1      32.192  29.079  25.756  1.00  0.00    -0.461 OA
BRANCH   3   4
ATOM      4  C   UNL A   1      31.378  29.634  24.828  1.00  0.00     0.328 C 
ATOM      5  O   UNL A   1      30.712  30.634  25.077  1.00  0.00    -0.250 OA
BRANCH   4   6
ATOM      6  C   UNL A   1      31.473  28.914  23.450  1.00  0.00     0.193 C 
ATOM      7  N   UNL A   1      31.130  27.487  23.598  1.00  0.00    -0.343 N 
ATOM      8  C   UNL A   1      29.804  27.176  24.108  1.00  0.00     0.119 C 
ATOM      9  C   UNL A   1      28.703  28.042  23.481  1.00  0.00     0.022 C 
ATOM     10  C   UNL A   1      30.467  29.574  22.502  1.00  0.00     0.037 C 
ATOM     11  C   UNL A   1      29.067  29.480  23.098  1.00  0.00     0.005 C 
BRANCH   7  12
ATOM     12  C   UNL A   1      31.808  26.467  22.951  1.00  0.00     0.133 A 
ATOM     13  C   UNL A   1      33.424  24.844  23.011  1.00  0.00     0.161 A 
ATOM     14  N   UNL A   1      33.464  24.666  21.687  1.00  0.00    -0.233 NA
ATOM     15  N   UNL A   1      32.630  25.700  23.685  1.00  0.00    -0.211 NA
ATOM     16  C   UNL A   1      32.624  25.411  20.965  1.00  0.00     0.043 A 
ATOM     17  C   UNL A   1      32.710  25.189  19.487  1.00  0.00     0.067 C 
ATOM     18  C   UNL A   1      31.817  26.367  21.564  1.00  0.00     0.070 A 
BRANCH  13  19
ATOM     19  C   UNL A   1      34.544  24.254  23.730  1.00  0.00     0.019 A 
ATOM     20  C   UNL A   1      37.926  22.475  25.712  1.00  0.00     0.044 C 
ATOM     21  C   UNL A   1      36.731  23.077  25.042  1.00  0.00    -0.051 A 
ATOM     22  C   UNL A   1      36.426  22.710  23.730  1.00  0.00     0.004 A 
ATOM     23  C   UNL A   1      35.927  24.016  25.702  1.00  0.00     0.004 A 
ATOM     24  C   UNL A   1      35.339  23.288  23.086  1.00  0.00     0.012 A 
ATOM     25  C   UNL A   1      34.844  24.606  25.048  1.00  0.00     0.012 A 
ENDBRANCH  13  19
ENDBRANCH   7  12
ENDBRANCH   4   6
ENDBRANCH   3   4
ENDBRANCH   2   3
ENDBRANCH   1   2
BRANCH   1  26
ATOM     26  O   UNL A   1      33.896  31.871  27.644  1.00  0.00    -0.458 OA
BRANCH  26  27
ATOM     27  C   UNL A   1      34.442  32.603  28.653  1.00  0.00     0.338 C 
ATOM     28  O   UNL A   1      33.864  33.529  29.173  1.00  0.00    -0.246 OA
BRANCH  27  29
ATOM     29  C   UNL A   1      35.772  32.196  29.113  1.00  0.00     0.060 A 
ATOM     30  C   UNL A   1      36.932  32.727  28.529  1.00  0.00     0.016 A 
ATOM     31  C   UNL A   1      35.845  31.359  30.207  1.00  0.00     0.016 A 
ATOM     32  C   UNL A   1      38.172  32.486  29.084  1.00  0.00     0.010 A 
ATOM     33  C   UNL A   1      37.007  31.339  30.919  1.00  0.00     0.010 A 
ATOM     34  C   UNL A   1      38.172  31.752  30.253  1.00  0.00    -0.014 A 
BRANCH  34  35
ATOM     35  C   UNL A   1      39.251  30.836  30.546  1.00  0.00     0.031 A 
ATOM     36  C   UNL A   1      39.279  29.562  29.856  1.00  0.00     0.074 A 
ATOM     37  C   UNL A   1      40.237  31.538  31.160  1.00  0.00     0.049 A 
ATOM     38  N   UNL A   1      39.908  28.540  30.308  1.00  0.00    -0.248 NA
ATOM     39  C   UNL A   1      38.492  29.271  28.652  1.00  0.00     0.031 C 
ATOM     40  C   UNL A   1      41.676  31.506  31.041  1.00  0.00     0.029 A 
ATOM     41  N   UNL A   1      40.007  32.631  32.013  1.00  0.00    -0.354 N 
ATOM     42  C   UNL A   1      40.029  27.711  29.219  1.00  0.00     0.074 A 
ATOM     43  C   UNL A   1      38.894  28.021  28.391  1.00  0.00     0.031 C 
ATOM     44  C   UNL A   1      42.201  32.353  31.957  1.00  0.00     0.029 A 
ATOM     45  C   UNL A   1      41.118  32.841  32.811  1.00  0.00     0.049 A 
ATOM     46  H   UNL A   1      39.182  33.166  32.039  1.00  0.00     0.167 HD
ATOM     47  C   UNL A   1      41.254  27.169  28.972  1.00  0.00     0.034 A 
ATOM     48  C   UNL A   1      40.990  32.709  34.166  1.00  0.00     0.034 A 
ATOM     49  C   UNL A   1      42.210  27.598  30.027  1.00  0.00     0.049 A 
ATOM     50  C   UNL A   1      41.579  31.353  34.555  1.00  0.00     0.074 A 
ATOM     51  C   UNL A   1      43.260  28.500  30.023  1.00  0.00     0.029 A 
ATOM     52  N   UNL A   1      41.919  27.359  31.372  1.00  0.00    -0.354 N 
ATOM     53  N   UNL A   1      42.013  30.461  33.706  1.00  0.00    -0.248 NA
ATOM     54  C   UNL A   1      41.663  30.885  35.932  1.00  0.00     0.031 C 
ATOM     55  C   UNL A   1      43.533  28.867  31.377  1.00  0.00     0.029 A 
ATOM     56  C   UNL A   1      42.665  28.182  32.211  1.00  0.00     0.049 A 
ATOM     57  H   UNL A   1      41.266  26.693  31.687  1.00  0.00     0.167 HD
ATOM     58  C   UNL A   1      42.247  29.280  34.344  1.00  0.00     0.074 A 
ATOM     59  C   UNL A   1      42.096  29.627  35.751  1.00  0.00     0.031 C 
ATOM     60  C   UNL A   1      42.472  28.109  33.666  1.00  0.00     0.034 A 
BRANCH  47  61
ATOM     61  C   UNL A   1      41.715  26.507  27.677  1.00  0.00     0.023 A 
ATOM     62  C   UNL A   1      41.957  27.380  26.593  1.00  0.00     0.012 A 
ATOM     63  C   UNL A   1      41.921  25.127  27.411  1.00  0.00     0.148 A 
ATOM     64  C   UNL A   1      42.364  26.927  25.333  1.00  0.00     0.002 A 
ATOM     65  C   UNL A   1      42.374  24.677  26.164  1.00  0.00     0.091 A 
ATOM     66  F   UNL A   1      41.631  24.207  28.329  1.00  0.00    -0.205 F 
ATOM     67  C   UNL A   1      42.587  25.576  25.120  1.00  0.00     0.022 A 
BRANCH  65  68
ATOM     68  S   UNL A   1      42.732  22.939  25.821  1.00  0.00     0.127 S 
ATOM     69  O   UNL A   1      43.738  22.626  26.836  1.00  0.00    -0.237 OA
ATOM     70  O   UNL A   1      41.432  22.303  26.037  1.00  0.00    -0.237 OA
ATOM     71  O   UNL A   1      43.212  22.879  24.446  1.00  0.00    -0.744 OA
ENDBRANCH  65  68
ENDBRANCH  47  61
BRANCH  48  72
ATOM     72  C   UNL A   1      39.650  33.211  34.690  1.00  0.00     0.023 A 
ATOM     73  C   UNL A   1      38.454  32.749  34.074  1.00  0.00     0.012 A 
ATOM     74  C   UNL A   1      39.558  33.709  35.996  1.00  0.00     0.148 A 
ATOM     75  C   UNL A   1      37.265  32.624  34.804  1.00  0.00     0.002 A 
ATOM     76  C   UNL A   1      38.410  33.489  36.743  1.00  0.00     0.091 A 
ATOM     77  F   UNL A   1      40.605  34.326  36.551  1.00  0.00    -0.205 F 
ATOM     78  C   UNL A   1      37.262  32.944  36.158  1.00  0.00     0.022 A 
BRANCH  76  79
ATOM     79  S   UNL A   1      38.563  33.570  38.534  1.00  0.00     0.127 S 
ATOM     80  O   UNL A   1      38.837  34.986  38.754  1.00  0.00    -0.237 OA
ATOM     81  O   UNL A   1      37.254  33.156  39.017  1.00  0.00    -0.237 OA
ATOM     82  O   UNL A   1      39.678  32.664  38.782  1.00  0.00    -0.744 OA
ENDBRANCH  76  79
ENDBRANCH  48  72
BRANCH  60  83
ATOM     83  C   UNL A   1      42.550  26.751  34.337  1.00  0.00     0.023 A 
ATOM     84  C   UNL A   1      41.526  26.252  35.163  1.00  0.00     0.012 A 
ATOM     85  C   UNL A   1      43.632  25.874  34.071  1.00  0.00     0.148 A 
ATOM     86  C   UNL A   1      41.630  25.015  35.804  1.00  0.00     0.002 A 
ATOM     87  C   UNL A   1      43.652  24.583  34.584  1.00  0.00     0.091 A 
ATOM     88  F   UNL A   1      44.676  26.290  33.340  1.00  0.00    -0.205 F 
ATOM     89  C   UNL A   1      42.686  24.170  35.499  1.00  0.00     0.022 A 
BRANCH  87  90
ATOM     90  S   UNL A   1      44.823  23.367  33.972  1.00  0.00     0.127 S 
ATOM     91  O   UNL A   1      44.377  22.150  34.646  1.00  0.00    -0.237 OA
ATOM     92  O   UNL A   1      44.572  23.391  32.529  1.00  0.00    -0.237 OA
ATOM     93  O   UNL A   1      46.136  23.870  34.354  1.00  0.00    -0.744 OA
ENDBRANCH  87  90
ENDBRANCH  60  83
ENDBRANCH  34  35
ENDBRANCH  27  29
ENDBRANCH  26  27
ENDBRANCH   1  26
TORSDOF 16
ENDMDL
MODEL 3
REMARK VINA RESULT:     -12.3      3.914      9.873
REMARK SMILES Cc1ccc(-c2nc(C)cc(N3CCCC[C@H]3C(=O)OCCOC(=O)c3ccc(-c4c5nc(c(-c6cccc(S(=O)(=O)[O-])c6F)c6ccc([nH]6)c(-c6cccc(S(=O)(=O)[O-])c6F)c6nc(c(-c7cccc(S(=O)(=O)[O-])c7F)c7ccc4[nH]7)C=C6)C=C5)cc3)n2)cc1
REMARK SMILES IDX 22 1 21 2 20 3 18 4 19 5 17 6 12 7 13 8 14 9 16 10 15 11
REMARK SMILES IDX 11 12 6 13 7 14 89 15 8 16 9 17 10 18 5 19 1 20 2 21 3 22
REMARK SMILES IDX 91 23 4 24 90 25 23 26 24 27 25 28 26 29 27 30 88 31 28 32
REMARK SMILES IDX 87 33 29 34 30 35 31 36 81 37 32 38 86 39 80 40 82 41 33 42
REMARK SMILES IDX 85 43 79 44 78 45 34 47 66 48 46 49 65 50 47 51 50 52 64 53
REMARK SMILES IDX 83 54 48 55 49 56 63 58 84 59 51 60 35 61 36 62 44 63 37 64
REMARK SMILES IDX 39 65 45 66 38 67 40 68 41 69 42 70 43 71 67 72 68 73 76 74
REMARK SMILES IDX 69 75 71 76 77 77 70 78 72 79 73 80 74 81 75 82 52 83 53 84
REMARK SMILES IDX 61 85 54 86 56 87 62 88 55 89 57 90 58 91 59 92 60 93
REMARK H PARENT 82 46 50 57
REMARK Flexibility Score: inf
ROOT
ATOM      1  C   UNL A   1      33.672  30.610  27.238  1.00  0.00     0.275 C 
ENDROOT
BRANCH   1   2
ATOM      2  C   UNL A   1      32.284  29.898  27.219  1.00  0.00     0.274 C 
BRANCH   2   3
ATOM      3  O   UNL A   1      31.934  29.073  26.100  1.00  0.00    -0.461 OA
BRANCH   3   4
ATOM      4  C   UNL A   1      31.949  27.738  26.326  1.00  0.00     0.328 C 
ATOM      5  O   UNL A   1      31.408  27.250  27.314  1.00  0.00    -0.250 OA
BRANCH   4   6
ATOM      6  C   UNL A   1      32.634  26.949  25.171  1.00  0.00     0.193 C 
ATOM      7  N   UNL A   1      32.543  25.498  25.424  1.00  0.00    -0.343 N 
ATOM      8  C   UNL A   1      31.210  24.930  25.545  1.00  0.00     0.119 C 
ATOM      9  C   UNL A   1      30.234  25.462  24.486  1.00  0.00     0.022 C 
ATOM     10  C   UNL A   1      31.892  27.276  23.871  1.00  0.00     0.037 C 
ATOM     11  C   UNL A   1      30.420  26.908  24.018  1.00  0.00     0.005 C 
BRANCH   7  12
ATOM     12  C   UNL A   1      33.582  24.615  25.181  1.00  0.00     0.133 A 
ATOM     13  C   UNL A   1      34.265  22.496  24.640  1.00  0.00     0.161 A 
ATOM     14  N   UNL A   1      35.535  22.680  25.015  1.00  0.00    -0.233 NA
ATOM     15  N   UNL A   1      33.272  23.406  24.687  1.00  0.00    -0.211 NA
ATOM     16  C   UNL A   1      35.844  23.893  25.478  1.00  0.00     0.043 A 
ATOM     17  C   UNL A   1      37.272  24.051  25.898  1.00  0.00     0.067 C 
ATOM     18  C   UNL A   1      34.873  24.873  25.627  1.00  0.00     0.070 A 
BRANCH  13  19
ATOM     19  C   UNL A   1      33.896  21.103  24.434  1.00  0.00     0.019 A 
ATOM     20  C   UNL A   1      32.909  16.942  23.944  1.00  0.00     0.044 C 
ATOM     21  C   UNL A   1      33.254  18.391  24.082  1.00  0.00    -0.051 A 
ATOM     22  C   UNL A   1      34.491  18.750  24.623  1.00  0.00     0.004 A 
ATOM     23  C   UNL A   1      32.351  19.391  23.699  1.00  0.00     0.004 A 
ATOM     24  C   UNL A   1      34.808  20.093  24.788  1.00  0.00     0.012 A 
ATOM     25  C   UNL A   1      32.666  20.739  23.879  1.00  0.00     0.012 A 
ENDBRANCH  13  19
ENDBRANCH   7  12
ENDBRANCH   4   6
ENDBRANCH   3   4
ENDBRANCH   2   3
ENDBRANCH   1   2
BRANCH   1  26
ATOM     26  O   UNL A   1      33.910  32.000  27.656  1.00  0.00    -0.458 OA
BRANCH  26  27
ATOM     27  C   UNL A   1      34.403  32.616  28.764  1.00  0.00     0.338 C 
ATOM     28  O   UNL A   1      33.774  33.443  29.383  1.00  0.00    -0.246 OA
BRANCH  27  29
ATOM     29  C   UNL A   1      35.739  32.207  29.204  1.00  0.00     0.060 A 
ATOM     30  C   UNL A   1      36.891  32.710  28.580  1.00  0.00     0.016 A 
ATOM     31  C   UNL A   1      35.829  31.397  30.318  1.00  0.00     0.016 A 
ATOM     32  C   UNL A   1      38.141  32.470  29.113  1.00  0.00     0.010 A 
ATOM     33  C   UNL A   1      37.006  31.383  31.003  1.00  0.00     0.010 A 
ATOM     34  C   UNL A   1      38.160  31.765  30.300  1.00  0.00    -0.014 A 
BRANCH  34  35
ATOM     35  C   UNL A   1      39.236  30.845  30.592  1.00  0.00     0.031 A 
ATOM     36  C   UNL A   1      39.253  29.567  29.909  1.00  0.00     0.074 A 
ATOM     37  C   UNL A   1      40.230  31.546  31.195  1.00  0.00     0.049 A 
ATOM     38  N   UNL A   1      39.879  28.545  30.364  1.00  0.00    -0.248 NA
ATOM     39  C   UNL A   1      38.456  29.274  28.712  1.00  0.00     0.031 C 
ATOM     40  C   UNL A   1      41.668  31.506  31.066  1.00  0.00     0.029 A 
ATOM     41  N   UNL A   1      40.012  32.646  32.042  1.00  0.00    -0.354 N 
ATOM     42  C   UNL A   1      39.988  27.709  29.279  1.00  0.00     0.074 A 
ATOM     43  C   UNL A   1      38.850  28.020  28.456  1.00  0.00     0.031 C 
ATOM     44  C   UNL A   1      42.203  32.356  31.974  1.00  0.00     0.029 A 
ATOM     45  C   UNL A   1      41.128  32.854  32.831  1.00  0.00     0.049 A 
ATOM     46  H   UNL A   1      39.189  33.186  32.070  1.00  0.00     0.167 HD
ATOM     47  C   UNL A   1      41.209  27.159  29.027  1.00  0.00     0.034 A 
ATOM     48  C   UNL A   1      41.008  32.731  34.189  1.00  0.00     0.034 A 
ATOM     49  C   UNL A   1      42.174  27.589  30.073  1.00  0.00     0.049 A 
ATOM     50  C   UNL A   1      41.593  31.375  34.582  1.00  0.00     0.074 A 
ATOM     51  C   UNL A   1      43.229  28.485  30.057  1.00  0.00     0.029 A 
ATOM     52  N   UNL A   1      41.891  27.360  31.421  1.00  0.00    -0.354 N 
ATOM     53  N   UNL A   1      42.017  30.476  33.735  1.00  0.00    -0.248 NA
ATOM     54  C   UNL A   1      41.683  30.915  35.961  1.00  0.00     0.031 C 
ATOM     55  C   UNL A   1      43.512  28.859  31.406  1.00  0.00     0.029 A 
ATOM     56  C   UNL A   1      42.646  28.183  32.250  1.00  0.00     0.049 A 
ATOM     57  H   UNL A   1      41.237  26.699  31.745  1.00  0.00     0.167 HD
ATOM     58  C   UNL A   1      42.249  29.297  34.379  1.00  0.00     0.074 A 
ATOM     59  C   UNL A   1      42.109  29.654  35.785  1.00  0.00     0.031 C 
ATOM     60  C   UNL A   1      42.463  28.120  33.707  1.00  0.00     0.034 A 
BRANCH  47  61
ATOM     61  C   UNL A   1      41.658  26.486  27.734  1.00  0.00     0.023 A 
ATOM     62  C   UNL A   1      41.915  27.353  26.648  1.00  0.00     0.012 A 
ATOM     63  C   UNL A   1      41.839  25.103  27.470  1.00  0.00     0.148 A 
ATOM     64  C   UNL A   1      42.313  26.890  25.388  1.00  0.00     0.002 A 
ATOM     65  C   UNL A   1      42.284  24.642  26.224  1.00  0.00     0.091 A 
ATOM     66  F   UNL A   1      41.534  24.189  28.389  1.00  0.00    -0.205 F 
ATOM     67  C   UNL A   1      42.512  25.535  25.177  1.00  0.00     0.022 A 
BRANCH  65  68
ATOM     68  S   UNL A   1      42.612  22.898  25.884  1.00  0.00     0.127 S 
ATOM     69  O   UNL A   1      41.281  22.304  26.010  1.00  0.00    -0.237 OA
ATOM     70  O   UNL A   1      43.132  22.939  24.516  1.00  0.00    -0.237 OA
ATOM     71  O   UNL A   1      43.577  22.455  26.883  1.00  0.00    -0.744 OA
ENDBRANCH  65  68
ENDBRANCH  47  61
BRANCH  48  72
ATOM     72  C   UNL A   1      39.675  33.244  34.718  1.00  0.00     0.023 A 
ATOM     73  C   UNL A   1      38.473  32.790  34.107  1.00  0.00     0.012 A 
ATOM     74  C   UNL A   1      39.592  33.744  36.024  1.00  0.00     0.148 A 
ATOM     75  C   UNL A   1      37.286  32.675  34.843  1.00  0.00     0.002 A 
ATOM     76  C   UNL A   1      38.446  33.533  36.777  1.00  0.00     0.091 A 
ATOM     77  F   UNL A   1      40.647  34.353  36.575  1.00  0.00    -0.205 F 
ATOM     78  C   UNL A   1      37.292  32.996  36.196  1.00  0.00     0.022 A 
BRANCH  76  79
ATOM     79  S   UNL A   1      38.608  33.613  38.567  1.00  0.00     0.127 S 
ATOM     80  O   UNL A   1      37.305  33.135  39.014  1.00  0.00    -0.237 OA
ATOM     81  O   UNL A   1      39.692  32.688  38.863  1.00  0.00    -0.237 OA
ATOM     82  O   UNL A   1      38.869  35.031  38.782  1.00  0.00    -0.744 OA
ENDBRANCH  76  79
ENDBRANCH  48  72
BRANCH  60  83
ATOM     83  C   UNL A   1      42.538  26.766  34.386  1.00  0.00     0.023 A 
ATOM     84  C   UNL A   1      41.502  26.263  35.194  1.00  0.00     0.012 A 
ATOM     85  C   UNL A   1      43.632  25.896  34.145  1.00  0.00     0.148 A 
ATOM     86  C   UNL A   1      41.603  25.031  35.843  1.00  0.00     0.002 A 
ATOM     87  C   UNL A   1      43.652  24.608  34.665  1.00  0.00     0.091 A 
ATOM     88  F   UNL A   1      44.687  26.317  33.433  1.00  0.00    -0.205 F 
ATOM     89  C   UNL A   1      42.671  24.192  35.563  1.00  0.00     0.022 A 
BRANCH  87  90
ATOM     90  S   UNL A   1      44.843  23.398  34.081  1.00  0.00     0.127 S 
ATOM     91  O   UNL A   1      44.635  23.440  32.636  1.00  0.00    -0.237 OA
ATOM     92  O   UNL A   1      46.114  23.968  34.533  1.00  0.00    -0.237 OA
ATOM     93  O   UNL A   1      44.482  22.152  34.746  1.00  0.00    -0.744 OA
ENDBRANCH  87  90
ENDBRANCH  60  83
ENDBRANCH  34  35
ENDBRANCH  27  29
ENDBRANCH  26  27
ENDBRANCH   1  26
TORSDOF 16
ENDMDL
