MODEL 1
REMARK VINA RESULT:     -10.7      0.000      0.000
REMARK SMILES C[C@H]([NH3+])C(=O)N1CCC[C@H]1C(=O)OCCOC(=O)c1ccc(-c2c3nc(c(-c4cccc(S(=O)(=O)[O-])c4F)c4ccc([nH]4)c(-c4cccc(S(=O)(=O)[O-])c4F)c4nc(c(-c5cccc(S(=O)(=O)[O-])c5F)c5ccc2[nH]5)C=C4)C=C3)cc1
REMARK SMILES IDX 14 1 13 2 11 3 12 4 10 5 6 6 7 7 8 8 9 9 4 10 5 11 2 12 1 13
REMARK SMILES IDX 3 14 15 18 16 19 17 20 18 21 19 22 20 23 81 24 21 25 80 26
REMARK SMILES IDX 22 27 23 28 24 29 74 30 25 31 79 32 73 33 75 34 26 35 78 36
REMARK SMILES IDX 72 37 71 38 27 40 59 41 39 42 58 43 40 44 43 45 57 46 76 47
REMARK SMILES IDX 41 48 42 49 56 51 77 52 44 53 28 54 29 55 37 56 30 57 32 58
REMARK SMILES IDX 38 59 31 60 33 61 34 62 35 63 36 64 60 65 61 66 69 67 62 68
REMARK SMILES IDX 64 69 70 70 63 71 65 72 66 73 67 74 68 75 45 76 46 77 54 78
REMARK SMILES IDX 47 79 49 80 55 81 48 82 50 83 51 84 52 85 53 86
REMARK H PARENT 3 15 3 16 3 17 75 39 43 50
REMARK Flexibility Score: inf
ROOT
ATOM      1  C   UNL A   1      35.351  20.359  25.032  1.00  0.00     0.274 C 
ENDROOT
BRANCH   1   2
ATOM      2  O   UNL A   1      34.778  21.579  25.544  1.00  0.00    -0.461 OA
BRANCH   2   3
ATOM      3  C   UNL A   1      33.624  21.993  24.937  1.00  0.00     0.328 C 
ATOM      4  O   UNL A   1      33.072  21.412  24.011  1.00  0.00    -0.250 OA
BRANCH   3   5
ATOM      5  C   UNL A   1      33.079  23.249  25.640  1.00  0.00     0.195 C 
ATOM      6  N   UNL A   1      32.446  24.178  24.696  1.00  0.00    -0.324 N 
ATOM      7  C   UNL A   1      31.008  24.200  24.872  1.00  0.00     0.121 C 
ATOM      8  C   UNL A   1      30.805  23.797  26.319  1.00  0.00     0.024 C 
ATOM      9  C   UNL A   1      31.980  22.880  26.642  1.00  0.00     0.039 C 
BRANCH   6  10
ATOM     10  C   UNL A   1      33.237  24.881  23.814  1.00  0.00     0.281 C 
ATOM     11  O   UNL A   1      34.085  25.671  24.248  1.00  0.00    -0.268 OA
BRANCH  10  12
ATOM     12  C   UNL A   1      33.006  24.798  22.290  1.00  0.00     0.268 C 
ATOM     13  C   UNL A   1      31.906  25.770  21.878  1.00  0.00     0.086 C 
BRANCH  12  14
ATOM     14  N   UNL A   1      32.769  23.442  21.778  1.00  0.00    -0.348 N 
ATOM     15  H   UNL A   1      31.849  23.399  21.340  1.00  0.00     0.345 HD
ATOM     16  H   UNL A   1      32.809  22.776  22.550  1.00  0.00     0.345 HD
ATOM     17  H   UNL A   1      33.484  23.208  21.090  1.00  0.00     0.345 HD
ENDBRANCH  12  14
ENDBRANCH  10  12
ENDBRANCH   6  10
ENDBRANCH   3   5
ENDBRANCH   2   3
ENDBRANCH   1   2
BRANCH   1  18
ATOM     18  C   UNL A   1      36.834  20.540  24.722  1.00  0.00     0.275 C 
BRANCH  18  19
ATOM     19  O   UNL A   1      37.429  21.419  25.692  1.00  0.00    -0.458 OA
BRANCH  19  20
ATOM     20  C   UNL A   1      38.726  21.188  25.985  1.00  0.00     0.338 C 
ATOM     21  O   UNL A   1      39.359  20.162  25.806  1.00  0.00    -0.246 OA
BRANCH  20  22
ATOM     22  C   UNL A   1      39.322  22.412  26.544  1.00  0.00     0.060 A 
ATOM     23  C   UNL A   1      38.867  23.657  26.110  1.00  0.00     0.016 A 
ATOM     24  C   UNL A   1      40.411  22.321  27.408  1.00  0.00     0.016 A 
ATOM     25  C   UNL A   1      39.547  24.815  26.474  1.00  0.00     0.010 A 
ATOM     26  C   UNL A   1      41.041  23.492  27.840  1.00  0.00     0.010 A 
ATOM     27  C   UNL A   1      40.638  24.746  27.349  1.00  0.00    -0.014 A 
BRANCH  27  28
ATOM     28  C   UNL A   1      41.380  25.979  27.715  1.00  0.00     0.031 A 
ATOM     29  C   UNL A   1      40.708  27.038  28.546  1.00  0.00     0.074 A 
ATOM     30  C   UNL A   1      42.656  26.146  27.313  1.00  0.00     0.049 A 
ATOM     31  N   UNL A   1      41.129  28.237  28.852  1.00  0.00    -0.248 NA
ATOM     32  C   UNL A   1      39.387  26.706  29.103  1.00  0.00     0.031 C 
ATOM     33  C   UNL A   1      43.434  25.177  26.539  1.00  0.00     0.029 A 
ATOM     34  N   UNL A   1      43.521  27.195  27.498  1.00  0.00    -0.354 N 
ATOM     35  C   UNL A   1      40.102  28.825  29.579  1.00  0.00     0.074 A 
ATOM     36  C   UNL A   1      39.040  27.848  29.678  1.00  0.00     0.031 C 
ATOM     37  C   UNL A   1      44.666  25.665  26.335  1.00  0.00     0.029 A 
ATOM     38  C   UNL A   1      44.745  27.009  26.897  1.00  0.00     0.049 A 
ATOM     39  H   UNL A   1      43.289  28.003  28.011  1.00  0.00     0.167 HD
ATOM     40  C   UNL A   1      40.052  30.063  30.125  1.00  0.00     0.034 A 
ATOM     41  C   UNL A   1      45.799  27.841  26.783  1.00  0.00     0.034 A 
ATOM     42  C   UNL A   1      41.131  31.012  30.075  1.00  0.00     0.049 A 
ATOM     43  C   UNL A   1      45.707  29.220  27.372  1.00  0.00     0.074 A 
ATOM     44  C   UNL A   1      41.184  32.287  30.607  1.00  0.00     0.029 A 
ATOM     45  N   UNL A   1      42.355  30.783  29.465  1.00  0.00    -0.354 N 
ATOM     46  N   UNL A   1      44.738  29.752  28.078  1.00  0.00    -0.248 NA
ATOM     47  C   UNL A   1      46.853  30.113  27.152  1.00  0.00     0.031 C 
ATOM     48  C   UNL A   1      42.441  32.831  30.318  1.00  0.00     0.029 A 
ATOM     49  C   UNL A   1      43.173  31.891  29.610  1.00  0.00     0.049 A 
ATOM     50  H   UNL A   1      42.607  29.953  28.998  1.00  0.00     0.167 HD
ATOM     51  C   UNL A   1      45.165  31.034  28.402  1.00  0.00     0.074 A 
ATOM     52  C   UNL A   1      46.490  31.189  27.837  1.00  0.00     0.031 C 
ATOM     53  C   UNL A   1      44.510  32.005  29.085  1.00  0.00     0.034 A 
BRANCH  40  54
ATOM     54  C   UNL A   1      38.790  30.451  30.849  1.00  0.00     0.023 A 
ATOM     55  C   UNL A   1      38.648  30.139  32.215  1.00  0.00     0.012 A 
ATOM     56  C   UNL A   1      37.758  31.141  30.185  1.00  0.00     0.148 A 
ATOM     57  C   UNL A   1      37.486  30.484  32.904  1.00  0.00     0.002 A 
ATOM     58  C   UNL A   1      36.616  31.513  30.888  1.00  0.00     0.091 A 
ATOM     59  F   UNL A   1      37.895  31.401  28.877  1.00  0.00    -0.205 F 
ATOM     60  C   UNL A   1      36.475  31.178  32.243  1.00  0.00     0.022 A 
BRANCH  58  61
ATOM     61  S   UNL A   1      35.298  32.464  30.122  1.00  0.00     0.127 S 
ATOM     62  O   UNL A   1      34.330  32.560  31.212  1.00  0.00    -0.237 OA
ATOM     63  O   UNL A   1      35.968  33.723  29.790  1.00  0.00    -0.237 OA
ATOM     64  O   UNL A   1      34.880  31.686  28.965  1.00  0.00    -0.744 OA
ENDBRANCH  58  61
ENDBRANCH  40  54
BRANCH  41  65
ATOM     65  C   UNL A   1      47.041  27.375  26.103  1.00  0.00     0.023 A 
ATOM     66  C   UNL A   1      47.245  27.702  24.749  1.00  0.00     0.012 A 
ATOM     67  C   UNL A   1      48.036  26.658  26.793  1.00  0.00     0.148 A 
ATOM     68  C   UNL A   1      48.413  27.315  24.091  1.00  0.00     0.002 A 
ATOM     69  C   UNL A   1      49.222  26.324  26.149  1.00  0.00     0.091 A 
ATOM     70  F   UNL A   1      47.813  26.330  28.074  1.00  0.00    -0.205 F 
ATOM     71  C   UNL A   1      49.407  26.640  24.795  1.00  0.00     0.022 A 
BRANCH  69  72
ATOM     72  S   UNL A   1      50.605  25.576  27.019  1.00  0.00     0.127 S 
ATOM     73  O   UNL A   1      51.579  25.407  25.944  1.00  0.00    -0.237 OA
ATOM     74  O   UNL A   1      50.943  26.607  28.001  1.00  0.00    -0.237 OA
ATOM     75  O   UNL A   1      50.078  24.348  27.600  1.00  0.00    -0.744 OA
ENDBRANCH  69  72
ENDBRANCH  41  65
BRANCH  53  76
ATOM     76  C   UNL A   1      45.221  33.317  29.277  1.00  0.00     0.023 A 
ATOM     77  C   UNL A   1      45.981  33.527  30.444  1.00  0.00     0.012 A 
ATOM     78  C   UNL A   1      45.196  34.307  28.277  1.00  0.00     0.148 A 
ATOM     79  C   UNL A   1      46.690  34.713  30.622  1.00  0.00     0.002 A 
ATOM     80  C   UNL A   1      45.937  35.471  28.444  1.00  0.00     0.091 A 
ATOM     81  F   UNL A   1      44.445  34.097  27.186  1.00  0.00    -0.205 F 
ATOM     82  C   UNL A   1      46.678  35.680  29.619  1.00  0.00     0.022 A 
BRANCH  80  83
ATOM     83  S   UNL A   1      46.041  36.727  27.164  1.00  0.00     0.127 S 
ATOM     84  O   UNL A   1      47.062  37.622  27.703  1.00  0.00    -0.237 OA
ATOM     85  O   UNL A   1      46.464  35.952  25.996  1.00  0.00    -0.237 OA
ATOM     86  O   UNL A   1      44.701  37.291  27.055  1.00  0.00    -0.744 OA
ENDBRANCH  80  83
ENDBRANCH  53  76
ENDBRANCH  27  28
ENDBRANCH  20  22
ENDBRANCH  19  20
ENDBRANCH  18  19
ENDBRANCH   1  18
TORSDOF 17
ENDMDL
MODEL 2
REMARK VINA RESULT:     -10.6      5.549     10.157
REMARK SMILES C[C@H]([NH3+])C(=O)N1CCC[C@H]1C(=O)OCCOC(=O)c1ccc(-c2c3nc(c(-c4cccc(S(=O)(=O)[O-])c4F)c4ccc([nH]4)c(-c4cccc(S(=O)(=O)[O-])c4F)c4nc(c(-c5cccc(S(=O)(=O)[O-])c5F)c5ccc2[nH]5)C=C4)C=C3)cc1
REMARK SMILES IDX 14 1 13 2 11 3 12 4 10 5 6 6 7 7 8 8 9 9 4 10 5 11 2 12 1 13
REMARK SMILES IDX 3 14 15 18 16 19 17 20 18 21 19 22 20 23 81 24 21 25 80 26
REMARK SMILES IDX 22 27 23 28 24 29 74 30 25 31 79 32 73 33 75 34 26 35 78 36
REMARK SMILES IDX 72 37 71 38 27 40 59 41 39 42 58 43 40 44 43 45 57 46 76 47
REMARK SMILES IDX 41 48 42 49 56 51 77 52 44 53 28 54 29 55 37 56 30 57 32 58
REMARK SMILES IDX 38 59 31 60 33 61 34 62 35 63 36 64 60 65 61 66 69 67 62 68
REMARK SMILES IDX 64 69 70 70 63 71 65 72 66 73 67 74 68 75 45 76 46 77 54 78
REMARK SMILES IDX 47 79 49 80 55 81 48 82 50 83 51 84 52 85 53 86
REMARK H PARENT 3 15 3 16 3 17 75 39 43 50
REMARK Flexibility Score: inf
ROOT
ATOM      1  C   UNL A   1      31.882  28.394  27.029  1.00  0.00     0.274 C 
ENDROOT
BRANCH   1   2
ATOM      2  O   UNL A   1      32.120  27.400  26.014  1.00  0.00    -0.461 OA
BRANCH   2   3
ATOM      3  C   UNL A   1      31.365  26.263  26.106  1.00  0.00     0.328 C 
ATOM      4  O   UNL A   1      30.210  26.220  26.510  1.00  0.00    -0.250 OA
BRANCH   3   5
ATOM      5  C   UNL A   1      32.152  25.061  25.555  1.00  0.00     0.195 C 
ATOM      6  N   UNL A   1      32.639  25.301  24.190  1.00  0.00    -0.324 N 
ATOM      7  C   UNL A   1      34.077  25.472  24.173  1.00  0.00     0.121 C 
ATOM      8  C   UNL A   1      34.556  24.708  25.392  1.00  0.00     0.024 C 
ATOM      9  C   UNL A   1      33.408  24.799  26.391  1.00  0.00     0.039 C 
BRANCH   6  10
ATOM     10  C   UNL A   1      31.736  25.328  23.151  1.00  0.00     0.281 C 
ATOM     11  O   UNL A   1      30.934  24.395  23.012  1.00  0.00    -0.268 OA
BRANCH  10  12
ATOM     12  C   UNL A   1      31.781  26.437  22.078  1.00  0.00     0.268 C 
ATOM     13  C   UNL A   1      30.674  27.453  22.335  1.00  0.00     0.086 C 
BRANCH  12  14
ATOM     14  N   UNL A   1      31.778  25.951  20.693  1.00  0.00    -0.348 N 
ATOM     15  H   UNL A   1      32.687  26.131  20.266  1.00  0.00     0.345 HD
ATOM     16  H   UNL A   1      31.052  26.435  20.164  1.00  0.00     0.345 HD
ATOM     17  H   UNL A   1      31.593  24.947  20.684  1.00  0.00     0.345 HD
ENDBRANCH  12  14
ENDBRANCH  10  12
ENDBRANCH   6  10
ENDBRANCH   3   5
ENDBRANCH   2   3
ENDBRANCH   1   2
BRANCH   1  18
ATOM     18  C   UNL A   1      31.788  29.789  26.417  1.00  0.00     0.275 C 
BRANCH  18  19
ATOM     19  O   UNL A   1      33.107  30.333  26.246  1.00  0.00    -0.458 OA
BRANCH  19  20
ATOM     20  C   UNL A   1      33.485  31.267  27.145  1.00  0.00     0.338 C 
ATOM     21  O   UNL A   1      32.856  32.243  27.514  1.00  0.00    -0.246 OA
BRANCH  20  22
ATOM     22  C   UNL A   1      34.810  30.915  27.681  1.00  0.00     0.060 A 
ATOM     23  C   UNL A   1      35.102  29.582  27.972  1.00  0.00     0.016 A 
ATOM     24  C   UNL A   1      35.716  31.923  28.004  1.00  0.00     0.016 A 
ATOM     25  C   UNL A   1      36.266  29.257  28.659  1.00  0.00     0.010 A 
ATOM     26  C   UNL A   1      36.925  31.583  28.619  1.00  0.00     0.010 A 
ATOM     27  C   UNL A   1      37.195  30.252  28.985  1.00  0.00    -0.014 A 
BRANCH  27  28
ATOM     28  C   UNL A   1      38.424  29.908  29.743  1.00  0.00     0.031 A 
ATOM     29  C   UNL A   1      39.435  28.969  29.143  1.00  0.00     0.074 A 
ATOM     30  C   UNL A   1      38.641  30.442  30.961  1.00  0.00     0.049 A 
ATOM     31  N   UNL A   1      40.494  28.436  29.693  1.00  0.00    -0.248 NA
ATOM     32  C   UNL A   1      39.224  28.575  27.740  1.00  0.00     0.031 C 
ATOM     33  C   UNL A   1      37.760  31.397  31.637  1.00  0.00     0.029 A 
ATOM     34  N   UNL A   1      39.670  30.253  31.850  1.00  0.00    -0.354 N 
ATOM     35  C   UNL A   1      41.039  27.596  28.729  1.00  0.00     0.074 A 
ATOM     36  C   UNL A   1      40.199  27.697  27.556  1.00  0.00     0.031 C 
ATOM     37  C   UNL A   1      38.295  31.728  32.821  1.00  0.00     0.029 A 
ATOM     38  C   UNL A   1      39.517  30.956  33.023  1.00  0.00     0.049 A 
ATOM     39  H   UNL A   1      40.443  29.672  31.666  1.00  0.00     0.167 HD
ATOM     40  C   UNL A   1      42.145  26.819  28.811  1.00  0.00     0.034 A 
ATOM     41  C   UNL A   1      40.258  30.953  34.149  1.00  0.00     0.034 A 
ATOM     42  C   UNL A   1      43.010  26.763  29.958  1.00  0.00     0.049 A 
ATOM     43  C   UNL A   1      41.464  30.059  34.224  1.00  0.00     0.074 A 
ATOM     44  C   UNL A   1      44.161  26.018  30.135  1.00  0.00     0.029 A 
ATOM     45  N   UNL A   1      42.826  27.496  31.121  1.00  0.00    -0.354 N 
ATOM     46  N   UNL A   1      41.980  29.289  33.296  1.00  0.00    -0.248 NA
ATOM     47  C   UNL A   1      42.192  30.035  35.500  1.00  0.00     0.031 C 
ATOM     48  C   UNL A   1      44.672  26.298  31.407  1.00  0.00     0.029 A 
ATOM     49  C   UNL A   1      43.842  27.222  32.020  1.00  0.00     0.049 A 
ATOM     50  H   UNL A   1      42.081  28.118  31.284  1.00  0.00     0.167 HD
ATOM     51  C   UNL A   1      43.102  28.704  33.869  1.00  0.00     0.074 A 
ATOM     52  C   UNL A   1      43.205  29.228  35.215  1.00  0.00     0.031 C 
ATOM     53  C   UNL A   1      43.957  27.796  33.337  1.00  0.00     0.034 A 
BRANCH  40  54
ATOM     54  C   UNL A   1      42.493  25.982  27.609  1.00  0.00     0.023 A 
ATOM     55  C   UNL A   1      43.240  26.550  26.559  1.00  0.00     0.012 A 
ATOM     56  C   UNL A   1      42.103  24.631  27.530  1.00  0.00     0.148 A 
ATOM     57  C   UNL A   1      43.570  25.795  25.434  1.00  0.00     0.002 A 
ATOM     58  C   UNL A   1      42.466  23.874  26.420  1.00  0.00     0.091 A 
ATOM     59  F   UNL A   1      41.365  24.115  28.523  1.00  0.00    -0.205 F 
ATOM     60  C   UNL A   1      43.191  24.456  25.369  1.00  0.00     0.022 A 
BRANCH  58  61
ATOM     61  S   UNL A   1      42.069  22.126  26.293  1.00  0.00     0.127 S 
ATOM     62  O   UNL A   1      40.617  22.163  26.134  1.00  0.00    -0.237 OA
ATOM     63  O   UNL A   1      42.803  21.721  25.093  1.00  0.00    -0.237 OA
ATOM     64  O   UNL A   1      42.561  21.526  27.525  1.00  0.00    -0.744 OA
ENDBRANCH  58  61
ENDBRANCH  40  54
BRANCH  41  65
ATOM     65  C   UNL A   1      39.890  31.848  35.282  1.00  0.00     0.023 A 
ATOM     66  C   UNL A   1      40.412  33.154  35.320  1.00  0.00     0.012 A 
ATOM     67  C   UNL A   1      38.995  31.436  36.288  1.00  0.00     0.148 A 
ATOM     68  C   UNL A   1      40.060  34.032  36.346  1.00  0.00     0.002 A 
ATOM     69  C   UNL A   1      38.604  32.332  37.275  1.00  0.00     0.091 A 
ATOM     70  F   UNL A   1      38.530  30.179  36.251  1.00  0.00    -0.205 F 
ATOM     71  C   UNL A   1      39.144  33.626  37.314  1.00  0.00     0.022 A 
BRANCH  69  72
ATOM     72  S   UNL A   1      37.328  31.933  38.477  1.00  0.00     0.127 S 
ATOM     73  O   UNL A   1      36.261  32.855  38.098  1.00  0.00    -0.237 OA
ATOM     74  O   UNL A   1      37.060  30.525  38.184  1.00  0.00    -0.237 OA
ATOM     75  O   UNL A   1      37.938  32.166  39.780  1.00  0.00    -0.744 OA
ENDBRANCH  69  72
ENDBRANCH  41  65
BRANCH  53  76
ATOM     76  C   UNL A   1      45.092  27.322  34.204  1.00  0.00     0.023 A 
ATOM     77  C   UNL A   1      46.292  28.058  34.234  1.00  0.00     0.012 A 
ATOM     78  C   UNL A   1      44.945  26.197  35.037  1.00  0.00     0.148 A 
ATOM     79  C   UNL A   1      47.339  27.669  35.067  1.00  0.00     0.002 A 
ATOM     80  C   UNL A   1      45.978  25.838  35.894  1.00  0.00     0.091 A 
ATOM     81  F   UNL A   1      43.803  25.497  34.973  1.00  0.00    -0.205 F 
ATOM     82  C   UNL A   1      47.179  26.566  35.905  1.00  0.00     0.022 A 
BRANCH  80  83
ATOM     83  S   UNL A   1      45.820  24.484  37.064  1.00  0.00     0.127 S 
ATOM     84  O   UNL A   1      44.685  24.918  37.874  1.00  0.00    -0.237 OA
ATOM     85  O   UNL A   1      45.544  23.342  36.189  1.00  0.00    -0.237 OA
ATOM     86  O   UNL A   1      47.099  24.410  37.758  1.00  0.00    -0.744 OA
ENDBRANCH  80  83
ENDBRANCH  53  76
ENDBRANCH  27  28
ENDBRANCH  20  22
ENDBRANCH  19  20
ENDBRANCH  18  19
ENDBRANCH   1  18
TORSDOF 17
ENDMDL
MODEL 3
REMARK VINA RESULT:     -10.6      5.122     10.199
REMARK SMILES C[C@H]([NH3+])C(=O)N1CCC[C@H]1C(=O)OCCOC(=O)c1ccc(-c2c3nc(c(-c4cccc(S(=O)(=O)[O-])c4F)c4ccc([nH]4)c(-c4cccc(S(=O)(=O)[O-])c4F)c4nc(c(-c5cccc(S(=O)(=O)[O-])c5F)c5ccc2[nH]5)C=C4)C=C3)cc1
REMARK SMILES IDX 14 1 13 2 11 3 12 4 10 5 6 6 7 7 8 8 9 9 4 10 5 11 2 12 1 13
REMARK SMILES IDX 3 14 15 18 16 19 17 20 18 21 19 22 20 23 81 24 21 25 80 26
REMARK SMILES IDX 22 27 23 28 24 29 74 30 25 31 79 32 73 33 75 34 26 35 78 36
REMARK SMILES IDX 72 37 71 38 27 40 59 41 39 42 58 43 40 44 43 45 57 46 76 47
REMARK SMILES IDX 41 48 42 49 56 51 77 52 44 53 28 54 29 55 37 56 30 57 32 58
REMARK SMILES IDX 38 59 31 60 33 61 34 62 35 63 36 64 60 65 61 66 69 67 62 68
REMARK SMILES IDX 64 69 70 70 63 71 65 72 66 73 67 74 68 75 45 76 46 77 54 78
REMARK SMILES IDX 47 79 49 80 55 81 48 82 50 83 51 84 52 85 53 86
REMARK H PARENT 3 15 3 16 3 17 75 39 43 50
REMARK Flexibility Score: inf
ROOT
ATOM      1  C   UNL A   1      31.639  28.580  27.163  1.00  0.00     0.274 C 
ENDROOT
BRANCH   1   2
ATOM      2  O   UNL A   1      31.415  27.456  26.288  1.00  0.00    -0.461 OA
BRANCH   2   3
ATOM      3  C   UNL A   1      32.511  27.012  25.600  1.00  0.00     0.328 C 
ATOM      4  O   UNL A   1      33.632  26.882  26.076  1.00  0.00    -0.250 OA
BRANCH   3   5
ATOM      5  C   UNL A   1      32.111  26.623  24.167  1.00  0.00     0.195 C 
ATOM      6  N   UNL A   1      30.945  25.731  24.142  1.00  0.00    -0.324 N 
ATOM      7  C   UNL A   1      29.776  26.417  23.630  1.00  0.00     0.121 C 
ATOM      8  C   UNL A   1      30.343  27.507  22.743  1.00  0.00     0.024 C 
ATOM      9  C   UNL A   1      31.692  27.858  23.363  1.00  0.00     0.039 C 
BRANCH   6  10
ATOM     10  C   UNL A   1      31.085  24.431  24.573  1.00  0.00     0.281 C 
ATOM     11  O   UNL A   1      31.403  23.549  23.764  1.00  0.00    -0.268 OA
BRANCH  10  12
ATOM     12  C   UNL A   1      30.735  24.024  26.020  1.00  0.00     0.268 C 
ATOM     13  C   UNL A   1      30.659  22.505  26.128  1.00  0.00     0.086 C 
BRANCH  12  14
ATOM     14  N   UNL A   1      29.541  24.680  26.570  1.00  0.00    -0.348 N 
ATOM     15  H   UNL A   1      29.637  25.692  26.481  1.00  0.00     0.345 HD
ATOM     16  H   UNL A   1      29.441  24.433  27.554  1.00  0.00     0.345 HD
ATOM     17  H   UNL A   1      28.716  24.371  26.056  1.00  0.00     0.345 HD
ENDBRANCH  12  14
ENDBRANCH  10  12
ENDBRANCH   6  10
ENDBRANCH   3   5
ENDBRANCH   2   3
ENDBRANCH   1   2
BRANCH   1  18
ATOM     18  C   UNL A   1      31.599  29.893  26.386  1.00  0.00     0.275 C 
BRANCH  18  19
ATOM     19  O   UNL A   1      32.936  30.386  26.198  1.00  0.00    -0.458 OA
BRANCH  19  20
ATOM     20  C   UNL A   1      33.320  31.386  27.020  1.00  0.00     0.338 C 
ATOM     21  O   UNL A   1      32.708  32.403  27.292  1.00  0.00    -0.246 OA
BRANCH  20  22
ATOM     22  C   UNL A   1      34.628  31.053  27.608  1.00  0.00     0.060 A 
ATOM     23  C   UNL A   1      34.914  29.729  27.942  1.00  0.00     0.016 A 
ATOM     24  C   UNL A   1      35.519  32.073  27.937  1.00  0.00     0.016 A 
ATOM     25  C   UNL A   1      36.056  29.426  28.676  1.00  0.00     0.010 A 
ATOM     26  C   UNL A   1      36.708  31.754  28.600  1.00  0.00     0.010 A 
ATOM     27  C   UNL A   1      36.970  30.434  29.008  1.00  0.00    -0.014 A 
BRANCH  27  28
ATOM     28  C   UNL A   1      38.174  30.113  29.814  1.00  0.00     0.031 A 
ATOM     29  C   UNL A   1      39.243  29.222  29.243  1.00  0.00     0.074 A 
ATOM     30  C   UNL A   1      38.317  30.627  31.053  1.00  0.00     0.049 A 
ATOM     31  N   UNL A   1      40.293  28.712  29.830  1.00  0.00    -0.248 NA
ATOM     32  C   UNL A   1      39.110  28.852  27.824  1.00  0.00     0.031 C 
ATOM     33  C   UNL A   1      37.373  31.537  31.706  1.00  0.00     0.029 A 
ATOM     34  N   UNL A   1      39.309  30.453  31.984  1.00  0.00    -0.354 N 
ATOM     35  C   UNL A   1      40.910  27.912  28.876  1.00  0.00     0.074 A 
ATOM     36  C   UNL A   1      40.122  28.011  27.668  1.00  0.00     0.031 C 
ATOM     37  C   UNL A   1      37.843  31.859  32.920  1.00  0.00     0.029 A 
ATOM     38  C   UNL A   1      39.079  31.124  33.163  1.00  0.00     0.049 A 
ATOM     39  H   UNL A   1      40.110  29.902  31.825  1.00  0.00     0.167 HD
ATOM     40  C   UNL A   1      42.036  27.170  28.994  1.00  0.00     0.034 A 
ATOM     41  C   UNL A   1      39.768  31.120  34.321  1.00  0.00     0.034 A 
ATOM     42  C   UNL A   1      42.850  27.118  30.178  1.00  0.00     0.049 A 
ATOM     43  C   UNL A   1      40.999  30.265  34.434  1.00  0.00     0.074 A 
ATOM     44  C   UNL A   1      44.016  26.407  30.392  1.00  0.00     0.029 A 
ATOM     45  N   UNL A   1      42.588  27.818  31.346  1.00  0.00    -0.354 N 
ATOM     46  N   UNL A   1      41.582  29.534  33.515  1.00  0.00    -0.248 NA
ATOM     47  C   UNL A   1      41.669  30.238  35.742  1.00  0.00     0.031 C 
ATOM     48  C   UNL A   1      44.459  26.676  31.693  1.00  0.00     0.029 A 
ATOM     49  C   UNL A   1      43.571  27.559  32.285  1.00  0.00     0.049 A 
ATOM     50  H   UNL A   1      41.815  28.412  31.486  1.00  0.00     0.167 HD
ATOM     51  C   UNL A   1      42.697  28.973  34.128  1.00  0.00     0.074 A 
ATOM     52  C   UNL A   1      42.720  29.471  35.488  1.00  0.00     0.031 C 
ATOM     53  C   UNL A   1      43.606  28.106  33.618  1.00  0.00     0.034 A 
BRANCH  40  54
ATOM     54  C   UNL A   1      42.468  26.372  27.792  1.00  0.00     0.023 A 
ATOM     55  C   UNL A   1      43.309  26.964  26.829  1.00  0.00     0.012 A 
ATOM     56  C   UNL A   1      42.062  25.034  27.628  1.00  0.00     0.148 A 
ATOM     57  C   UNL A   1      43.717  26.245  25.706  1.00  0.00     0.002 A 
ATOM     58  C   UNL A   1      42.502  24.312  26.522  1.00  0.00     0.091 A 
ATOM     59  F   UNL A   1      41.235  24.496  28.536  1.00  0.00    -0.205 F 
ATOM     60  C   UNL A   1      43.321  24.918  25.558  1.00  0.00     0.022 A 
BRANCH  58  61
ATOM     61  S   UNL A   1      42.086  22.579  26.295  1.00  0.00     0.127 S 
ATOM     62  O   UNL A   1      42.705  21.968  27.470  1.00  0.00    -0.237 OA
ATOM     63  O   UNL A   1      40.623  22.598  26.317  1.00  0.00    -0.237 OA
ATOM     64  O   UNL A   1      42.659  22.208  25.008  1.00  0.00    -0.744 OA
ENDBRANCH  58  61
ENDBRANCH  40  54
BRANCH  41  65
ATOM     65  C   UNL A   1      39.318  31.977  35.455  1.00  0.00     0.023 A 
ATOM     66  C   UNL A   1      38.478  31.426  36.439  1.00  0.00     0.012 A 
ATOM     67  C   UNL A   1      39.753  33.309  35.591  1.00  0.00     0.148 A 
ATOM     68  C   UNL A   1      38.068  32.188  37.534  1.00  0.00     0.002 A 
ATOM     69  C   UNL A   1      39.387  34.046  36.711  1.00  0.00     0.091 A 
ATOM     70  F   UNL A   1      40.530  33.827  34.629  1.00  0.00    -0.205 F 
ATOM     71  C   UNL A   1      38.535  33.492  37.677  1.00  0.00     0.022 A 
BRANCH  69  72
ATOM     72  S   UNL A   1      40.055  35.682  37.039  1.00  0.00     0.127 S 
ATOM     73  O   UNL A   1      41.488  35.412  37.110  1.00  0.00    -0.237 OA
ATOM     74  O   UNL A   1      39.626  36.431  35.857  1.00  0.00    -0.237 OA
ATOM     75  O   UNL A   1      39.425  36.115  38.280  1.00  0.00    -0.744 OA
ENDBRANCH  69  72
ENDBRANCH  41  65
BRANCH  53  76
ATOM     76  C   UNL A   1      44.715  27.651  34.526  1.00  0.00     0.023 A 
ATOM     77  C   UNL A   1      45.911  28.392  34.580  1.00  0.00     0.012 A 
ATOM     78  C   UNL A   1      44.546  26.540  35.374  1.00  0.00     0.148 A 
ATOM     79  C   UNL A   1      46.934  28.020  35.451  1.00  0.00     0.002 A 
ATOM     80  C   UNL A   1      45.554  26.199  36.268  1.00  0.00     0.091 A 
ATOM     81  F   UNL A   1      43.409  25.835  35.288  1.00  0.00    -0.205 F 
ATOM     82  C   UNL A   1      46.752  26.932  36.303  1.00  0.00     0.022 A 
BRANCH  80  83
ATOM     83  S   UNL A   1      45.365  24.865  37.455  1.00  0.00     0.127 S 
ATOM     84  O   UNL A   1      45.218  23.703  36.581  1.00  0.00    -0.237 OA
ATOM     85  O   UNL A   1      46.628  24.917  38.193  1.00  0.00    -0.237 OA
ATOM     86  O   UNL A   1      44.192  25.207  38.250  1.00  0.00    -0.744 OA
ENDBRANCH  80  83
ENDBRANCH  53  76
ENDBRANCH  27  28
ENDBRANCH  20  22
ENDBRANCH  19  20
ENDBRANCH  18  19
ENDBRANCH   1  18
TORSDOF 17
ENDMDL
