MODEL 1
REMARK VINA RESULT:     -11.9      0.000      0.000
REMARK SMILES O=C(OCCOC(=O)c1cc(-c2ccn(C(F)F)c(=O)c2)ccc1O)c1ccc(-c2c3nc(c(-c4cccc(S(=O)(=O)[O-])c4F)c4ccc([nH]4)c(-c4cccc(S(=O)(=O)[O-])c4F)c4nc(c(-c5cccc(S(=O)(=O)[O-])c5F)c5ccc2[nH]5)C=C4)C=C3)cc1
REMARK SMILES IDX 4 1 3 2 2 3 1 4 26 5 27 6 88 7 28 8 87 9 29 10 30 11 31 12
REMARK SMILES IDX 81 13 32 14 86 15 80 16 82 17 33 18 85 19 79 20 78 21 34 23
REMARK SMILES IDX 66 24 46 25 65 26 47 27 50 28 64 29 83 30 48 31 49 32 63 34
REMARK SMILES IDX 84 35 51 36 35 37 36 38 44 39 37 40 39 41 45 42 38 43 40 44
REMARK SMILES IDX 41 45 42 46 43 47 67 48 68 49 76 50 69 51 71 52 77 53 70 54
REMARK SMILES IDX 72 55 73 56 74 57 75 58 52 59 53 60 61 61 54 62 56 63 62 64
REMARK SMILES IDX 55 65 57 66 58 67 59 68 60 69 5 70 6 71 7 72 8 73 9 74 10 75
REMARK SMILES IDX 24 76 11 77 23 78 22 79 25 80 12 82 13 83 21 84 14 85 19 86
REMARK SMILES IDX 15 87 20 88 16 89 17 90 18 91
REMARK H PARENT 82 22 50 33 25 81
REMARK Flexibility Score: inf
ROOT
ATOM      1  C   UNL A   1      38.555  20.322  25.370  1.00  0.00     0.275 C 
ENDROOT
BRANCH   1   2
ATOM      2  O   UNL A   1      39.682  19.463  25.601  1.00  0.00    -0.458 OA
BRANCH   2   3
ATOM      3  C   UNL A   1      40.940  19.770  25.996  1.00  0.00     0.338 C 
ATOM      4  O   UNL A   1      41.773  18.864  26.036  1.00  0.00    -0.246 OA
BRANCH   3   5
ATOM      5  C   UNL A   1      41.345  21.112  26.526  1.00  0.00     0.060 A 
ATOM      6  C   UNL A   1      41.521  22.114  25.562  1.00  0.00     0.016 A 
ATOM      7  C   UNL A   1      41.554  21.463  27.862  1.00  0.00     0.016 A 
ATOM      8  C   UNL A   1      42.025  23.372  25.901  1.00  0.00     0.010 A 
ATOM      9  C   UNL A   1      42.040  22.733  28.213  1.00  0.00     0.010 A 
ATOM     10  C   UNL A   1      42.314  23.688  27.233  1.00  0.00    -0.014 A 
BRANCH  10  11
ATOM     11  C   UNL A   1      42.754  25.060  27.583  1.00  0.00     0.031 A 
ATOM     12  C   UNL A   1      44.127  25.572  27.258  1.00  0.00     0.074 A 
ATOM     13  C   UNL A   1      41.872  25.861  28.210  1.00  0.00     0.049 A 
ATOM     14  N   UNL A   1      44.548  26.811  27.232  1.00  0.00    -0.248 NA
ATOM     15  C   UNL A   1      45.159  24.588  26.900  1.00  0.00     0.031 C 
ATOM     16  C   UNL A   1      40.533  25.451  28.641  1.00  0.00     0.029 A 
ATOM     17  N   UNL A   1      41.963  27.171  28.597  1.00  0.00    -0.354 N 
ATOM     18  C   UNL A   1      45.869  26.760  26.811  1.00  0.00     0.074 A 
ATOM     19  C   UNL A   1      46.200  25.366  26.618  1.00  0.00     0.031 C 
ATOM     20  C   UNL A   1      39.923  26.493  29.221  1.00  0.00     0.029 A 
ATOM     21  C   UNL A   1      40.832  27.634  29.222  1.00  0.00     0.049 A 
ATOM     22  H   UNL A   1      42.762  27.726  28.443  1.00  0.00     0.167 HD
ATOM     23  C   UNL A   1      46.723  27.789  26.601  1.00  0.00     0.034 A 
ATOM     24  C   UNL A   1      40.551  28.844  29.741  1.00  0.00     0.034 A 
ATOM     25  C   UNL A   1      46.427  29.155  26.932  1.00  0.00     0.049 A 
ATOM     26  C   UNL A   1      41.564  29.940  29.619  1.00  0.00     0.074 A 
ATOM     27  C   UNL A   1      47.215  30.276  26.737  1.00  0.00     0.029 A 
ATOM     28  N   UNL A   1      45.292  29.573  27.608  1.00  0.00    -0.354 N 
ATOM     29  N   UNL A   1      42.713  29.921  28.987  1.00  0.00    -0.248 NA
ATOM     30  C   UNL A   1      41.246  31.223  30.258  1.00  0.00     0.031 C 
ATOM     31  C   UNL A   1      46.586  31.358  27.356  1.00  0.00     0.029 A 
ATOM     32  C   UNL A   1      45.390  30.919  27.904  1.00  0.00     0.049 A 
ATOM     33  H   UNL A   1      44.529  28.996  27.843  1.00  0.00     0.167 HD
ATOM     34  C   UNL A   1      43.251  31.191  29.137  1.00  0.00     0.074 A 
ATOM     35  C   UNL A   1      42.300  31.958  29.917  1.00  0.00     0.031 C 
ATOM     36  C   UNL A   1      44.428  31.671  28.670  1.00  0.00     0.034 A 
BRANCH  23  37
ATOM     37  C   UNL A   1      48.057  27.499  25.972  1.00  0.00     0.023 A 
ATOM     38  C   UNL A   1      49.102  27.020  26.787  1.00  0.00     0.012 A 
ATOM     39  C   UNL A   1      48.240  27.568  24.578  1.00  0.00     0.148 A 
ATOM     40  C   UNL A   1      50.313  26.615  26.224  1.00  0.00     0.002 A 
ATOM     41  C   UNL A   1      49.442  27.148  24.022  1.00  0.00     0.091 A 
ATOM     42  F   UNL A   1      47.231  28.034  23.828  1.00  0.00    -0.205 F 
ATOM     43  C   UNL A   1      50.479  26.671  24.843  1.00  0.00     0.022 A 
BRANCH  41  44
ATOM     44  S   UNL A   1      49.755  27.155  22.254  1.00  0.00     0.127 S 
ATOM     45  O   UNL A   1      49.354  28.515  21.893  1.00  0.00    -0.237 OA
ATOM     46  O   UNL A   1      51.195  26.906  22.198  1.00  0.00    -0.237 OA
ATOM     47  O   UNL A   1      48.923  26.099  21.695  1.00  0.00    -0.744 OA
ENDBRANCH  41  44
ENDBRANCH  23  37
BRANCH  24  48
ATOM     48  C   UNL A   1      39.218  29.050  30.364  1.00  0.00     0.023 A 
ATOM     49  C   UNL A   1      38.971  28.532  31.648  1.00  0.00     0.012 A 
ATOM     50  C   UNL A   1      38.264  29.893  29.759  1.00  0.00     0.148 A 
ATOM     51  C   UNL A   1      37.799  28.866  32.328  1.00  0.00     0.002 A 
ATOM     52  C   UNL A   1      37.119  30.253  30.458  1.00  0.00     0.091 A 
ATOM     53  F   UNL A   1      38.530  30.371  28.535  1.00  0.00    -0.205 F 
ATOM     54  C   UNL A   1      36.883  29.736  31.742  1.00  0.00     0.022 A 
BRANCH  52  55
ATOM     55  S   UNL A   1      35.946  31.462  29.835  1.00  0.00     0.127 S 
ATOM     56  O   UNL A   1      36.831  32.547  29.418  1.00  0.00    -0.237 OA
ATOM     57  O   UNL A   1      35.310  30.728  28.740  1.00  0.00    -0.237 OA
ATOM     58  O   UNL A   1      35.061  31.769  30.951  1.00  0.00    -0.744 OA
ENDBRANCH  52  55
ENDBRANCH  24  48
BRANCH  36  59
ATOM     59  C   UNL A   1      44.795  33.090  28.992  1.00  0.00     0.023 A 
ATOM     60  C   UNL A   1      45.561  33.357  30.143  1.00  0.00     0.012 A 
ATOM     61  C   UNL A   1      44.539  34.119  28.066  1.00  0.00     0.148 A 
ATOM     62  C   UNL A   1      46.076  34.634  30.362  1.00  0.00     0.002 A 
ATOM     63  C   UNL A   1      45.087  35.377  28.272  1.00  0.00     0.091 A 
ATOM     64  F   UNL A   1      43.806  33.830  26.981  1.00  0.00    -0.205 F 
ATOM     65  C   UNL A   1      45.853  35.637  29.422  1.00  0.00     0.022 A 
BRANCH  63  66
ATOM     66  S   UNL A   1      44.936  36.707  27.075  1.00  0.00     0.127 S 
ATOM     67  O   UNL A   1      43.554  36.548  26.626  1.00  0.00    -0.237 OA
ATOM     68  O   UNL A   1      45.179  37.890  27.900  1.00  0.00    -0.237 OA
ATOM     69  O   UNL A   1      45.946  36.453  26.056  1.00  0.00    -0.744 OA
ENDBRANCH  63  66
ENDBRANCH  36  59
ENDBRANCH  10  11
ENDBRANCH   3   5
ENDBRANCH   2   3
ENDBRANCH   1   2
BRANCH   1  70
ATOM     70  C   UNL A   1      37.288  19.607  24.899  1.00  0.00     0.275 C 
BRANCH  70  71
ATOM     71  O   UNL A   1      36.087  20.330  25.195  1.00  0.00    -0.458 OA
BRANCH  71  72
ATOM     72  C   UNL A   1      34.926  19.745  24.790  1.00  0.00     0.342 C 
ATOM     73  O   UNL A   1      34.750  18.568  24.553  1.00  0.00    -0.246 OA
BRANCH  72  74
ATOM     74  C   UNL A   1      33.829  20.739  24.816  1.00  0.00     0.102 A 
ATOM     75  C   UNL A   1      34.096  22.027  24.316  1.00  0.00     0.028 A 
ATOM     76  C   UNL A   1      32.565  20.437  25.328  1.00  0.00     0.130 A 
ATOM     77  C   UNL A   1      33.076  22.988  24.263  1.00  0.00    -0.017 A 
ATOM     78  C   UNL A   1      31.552  21.395  25.290  1.00  0.00     0.048 A 
ATOM     79  C   UNL A   1      31.802  22.655  24.741  1.00  0.00     0.012 A 
BRANCH  76  80
ATOM     80  O   UNL A   1      32.317  19.217  25.892  1.00  0.00    -0.507 OA
ATOM     81  H   UNL A   1      31.595  19.111  26.479  1.00  0.00     0.293 HD
ENDBRANCH  76  80
BRANCH  77  82
ATOM     82  C   UNL A   1      33.312  24.356  23.760  1.00  0.00    -0.011 A 
ATOM     83  C   UNL A   1      33.601  25.453  24.662  1.00  0.00     0.027 A 
ATOM     84  C   UNL A   1      33.186  24.620  22.448  1.00  0.00     0.080 A 
ATOM     85  C   UNL A   1      33.724  26.704  24.203  1.00  0.00     0.095 A 
ATOM     86  C   UNL A   1      33.344  26.002  21.914  1.00  0.00     0.255 A 
ATOM     87  N   UNL A   1      33.596  26.984  22.856  1.00  0.00    -0.258 N 
ATOM     88  O   UNL A   1      33.242  26.184  20.705  1.00  0.00    -0.269 OA
BRANCH  87  89
ATOM     89  C   UNL A   1      33.714  28.334  22.373  1.00  0.00     0.451 C 
ATOM     90  F   UNL A   1      32.599  29.056  22.646  1.00  0.00    -0.185 F 
ATOM     91  F   UNL A   1      34.772  28.969  22.932  1.00  0.00    -0.185 F 
ENDBRANCH  87  89
ENDBRANCH  77  82
ENDBRANCH  72  74
ENDBRANCH  71  72
ENDBRANCH  70  71
ENDBRANCH   1  70
TORSDOF 17
ENDMDL
MODEL 2
REMARK VINA RESULT:     -11.8      1.760      2.265
REMARK SMILES O=C(OCCOC(=O)c1cc(-c2ccn(C(F)F)c(=O)c2)ccc1O)c1ccc(-c2c3nc(c(-c4cccc(S(=O)(=O)[O-])c4F)c4ccc([nH]4)c(-c4cccc(S(=O)(=O)[O-])c4F)c4nc(c(-c5cccc(S(=O)(=O)[O-])c5F)c5ccc2[nH]5)C=C4)C=C3)cc1
REMARK SMILES IDX 4 1 3 2 2 3 1 4 26 5 27 6 88 7 28 8 87 9 29 10 30 11 31 12
REMARK SMILES IDX 81 13 32 14 86 15 80 16 82 17 33 18 85 19 79 20 78 21 34 23
REMARK SMILES IDX 66 24 46 25 65 26 47 27 50 28 64 29 83 30 48 31 49 32 63 34
REMARK SMILES IDX 84 35 51 36 35 37 36 38 44 39 37 40 39 41 45 42 38 43 40 44
REMARK SMILES IDX 41 45 42 46 43 47 67 48 68 49 76 50 69 51 71 52 77 53 70 54
REMARK SMILES IDX 72 55 73 56 74 57 75 58 52 59 53 60 61 61 54 62 56 63 62 64
REMARK SMILES IDX 55 65 57 66 58 67 59 68 60 69 5 70 6 71 7 72 8 73 9 74 10 75
REMARK SMILES IDX 24 76 11 77 23 78 22 79 25 80 12 82 13 83 21 84 14 85 19 86
REMARK SMILES IDX 15 87 20 88 16 89 17 90 18 91
REMARK H PARENT 82 22 50 33 25 81
REMARK Flexibility Score: inf
ROOT
ATOM      1  C   UNL A   1      38.229  20.130  25.441  1.00  0.00     0.275 C 
ENDROOT
BRANCH   1   2
ATOM      2  O   UNL A   1      39.645  20.103  25.681  1.00  0.00    -0.458 OA
BRANCH   2   3
ATOM      3  C   UNL A   1      40.351  20.535  26.752  1.00  0.00     0.338 C 
ATOM      4  O   UNL A   1      40.557  19.741  27.670  1.00  0.00    -0.246 OA
BRANCH   3   5
ATOM      5  C   UNL A   1      40.773  21.959  26.955  1.00  0.00     0.060 A 
ATOM      6  C   UNL A   1      41.615  22.188  28.052  1.00  0.00     0.016 A 
ATOM      7  C   UNL A   1      40.424  23.062  26.173  1.00  0.00     0.016 A 
ATOM      8  C   UNL A   1      41.976  23.482  28.437  1.00  0.00     0.010 A 
ATOM      9  C   UNL A   1      40.802  24.363  26.540  1.00  0.00     0.010 A 
ATOM     10  C   UNL A   1      41.551  24.589  27.695  1.00  0.00    -0.014 A 
BRANCH  10  11
ATOM     11  C   UNL A   1      42.027  25.945  28.063  1.00  0.00     0.031 A 
ATOM     12  C   UNL A   1      43.428  26.407  27.791  1.00  0.00     0.074 A 
ATOM     13  C   UNL A   1      41.151  26.778  28.656  1.00  0.00     0.049 A 
ATOM     14  N   UNL A   1      43.895  27.630  27.782  1.00  0.00    -0.248 NA
ATOM     15  C   UNL A   1      44.437  25.387  27.472  1.00  0.00     0.031 C 
ATOM     16  C   UNL A   1      39.782  26.417  29.036  1.00  0.00     0.029 A 
ATOM     17  N   UNL A   1      41.274  28.084  29.048  1.00  0.00    -0.354 N 
ATOM     18  C   UNL A   1      45.228  27.532  27.412  1.00  0.00     0.074 A 
ATOM     19  C   UNL A   1      45.515  26.127  27.229  1.00  0.00     0.031 C 
ATOM     20  C   UNL A   1      39.189  27.480  29.593  1.00  0.00     0.029 A 
ATOM     21  C   UNL A   1      40.137  28.587  29.629  1.00  0.00     0.049 A 
ATOM     22  H   UNL A   1      42.098  28.609  28.924  1.00  0.00     0.167 HD
ATOM     23  C   UNL A   1      46.125  28.529  27.234  1.00  0.00     0.034 A 
ATOM     24  C   UNL A   1      39.881  29.808  30.139  1.00  0.00     0.034 A 
ATOM     25  C   UNL A   1      45.867  29.905  27.555  1.00  0.00     0.049 A 
ATOM     26  C   UNL A   1      40.937  30.866  30.056  1.00  0.00     0.074 A 
ATOM     27  C   UNL A   1      46.701  30.996  27.391  1.00  0.00     0.029 A 
ATOM     28  N   UNL A   1      44.723  30.364  28.187  1.00  0.00    -0.354 N 
ATOM     29  N   UNL A   1      42.107  30.805  29.468  1.00  0.00    -0.248 NA
ATOM     30  C   UNL A   1      40.641  32.160  30.683  1.00  0.00     0.031 C 
ATOM     31  C   UNL A   1      46.089  32.101  27.987  1.00  0.00     0.029 A 
ATOM     32  C   UNL A   1      44.858  31.706  28.488  1.00  0.00     0.049 A 
ATOM     33  H   UNL A   1      43.931  29.815  28.393  1.00  0.00     0.167 HD
ATOM     34  C   UNL A   1      42.685  32.055  29.639  1.00  0.00     0.074 A 
ATOM     35  C   UNL A   1      41.733  32.857  30.383  1.00  0.00     0.031 C 
ATOM     36  C   UNL A   1      43.895  32.492  29.218  1.00  0.00     0.034 A 
BRANCH  23  37
ATOM     37  C   UNL A   1      47.471  28.190  26.656  1.00  0.00     0.023 A 
ATOM     38  C   UNL A   1      48.557  27.995  27.534  1.00  0.00     0.012 A 
ATOM     39  C   UNL A   1      47.635  27.937  25.282  1.00  0.00     0.148 A 
ATOM     40  C   UNL A   1      49.789  27.552  27.050  1.00  0.00     0.002 A 
ATOM     41  C   UNL A   1      48.860  27.481  24.809  1.00  0.00     0.091 A 
ATOM     42  F   UNL A   1      46.587  28.138  24.470  1.00  0.00    -0.205 F 
ATOM     43  C   UNL A   1      49.937  27.288  25.692  1.00  0.00     0.022 A 
BRANCH  41  44
ATOM     44  S   UNL A   1      49.154  27.086  23.083  1.00  0.00     0.127 S 
ATOM     45  O   UNL A   1      48.363  25.865  22.925  1.00  0.00    -0.237 OA
ATOM     46  O   UNL A   1      48.609  28.260  22.403  1.00  0.00    -0.237 OA
ATOM     47  O   UNL A   1      50.593  26.908  22.950  1.00  0.00    -0.744 OA
ENDBRANCH  41  44
ENDBRANCH  23  37
BRANCH  24  48
ATOM     48  C   UNL A   1      38.533  30.062  30.711  1.00  0.00     0.023 A 
ATOM     49  C   UNL A   1      38.264  29.672  32.035  1.00  0.00     0.012 A 
ATOM     50  C   UNL A   1      37.586  30.831  30.005  1.00  0.00     0.148 A 
ATOM     51  C   UNL A   1      37.075  30.061  32.654  1.00  0.00     0.002 A 
ATOM     52  C   UNL A   1      36.424  31.248  30.641  1.00  0.00     0.091 A 
ATOM     53  F   UNL A   1      37.875  31.187  28.745  1.00  0.00    -0.205 F 
ATOM     54  C   UNL A   1      36.164  30.860  31.965  1.00  0.00     0.022 A 
BRANCH  52  55
ATOM     55  S   UNL A   1      35.255  32.377  29.877  1.00  0.00     0.127 S 
ATOM     56  O   UNL A   1      34.716  31.558  28.793  1.00  0.00    -0.237 OA
ATOM     57  O   UNL A   1      34.324  32.636  30.976  1.00  0.00    -0.237 OA
ATOM     58  O   UNL A   1      36.035  33.535  29.458  1.00  0.00    -0.744 OA
ENDBRANCH  52  55
ENDBRANCH  24  48
BRANCH  36  59
ATOM     59  C   UNL A   1      44.300  33.897  29.555  1.00  0.00     0.023 A 
ATOM     60  C   UNL A   1      44.959  34.149  30.773  1.00  0.00     0.012 A 
ATOM     61  C   UNL A   1      44.193  34.919  28.593  1.00  0.00     0.148 A 
ATOM     62  C   UNL A   1      45.515  35.402  31.026  1.00  0.00     0.002 A 
ATOM     63  C   UNL A   1      44.782  36.152  28.835  1.00  0.00     0.091 A 
ATOM     64  F   UNL A   1      43.559  34.646  27.443  1.00  0.00    -0.205 F 
ATOM     65  C   UNL A   1      45.440  36.397  30.053  1.00  0.00     0.022 A 
BRANCH  63  66
ATOM     66  S   UNL A   1      44.821  37.464  27.609  1.00  0.00     0.127 S 
ATOM     67  O   UNL A   1      45.449  38.552  28.356  1.00  0.00    -0.237 OA
ATOM     68  O   UNL A   1      45.657  36.878  26.562  1.00  0.00    -0.237 OA
ATOM     69  O   UNL A   1      43.435  37.701  27.225  1.00  0.00    -0.744 OA
ENDBRANCH  63  66
ENDBRANCH  36  59
ENDBRANCH  10  11
ENDBRANCH   3   5
ENDBRANCH   2   3
ENDBRANCH   1   2
BRANCH   1  70
ATOM     70  C   UNL A   1      37.667  21.503  25.072  1.00  0.00     0.275 C 
BRANCH  70  71
ATOM     71  O   UNL A   1      36.456  21.824  25.769  1.00  0.00    -0.458 OA
BRANCH  71  72
ATOM     72  C   UNL A   1      36.198  23.151  25.932  1.00  0.00     0.342 C 
ATOM     73  O   UNL A   1      36.964  24.070  25.728  1.00  0.00    -0.246 OA
BRANCH  72  74
ATOM     74  C   UNL A   1      34.769  23.346  26.264  1.00  0.00     0.102 A 
ATOM     75  C   UNL A   1      34.103  24.442  25.687  1.00  0.00     0.028 A 
ATOM     76  C   UNL A   1      34.084  22.492  27.133  1.00  0.00     0.130 A 
ATOM     77  C   UNL A   1      32.734  24.639  25.921  1.00  0.00    -0.017 A 
ATOM     78  C   UNL A   1      32.727  22.693  27.380  1.00  0.00     0.048 A 
ATOM     79  C   UNL A   1      32.053  23.748  26.760  1.00  0.00     0.012 A 
BRANCH  76  80
ATOM     80  O   UNL A   1      34.741  21.474  27.766  1.00  0.00    -0.507 OA
ATOM     81  H   UNL A   1      35.675  21.422  27.724  1.00  0.00     0.293 HD
ENDBRANCH  76  80
BRANCH  77  82
ATOM     82  C   UNL A   1      31.996  25.782  25.348  1.00  0.00    -0.011 A 
ATOM     83  C   UNL A   1      31.155  25.627  24.177  1.00  0.00     0.027 A 
ATOM     84  C   UNL A   1      32.153  27.012  25.866  1.00  0.00     0.080 A 
ATOM     85  C   UNL A   1      30.563  26.686  23.613  1.00  0.00     0.095 A 
ATOM     86  C   UNL A   1      31.482  28.200  25.268  1.00  0.00     0.255 A 
ATOM     87  N   UNL A   1      30.720  27.954  24.139  1.00  0.00    -0.258 N 
ATOM     88  O   UNL A   1      31.642  29.296  25.795  1.00  0.00    -0.269 OA
BRANCH  87  89
ATOM     89  C   UNL A   1      30.091  29.089  23.518  1.00  0.00     0.451 C 
ATOM     90  F   UNL A   1      30.733  29.446  22.378  1.00  0.00    -0.185 F 
ATOM     91  F   UNL A   1      28.798  28.832  23.209  1.00  0.00    -0.185 F 
ENDBRANCH  87  89
ENDBRANCH  77  82
ENDBRANCH  72  74
ENDBRANCH  71  72
ENDBRANCH  70  71
ENDBRANCH   1  70
TORSDOF 17
ENDMDL
MODEL 3
REMARK VINA RESULT:     -11.8      1.595      7.772
REMARK SMILES O=C(OCCOC(=O)c1cc(-c2ccn(C(F)F)c(=O)c2)ccc1O)c1ccc(-c2c3nc(c(-c4cccc(S(=O)(=O)[O-])c4F)c4ccc([nH]4)c(-c4cccc(S(=O)(=O)[O-])c4F)c4nc(c(-c5cccc(S(=O)(=O)[O-])c5F)c5ccc2[nH]5)C=C4)C=C3)cc1
REMARK SMILES IDX 4 1 3 2 2 3 1 4 26 5 27 6 88 7 28 8 87 9 29 10 30 11 31 12
REMARK SMILES IDX 81 13 32 14 86 15 80 16 82 17 33 18 85 19 79 20 78 21 34 23
REMARK SMILES IDX 66 24 46 25 65 26 47 27 50 28 64 29 83 30 48 31 49 32 63 34
REMARK SMILES IDX 84 35 51 36 35 37 36 38 44 39 37 40 39 41 45 42 38 43 40 44
REMARK SMILES IDX 41 45 42 46 43 47 67 48 68 49 76 50 69 51 71 52 77 53 70 54
REMARK SMILES IDX 72 55 73 56 74 57 75 58 52 59 53 60 61 61 54 62 56 63 62 64
REMARK SMILES IDX 55 65 57 66 58 67 59 68 60 69 5 70 6 71 7 72 8 73 9 74 10 75
REMARK SMILES IDX 24 76 11 77 23 78 22 79 25 80 12 82 13 83 21 84 14 85 19 86
REMARK SMILES IDX 15 87 20 88 16 89 17 90 18 91
REMARK H PARENT 82 22 50 33 25 81
REMARK Flexibility Score: inf
ROOT
ATOM      1  C   UNL A   1      38.388  20.133  25.688  1.00  0.00     0.275 C 
ENDROOT
BRANCH   1   2
ATOM      2  O   UNL A   1      39.819  20.027  25.756  1.00  0.00    -0.458 OA
BRANCH   2   3
ATOM      3  C   UNL A   1      40.664  20.339  26.766  1.00  0.00     0.338 C 
ATOM      4  O   UNL A   1      41.061  19.427  27.493  1.00  0.00    -0.246 OA
BRANCH   3   5
ATOM      5  C   UNL A   1      41.034  21.741  27.143  1.00  0.00     0.060 A 
ATOM      6  C   UNL A   1      40.917  22.692  26.120  1.00  0.00     0.016 A 
ATOM      7  C   UNL A   1      41.469  22.192  28.391  1.00  0.00     0.016 A 
ATOM      8  C   UNL A   1      41.354  24.008  26.294  1.00  0.00     0.010 A 
ATOM      9  C   UNL A   1      41.888  23.518  28.580  1.00  0.00     0.010 A 
ATOM     10  C   UNL A   1      41.869  24.430  27.524  1.00  0.00    -0.014 A 
BRANCH  10  11
ATOM     11  C   UNL A   1      42.234  25.854  27.717  1.00  0.00     0.031 A 
ATOM     12  C   UNL A   1      41.277  26.859  28.289  1.00  0.00     0.074 A 
ATOM     13  C   UNL A   1      43.476  26.237  27.366  1.00  0.00     0.049 A 
ATOM     14  N   UNL A   1      41.540  28.043  28.784  1.00  0.00    -0.248 NA
ATOM     15  C   UNL A   1      39.852  26.502  28.335  1.00  0.00     0.031 C 
ATOM     16  C   UNL A   1      44.469  25.366  26.734  1.00  0.00     0.029 A 
ATOM     17  N   UNL A   1      44.111  27.444  27.481  1.00  0.00    -0.354 N 
ATOM     18  C   UNL A   1      40.330  28.547  29.241  1.00  0.00     0.074 A 
ATOM     19  C   UNL A   1      39.319  27.558  28.942  1.00  0.00     0.031 C 
ATOM     20  C   UNL A   1      45.594  26.063  26.529  1.00  0.00     0.029 A 
ATOM     21  C   UNL A   1      45.395  27.431  26.994  1.00  0.00     0.049 A 
ATOM     22  H   UNL A   1      43.689  28.242  27.873  1.00  0.00     0.167 HD
ATOM     23  C   UNL A   1      40.093  29.727  29.859  1.00  0.00     0.034 A 
ATOM     24  C   UNL A   1      46.316  28.411  26.926  1.00  0.00     0.034 A 
ATOM     25  C   UNL A   1      41.079  30.758  30.022  1.00  0.00     0.049 A 
ATOM     26  C   UNL A   1      45.989  29.756  27.497  1.00  0.00     0.074 A 
ATOM     27  C   UNL A   1      40.947  31.981  30.654  1.00  0.00     0.029 A 
ATOM     28  N   UNL A   1      42.350  30.725  29.471  1.00  0.00    -0.354 N 
ATOM     29  N   UNL A   1      44.913  30.124  28.150  1.00  0.00    -0.248 NA
ATOM     30  C   UNL A   1      46.995  30.814  27.341  1.00  0.00     0.031 C 
ATOM     31  C   UNL A   1      42.114  32.714  30.426  1.00  0.00     0.029 A 
ATOM     32  C   UNL A   1      42.987  31.933  29.684  1.00  0.00     0.049 A 
ATOM     33  H   UNL A   1      42.742  29.955  28.997  1.00  0.00     0.167 HD
ATOM     34  C   UNL A   1      45.115  31.452  28.499  1.00  0.00     0.074 A 
ATOM     35  C   UNL A   1      46.421  31.824  27.988  1.00  0.00     0.031 C 
ATOM     36  C   UNL A   1      44.291  32.283  29.179  1.00  0.00     0.034 A 
BRANCH  23  37
ATOM     37  C   UNL A   1      38.723  29.979  30.424  1.00  0.00     0.023 A 
ATOM     38  C   UNL A   1      38.411  29.470  31.701  1.00  0.00     0.012 A 
ATOM     39  C   UNL A   1      37.803  30.818  29.767  1.00  0.00     0.148 A 
ATOM     40  C   UNL A   1      37.201  29.791  32.317  1.00  0.00     0.002 A 
ATOM     41  C   UNL A   1      36.607  31.147  30.393  1.00  0.00     0.091 A 
ATOM     42  F   UNL A   1      38.123  31.282  28.551  1.00  0.00    -0.205 F 
ATOM     43  C   UNL A   1      36.304  30.635  31.667  1.00  0.00     0.022 A 
BRANCH  41  44
ATOM     44  S   UNL A   1      35.391  32.245  29.658  1.00  0.00     0.127 S 
ATOM     45  O   UNL A   1      34.447  32.415  30.764  1.00  0.00    -0.237 OA
ATOM     46  O   UNL A   1      36.193  33.428  29.351  1.00  0.00    -0.237 OA
ATOM     47  O   UNL A   1      34.860  31.540  28.500  1.00  0.00    -0.744 OA
ENDBRANCH  41  44
ENDBRANCH  23  37
BRANCH  24  48
ATOM     48  C   UNL A   1      47.642  28.091  26.337  1.00  0.00     0.023 A 
ATOM     49  C   UNL A   1      48.691  27.689  27.182  1.00  0.00     0.012 A 
ATOM     50  C   UNL A   1      47.810  28.023  24.939  1.00  0.00     0.148 A 
ATOM     51  C   UNL A   1      49.885  27.208  26.643  1.00  0.00     0.002 A 
ATOM     52  C   UNL A   1      48.985  27.505  24.409  1.00  0.00     0.091 A 
ATOM     53  F   UNL A   1      46.790  28.411  24.160  1.00  0.00    -0.205 F 
ATOM     54  C   UNL A   1      50.027  27.101  25.261  1.00  0.00     0.022 A 
BRANCH  52  55
ATOM     55  S   UNL A   1      49.209  27.216  22.651  1.00  0.00     0.127 S 
ATOM     56  O   UNL A   1      48.356  26.049  22.431  1.00  0.00    -0.237 OA
ATOM     57  O   UNL A   1      48.707  28.464  22.074  1.00  0.00    -0.237 OA
ATOM     58  O   UNL A   1      50.636  26.993  22.462  1.00  0.00    -0.744 OA
ENDBRANCH  52  55
ENDBRANCH  24  48
BRANCH  36  59
ATOM     59  C   UNL A   1      44.738  33.696  29.411  1.00  0.00     0.023 A 
ATOM     60  C   UNL A   1      45.460  34.005  30.579  1.00  0.00     0.012 A 
ATOM     61  C   UNL A   1      44.604  34.661  28.395  1.00  0.00     0.148 A 
ATOM     62  C   UNL A   1      46.051  35.260  30.729  1.00  0.00     0.002 A 
ATOM     63  C   UNL A   1      45.227  35.893  28.534  1.00  0.00     0.091 A 
ATOM     64  F   UNL A   1      43.909  34.333  27.295  1.00  0.00    -0.205 F 
ATOM     65  C   UNL A   1      45.948  36.195  29.702  1.00  0.00     0.022 A 
BRANCH  63  66
ATOM     66  S   UNL A   1      45.230  37.128  27.230  1.00  0.00     0.127 S 
ATOM     67  O   UNL A   1      46.007  36.459  26.188  1.00  0.00    -0.237 OA
ATOM     68  O   UNL A   1      43.804  37.267  26.936  1.00  0.00    -0.237 OA
ATOM     69  O   UNL A   1      45.857  38.315  27.797  1.00  0.00    -0.744 OA
ENDBRANCH  63  66
ENDBRANCH  36  59
ENDBRANCH  10  11
ENDBRANCH   3   5
ENDBRANCH   2   3
ENDBRANCH   1   2
BRANCH   1  70
ATOM     70  C   UNL A   1      37.870  21.407  25.019  1.00  0.00     0.275 C 
BRANCH  70  71
ATOM     71  O   UNL A   1      36.559  21.783  25.458  1.00  0.00    -0.458 OA
BRANCH  71  72
ATOM     72  C   UNL A   1      36.430  23.058  25.920  1.00  0.00     0.342 C 
ATOM     73  O   UNL A   1      37.304  23.896  25.993  1.00  0.00    -0.246 OA
BRANCH  72  74
ATOM     74  C   UNL A   1      35.005  23.347  26.197  1.00  0.00     0.102 A 
ATOM     75  C   UNL A   1      34.439  24.492  25.605  1.00  0.00     0.028 A 
ATOM     76  C   UNL A   1      34.229  22.535  27.027  1.00  0.00     0.130 A 
ATOM     77  C   UNL A   1      33.078  24.781  25.787  1.00  0.00    -0.017 A 
ATOM     78  C   UNL A   1      32.879  22.827  27.222  1.00  0.00     0.048 A 
ATOM     79  C   UNL A   1      32.304  23.931  26.588  1.00  0.00     0.012 A 
BRANCH  76  80
ATOM     80  O   UNL A   1      34.787  21.469  27.674  1.00  0.00    -0.507 OA
ATOM     81  H   UNL A   1      34.972  21.522  28.591  1.00  0.00     0.293 HD
ENDBRANCH  76  80
BRANCH  77  82
ATOM     82  C   UNL A   1      32.443  25.976  25.198  1.00  0.00    -0.011 A 
ATOM     83  C   UNL A   1      31.001  26.099  25.108  1.00  0.00     0.027 A 
ATOM     84  C   UNL A   1      33.205  26.946  24.663  1.00  0.00     0.080 A 
ATOM     85  C   UNL A   1      30.440  27.145  24.491  1.00  0.00     0.095 A 
ATOM     86  C   UNL A   1      32.598  28.131  23.995  1.00  0.00     0.255 A 
ATOM     87  N   UNL A   1      31.215  28.147  23.938  1.00  0.00    -0.258 N 
ATOM     88  O   UNL A   1      33.339  28.999  23.544  1.00  0.00    -0.269 OA
BRANCH  87  89
ATOM     89  C   UNL A   1      30.603  29.260  23.264  1.00  0.00     0.451 C 
ATOM     90  F   UNL A   1      29.691  28.844  22.351  1.00  0.00    -0.185 F 
ATOM     91  F   UNL A   1      29.976  30.085  24.138  1.00  0.00    -0.185 F 
ENDBRANCH  87  89
ENDBRANCH  77  82
ENDBRANCH  72  74
ENDBRANCH  71  72
ENDBRANCH  70  71
ENDBRANCH   1  70
TORSDOF 17
ENDMDL
