MODEL 1
REMARK VINA RESULT:     -11.5      0.000      0.000
REMARK SMILES O=C1C[C@@H]([N@@H+]2CCO[C@@H](CC(=O)OCCOC(=O)c3ccc(-c4c5nc(c(-c6cccc(S(=O)(=O)[O-])c6F)c6ccc([nH]6)c(-c6cccc(S(=O)(=O)[O-])c6F)c6nc(c(-c7cccc(S(=O)(=O)[O-])c7F)c7ccc4[nH]7)C=C6)C=C5)cc3)C2)C(=O)N1
REMARK SMILES IDX 15 1 14 2 13 3 11 4 12 5 10 6 9 7 5 8 6 9 82 10 7 12 8 13
REMARK SMILES IDX 4 14 1 15 2 16 3 17 85 18 83 19 84 21 16 22 17 23 18 24
REMARK SMILES IDX 19 25 20 26 81 27 21 28 80 29 22 30 23 31 24 32 74 33 25 34
REMARK SMILES IDX 79 35 73 36 75 37 26 38 78 39 72 40 71 41 27 43 59 44 39 45
REMARK SMILES IDX 58 46 40 47 43 48 57 49 76 50 41 51 42 52 56 54 77 55 44 56
REMARK SMILES IDX 28 57 29 58 37 59 30 60 32 61 38 62 31 63 33 64 34 65 35 66
REMARK SMILES IDX 36 67 60 68 61 69 69 70 62 71 64 72 70 73 63 74 65 75 66 76
REMARK SMILES IDX 67 77 68 78 45 79 46 80 54 81 47 82 49 83 55 84 48 85 50 86
REMARK SMILES IDX 51 87 52 88 53 89
REMARK H PARENT 5 11 85 20 75 42 43 53
REMARK Flexibility Score: inf
ROOT
ATOM      1  C   UNL A   1      31.389  30.399  25.528  1.00  0.00     0.275 C 
ENDROOT
BRANCH   1   2
ATOM      2  C   UNL A   1      31.170  29.272  24.514  1.00  0.00     0.274 C 
BRANCH   2   3
ATOM      3  O   UNL A   1      31.383  27.971  25.096  1.00  0.00    -0.462 OA
BRANCH   3   4
ATOM      4  C   UNL A   1      32.488  27.296  24.688  1.00  0.00     0.308 C 
ATOM      5  O   UNL A   1      32.936  27.316  23.549  1.00  0.00    -0.252 OA
BRANCH   4   6
ATOM      6  C   UNL A   1      33.075  26.454  25.789  1.00  0.00     0.160 C 
BRANCH   6   7
ATOM      7  C   UNL A   1      32.663  24.981  25.777  1.00  0.00     0.184 C 
ATOM      8  N   UNL A   1      33.474  22.619  26.323  1.00  0.00    -0.320 N 
ATOM      9  C   UNL A   1      32.303  22.527  27.205  1.00  0.00     0.291 C 
ATOM     10  C   UNL A   1      33.842  24.025  26.081  1.00  0.00     0.295 C 
ATOM     11  H   UNL A   1      34.217  22.177  26.864  1.00  0.00     0.348 HD
ATOM     12  C   UNL A   1      31.164  23.503  26.882  1.00  0.00     0.222 C 
ATOM     13  O   UNL A   1      31.645  24.847  26.794  1.00  0.00    -0.366 OA
BRANCH   8  14
ATOM     14  C   UNL A   1      33.518  21.759  25.126  1.00  0.00     0.284 C 
ATOM     15  O   UNL A   1      32.168  18.457  25.214  1.00  0.00    -0.274 OA
ATOM     16  C   UNL A   1      32.845  19.469  25.131  1.00  0.00     0.233 C 
ATOM     17  C   UNL A   1      32.337  20.840  24.809  1.00  0.00     0.176 C 
ATOM     18  N   UNL A   1      34.190  19.516  25.277  1.00  0.00    -0.291 N 
ATOM     19  C   UNL A   1      34.688  20.778  25.231  1.00  0.00     0.285 C 
ATOM     20  H   UNL A   1      34.750  18.716  25.403  1.00  0.00     0.173 HD
ATOM     21  O   UNL A   1      35.876  21.053  25.311  1.00  0.00    -0.268 OA
ENDBRANCH   8  14
ENDBRANCH   6   7
ENDBRANCH   4   6
ENDBRANCH   3   4
ENDBRANCH   2   3
ENDBRANCH   1   2
BRANCH   1  22
ATOM     22  O   UNL A   1      32.759  30.466  25.964  1.00  0.00    -0.458 OA
BRANCH  22  23
ATOM     23  C   UNL A   1      33.034  31.442  26.860  1.00  0.00     0.338 C 
ATOM     24  O   UNL A   1      32.301  32.365  27.179  1.00  0.00    -0.246 OA
BRANCH  23  25
ATOM     25  C   UNL A   1      34.322  31.170  27.521  1.00  0.00     0.060 A 
ATOM     26  C   UNL A   1      34.614  29.852  27.887  1.00  0.00     0.016 A 
ATOM     27  C   UNL A   1      35.206  32.205  27.831  1.00  0.00     0.016 A 
ATOM     28  C   UNL A   1      35.792  29.564  28.573  1.00  0.00     0.010 A 
ATOM     29  C   UNL A   1      36.391  31.911  28.515  1.00  0.00     0.010 A 
ATOM     30  C   UNL A   1      36.686  30.591  28.899  1.00  0.00    -0.014 A 
BRANCH  30  31
ATOM     31  C   UNL A   1      37.924  30.284  29.655  1.00  0.00     0.031 A 
ATOM     32  C   UNL A   1      38.954  29.359  29.072  1.00  0.00     0.074 A 
ATOM     33  C   UNL A   1      38.111  30.823  30.876  1.00  0.00     0.049 A 
ATOM     34  N   UNL A   1      40.072  28.932  29.599  1.00  0.00    -0.248 NA
ATOM     35  C   UNL A   1      38.690  28.841  27.719  1.00  0.00     0.031 C 
ATOM     36  C   UNL A   1      37.178  31.727  31.549  1.00  0.00     0.029 A 
ATOM     37  N   UNL A   1      39.136  30.668  31.774  1.00  0.00    -0.354 N 
ATOM     38  C   UNL A   1      40.630  28.071  28.662  1.00  0.00     0.074 A 
ATOM     39  C   UNL A   1      39.723  28.031  27.534  1.00  0.00     0.031 C 
ATOM     40  C   UNL A   1      37.665  32.032  32.764  1.00  0.00     0.029 A 
ATOM     41  C   UNL A   1      38.925  31.323  32.965  1.00  0.00     0.049 A 
ATOM     42  H   UNL A   1      39.945  30.141  31.585  1.00  0.00     0.167 HD
ATOM     43  C   UNL A   1      41.797  27.389  28.730  1.00  0.00     0.034 A 
ATOM     44  C   UNL A   1      39.655  31.332  34.098  1.00  0.00     0.034 A 
ATOM     45  C   UNL A   1      42.713  27.459  29.838  1.00  0.00     0.049 A 
ATOM     46  C   UNL A   1      40.948  30.562  34.145  1.00  0.00     0.074 A 
ATOM     47  C   UNL A   1      43.947  26.846  29.974  1.00  0.00     0.029 A 
ATOM     48  N   UNL A   1      42.493  28.177  31.003  1.00  0.00    -0.354 N 
ATOM     49  N   UNL A   1      41.520  29.851  33.204  1.00  0.00    -0.248 NA
ATOM     50  C   UNL A   1      41.712  30.620  35.399  1.00  0.00     0.031 C 
ATOM     51  C   UNL A   1      44.466  27.180  31.229  1.00  0.00     0.029 A 
ATOM     52  C   UNL A   1      43.564  28.016  31.868  1.00  0.00     0.049 A 
ATOM     53  H   UNL A   1      41.695  28.721  31.189  1.00  0.00     0.167 HD
ATOM     54  C   UNL A   1      42.723  29.405  33.739  1.00  0.00     0.074 A 
ATOM     55  C   UNL A   1      42.808  29.945  35.080  1.00  0.00     0.031 C 
ATOM     56  C   UNL A   1      43.664  28.607  33.178  1.00  0.00     0.034 A 
BRANCH  43  57
ATOM     57  C   UNL A   1      42.178  26.530  27.553  1.00  0.00     0.023 A 
ATOM     58  C   UNL A   1      42.955  27.080  26.515  1.00  0.00     0.012 A 
ATOM     59  C   UNL A   1      41.829  25.166  27.511  1.00  0.00     0.148 A 
ATOM     60  C   UNL A   1      43.361  26.291  25.439  1.00  0.00     0.002 A 
ATOM     61  C   UNL A   1      42.269  24.377  26.454  1.00  0.00     0.091 A 
ATOM     62  F   UNL A   1      41.071  24.668  28.497  1.00  0.00    -0.205 F 
ATOM     63  C   UNL A   1      43.028  24.939  25.414  1.00  0.00     0.022 A 
BRANCH  61  64
ATOM     64  S   UNL A   1      41.953  22.610  26.368  1.00  0.00     0.127 S 
ATOM     65  O   UNL A   1      42.526  22.146  27.631  1.00  0.00    -0.237 OA
ATOM     66  O   UNL A   1      40.492  22.560  26.307  1.00  0.00    -0.237 OA
ATOM     67  O   UNL A   1      42.627  22.140  25.166  1.00  0.00    -0.744 OA
ENDBRANCH  61  64
ENDBRANCH  43  57
BRANCH  44  68
ATOM     68  C   UNL A   1      39.199  32.131  35.270  1.00  0.00     0.023 A 
ATOM     69  C   UNL A   1      39.410  33.522  35.285  1.00  0.00     0.012 A 
ATOM     70  C   UNL A   1      38.541  31.525  36.358  1.00  0.00     0.148 A 
ATOM     71  C   UNL A   1      39.001  34.293  36.374  1.00  0.00     0.002 A 
ATOM     72  C   UNL A   1      38.086  32.305  37.415  1.00  0.00     0.091 A 
ATOM     73  F   UNL A   1      38.366  30.196  36.337  1.00  0.00    -0.205 F 
ATOM     74  C   UNL A   1      38.330  33.687  37.432  1.00  0.00     0.022 A 
BRANCH  72  75
ATOM     75  S   UNL A   1      37.101  31.624  38.754  1.00  0.00     0.127 S 
ATOM     76  O   UNL A   1      36.831  30.273  38.270  1.00  0.00    -0.237 OA
ATOM     77  O   UNL A   1      38.028  31.699  39.885  1.00  0.00    -0.237 OA
ATOM     78  O   UNL A   1      35.945  32.503  38.871  1.00  0.00    -0.744 OA
ENDBRANCH  72  75
ENDBRANCH  44  68
BRANCH  56  79
ATOM     79  C   UNL A   1      44.888  28.287  33.995  1.00  0.00     0.023 A 
ATOM     80  C   UNL A   1      46.007  29.140  33.938  1.00  0.00     0.012 A 
ATOM     81  C   UNL A   1      44.900  27.187  34.875  1.00  0.00     0.148 A 
ATOM     82  C   UNL A   1      47.133  28.887  34.723  1.00  0.00     0.002 A 
ATOM     83  C   UNL A   1      46.007  26.967  35.687  1.00  0.00     0.091 A 
ATOM     84  F   UNL A   1      43.834  26.375  34.901  1.00  0.00    -0.205 F 
ATOM     85  C   UNL A   1      47.128  27.808  35.605  1.00  0.00     0.022 A 
BRANCH  83  86
ATOM     86  S   UNL A   1      46.050  25.658  36.918  1.00  0.00     0.127 S 
ATOM     87  O   UNL A   1      46.012  24.460  36.082  1.00  0.00    -0.237 OA
ATOM     88  O   UNL A   1      47.331  25.897  37.585  1.00  0.00    -0.237 OA
ATOM     89  O   UNL A   1      44.883  25.870  37.766  1.00  0.00    -0.744 OA
ENDBRANCH  83  86
ENDBRANCH  56  79
ENDBRANCH  30  31
ENDBRANCH  23  25
ENDBRANCH  22  23
ENDBRANCH   1  22
TORSDOF 16
ENDMDL
MODEL 2
REMARK VINA RESULT:     -11.5      1.357      1.594
REMARK SMILES O=C1C[C@@H]([N@@H+]2CCO[C@@H](CC(=O)OCCOC(=O)c3ccc(-c4c5nc(c(-c6cccc(S(=O)(=O)[O-])c6F)c6ccc([nH]6)c(-c6cccc(S(=O)(=O)[O-])c6F)c6nc(c(-c7cccc(S(=O)(=O)[O-])c7F)c7ccc4[nH]7)C=C6)C=C5)cc3)C2)C(=O)N1
REMARK SMILES IDX 15 1 14 2 13 3 11 4 12 5 10 6 9 7 5 8 6 9 82 10 7 12 8 13
REMARK SMILES IDX 4 14 1 15 2 16 3 17 85 18 83 19 84 21 16 22 17 23 18 24
REMARK SMILES IDX 19 25 20 26 81 27 21 28 80 29 22 30 23 31 24 32 74 33 25 34
REMARK SMILES IDX 79 35 73 36 75 37 26 38 78 39 72 40 71 41 27 43 59 44 39 45
REMARK SMILES IDX 58 46 40 47 43 48 57 49 76 50 41 51 42 52 56 54 77 55 44 56
REMARK SMILES IDX 28 57 29 58 37 59 30 60 32 61 38 62 31 63 33 64 34 65 35 66
REMARK SMILES IDX 36 67 60 68 61 69 69 70 62 71 64 72 70 73 63 74 65 75 66 76
REMARK SMILES IDX 67 77 68 78 45 79 46 80 54 81 47 82 49 83 55 84 48 85 50 86
REMARK SMILES IDX 51 87 52 88 53 89
REMARK H PARENT 5 11 85 20 75 42 43 53
REMARK Flexibility Score: inf
ROOT
ATOM      1  C   UNL A   1      31.610  29.960  25.576  1.00  0.00     0.275 C 
ENDROOT
BRANCH   1   2
ATOM      2  C   UNL A   1      31.447  28.896  24.486  1.00  0.00     0.274 C 
BRANCH   2   3
ATOM      3  O   UNL A   1      32.705  28.556  23.869  1.00  0.00    -0.462 OA
BRANCH   3   4
ATOM      4  C   UNL A   1      33.034  27.239  23.846  1.00  0.00     0.308 C 
ATOM      5  O   UNL A   1      33.160  26.571  22.829  1.00  0.00    -0.252 OA
BRANCH   4   6
ATOM      6  C   UNL A   1      33.163  26.664  25.231  1.00  0.00     0.160 C 
BRANCH   6   7
ATOM      7  C   UNL A   1      32.719  25.208  25.379  1.00  0.00     0.184 C 
ATOM      8  N   UNL A   1      33.505  22.889  26.112  1.00  0.00    -0.320 N 
ATOM      9  C   UNL A   1      32.376  22.910  27.051  1.00  0.00     0.291 C 
ATOM     10  C   UNL A   1      33.891  24.255  25.719  1.00  0.00     0.295 C 
ATOM     11  H   UNL A   1      34.263  22.481  26.658  1.00  0.00     0.348 HD
ATOM     12  C   UNL A   1      31.244  23.880  26.688  1.00  0.00     0.222 C 
ATOM     13  O   UNL A   1      31.748  25.197  26.450  1.00  0.00    -0.366 OA
BRANCH   8  14
ATOM     14  C   UNL A   1      33.474  21.918  25.002  1.00  0.00     0.284 C 
ATOM     15  O   UNL A   1      32.267  18.601  25.526  1.00  0.00    -0.274 OA
ATOM     16  C   UNL A   1      32.893  19.620  25.284  1.00  0.00     0.233 C 
ATOM     17  C   UNL A   1      32.306  20.938  24.884  1.00  0.00     0.176 C 
ATOM     18  N   UNL A   1      34.243  19.721  25.298  1.00  0.00    -0.291 N 
ATOM     19  C   UNL A   1      34.685  20.988  25.087  1.00  0.00     0.285 C 
ATOM     20  H   UNL A   1      34.843  18.954  25.445  1.00  0.00     0.173 HD
ATOM     21  O   UNL A   1      35.865  21.304  25.029  1.00  0.00    -0.268 OA
ENDBRANCH   8  14
ENDBRANCH   6   7
ENDBRANCH   4   6
ENDBRANCH   3   4
ENDBRANCH   2   3
ENDBRANCH   1   2
BRANCH   1  22
ATOM     22  O   UNL A   1      32.995  30.216  25.870  1.00  0.00    -0.458 OA
BRANCH  22  23
ATOM     23  C   UNL A   1      33.221  31.148  26.825  1.00  0.00     0.338 C 
ATOM     24  O   UNL A   1      32.451  32.026  27.183  1.00  0.00    -0.246 OA
BRANCH  23  25
ATOM     25  C   UNL A   1      34.506  30.882  27.493  1.00  0.00     0.060 A 
ATOM     26  C   UNL A   1      34.792  29.569  27.882  1.00  0.00     0.016 A 
ATOM     27  C   UNL A   1      35.393  31.918  27.789  1.00  0.00     0.016 A 
ATOM     28  C   UNL A   1      35.968  29.287  28.574  1.00  0.00     0.010 A 
ATOM     29  C   UNL A   1      36.575  31.631  28.481  1.00  0.00     0.010 A 
ATOM     30  C   UNL A   1      36.864  30.316  28.887  1.00  0.00    -0.014 A 
BRANCH  30  31
ATOM     31  C   UNL A   1      38.099  30.017  29.651  1.00  0.00     0.031 A 
ATOM     32  C   UNL A   1      39.129  29.082  29.083  1.00  0.00     0.074 A 
ATOM     33  C   UNL A   1      38.284  30.571  30.865  1.00  0.00     0.049 A 
ATOM     34  N   UNL A   1      40.245  28.660  29.619  1.00  0.00    -0.248 NA
ATOM     35  C   UNL A   1      38.869  28.548  27.736  1.00  0.00     0.031 C 
ATOM     36  C   UNL A   1      37.351  31.486  31.523  1.00  0.00     0.029 A 
ATOM     37  N   UNL A   1      39.306  30.426  31.768  1.00  0.00    -0.354 N 
ATOM     38  C   UNL A   1      40.804  27.786  28.696  1.00  0.00     0.074 A 
ATOM     39  C   UNL A   1      39.901  27.733  27.564  1.00  0.00     0.031 C 
ATOM     40  C   UNL A   1      37.834  31.806  32.735  1.00  0.00     0.029 A 
ATOM     41  C   UNL A   1      39.092  31.097  32.950  1.00  0.00     0.049 A 
ATOM     42  H   UNL A   1      40.115  29.895  31.588  1.00  0.00     0.167 HD
ATOM     43  C   UNL A   1      41.970  27.103  28.775  1.00  0.00     0.034 A 
ATOM     44  C   UNL A   1      39.819  31.120  34.085  1.00  0.00     0.034 A 
ATOM     45  C   UNL A   1      42.882  27.185  29.886  1.00  0.00     0.049 A 
ATOM     46  C   UNL A   1      41.110  30.347  34.146  1.00  0.00     0.074 A 
ATOM     47  C   UNL A   1      44.115  26.572  30.033  1.00  0.00     0.029 A 
ATOM     48  N   UNL A   1      42.661  27.919  31.041  1.00  0.00    -0.354 N 
ATOM     49  N   UNL A   1      41.684  29.623  33.216  1.00  0.00    -0.248 NA
ATOM     50  C   UNL A   1      41.870  30.420  35.402  1.00  0.00     0.031 C 
ATOM     51  C   UNL A   1      44.631  26.921  31.286  1.00  0.00     0.029 A 
ATOM     52  C   UNL A   1      43.728  27.767  31.911  1.00  0.00     0.049 A 
ATOM     53  H   UNL A   1      41.863  28.467  31.217  1.00  0.00     0.167 HD
ATOM     54  C   UNL A   1      42.884  29.182  33.760  1.00  0.00     0.074 A 
ATOM     55  C   UNL A   1      42.966  29.739  35.095  1.00  0.00     0.031 C 
ATOM     56  C   UNL A   1      43.826  28.375  33.213  1.00  0.00     0.034 A 
BRANCH  43  57
ATOM     57  C   UNL A   1      42.353  26.228  27.611  1.00  0.00     0.023 A 
ATOM     58  C   UNL A   1      43.154  26.756  26.580  1.00  0.00     0.012 A 
ATOM     59  C   UNL A   1      41.982  24.869  27.575  1.00  0.00     0.148 A 
ATOM     60  C   UNL A   1      43.561  25.951  25.516  1.00  0.00     0.002 A 
ATOM     61  C   UNL A   1      42.424  24.064  26.532  1.00  0.00     0.091 A 
ATOM     62  F   UNL A   1      41.202  24.392  28.555  1.00  0.00    -0.205 F 
ATOM     63  C   UNL A   1      43.206  24.605  25.497  1.00  0.00     0.022 A 
BRANCH  61  64
ATOM     64  S   UNL A   1      42.080  22.302  26.455  1.00  0.00     0.127 S 
ATOM     65  O   UNL A   1      40.627  22.293  26.290  1.00  0.00    -0.237 OA
ATOM     66  O   UNL A   1      42.830  21.891  25.268  1.00  0.00    -0.237 OA
ATOM     67  O   UNL A   1      42.570  21.743  27.707  1.00  0.00    -0.744 OA
ENDBRANCH  61  64
ENDBRANCH  43  57
BRANCH  44  68
ATOM     68  C   UNL A   1      39.360  31.934  35.245  1.00  0.00     0.023 A 
ATOM     69  C   UNL A   1      38.505  31.356  36.202  1.00  0.00     0.012 A 
ATOM     70  C   UNL A   1      39.781  33.268  35.417  1.00  0.00     0.148 A 
ATOM     71  C   UNL A   1      38.053  32.099  37.293  1.00  0.00     0.002 A 
ATOM     72  C   UNL A   1      39.372  33.985  36.535  1.00  0.00     0.091 A 
ATOM     73  F   UNL A   1      40.578  33.809  34.485  1.00  0.00    -0.205 F 
ATOM     74  C   UNL A   1      38.495  33.408  37.466  1.00  0.00     0.022 A 
BRANCH  72  75
ATOM     75  S   UNL A   1      39.996  35.630  36.899  1.00  0.00     0.127 S 
ATOM     76  O   UNL A   1      39.338  35.926  38.169  1.00  0.00    -0.237 OA
ATOM     77  O   UNL A   1      41.438  35.397  36.993  1.00  0.00    -0.237 OA
ATOM     78  O   UNL A   1      39.597  36.455  35.767  1.00  0.00    -0.744 OA
ENDBRANCH  72  75
ENDBRANCH  44  68
BRANCH  56  79
ATOM     79  C   UNL A   1      45.046  28.063  34.038  1.00  0.00     0.023 A 
ATOM     80  C   UNL A   1      46.163  28.920  33.983  1.00  0.00     0.012 A 
ATOM     81  C   UNL A   1      45.058  26.967  34.923  1.00  0.00     0.148 A 
ATOM     82  C   UNL A   1      47.285  28.675  34.775  1.00  0.00     0.002 A 
ATOM     83  C   UNL A   1      46.161  26.755  35.743  1.00  0.00     0.091 A 
ATOM     84  F   UNL A   1      43.994  26.152  34.947  1.00  0.00    -0.205 F 
ATOM     85  C   UNL A   1      47.279  27.600  35.662  1.00  0.00     0.022 A 
BRANCH  83  86
ATOM     86  S   UNL A   1      46.202  25.453  36.980  1.00  0.00     0.127 S 
ATOM     87  O   UNL A   1      46.080  24.253  36.154  1.00  0.00    -0.237 OA
ATOM     88  O   UNL A   1      47.519  25.642  37.591  1.00  0.00    -0.237 OA
ATOM     89  O   UNL A   1      45.081  25.716  37.874  1.00  0.00    -0.744 OA
ENDBRANCH  83  86
ENDBRANCH  56  79
ENDBRANCH  30  31
ENDBRANCH  23  25
ENDBRANCH  22  23
ENDBRANCH   1  22
TORSDOF 16
ENDMDL
MODEL 3
REMARK VINA RESULT:     -11.5      5.302     10.465
REMARK SMILES O=C1C[C@@H]([N@@H+]2CCO[C@@H](CC(=O)OCCOC(=O)c3ccc(-c4c5nc(c(-c6cccc(S(=O)(=O)[O-])c6F)c6ccc([nH]6)c(-c6cccc(S(=O)(=O)[O-])c6F)c6nc(c(-c7cccc(S(=O)(=O)[O-])c7F)c7ccc4[nH]7)C=C6)C=C5)cc3)C2)C(=O)N1
REMARK SMILES IDX 15 1 14 2 13 3 11 4 12 5 10 6 9 7 5 8 6 9 82 10 7 12 8 13
REMARK SMILES IDX 4 14 1 15 2 16 3 17 85 18 83 19 84 21 16 22 17 23 18 24
REMARK SMILES IDX 19 25 20 26 81 27 21 28 80 29 22 30 23 31 24 32 74 33 25 34
REMARK SMILES IDX 79 35 73 36 75 37 26 38 78 39 72 40 71 41 27 43 59 44 39 45
REMARK SMILES IDX 58 46 40 47 43 48 57 49 76 50 41 51 42 52 56 54 77 55 44 56
REMARK SMILES IDX 28 57 29 58 37 59 30 60 32 61 38 62 31 63 33 64 34 65 35 66
REMARK SMILES IDX 36 67 60 68 61 69 69 70 62 71 64 72 70 73 63 74 65 75 66 76
REMARK SMILES IDX 67 77 68 78 45 79 46 80 54 81 47 82 49 83 55 84 48 85 50 86
REMARK SMILES IDX 51 87 52 88 53 89
REMARK H PARENT 5 11 85 20 75 42 43 53
REMARK Flexibility Score: inf
ROOT
ATOM      1  C   UNL A   1      36.343  20.169  25.007  1.00  0.00     0.275 C 
ENDROOT
BRANCH   1   2
ATOM      2  C   UNL A   1      34.852  20.519  25.033  1.00  0.00     0.274 C 
BRANCH   2   3
ATOM      3  O   UNL A   1      34.602  21.781  25.682  1.00  0.00    -0.462 OA
BRANCH   3   4
ATOM      4  C   UNL A   1      33.735  22.622  25.063  1.00  0.00     0.308 C 
ATOM      5  O   UNL A   1      32.550  22.383  24.871  1.00  0.00    -0.252 OA
BRANCH   4   6
ATOM      6  C   UNL A   1      34.413  23.874  24.572  1.00  0.00     0.160 C 
BRANCH   6   7
ATOM      7  C   UNL A   1      33.525  24.830  23.776  1.00  0.00     0.184 C 
ATOM      8  N   UNL A   1      32.933  27.297  23.460  1.00  0.00    -0.320 N 
ATOM      9  C   UNL A   1      33.303  27.105  22.052  1.00  0.00     0.291 C 
ATOM     10  C   UNL A   1      33.568  26.280  24.316  1.00  0.00     0.295 C 
ATOM     11  H   UNL A   1      33.328  28.208  23.690  1.00  0.00     0.348 HD
ATOM     12  C   UNL A   1      33.265  25.651  21.560  1.00  0.00     0.222 C 
ATOM     13  O   UNL A   1      34.022  24.795  22.419  1.00  0.00    -0.366 OA
BRANCH   8  14
ATOM     14  C   UNL A   1      31.520  27.571  23.781  1.00  0.00     0.284 C 
ATOM     15  O   UNL A   1      29.539  29.625  21.637  1.00  0.00    -0.274 OA
ATOM     16  C   UNL A   1      30.167  29.098  22.542  1.00  0.00     0.233 C 
ATOM     17  C   UNL A   1      30.486  27.640  22.656  1.00  0.00     0.176 C 
ATOM     18  N   UNL A   1      30.649  29.745  23.630  1.00  0.00    -0.291 N 
ATOM     19  C   UNL A   1      31.392  28.947  24.439  1.00  0.00     0.285 C 
ATOM     20  H   UNL A   1      30.478  30.697  23.814  1.00  0.00     0.173 HD
ATOM     21  O   UNL A   1      31.899  29.313  25.489  1.00  0.00    -0.268 OA
ENDBRANCH   8  14
ENDBRANCH   6   7
ENDBRANCH   4   6
ENDBRANCH   3   4
ENDBRANCH   2   3
ENDBRANCH   1   2
BRANCH   1  22
ATOM     22  O   UNL A   1      37.159  21.277  25.429  1.00  0.00    -0.458 OA
BRANCH  22  23
ATOM     23  C   UNL A   1      38.436  20.966  25.751  1.00  0.00     0.338 C 
ATOM     24  O   UNL A   1      38.988  19.890  25.581  1.00  0.00    -0.246 OA
BRANCH  23  25
ATOM     25  C   UNL A   1      39.141  22.166  26.230  1.00  0.00     0.060 A 
ATOM     26  C   UNL A   1      38.620  23.420  25.893  1.00  0.00     0.016 A 
ATOM     27  C   UNL A   1      40.332  22.064  26.951  1.00  0.00     0.016 A 
ATOM     28  C   UNL A   1      39.293  24.579  26.272  1.00  0.00     0.010 A 
ATOM     29  C   UNL A   1      41.003  23.230  27.333  1.00  0.00     0.010 A 
ATOM     30  C   UNL A   1      40.494  24.495  26.987  1.00  0.00    -0.014 A 
BRANCH  30  31
ATOM     31  C   UNL A   1      41.223  25.730  27.362  1.00  0.00     0.031 A 
ATOM     32  C   UNL A   1      40.535  26.798  28.164  1.00  0.00     0.074 A 
ATOM     33  C   UNL A   1      42.498  25.899  26.962  1.00  0.00     0.049 A 
ATOM     34  N   UNL A   1      40.987  27.964  28.545  1.00  0.00    -0.248 NA
ATOM     35  C   UNL A   1      39.154  26.520  28.591  1.00  0.00     0.031 C 
ATOM     36  C   UNL A   1      43.268  24.938  26.172  1.00  0.00     0.029 A 
ATOM     37  N   UNL A   1      43.360  26.950  27.145  1.00  0.00    -0.354 N 
ATOM     38  C   UNL A   1      39.941  28.575  29.224  1.00  0.00     0.074 A 
ATOM     39  C   UNL A   1      38.826  27.651  29.201  1.00  0.00     0.031 C 
ATOM     40  C   UNL A   1      44.483  25.451  25.921  1.00  0.00     0.029 A 
ATOM     41  C   UNL A   1      44.567  26.787  26.505  1.00  0.00     0.049 A 
ATOM     42  H   UNL A   1      43.139  27.744  27.683  1.00  0.00     0.167 HD
ATOM     43  C   UNL A   1      39.917  29.787  29.827  1.00  0.00     0.034 A 
ATOM     44  C   UNL A   1      45.613  27.628  26.386  1.00  0.00     0.034 A 
ATOM     45  C   UNL A   1      41.038  30.688  29.880  1.00  0.00     0.049 A 
ATOM     46  C   UNL A   1      45.557  28.971  27.065  1.00  0.00     0.074 A 
ATOM     47  C   UNL A   1      41.127  31.915  30.514  1.00  0.00     0.029 A 
ATOM     48  N   UNL A   1      42.263  30.465  29.269  1.00  0.00    -0.354 N 
ATOM     49  N   UNL A   1      44.605  29.482  27.807  1.00  0.00    -0.248 NA
ATOM     50  C   UNL A   1      46.732  29.842  26.914  1.00  0.00     0.031 C 
ATOM     51  C   UNL A   1      42.400  32.442  30.273  1.00  0.00     0.029 A 
ATOM     52  C   UNL A   1      43.111  31.535  29.504  1.00  0.00     0.049 A 
ATOM     53  H   UNL A   1      42.496  29.665  28.747  1.00  0.00     0.167 HD
ATOM     54  C   UNL A   1      45.077  30.715  28.240  1.00  0.00     0.074 A 
ATOM     55  C   UNL A   1      46.410  30.866  27.694  1.00  0.00     0.031 C 
ATOM     56  C   UNL A   1      44.457  31.647  29.004  1.00  0.00     0.034 A 
BRANCH  43  57
ATOM     57  C   UNL A   1      38.645  30.203  30.517  1.00  0.00     0.023 A 
ATOM     58  C   UNL A   1      38.449  29.868  31.872  1.00  0.00     0.012 A 
ATOM     59  C   UNL A   1      37.682  30.984  29.849  1.00  0.00     0.148 A 
ATOM     60  C   UNL A   1      37.300  30.285  32.545  1.00  0.00     0.002 A 
ATOM     61  C   UNL A   1      36.559  31.427  30.538  1.00  0.00     0.091 A 
ATOM     62  F   UNL A   1      37.878  31.273  28.555  1.00  0.00    -0.205 F 
ATOM     63  C   UNL A   1      36.362  31.072  31.883  1.00  0.00     0.022 A 
BRANCH  61  64
ATOM     64  S   UNL A   1      35.329  32.506  29.793  1.00  0.00     0.127 S 
ATOM     65  O   UNL A   1      34.803  31.658  28.724  1.00  0.00    -0.237 OA
ATOM     66  O   UNL A   1      34.402  32.731  30.903  1.00  0.00    -0.237 OA
ATOM     67  O   UNL A   1      36.049  33.692  29.353  1.00  0.00    -0.744 OA
ENDBRANCH  61  64
ENDBRANCH  43  57
BRANCH  44  68
ATOM     68  C   UNL A   1      46.822  27.208  25.622  1.00  0.00     0.023 A 
ATOM     69  C   UNL A   1      47.741  26.321  26.214  1.00  0.00     0.012 A 
ATOM     70  C   UNL A   1      47.056  27.665  24.311  1.00  0.00     0.148 A 
ATOM     71  C   UNL A   1      48.886  25.918  25.525  1.00  0.00     0.002 A 
ATOM     72  C   UNL A   1      48.169  27.217  23.609  1.00  0.00     0.091 A 
ATOM     73  F   UNL A   1      46.182  28.526  23.771  1.00  0.00    -0.205 F 
ATOM     74  C   UNL A   1      49.094  26.356  24.220  1.00  0.00     0.022 A 
BRANCH  72  75
ATOM     75  S   UNL A   1      48.443  27.631  21.882  1.00  0.00     0.127 S 
ATOM     76  O   UNL A   1      48.732  26.322  21.302  1.00  0.00    -0.237 OA
ATOM     77  O   UNL A   1      47.153  28.204  21.496  1.00  0.00    -0.237 OA
ATOM     78  O   UNL A   1      49.544  28.585  21.882  1.00  0.00    -0.744 OA
ENDBRANCH  72  75
ENDBRANCH  44  68
BRANCH  56  79
ATOM     79  C   UNL A   1      45.218  32.905  29.328  1.00  0.00     0.023 A 
ATOM     80  C   UNL A   1      46.046  32.947  30.467  1.00  0.00     0.012 A 
ATOM     81  C   UNL A   1      45.173  34.018  28.465  1.00  0.00     0.148 A 
ATOM     82  C   UNL A   1      46.795  34.087  30.758  1.00  0.00     0.002 A 
ATOM     83  C   UNL A   1      45.958  35.134  28.737  1.00  0.00     0.091 A 
ATOM     84  F   UNL A   1      44.365  33.968  27.397  1.00  0.00    -0.205 F 
ATOM     85  C   UNL A   1      46.760  35.174  29.888  1.00  0.00     0.022 A 
BRANCH  83  86
ATOM     86  S   UNL A   1      46.046  36.540  27.622  1.00  0.00     0.127 S 
ATOM     87  O   UNL A   1      44.781  37.218  27.896  1.00  0.00    -0.237 OA
ATOM     88  O   UNL A   1      47.234  37.247  28.103  1.00  0.00    -0.237 OA
ATOM     89  O   UNL A   1      46.181  35.981  26.283  1.00  0.00    -0.744 OA
ENDBRANCH  83  86
ENDBRANCH  56  79
ENDBRANCH  30  31
ENDBRANCH  23  25
ENDBRANCH  22  23
ENDBRANCH   1  22
TORSDOF 16
ENDMDL
