MODEL 1
REMARK VINA RESULT:     -13.4      0.000      0.000
REMARK SMILES Cc1ccccc1OC1(C(=O)OCCOC(=O)c2ccc(-c3c4nc(c(-c5cccc(S(=O)(=O)[O-])c5F)c5ccc([nH]5)c(-c5cccc(S(=O)(=O)[O-])c5F)c5nc(c(-c6cccc(S(=O)(=O)[O-])c6F)c6ccc3[nH]6)C=C5)C=C4)cc2)CCN(C(=O)[C@H]2CCCCO2)CC1
REMARK SMILES IDX 14 1 13 2 12 3 10 4 11 5 9 6 81 7 93 8 82 9 92 10 83 11
REMARK SMILES IDX 84 12 85 13 8 14 7 15 1 16 2 17 3 18 4 19 6 20 5 21 86 22
REMARK SMILES IDX 87 23 91 24 88 25 90 26 89 27 15 28 16 29 17 30 18 31 19 32
REMARK SMILES IDX 80 33 20 34 79 35 21 36 22 37 23 38 73 39 24 40 78 41 72 42
REMARK SMILES IDX 74 43 25 44 77 45 71 46 70 47 26 49 58 50 38 51 57 52 39 53
REMARK SMILES IDX 42 54 56 55 75 56 40 57 41 58 55 60 76 61 43 62 27 63 28 64
REMARK SMILES IDX 36 65 29 66 31 67 37 68 30 69 32 70 33 71 34 72 35 73 59 74
REMARK SMILES IDX 60 75 68 76 61 77 63 78 69 79 62 80 64 81 65 82 66 83 67 84
REMARK SMILES IDX 44 85 45 86 53 87 46 88 48 89 54 90 47 91 49 92 50 93 51 94
REMARK SMILES IDX 52 95
REMARK H PARENT 74 48 42 59
REMARK Flexibility Score: inf
ROOT
ATOM      1  C   UNL A   1      33.579  30.427  27.170  1.00  0.00     0.275 C 
ENDROOT
BRANCH   1   2
ATOM      2  C   UNL A   1      32.497  29.572  26.474  1.00  0.00     0.274 C 
BRANCH   2   3
ATOM      3  O   UNL A   1      32.665  28.188  26.132  1.00  0.00    -0.459 OA
BRANCH   3   4
ATOM      4  C   UNL A   1      31.853  27.196  26.587  1.00  0.00     0.350 C 
ATOM      5  O   UNL A   1      31.012  27.368  27.459  1.00  0.00    -0.247 OA
BRANCH   4   6
ATOM      6  C   UNL A   1      31.920  25.934  25.659  1.00  0.00     0.209 C 
ATOM      7  C   UNL A   1      33.408  25.596  25.904  1.00  0.00     0.082 C 
ATOM      8  C   UNL A   1      31.084  24.746  26.175  1.00  0.00     0.082 C 
ATOM      9  C   UNL A   1      33.857  24.276  25.348  1.00  0.00     0.124 C 
ATOM     10  C   UNL A   1      31.538  23.341  25.779  1.00  0.00     0.124 C 
ATOM     11  N   UNL A   1      32.971  23.138  25.541  1.00  0.00    -0.340 N 
ATOM     12  C   UNL A   1      33.521  21.925  25.088  1.00  0.00     0.251 C 
ATOM     13  O   UNL A   1      34.710  21.886  24.736  1.00  0.00    -0.272 OA
BRANCH   6  14
ATOM     14  O   UNL A   1      31.878  26.289  24.260  1.00  0.00    -0.475 OA
BRANCH  14  15
ATOM     15  C   UNL A   1      30.874  26.919  23.573  1.00  0.00     0.123 A 
ATOM     16  C   UNL A   1      32.508  28.713  22.788  1.00  0.00     0.048 C 
ATOM     17  C   UNL A   1      31.135  28.163  22.960  1.00  0.00    -0.009 A 
ATOM     18  C   UNL A   1      30.089  29.034  22.595  1.00  0.00     0.007 A 
ATOM     19  C   UNL A   1      28.774  28.714  22.870  1.00  0.00     0.001 A 
ATOM     20  C   UNL A   1      29.538  26.611  23.842  1.00  0.00     0.047 A 
ATOM     21  C   UNL A   1      28.502  27.506  23.497  1.00  0.00     0.004 A 
ENDBRANCH  14  15
ENDBRANCH   6  14
BRANCH  12  22
ATOM     22  C   UNL A   1      32.625  20.671  24.935  1.00  0.00     0.207 C 
ATOM     23  C   UNL A   1      32.560  20.282  23.447  1.00  0.00     0.042 C 
ATOM     24  O   UNL A   1      33.271  19.639  25.703  1.00  0.00    -0.368 OA
ATOM     25  C   UNL A   1      32.091  18.852  23.207  1.00  0.00     0.006 C 
ATOM     26  C   UNL A   1      32.696  18.350  25.553  1.00  0.00     0.161 C 
ATOM     27  C   UNL A   1      32.836  17.888  24.114  1.00  0.00     0.029 C 
ENDBRANCH  12  22
ENDBRANCH   4   6
ENDBRANCH   3   4
ENDBRANCH   2   3
ENDBRANCH   1   2
BRANCH   1  28
ATOM     28  O   UNL A   1      34.883  29.962  27.616  1.00  0.00    -0.458 OA
BRANCH  28  29
ATOM     29  C   UNL A   1      35.893  30.544  28.313  1.00  0.00     0.338 C 
ATOM     30  O   UNL A   1      35.793  31.622  28.852  1.00  0.00    -0.246 OA
BRANCH  29  31
ATOM     31  C   UNL A   1      37.144  29.789  28.355  1.00  0.00     0.060 A 
ATOM     32  C   UNL A   1      37.992  29.754  27.237  1.00  0.00     0.016 A 
ATOM     33  C   UNL A   1      37.489  29.206  29.563  1.00  0.00     0.016 A 
ATOM     34  C   UNL A   1      39.264  29.202  27.362  1.00  0.00     0.010 A 
ATOM     35  C   UNL A   1      38.783  28.790  29.728  1.00  0.00     0.010 A 
ATOM     36  C   UNL A   1      39.655  28.738  28.619  1.00  0.00    -0.014 A 
BRANCH  36  37
ATOM     37  C   UNL A   1      40.729  27.780  28.830  1.00  0.00     0.031 A 
ATOM     38  C   UNL A   1      40.660  26.349  28.529  1.00  0.00     0.074 A 
ATOM     39  C   UNL A   1      41.897  28.430  29.014  1.00  0.00     0.049 A 
ATOM     40  N   UNL A   1      41.494  25.495  29.011  1.00  0.00    -0.248 NA
ATOM     41  C   UNL A   1      39.646  25.750  27.673  1.00  0.00     0.031 C 
ATOM     42  C   UNL A   1      43.255  28.022  28.730  1.00  0.00     0.029 A 
ATOM     43  N   UNL A   1      42.028  29.713  29.559  1.00  0.00    -0.354 N 
ATOM     44  C   UNL A   1      41.314  24.306  28.330  1.00  0.00     0.074 A 
ATOM     45  C   UNL A   1      40.075  24.482  27.606  1.00  0.00     0.031 C 
ATOM     46  C   UNL A   1      44.087  28.914  29.304  1.00  0.00     0.029 A 
ATOM     47  C   UNL A   1      43.281  29.794  30.147  1.00  0.00     0.049 A 
ATOM     48  H   UNL A   1      41.351  30.427  29.531  1.00  0.00     0.167 HD
ATOM     49  C   UNL A   1      42.332  23.395  28.314  1.00  0.00     0.034 A 
ATOM     50  C   UNL A   1      43.408  30.004  31.491  1.00  0.00     0.034 A 
ATOM     51  C   UNL A   1      43.508  23.948  29.012  1.00  0.00     0.049 A 
ATOM     52  C   UNL A   1      44.057  28.802  32.150  1.00  0.00     0.074 A 
ATOM     53  C   UNL A   1      44.611  24.631  28.526  1.00  0.00     0.029 A 
ATOM     54  N   UNL A   1      43.510  24.124  30.391  1.00  0.00    -0.354 N 
ATOM     55  N   UNL A   1      44.251  27.660  31.552  1.00  0.00    -0.248 NA
ATOM     56  C   UNL A   1      44.473  28.776  33.547  1.00  0.00     0.031 C 
ATOM     57  C   UNL A   1      45.214  25.315  29.612  1.00  0.00     0.029 A 
ATOM     58  C   UNL A   1      44.511  25.014  30.767  1.00  0.00     0.049 A 
ATOM     59  H   UNL A   1      42.889  23.682  31.014  1.00  0.00     0.167 HD
ATOM     60  C   UNL A   1      44.642  26.725  32.464  1.00  0.00     0.074 A 
ATOM     61  C   UNL A   1      44.851  27.494  33.681  1.00  0.00     0.031 C 
ATOM     62  C   UNL A   1      44.681  25.392  32.167  1.00  0.00     0.034 A 
BRANCH  49  63
ATOM     63  C   UNL A   1      42.456  22.176  27.402  1.00  0.00     0.023 A 
ATOM     64  C   UNL A   1      41.522  21.129  27.603  1.00  0.00     0.012 A 
ATOM     65  C   UNL A   1      43.422  21.944  26.396  1.00  0.00     0.148 A 
ATOM     66  C   UNL A   1      41.603  19.896  26.944  1.00  0.00     0.002 A 
ATOM     67  C   UNL A   1      43.536  20.694  25.768  1.00  0.00     0.091 A 
ATOM     68  F   UNL A   1      44.199  22.948  25.981  1.00  0.00    -0.205 F 
ATOM     69  C   UNL A   1      42.632  19.665  26.048  1.00  0.00     0.022 A 
BRANCH  67  70
ATOM     70  S   UNL A   1      44.862  20.294  24.611  1.00  0.00     0.127 S 
ATOM     71  O   UNL A   1      46.057  20.583  25.406  1.00  0.00    -0.237 OA
ATOM     72  O   UNL A   1      44.634  18.874  24.349  1.00  0.00    -0.237 OA
ATOM     73  O   UNL A   1      44.678  21.174  23.463  1.00  0.00    -0.744 OA
ENDBRANCH  67  70
ENDBRANCH  49  63
BRANCH  50  74
ATOM     74  C   UNL A   1      42.268  30.782  32.104  1.00  0.00     0.023 A 
ATOM     75  C   UNL A   1      42.053  32.115  31.664  1.00  0.00     0.012 A 
ATOM     76  C   UNL A   1      41.219  30.134  32.777  1.00  0.00     0.148 A 
ATOM     77  C   UNL A   1      40.797  32.725  31.771  1.00  0.00     0.002 A 
ATOM     78  C   UNL A   1      39.970  30.746  32.871  1.00  0.00     0.091 A 
ATOM     79  F   UNL A   1      41.405  28.894  33.249  1.00  0.00    -0.205 F 
ATOM     80  C   UNL A   1      39.747  32.028  32.353  1.00  0.00     0.022 A 
BRANCH  78  81
ATOM     81  S   UNL A   1      38.574  29.799  33.479  1.00  0.00     0.127 S 
ATOM     82  O   UNL A   1      37.448  30.436  32.798  1.00  0.00    -0.237 OA
ATOM     83  O   UNL A   1      38.859  28.447  33.019  1.00  0.00    -0.237 OA
ATOM     84  O   UNL A   1      38.634  30.041  34.916  1.00  0.00    -0.744 OA
ENDBRANCH  78  81
ENDBRANCH  50  74
BRANCH  62  85
ATOM     85  C   UNL A   1      44.893  24.315  33.199  1.00  0.00     0.023 A 
ATOM     86  C   UNL A   1      43.928  23.321  33.447  1.00  0.00     0.012 A 
ATOM     87  C   UNL A   1      46.139  24.186  33.855  1.00  0.00     0.148 A 
ATOM     88  C   UNL A   1      44.149  22.301  34.374  1.00  0.00     0.002 A 
ATOM     89  C   UNL A   1      46.397  23.100  34.682  1.00  0.00     0.091 A 
ATOM     90  F   UNL A   1      47.084  25.125  33.690  1.00  0.00    -0.205 F 
ATOM     91  C   UNL A   1      45.392  22.178  34.979  1.00  0.00     0.022 A 
BRANCH  89  92
ATOM     92  S   UNL A   1      48.072  22.774  35.244  1.00  0.00     0.127 S 
ATOM     93  O   UNL A   1      48.377  23.974  36.018  1.00  0.00    -0.237 OA
ATOM     94  O   UNL A   1      47.912  21.557  36.044  1.00  0.00    -0.237 OA
ATOM     95  O   UNL A   1      48.836  22.581  34.018  1.00  0.00    -0.744 OA
ENDBRANCH  89  92
ENDBRANCH  62  85
ENDBRANCH  36  37
ENDBRANCH  29  31
ENDBRANCH  28  29
ENDBRANCH   1  28
TORSDOF 17
ENDMDL
MODEL 2
REMARK VINA RESULT:     -13.4      2.086      2.793
REMARK SMILES Cc1ccccc1OC1(C(=O)OCCOC(=O)c2ccc(-c3c4nc(c(-c5cccc(S(=O)(=O)[O-])c5F)c5ccc([nH]5)c(-c5cccc(S(=O)(=O)[O-])c5F)c5nc(c(-c6cccc(S(=O)(=O)[O-])c6F)c6ccc3[nH]6)C=C5)C=C4)cc2)CCN(C(=O)[C@H]2CCCCO2)CC1
REMARK SMILES IDX 14 1 13 2 12 3 10 4 11 5 9 6 81 7 93 8 82 9 92 10 83 11
REMARK SMILES IDX 84 12 85 13 8 14 7 15 1 16 2 17 3 18 4 19 6 20 5 21 86 22
REMARK SMILES IDX 87 23 91 24 88 25 90 26 89 27 15 28 16 29 17 30 18 31 19 32
REMARK SMILES IDX 80 33 20 34 79 35 21 36 22 37 23 38 73 39 24 40 78 41 72 42
REMARK SMILES IDX 74 43 25 44 77 45 71 46 70 47 26 49 58 50 38 51 57 52 39 53
REMARK SMILES IDX 42 54 56 55 75 56 40 57 41 58 55 60 76 61 43 62 27 63 28 64
REMARK SMILES IDX 36 65 29 66 31 67 37 68 30 69 32 70 33 71 34 72 35 73 59 74
REMARK SMILES IDX 60 75 68 76 61 77 63 78 69 79 62 80 64 81 65 82 66 83 67 84
REMARK SMILES IDX 44 85 45 86 53 87 46 88 48 89 54 90 47 91 49 92 50 93 51 94
REMARK SMILES IDX 52 95
REMARK H PARENT 74 48 42 59
REMARK Flexibility Score: inf
ROOT
ATOM      1  C   UNL A   1      33.040  30.854  27.241  1.00  0.00     0.275 C 
ENDROOT
BRANCH   1   2
ATOM      2  C   UNL A   1      32.363  30.294  25.970  1.00  0.00     0.274 C 
BRANCH   2   3
ATOM      3  O   UNL A   1      32.621  28.989  25.431  1.00  0.00    -0.459 OA
BRANCH   3   4
ATOM      4  C   UNL A   1      32.785  28.741  24.104  1.00  0.00     0.350 C 
ATOM      5  O   UNL A   1      33.485  29.433  23.376  1.00  0.00    -0.247 OA
BRANCH   4   6
ATOM      6  C   UNL A   1      32.233  27.326  23.716  1.00  0.00     0.209 C 
ATOM      7  C   UNL A   1      33.362  26.946  22.729  1.00  0.00     0.082 C 
ATOM      8  C   UNL A   1      32.272  26.311  24.875  1.00  0.00     0.082 C 
ATOM      9  C   UNL A   1      33.341  25.520  22.263  1.00  0.00     0.124 C 
ATOM     10  C   UNL A   1      32.391  24.830  24.512  1.00  0.00     0.124 C 
ATOM     11  N   UNL A   1      33.088  24.496  23.266  1.00  0.00    -0.340 N 
ATOM     12  C   UNL A   1      33.198  23.187  22.762  1.00  0.00     0.251 C 
ATOM     13  O   UNL A   1      33.640  23.008  21.617  1.00  0.00    -0.272 OA
BRANCH   6  14
ATOM     14  O   UNL A   1      31.062  27.413  22.876  1.00  0.00    -0.475 OA
BRANCH  14  15
ATOM     15  C   UNL A   1      30.069  28.356  22.899  1.00  0.00     0.123 A 
ATOM     16  C   UNL A   1      28.457  26.664  23.920  1.00  0.00     0.048 C 
ATOM     17  C   UNL A   1      28.766  27.975  23.283  1.00  0.00    -0.009 A 
ATOM     18  C   UNL A   1      27.645  28.763  22.955  1.00  0.00     0.007 A 
ATOM     19  C   UNL A   1      27.784  29.913  22.205  1.00  0.00     0.001 A 
ATOM     20  C   UNL A   1      30.192  29.524  22.141  1.00  0.00     0.047 A 
ATOM     21  C   UNL A   1      29.057  30.289  21.796  1.00  0.00     0.004 A 
ENDBRANCH  14  15
ENDBRANCH   6  14
BRANCH  12  22
ATOM     22  C   UNL A   1      32.679  21.986  23.590  1.00  0.00     0.207 C 
ATOM     23  C   UNL A   1      32.246  20.866  22.628  1.00  0.00     0.042 C 
ATOM     24  O   UNL A   1      33.794  21.563  24.396  1.00  0.00    -0.368 OA
ATOM     25  C   UNL A   1      32.134  19.498  23.291  1.00  0.00     0.006 C 
ATOM     26  C   UNL A   1      33.576  20.355  25.109  1.00  0.00     0.161 C 
ATOM     27  C   UNL A   1      33.364  19.212  24.133  1.00  0.00     0.029 C 
ENDBRANCH  12  22
ENDBRANCH   4   6
ENDBRANCH   3   4
ENDBRANCH   2   3
ENDBRANCH   1   2
BRANCH   1  28
ATOM     28  O   UNL A   1      34.444  30.718  27.594  1.00  0.00    -0.458 OA
BRANCH  28  29
ATOM     29  C   UNL A   1      35.165  31.048  28.696  1.00  0.00     0.338 C 
ATOM     30  O   UNL A   1      34.838  31.922  29.466  1.00  0.00    -0.246 OA
BRANCH  29  31
ATOM     31  C   UNL A   1      36.398  30.289  28.892  1.00  0.00     0.060 A 
ATOM     32  C   UNL A   1      36.653  29.649  30.116  1.00  0.00     0.016 A 
ATOM     33  C   UNL A   1      37.236  30.152  27.798  1.00  0.00     0.016 A 
ATOM     34  C   UNL A   1      37.729  28.771  30.216  1.00  0.00     0.010 A 
ATOM     35  C   UNL A   1      38.206  29.186  27.850  1.00  0.00     0.010 A 
ATOM     36  C   UNL A   1      38.488  28.534  29.070  1.00  0.00    -0.014 A 
BRANCH  36  37
ATOM     37  C   UNL A   1      39.846  28.010  29.093  1.00  0.00     0.031 A 
ATOM     38  C   UNL A   1      40.241  26.661  28.683  1.00  0.00     0.074 A 
ATOM     39  C   UNL A   1      40.729  29.024  29.210  1.00  0.00     0.049 A 
ATOM     40  N   UNL A   1      41.372  26.139  29.007  1.00  0.00    -0.248 NA
ATOM     41  C   UNL A   1      39.400  25.778  27.889  1.00  0.00     0.031 C 
ATOM     42  C   UNL A   1      42.098  29.135  28.757  1.00  0.00     0.029 A 
ATOM     43  N   UNL A   1      40.472  30.247  29.842  1.00  0.00    -0.354 N 
ATOM     44  C   UNL A   1      41.533  24.993  28.253  1.00  0.00     0.074 A 
ATOM     45  C   UNL A   1      40.231  24.748  27.674  1.00  0.00     0.031 C 
ATOM     46  C   UNL A   1      42.632  30.240  29.315  1.00  0.00     0.029 A 
ATOM     47  C   UNL A   1      41.682  30.743  30.304  1.00  0.00     0.049 A 
ATOM     48  H   UNL A   1      39.592  30.676  29.941  1.00  0.00     0.167 HD
ATOM     49  C   UNL A   1      42.793  24.502  28.060  1.00  0.00     0.034 A 
ATOM     50  C   UNL A   1      41.893  30.928  31.641  1.00  0.00     0.034 A 
ATOM     51  C   UNL A   1      43.781  25.407  28.678  1.00  0.00     0.049 A 
ATOM     52  C   UNL A   1      42.995  30.008  32.130  1.00  0.00     0.074 A 
ATOM     53  C   UNL A   1      44.509  26.456  28.141  1.00  0.00     0.029 A 
ATOM     54  N   UNL A   1      43.892  25.516  30.059  1.00  0.00    -0.354 N 
ATOM     55  N   UNL A   1      43.498  29.034  31.425  1.00  0.00    -0.248 NA
ATOM     56  C   UNL A   1      43.564  30.074  33.471  1.00  0.00     0.031 C 
ATOM     57  C   UNL A   1      44.967  27.264  29.212  1.00  0.00     0.029 A 
ATOM     58  C   UNL A   1      44.560  26.686  30.403  1.00  0.00     0.049 A 
ATOM     59  H   UNL A   1      43.546  24.858  30.703  1.00  0.00     0.167 HD
ATOM     60  C   UNL A   1      44.299  28.262  32.213  1.00  0.00     0.074 A 
ATOM     61  C   UNL A   1      44.376  29.004  33.462  1.00  0.00     0.031 C 
ATOM     62  C   UNL A   1      44.761  27.042  31.806  1.00  0.00     0.034 A 
BRANCH  49  63
ATOM     63  C   UNL A   1      43.219  23.445  27.043  1.00  0.00     0.023 A 
ATOM     64  C   UNL A   1      44.041  23.880  25.974  1.00  0.00     0.012 A 
ATOM     65  C   UNL A   1      42.862  22.077  27.017  1.00  0.00     0.148 A 
ATOM     66  C   UNL A   1      44.389  23.058  24.895  1.00  0.00     0.002 A 
ATOM     67  C   UNL A   1      43.167  21.264  25.915  1.00  0.00     0.091 A 
ATOM     68  F   UNL A   1      42.282  21.524  28.086  1.00  0.00    -0.205 F 
ATOM     69  C   UNL A   1      43.923  21.756  24.848  1.00  0.00     0.022 A 
BRANCH  67  70
ATOM     70  S   UNL A   1      42.577  19.566  25.755  1.00  0.00     0.127 S 
ATOM     71  O   UNL A   1      42.904  19.006  27.067  1.00  0.00    -0.237 OA
ATOM     72  O   UNL A   1      41.148  19.750  25.511  1.00  0.00    -0.237 OA
ATOM     73  O   UNL A   1      43.325  18.980  24.649  1.00  0.00    -0.744 OA
ENDBRANCH  67  70
ENDBRANCH  49  63
BRANCH  50  74
ATOM     74  C   UNL A   1      40.640  31.226  32.429  1.00  0.00     0.023 A 
ATOM     75  C   UNL A   1      40.100  30.197  33.246  1.00  0.00     0.012 A 
ATOM     76  C   UNL A   1      40.228  32.546  32.677  1.00  0.00     0.148 A 
ATOM     77  C   UNL A   1      39.291  30.490  34.349  1.00  0.00     0.002 A 
ATOM     78  C   UNL A   1      39.429  32.829  33.783  1.00  0.00     0.091 A 
ATOM     79  F   UNL A   1      40.679  33.535  31.894  1.00  0.00    -0.205 F 
ATOM     80  C   UNL A   1      38.976  31.812  34.634  1.00  0.00     0.022 A 
BRANCH  78  81
ATOM     81  S   UNL A   1      39.146  34.538  34.246  1.00  0.00     0.127 S 
ATOM     82  O   UNL A   1      38.497  34.403  35.548  1.00  0.00    -0.237 OA
ATOM     83  O   UNL A   1      40.490  35.097  34.306  1.00  0.00    -0.237 OA
ATOM     84  O   UNL A   1      38.275  35.012  33.176  1.00  0.00    -0.744 OA
ENDBRANCH  78  81
ENDBRANCH  50  74
BRANCH  62  85
ATOM     85  C   UNL A   1      45.459  26.069  32.719  1.00  0.00     0.023 A 
ATOM     86  C   UNL A   1      46.863  25.989  32.789  1.00  0.00     0.012 A 
ATOM     87  C   UNL A   1      44.719  25.299  33.646  1.00  0.00     0.148 A 
ATOM     88  C   UNL A   1      47.503  25.115  33.670  1.00  0.00     0.002 A 
ATOM     89  C   UNL A   1      45.365  24.525  34.602  1.00  0.00     0.091 A 
ATOM     90  F   UNL A   1      43.378  25.303  33.601  1.00  0.00    -0.205 F 
ATOM     91  C   UNL A   1      46.755  24.396  34.591  1.00  0.00     0.022 A 
BRANCH  89  92
ATOM     92  S   UNL A   1      44.435  23.817  35.966  1.00  0.00     0.127 S 
ATOM     93  O   UNL A   1      43.497  22.936  35.276  1.00  0.00    -0.237 OA
ATOM     94  O   UNL A   1      45.470  23.122  36.735  1.00  0.00    -0.237 OA
ATOM     95  O   UNL A   1      43.860  24.969  36.651  1.00  0.00    -0.744 OA
ENDBRANCH  89  92
ENDBRANCH  62  85
ENDBRANCH  36  37
ENDBRANCH  29  31
ENDBRANCH  28  29
ENDBRANCH   1  28
TORSDOF 17
ENDMDL
MODEL 3
REMARK VINA RESULT:     -13.3      4.106     10.060
REMARK SMILES Cc1ccccc1OC1(C(=O)OCCOC(=O)c2ccc(-c3c4nc(c(-c5cccc(S(=O)(=O)[O-])c5F)c5ccc([nH]5)c(-c5cccc(S(=O)(=O)[O-])c5F)c5nc(c(-c6cccc(S(=O)(=O)[O-])c6F)c6ccc3[nH]6)C=C5)C=C4)cc2)CCN(C(=O)[C@H]2CCCCO2)CC1
REMARK SMILES IDX 14 1 13 2 12 3 10 4 11 5 9 6 81 7 93 8 82 9 92 10 83 11
REMARK SMILES IDX 84 12 85 13 8 14 7 15 1 16 2 17 3 18 4 19 6 20 5 21 86 22
REMARK SMILES IDX 87 23 91 24 88 25 90 26 89 27 15 28 16 29 17 30 18 31 19 32
REMARK SMILES IDX 80 33 20 34 79 35 21 36 22 37 23 38 73 39 24 40 78 41 72 42
REMARK SMILES IDX 74 43 25 44 77 45 71 46 70 47 26 49 58 50 38 51 57 52 39 53
REMARK SMILES IDX 42 54 56 55 75 56 40 57 41 58 55 60 76 61 43 62 27 63 28 64
REMARK SMILES IDX 36 65 29 66 31 67 37 68 30 69 32 70 33 71 34 72 35 73 59 74
REMARK SMILES IDX 60 75 68 76 61 77 63 78 69 79 62 80 64 81 65 82 66 83 67 84
REMARK SMILES IDX 44 85 45 86 53 87 46 88 48 89 54 90 47 91 49 92 50 93 51 94
REMARK SMILES IDX 52 95
REMARK H PARENT 74 48 42 59
REMARK Flexibility Score: inf
ROOT
ATOM      1  C   UNL A   1      37.663  22.930  25.903  1.00  0.00     0.275 C 
ENDROOT
BRANCH   1   2
ATOM      2  C   UNL A   1      37.011  23.287  24.549  1.00  0.00     0.274 C 
BRANCH   2   3
ATOM      3  O   UNL A   1      35.734  23.930  24.419  1.00  0.00    -0.459 OA
BRANCH   3   4
ATOM      4  C   UNL A   1      34.940  23.811  23.320  1.00  0.00     0.350 C 
ATOM      5  O   UNL A   1      35.202  23.068  22.384  1.00  0.00    -0.247 OA
BRANCH   4   6
ATOM      6  C   UNL A   1      33.544  24.486  23.550  1.00  0.00     0.209 C 
ATOM      7  C   UNL A   1      34.062  25.762  24.254  1.00  0.00     0.082 C 
ATOM      8  C   UNL A   1      32.852  24.928  22.245  1.00  0.00     0.082 C 
ATOM      9  C   UNL A   1      33.030  26.829  24.468  1.00  0.00     0.124 C 
ATOM     10  C   UNL A   1      31.879  26.105  22.327  1.00  0.00     0.124 C 
ATOM     11  N   UNL A   1      32.127  27.112  23.363  1.00  0.00    -0.340 N 
ATOM     12  C   UNL A   1      31.270  28.200  23.612  1.00  0.00     0.251 C 
ATOM     13  O   UNL A   1      31.449  28.902  24.620  1.00  0.00    -0.272 OA
BRANCH   6  14
ATOM     14  O   UNL A   1      32.782  23.816  24.577  1.00  0.00    -0.475 OA
BRANCH  14  15
ATOM     15  C   UNL A   1      32.604  22.471  24.763  1.00  0.00     0.123 A 
ATOM     16  C   UNL A   1      33.855  22.590  26.982  1.00  0.00     0.048 C 
ATOM     17  C   UNL A   1      33.228  21.839  25.860  1.00  0.00    -0.009 A 
ATOM     18  C   UNL A   1      33.420  20.443  25.889  1.00  0.00     0.007 A 
ATOM     19  C   UNL A   1      33.044  19.655  24.819  1.00  0.00     0.001 A 
ATOM     20  C   UNL A   1      32.228  21.658  23.690  1.00  0.00     0.047 A 
ATOM     21  C   UNL A   1      32.453  20.265  23.721  1.00  0.00     0.004 A 
ENDBRANCH  14  15
ENDBRANCH   6  14
BRANCH  12  22
ATOM     22  C   UNL A   1      30.052  28.461  22.691  1.00  0.00     0.207 C 
ATOM     23  C   UNL A   1      28.763  28.125  23.461  1.00  0.00     0.042 C 
ATOM     24  O   UNL A   1      30.104  29.864  22.372  1.00  0.00    -0.368 OA
ATOM     25  C   UNL A   1      27.507  28.736  22.851  1.00  0.00     0.006 C 
ATOM     26  C   UNL A   1      28.968  30.347  21.671  1.00  0.00     0.161 C 
ATOM     27  C   UNL A   1      27.730  30.205  22.537  1.00  0.00     0.029 C 
ENDBRANCH  12  22
ENDBRANCH   4   6
ENDBRANCH   3   4
ENDBRANCH   2   3
ENDBRANCH   1   2
BRANCH   1  28
ATOM     28  O   UNL A   1      39.085  22.740  26.145  1.00  0.00    -0.458 OA
BRANCH  28  29
ATOM     29  C   UNL A   1      39.909  23.074  27.171  1.00  0.00     0.338 C 
ATOM     30  O   UNL A   1      40.606  22.273  27.752  1.00  0.00    -0.246 OA
BRANCH  29  31
ATOM     31  C   UNL A   1      39.890  24.483  27.560  1.00  0.00     0.060 A 
ATOM     32  C   UNL A   1      40.463  25.459  26.728  1.00  0.00     0.016 A 
ATOM     33  C   UNL A   1      39.203  24.809  28.718  1.00  0.00     0.016 A 
ATOM     34  C   UNL A   1      40.259  26.806  27.015  1.00  0.00     0.010 A 
ATOM     35  C   UNL A   1      38.884  26.125  28.924  1.00  0.00     0.010 A 
ATOM     36  C   UNL A   1      39.452  27.126  28.108  1.00  0.00    -0.014 A 
BRANCH  36  37
ATOM     37  C   UNL A   1      39.482  28.413  28.786  1.00  0.00     0.031 A 
ATOM     38  C   UNL A   1      38.538  29.510  28.565  1.00  0.00     0.074 A 
ATOM     39  C   UNL A   1      40.271  28.340  29.879  1.00  0.00     0.049 A 
ATOM     40  N   UNL A   1      38.776  30.719  28.940  1.00  0.00    -0.248 NA
ATOM     41  C   UNL A   1      37.255  29.351  27.896  1.00  0.00     0.031 C 
ATOM     42  C   UNL A   1      40.225  29.076  31.122  1.00  0.00     0.029 A 
ATOM     43  N   UNL A   1      41.367  27.480  30.025  1.00  0.00    -0.354 N 
ATOM     44  C   UNL A   1      37.597  31.430  28.825  1.00  0.00     0.074 A 
ATOM     45  C   UNL A   1      36.724  30.572  28.055  1.00  0.00     0.031 C 
ATOM     46  C   UNL A   1      41.359  28.815  31.803  1.00  0.00     0.029 A 
ATOM     47  C   UNL A   1      42.250  28.073  30.914  1.00  0.00     0.049 A 
ATOM     48  H   UNL A   1      41.488  26.612  29.576  1.00  0.00     0.167 HD
ATOM     49  C   UNL A   1      37.443  32.574  29.555  1.00  0.00     0.034 A 
ATOM     50  C   UNL A   1      43.509  28.425  30.515  1.00  0.00     0.034 A 
ATOM     51  C   UNL A   1      38.619  32.773  30.424  1.00  0.00     0.049 A 
ATOM     52  C   UNL A   1      43.678  29.930  30.583  1.00  0.00     0.074 A 
ATOM     53  C   UNL A   1      38.845  32.406  31.740  1.00  0.00     0.029 A 
ATOM     54  N   UNL A   1      39.855  33.121  29.893  1.00  0.00    -0.354 N 
ATOM     55  N   UNL A   1      42.697  30.766  30.775  1.00  0.00    -0.248 NA
ATOM     56  C   UNL A   1      44.953  30.607  30.373  1.00  0.00     0.031 C 
ATOM     57  C   UNL A   1      40.245  32.427  31.966  1.00  0.00     0.029 A 
ATOM     58  C   UNL A   1      40.871  32.851  30.805  1.00  0.00     0.049 A 
ATOM     59  H   UNL A   1      39.994  33.504  28.997  1.00  0.00     0.167 HD
ATOM     60  C   UNL A   1      43.131  32.041  30.563  1.00  0.00     0.074 A 
ATOM     61  C   UNL A   1      44.569  31.895  30.399  1.00  0.00     0.031 C 
ATOM     62  C   UNL A   1      42.268  33.094  30.455  1.00  0.00     0.034 A 
BRANCH  49  63
ATOM     63  C   UNL A   1      36.143  33.338  29.800  1.00  0.00     0.023 A 
ATOM     64  C   UNL A   1      35.602  34.049  28.699  1.00  0.00     0.012 A 
ATOM     65  C   UNL A   1      35.423  33.453  31.011  1.00  0.00     0.148 A 
ATOM     66  C   UNL A   1      34.501  34.906  28.811  1.00  0.00     0.002 A 
ATOM     67  C   UNL A   1      34.349  34.347  31.139  1.00  0.00     0.091 A 
ATOM     68  F   UNL A   1      35.721  32.652  32.037  1.00  0.00    -0.205 F 
ATOM     69  C   UNL A   1      33.892  35.082  30.041  1.00  0.00     0.022 A 
BRANCH  67  70
ATOM     70  S   UNL A   1      33.516  34.662  32.709  1.00  0.00     0.127 S 
ATOM     71  O   UNL A   1      34.528  35.422  33.443  1.00  0.00    -0.237 OA
ATOM     72  O   UNL A   1      32.350  35.442  32.296  1.00  0.00    -0.237 OA
ATOM     73  O   UNL A   1      33.216  33.354  33.279  1.00  0.00    -0.744 OA
ENDBRANCH  67  70
ENDBRANCH  49  63
BRANCH  50  74
ATOM     74  C   UNL A   1      44.065  27.568  29.403  1.00  0.00     0.023 A 
ATOM     75  C   UNL A   1      44.292  26.191  29.667  1.00  0.00     0.012 A 
ATOM     76  C   UNL A   1      44.001  27.979  28.061  1.00  0.00     0.148 A 
ATOM     77  C   UNL A   1      44.316  25.245  28.635  1.00  0.00     0.002 A 
ATOM     78  C   UNL A   1      44.017  27.029  27.041  1.00  0.00     0.091 A 
ATOM     79  F   UNL A   1      43.838  29.278  27.777  1.00  0.00    -0.205 F 
ATOM     80  C   UNL A   1      44.152  25.663  27.321  1.00  0.00     0.022 A 
BRANCH  78  81
ATOM     81  S   UNL A   1      43.653  27.540  25.362  1.00  0.00     0.127 S 
ATOM     82  O   UNL A   1      43.070  26.328  24.789  1.00  0.00    -0.237 OA
ATOM     83  O   UNL A   1      42.704  28.630  25.540  1.00  0.00    -0.237 OA
ATOM     84  O   UNL A   1      44.974  27.883  24.846  1.00  0.00    -0.744 OA
ENDBRANCH  78  81
ENDBRANCH  50  74
BRANCH  62  85
ATOM     85  C   UNL A   1      42.685  34.470  30.005  1.00  0.00     0.023 A 
ATOM     86  C   UNL A   1      42.238  35.024  28.790  1.00  0.00     0.012 A 
ATOM     87  C   UNL A   1      43.429  35.310  30.865  1.00  0.00     0.148 A 
ATOM     88  C   UNL A   1      42.594  36.316  28.400  1.00  0.00     0.002 A 
ATOM     89  C   UNL A   1      43.676  36.635  30.526  1.00  0.00     0.091 A 
ATOM     90  F   UNL A   1      43.917  34.826  32.018  1.00  0.00    -0.205 F 
ATOM     91  C   UNL A   1      43.297  37.131  29.277  1.00  0.00     0.022 A 
BRANCH  89  92
ATOM     92  S   UNL A   1      44.330  37.772  31.753  1.00  0.00     0.127 S 
ATOM     93  O   UNL A   1      45.681  37.259  31.960  1.00  0.00    -0.237 OA
ATOM     94  O   UNL A   1      44.267  39.062  31.061  1.00  0.00    -0.237 OA
ATOM     95  O   UNL A   1      43.413  37.658  32.880  1.00  0.00    -0.744 OA
ENDBRANCH  89  92
ENDBRANCH  62  85
ENDBRANCH  36  37
ENDBRANCH  29  31
ENDBRANCH  28  29
ENDBRANCH   1  28
TORSDOF 17
ENDMDL
