MODEL 1
REMARK VINA RESULT:     -11.4      0.000      0.000
REMARK SMILES Cc1ccc(C)c(NC(=O)/C=C/C(=O)OCCOC(=O)c2ccc(-c3c4nc(c(-c5cccc(S(=O)(=O)[O-])c5F)c5ccc([nH]5)c(-c5cccc(S(=O)(=O)[O-])c5F)c5nc(c(-c6cccc(S(=O)(=O)[O-])c6F)c6ccc3[nH]6)C=C5)C=C4)cc2)c1
REMARK SMILES IDX 17 1 16 2 15 3 13 4 14 5 12 6 11 7 9 8 8 9 10 11 7 12 1 13
REMARK SMILES IDX 2 14 3 15 84 16 4 17 5 18 6 19 18 20 19 21 20 22 21 23 22 24
REMARK SMILES IDX 83 25 23 26 82 27 24 28 25 29 26 30 76 31 27 32 81 33 75 34
REMARK SMILES IDX 77 35 28 36 80 37 74 38 73 39 29 41 61 42 41 43 60 44 42 45
REMARK SMILES IDX 45 46 59 47 78 48 43 49 44 50 58 52 79 53 46 54 30 55 31 56
REMARK SMILES IDX 39 57 32 58 34 59 40 60 33 61 35 62 36 63 37 64 38 65 62 66
REMARK SMILES IDX 63 67 71 68 64 69 66 70 72 71 65 72 67 73 68 74 69 75 70 76
REMARK SMILES IDX 47 77 48 78 56 79 49 80 51 81 57 82 50 83 52 84 53 85 54 86
REMARK SMILES IDX 55 87
REMARK H PARENT 8 10 77 40 45 51
REMARK Flexibility Score: inf
ROOT
ATOM      1  C   UNL A   1      32.971  31.261  27.039  1.00  0.00     0.275 C 
ENDROOT
BRANCH   1   2
ATOM      2  C   UNL A   1      32.453  29.833  27.245  1.00  0.00     0.275 C 
BRANCH   2   3
ATOM      3  O   UNL A   1      32.817  29.065  26.095  1.00  0.00    -0.459 OA
BRANCH   3   4
ATOM      4  C   UNL A   1      31.816  28.118  25.623  1.00  0.00     0.331 C 
ATOM      5  O   UNL A   1      31.130  28.754  24.782  1.00  0.00    -0.247 OA
BRANCH   4   6
ATOM      6  C   UNL A   1      31.692  26.074  26.272  1.00  0.00     0.099 C 
ATOM      7  C   UNL A   1      31.073  24.819  26.009  1.00  0.00     0.079 C 
BRANCH   7   8
ATOM      8  C   UNL A   1      30.968  23.463  26.706  1.00  0.00     0.248 C 
ATOM      9  N   UNL A   1      31.931  22.466  26.674  1.00  0.00    -0.322 N 
ATOM     10  H   UNL A   1      31.698  21.683  27.225  1.00  0.00     0.170 HD
ATOM     11  O   UNL A   1      30.047  23.307  27.516  1.00  0.00    -0.270 OA
BRANCH   9  12
ATOM     12  C   UNL A   1      33.173  22.333  26.018  1.00  0.00     0.044 A 
ATOM     13  C   UNL A   1      36.764  23.716  26.042  1.00  0.00     0.044 C 
ATOM     14  C   UNL A   1      35.564  22.823  25.894  1.00  0.00    -0.049 A 
ATOM     15  C   UNL A   1      35.743  21.605  25.236  1.00  0.00     0.004 A 
ATOM     16  C   UNL A   1      34.271  23.150  26.356  1.00  0.00     0.029 A 
ATOM     17  C   UNL A   1      34.637  20.954  24.714  1.00  0.00     0.006 A 
ATOM     18  C   UNL A   1      33.362  21.472  24.951  1.00  0.00    -0.027 A 
ATOM     19  C   UNL A   1      32.379  21.510  23.808  1.00  0.00     0.046 C 
ENDBRANCH   9  12
ENDBRANCH   7   8
ENDBRANCH   4   6
ENDBRANCH   3   4
ENDBRANCH   2   3
ENDBRANCH   1   2
BRANCH   1  20
ATOM     20  O   UNL A   1      33.534  31.881  28.231  1.00  0.00    -0.458 OA
BRANCH  20  21
ATOM     21  C   UNL A   1      34.817  32.336  28.211  1.00  0.00     0.338 C 
ATOM     22  O   UNL A   1      35.268  33.101  27.379  1.00  0.00    -0.246 OA
BRANCH  21  23
ATOM     23  C   UNL A   1      35.653  31.619  29.201  1.00  0.00     0.060 A 
ATOM     24  C   UNL A   1      36.972  32.563  30.040  1.00  0.00     0.016 A 
ATOM     25  C   UNL A   1      35.883  29.859  28.815  1.00  0.00     0.016 A 
ATOM     26  C   UNL A   1      38.633  31.811  30.274  1.00  0.00     0.010 A 
ATOM     27  C   UNL A   1      37.513  29.094  29.129  1.00  0.00     0.010 A 
ATOM     28  C   UNL A   1      38.914  30.108  29.714  1.00  0.00    -0.014 A 
BRANCH  28  29
ATOM     29  C   UNL A   1      40.275  29.542  29.385  1.00  0.00     0.031 A 
ATOM     30  C   UNL A   1      40.880  29.362  30.715  1.00  0.00     0.074 A 
ATOM     31  C   UNL A   1      40.891  29.023  28.270  1.00  0.00     0.049 A 
ATOM     32  N   UNL A   1      41.307  30.352  31.441  1.00  0.00    -0.248 NA
ATOM     33  C   UNL A   1      40.537  28.156  31.490  1.00  0.00     0.031 C 
ATOM     34  C   UNL A   1      40.409  28.847  26.891  1.00  0.00     0.029 A 
ATOM     35  N   UNL A   1      42.161  28.465  28.147  1.00  0.00    -0.354 N 
ATOM     36  C   UNL A   1      41.593  29.734  32.643  1.00  0.00     0.074 A 
ATOM     37  C   UNL A   1      40.642  28.668  32.722  1.00  0.00     0.031 C 
ATOM     38  C   UNL A   1      41.254  28.045  26.177  1.00  0.00     0.029 A 
ATOM     39  C   UNL A   1      42.424  27.715  26.975  1.00  0.00     0.049 A 
ATOM     40  H   UNL A   1      42.847  28.588  28.844  1.00  0.00     0.167 HD
ATOM     41  C   UNL A   1      42.880  29.712  33.097  1.00  0.00     0.034 A 
ATOM     42  C   UNL A   1      43.513  26.919  26.670  1.00  0.00     0.034 A 
ATOM     43  C   UNL A   1      43.689  30.654  32.336  1.00  0.00     0.049 A 
ATOM     44  C   UNL A   1      44.617  27.331  27.558  1.00  0.00     0.074 A 
ATOM     45  C   UNL A   1      43.602  31.988  31.979  1.00  0.00     0.029 A 
ATOM     46  N   UNL A   1      44.547  30.079  31.432  1.00  0.00    -0.354 N 
ATOM     47  N   UNL A   1      45.208  28.484  27.462  1.00  0.00    -0.248 NA
ATOM     48  C   UNL A   1      44.703  26.663  28.841  1.00  0.00     0.031 C 
ATOM     49  C   UNL A   1      44.109  32.065  30.645  1.00  0.00     0.029 A 
ATOM     50  C   UNL A   1      44.598  30.813  30.283  1.00  0.00     0.049 A 
ATOM     51  H   UNL A   1      45.055  29.251  31.591  1.00  0.00     0.167 HD
ATOM     52  C   UNL A   1      45.211  28.934  28.771  1.00  0.00     0.074 A 
ATOM     53  C   UNL A   1      44.962  27.739  29.586  1.00  0.00     0.031 C 
ATOM     54  C   UNL A   1      45.058  30.265  29.029  1.00  0.00     0.034 A 
BRANCH  41  55
ATOM     55  C   UNL A   1      43.525  28.511  33.800  1.00  0.00     0.023 A 
ATOM     56  C   UNL A   1      44.049  28.764  35.084  1.00  0.00     0.012 A 
ATOM     57  C   UNL A   1      43.873  27.258  33.227  1.00  0.00     0.148 A 
ATOM     58  C   UNL A   1      44.924  27.871  35.713  1.00  0.00     0.002 A 
ATOM     59  C   UNL A   1      44.711  26.355  33.865  1.00  0.00     0.091 A 
ATOM     60  F   UNL A   1      43.475  26.909  32.010  1.00  0.00    -0.205 F 
ATOM     61  C   UNL A   1      45.263  26.669  35.101  1.00  0.00     0.022 A 
BRANCH  59  62
ATOM     62  S   UNL A   1      45.171  24.787  33.097  1.00  0.00     0.127 S 
ATOM     63  O   UNL A   1      43.871  24.133  32.977  1.00  0.00    -0.237 OA
ATOM     64  O   UNL A   1      45.761  25.245  31.840  1.00  0.00    -0.237 OA
ATOM     65  O   UNL A   1      46.112  24.141  34.004  1.00  0.00    -0.744 OA
ENDBRANCH  59  62
ENDBRANCH  41  55
BRANCH  42  66
ATOM     66  C   UNL A   1      43.716  25.634  25.894  1.00  0.00     0.023 A 
ATOM     67  C   UNL A   1      44.920  25.384  25.168  1.00  0.00     0.012 A 
ATOM     68  C   UNL A   1      42.908  24.519  26.173  1.00  0.00     0.148 A 
ATOM     69  C   UNL A   1      45.311  24.081  24.788  1.00  0.00     0.002 A 
ATOM     70  C   UNL A   1      43.305  23.227  25.807  1.00  0.00     0.091 A 
ATOM     71  F   UNL A   1      41.791  24.717  26.882  1.00  0.00    -0.205 F 
ATOM     72  C   UNL A   1      44.509  22.999  25.125  1.00  0.00     0.022 A 
BRANCH  70  73
ATOM     73  S   UNL A   1      42.345  21.775  26.263  1.00  0.00     0.127 S 
ATOM     74  O   UNL A   1      43.025  20.716  25.516  1.00  0.00    -0.237 OA
ATOM     75  O   UNL A   1      42.537  21.723  27.710  1.00  0.00    -0.237 OA
ATOM     76  O   UNL A   1      40.984  22.046  25.819  1.00  0.00    -0.744 OA
ENDBRANCH  70  73
ENDBRANCH  42  66
BRANCH  54  77
ATOM     77  C   UNL A   1      45.257  31.229  27.885  1.00  0.00     0.023 A 
ATOM     78  C   UNL A   1      44.218  31.726  27.065  1.00  0.00     0.012 A 
ATOM     79  C   UNL A   1      46.557  31.725  27.705  1.00  0.00     0.148 A 
ATOM     80  C   UNL A   1      44.487  32.678  26.072  1.00  0.00     0.002 A 
ATOM     81  C   UNL A   1      46.812  32.696  26.749  1.00  0.00     0.091 A 
ATOM     82  F   UNL A   1      47.528  31.239  28.492  1.00  0.00    -0.205 F 
ATOM     83  C   UNL A   1      45.783  33.170  25.922  1.00  0.00     0.022 A 
BRANCH  81  84
ATOM     84  S   UNL A   1      48.440  33.424  26.585  1.00  0.00     0.127 S 
ATOM     85  O   UNL A   1      48.617  34.065  27.887  1.00  0.00    -0.237 OA
ATOM     86  O   UNL A   1      49.285  32.251  26.359  1.00  0.00    -0.237 OA
ATOM     87  O   UNL A   1      48.364  34.331  25.447  1.00  0.00    -0.744 OA
ENDBRANCH  81  84
ENDBRANCH  54  77
ENDBRANCH  28  29
ENDBRANCH  21  23
ENDBRANCH  20  21
ENDBRANCH   1  20
TORSDOF 16
ENDMDL
MODEL 2
REMARK VINA RESULT:     -11.4      1.877      2.384
REMARK SMILES Cc1ccc(C)c(NC(=O)/C=C/C(=O)OCCOC(=O)c2ccc(-c3c4nc(c(-c5cccc(S(=O)(=O)[O-])c5F)c5ccc([nH]5)c(-c5cccc(S(=O)(=O)[O-])c5F)c5nc(c(-c6cccc(S(=O)(=O)[O-])c6F)c6ccc3[nH]6)C=C5)C=C4)cc2)c1
REMARK SMILES IDX 17 1 16 2 15 3 13 4 14 5 12 6 11 7 9 8 8 9 10 11 7 12 1 13
REMARK SMILES IDX 2 14 3 15 84 16 4 17 5 18 6 19 18 20 19 21 20 22 21 23 22 24
REMARK SMILES IDX 83 25 23 26 82 27 24 28 25 29 26 30 76 31 27 32 81 33 75 34
REMARK SMILES IDX 77 35 28 36 80 37 74 38 73 39 29 41 61 42 41 43 60 44 42 45
REMARK SMILES IDX 45 46 59 47 78 48 43 49 44 50 58 52 79 53 46 54 30 55 31 56
REMARK SMILES IDX 39 57 32 58 34 59 40 60 33 61 35 62 36 63 37 64 38 65 62 66
REMARK SMILES IDX 63 67 71 68 64 69 66 70 72 71 65 72 67 73 68 74 69 75 70 76
REMARK SMILES IDX 47 77 48 78 56 79 49 80 51 81 57 82 50 83 52 84 53 85 54 86
REMARK SMILES IDX 55 87
REMARK H PARENT 8 10 77 40 45 51
REMARK Flexibility Score: inf
ROOT
ATOM      1  C   UNL A   1      33.721  29.810  27.190  1.00  0.00     0.275 C 
ENDROOT
BRANCH   1   2
ATOM      2  C   UNL A   1      33.290  29.757  25.720  1.00  0.00     0.275 C 
BRANCH   2   3
ATOM      3  O   UNL A   1      31.861  29.736  25.682  1.00  0.00    -0.459 OA
BRANCH   3   4
ATOM      4  C   UNL A   1      31.260  28.564  25.061  1.00  0.00     0.331 C 
ATOM      5  O   UNL A   1      30.690  28.994  24.025  1.00  0.00    -0.247 OA
BRANCH   4   6
ATOM      6  C   UNL A   1      31.440  26.567  25.833  1.00  0.00     0.099 C 
ATOM      7  C   UNL A   1      32.358  25.508  26.083  1.00  0.00     0.079 C 
BRANCH   7   8
ATOM      8  C   UNL A   1      32.276  24.038  26.495  1.00  0.00     0.248 C 
ATOM      9  N   UNL A   1      33.256  23.084  26.270  1.00  0.00    -0.322 N 
ATOM     10  H   UNL A   1      33.036  22.204  26.652  1.00  0.00     0.170 HD
ATOM     11  O   UNL A   1      31.355  23.708  27.252  1.00  0.00    -0.270 OA
BRANCH   9  12
ATOM     12  C   UNL A   1      34.502  23.106  25.609  1.00  0.00     0.044 A 
ATOM     13  C   UNL A   1      38.188  24.076  26.143  1.00  0.00     0.044 C 
ATOM     14  C   UNL A   1      36.926  23.407  25.671  1.00  0.00    -0.049 A 
ATOM     15  C   UNL A   1      37.029  22.518  24.601  1.00  0.00     0.004 A 
ATOM     16  C   UNL A   1      35.650  23.642  26.227  1.00  0.00     0.029 A 
ATOM     17  C   UNL A   1      35.890  22.206  23.874  1.00  0.00     0.006 A 
ATOM     18  C   UNL A   1      34.654  22.700  24.295  1.00  0.00    -0.027 A 
ATOM     19  C   UNL A   1      33.709  23.248  23.255  1.00  0.00     0.046 C 
ENDBRANCH   9  12
ENDBRANCH   7   8
ENDBRANCH   4   6
ENDBRANCH   3   4
ENDBRANCH   2   3
ENDBRANCH   1   2
BRANCH   1  20
ATOM     20  O   UNL A   1      35.051  30.361  27.413  1.00  0.00    -0.458 OA
BRANCH  20  21
ATOM     21  C   UNL A   1      35.189  31.521  28.113  1.00  0.00     0.338 C 
ATOM     22  O   UNL A   1      34.736  32.597  27.769  1.00  0.00    -0.246 OA
BRANCH  21  23
ATOM     23  C   UNL A   1      36.140  31.356  29.236  1.00  0.00     0.060 A 
ATOM     24  C   UNL A   1      37.702  32.298  29.172  1.00  0.00     0.016 A 
ATOM     25  C   UNL A   1      36.092  29.702  29.988  1.00  0.00     0.016 A 
ATOM     26  C   UNL A   1      39.285  31.487  29.636  1.00  0.00     0.010 A 
ATOM     27  C   UNL A   1      37.660  28.934  30.526  1.00  0.00     0.010 A 
ATOM     28  C   UNL A   1      39.255  29.766  30.211  1.00  0.00    -0.014 A 
BRANCH  28  29
ATOM     29  C   UNL A   1      40.444  28.837  30.153  1.00  0.00     0.031 A 
ATOM     30  C   UNL A   1      40.939  28.860  31.539  1.00  0.00     0.074 A 
ATOM     31  C   UNL A   1      40.949  27.927  29.253  1.00  0.00     0.049 A 
ATOM     32  N   UNL A   1      41.574  29.873  32.049  1.00  0.00    -0.248 NA
ATOM     33  C   UNL A   1      40.283  27.998  32.539  1.00  0.00     0.031 C 
ATOM     34  C   UNL A   1      40.486  27.528  27.914  1.00  0.00     0.029 A 
ATOM     35  N   UNL A   1      42.046  27.078  29.384  1.00  0.00    -0.354 N 
ATOM     36  C   UNL A   1      41.657  29.526  33.384  1.00  0.00     0.074 A 
ATOM     37  C   UNL A   1      40.470  28.763  33.621  1.00  0.00     0.031 C 
ATOM     38  C   UNL A   1      41.130  26.401  27.491  1.00  0.00     0.029 A 
ATOM     39  C   UNL A   1      42.154  26.019  28.450  1.00  0.00     0.049 A 
ATOM     40  H   UNL A   1      42.716  27.209  30.094  1.00  0.00     0.167 HD
ATOM     41  C   UNL A   1      42.882  29.320  33.950  1.00  0.00     0.034 A 
ATOM     42  C   UNL A   1      43.022  24.942  28.443  1.00  0.00     0.034 A 
ATOM     43  C   UNL A   1      43.925  29.828  33.068  1.00  0.00     0.049 A 
ATOM     44  C   UNL A   1      44.163  25.296  29.310  1.00  0.00     0.074 A 
ATOM     45  C   UNL A   1      44.182  31.013  32.403  1.00  0.00     0.029 A 
ATOM     46  N   UNL A   1      44.644  28.863  32.408  1.00  0.00    -0.354 N 
ATOM     47  N   UNL A   1      45.024  26.218  29.002  1.00  0.00    -0.248 NA
ATOM     48  C   UNL A   1      44.037  24.968  30.715  1.00  0.00     0.031 C 
ATOM     49  C   UNL A   1      44.738  30.636  31.141  1.00  0.00     0.029 A 
ATOM     50  C   UNL A   1      44.914  29.255  31.129  1.00  0.00     0.049 A 
ATOM     51  H   UNL A   1      44.925  28.006  32.803  1.00  0.00     0.167 HD
ATOM     52  C   UNL A   1      45.093  26.968  30.164  1.00  0.00     0.074 A 
ATOM     53  C   UNL A   1      44.529  26.106  31.209  1.00  0.00     0.031 C 
ATOM     54  C   UNL A   1      45.266  28.320  30.087  1.00  0.00     0.034 A 
BRANCH  41  55
ATOM     55  C   UNL A   1      43.185  28.218  34.971  1.00  0.00     0.023 A 
ATOM     56  C   UNL A   1      43.735  28.652  36.194  1.00  0.00     0.012 A 
ATOM     57  C   UNL A   1      43.210  26.814  34.747  1.00  0.00     0.148 A 
ATOM     58  C   UNL A   1      44.341  27.763  37.089  1.00  0.00     0.002 A 
ATOM     59  C   UNL A   1      43.777  25.927  35.650  1.00  0.00     0.091 A 
ATOM     60  F   UNL A   1      42.757  26.276  33.623  1.00  0.00    -0.205 F 
ATOM     61  C   UNL A   1      44.371  26.400  36.814  1.00  0.00     0.022 A 
BRANCH  59  62
ATOM     62  S   UNL A   1      43.833  24.152  35.323  1.00  0.00     0.127 S 
ATOM     63  O   UNL A   1      44.635  24.110  34.104  1.00  0.00    -0.237 OA
ATOM     64  O   UNL A   1      44.498  23.658  36.528  1.00  0.00    -0.237 OA
ATOM     65  O   UNL A   1      42.451  23.713  35.174  1.00  0.00    -0.744 OA
ENDBRANCH  59  62
ENDBRANCH  41  55
BRANCH  42  66
ATOM     66  C   UNL A   1      42.927  23.494  28.012  1.00  0.00     0.023 A 
ATOM     67  C   UNL A   1      41.782  22.697  28.322  1.00  0.00     0.012 A 
ATOM     68  C   UNL A   1      43.765  23.015  26.991  1.00  0.00     0.148 A 
ATOM     69  C   UNL A   1      41.475  21.515  27.613  1.00  0.00     0.002 A 
ATOM     70  C   UNL A   1      43.451  21.849  26.281  1.00  0.00     0.091 A 
ATOM     71  F   UNL A   1      44.827  23.756  26.654  1.00  0.00    -0.205 F 
ATOM     72  C   UNL A   1      42.303  21.101  26.578  1.00  0.00     0.022 A 
BRANCH  70  73
ATOM     73  S   UNL A   1      44.447  21.288  24.892  1.00  0.00     0.127 S 
ATOM     74  O   UNL A   1      43.881  19.964  24.630  1.00  0.00    -0.237 OA
ATOM     75  O   UNL A   1      44.146  22.292  23.875  1.00  0.00    -0.237 OA
ATOM     76  O   UNL A   1      45.822  21.271  25.372  1.00  0.00    -0.744 OA
ENDBRANCH  70  73
ENDBRANCH  42  66
BRANCH  54  77
ATOM     77  C   UNL A   1      45.737  28.894  28.773  1.00  0.00     0.023 A 
ATOM     78  C   UNL A   1      44.881  29.293  27.721  1.00  0.00     0.012 A 
ATOM     79  C   UNL A   1      47.114  29.127  28.651  1.00  0.00     0.148 A 
ATOM     80  C   UNL A   1      45.404  29.887  26.564  1.00  0.00     0.002 A 
ATOM     81  C   UNL A   1      47.623  29.751  27.523  1.00  0.00     0.091 A 
ATOM     82  F   UNL A   1      47.908  28.740  29.660  1.00  0.00    -0.205 F 
ATOM     83  C   UNL A   1      46.775  30.125  26.470  1.00  0.00     0.022 A 
BRANCH  81  84
ATOM     84  S   UNL A   1      49.362  30.163  27.401  1.00  0.00     0.127 S 
ATOM     85  O   UNL A   1      49.922  28.942  26.825  1.00  0.00    -0.237 OA
ATOM     86  O   UNL A   1      49.347  31.316  26.501  1.00  0.00    -0.237 OA
ATOM     87  O   UNL A   1      49.800  30.472  28.756  1.00  0.00    -0.744 OA
ENDBRANCH  81  84
ENDBRANCH  54  77
ENDBRANCH  28  29
ENDBRANCH  21  23
ENDBRANCH  20  21
ENDBRANCH   1  20
TORSDOF 16
ENDMDL
MODEL 3
REMARK VINA RESULT:     -11.2      1.977      2.473
REMARK SMILES Cc1ccc(C)c(NC(=O)/C=C/C(=O)OCCOC(=O)c2ccc(-c3c4nc(c(-c5cccc(S(=O)(=O)[O-])c5F)c5ccc([nH]5)c(-c5cccc(S(=O)(=O)[O-])c5F)c5nc(c(-c6cccc(S(=O)(=O)[O-])c6F)c6ccc3[nH]6)C=C5)C=C4)cc2)c1
REMARK SMILES IDX 17 1 16 2 15 3 13 4 14 5 12 6 11 7 9 8 8 9 10 11 7 12 1 13
REMARK SMILES IDX 2 14 3 15 84 16 4 17 5 18 6 19 18 20 19 21 20 22 21 23 22 24
REMARK SMILES IDX 83 25 23 26 82 27 24 28 25 29 26 30 76 31 27 32 81 33 75 34
REMARK SMILES IDX 77 35 28 36 80 37 74 38 73 39 29 41 61 42 41 43 60 44 42 45
REMARK SMILES IDX 45 46 59 47 78 48 43 49 44 50 58 52 79 53 46 54 30 55 31 56
REMARK SMILES IDX 39 57 32 58 34 59 40 60 33 61 35 62 36 63 37 64 38 65 62 66
REMARK SMILES IDX 63 67 71 68 64 69 66 70 72 71 65 72 67 73 68 74 69 75 70 76
REMARK SMILES IDX 47 77 48 78 56 79 49 80 51 81 57 82 50 83 52 84 53 85 54 86
REMARK SMILES IDX 55 87
REMARK H PARENT 8 10 77 40 45 51
REMARK Flexibility Score: inf
ROOT
ATOM      1  C   UNL A   1      34.105  31.972  27.762  1.00  0.00     0.275 C 
ENDROOT
BRANCH   1   2
ATOM      2  C   UNL A   1      34.048  30.439  27.752  1.00  0.00     0.275 C 
BRANCH   2   3
ATOM      3  O   UNL A   1      33.719  30.022  26.424  1.00  0.00    -0.459 OA
BRANCH   3   4
ATOM      4  C   UNL A   1      33.370  28.617  26.270  1.00  0.00     0.331 C 
ATOM      5  O   UNL A   1      32.841  28.285  27.362  1.00  0.00    -0.247 OA
BRANCH   4   6
ATOM      6  C   UNL A   1      33.697  27.486  24.473  1.00  0.00     0.099 C 
ATOM      7  C   UNL A   1      33.043  26.813  23.402  1.00  0.00     0.079 C 
BRANCH   7   8
ATOM      8  C   UNL A   1      33.449  25.881  22.260  1.00  0.00     0.248 C 
ATOM      9  N   UNL A   1      33.600  24.506  22.360  1.00  0.00    -0.322 N 
ATOM     10  H   UNL A   1      33.821  24.077  21.502  1.00  0.00     0.170 HD
ATOM     11  O   UNL A   1      33.462  26.350  21.117  1.00  0.00    -0.270 OA
BRANCH   9  12
ATOM     12  C   UNL A   1      33.505  23.592  23.430  1.00  0.00     0.044 A 
ATOM     13  C   UNL A   1      35.460  20.778  25.181  1.00  0.00     0.044 C 
ATOM     14  C   UNL A   1      34.540  21.932  24.894  1.00  0.00    -0.049 A 
ATOM     15  C   UNL A   1      33.638  22.301  25.892  1.00  0.00     0.004 A 
ATOM     16  C   UNL A   1      34.518  22.643  23.675  1.00  0.00     0.029 A 
ATOM     17  C   UNL A   1      32.522  23.047  25.547  1.00  0.00     0.006 A 
ATOM     18  C   UNL A   1      32.383  23.504  24.235  1.00  0.00    -0.027 A 
ATOM     19  C   UNL A   1      31.028  23.401  23.579  1.00  0.00     0.046 C 
ENDBRANCH   9  12
ENDBRANCH   7   8
ENDBRANCH   4   6
ENDBRANCH   3   4
ENDBRANCH   2   3
ENDBRANCH   1   2
BRANCH   1  20
ATOM     20  O   UNL A   1      35.143  32.534  28.615  1.00  0.00    -0.458 OA
BRANCH  20  21
ATOM     21  C   UNL A   1      34.868  32.801  29.921  1.00  0.00     0.338 C 
ATOM     22  O   UNL A   1      33.983  33.543  30.306  1.00  0.00    -0.246 OA
BRANCH  21  23
ATOM     23  C   UNL A   1      35.912  32.244  30.812  1.00  0.00     0.060 A 
ATOM     24  C   UNL A   1      37.469  33.182  30.986  1.00  0.00     0.016 A 
ATOM     25  C   UNL A   1      35.919  30.428  30.871  1.00  0.00     0.016 A 
ATOM     26  C   UNL A   1      39.081  32.299  30.968  1.00  0.00     0.010 A 
ATOM     27  C   UNL A   1      37.524  29.556  30.939  1.00  0.00     0.010 A 
ATOM     28  C   UNL A   1      39.090  30.489  30.837  1.00  0.00    -0.014 A 
BRANCH  28  29
ATOM     29  C   UNL A   1      40.264  29.687  30.327  1.00  0.00     0.031 A 
ATOM     30  C   UNL A   1      40.972  29.328  31.567  1.00  0.00     0.074 A 
ATOM     31  C   UNL A   1      40.629  29.114  29.131  1.00  0.00     0.049 A 
ATOM     32  N   UNL A   1      41.669  30.180  32.258  1.00  0.00    -0.248 NA
ATOM     33  C   UNL A   1      40.490  28.175  32.348  1.00  0.00     0.031 C 
ATOM     34  C   UNL A   1      39.963  29.102  27.819  1.00  0.00     0.029 A 
ATOM     35  N   UNL A   1      41.740  28.327  28.838  1.00  0.00    -0.354 N 
ATOM     36  C   UNL A   1      41.966  29.460  33.399  1.00  0.00     0.074 A 
ATOM     37  C   UNL A   1      40.839  28.596  33.570  1.00  0.00     0.031 C 
ATOM     38  C   UNL A   1      40.542  28.188  26.986  1.00  0.00     0.029 A 
ATOM     39  C   UNL A   1      41.710  27.598  27.623  1.00  0.00     0.049 A 
ATOM     40  H   UNL A   1      42.513  28.280  29.447  1.00  0.00     0.167 HD
ATOM     41  C   UNL A   1      43.267  29.166  33.689  1.00  0.00     0.034 A 
ATOM     42  C   UNL A   1      42.576  26.623  27.165  1.00  0.00     0.034 A 
ATOM     43  C   UNL A   1      44.152  29.969  32.856  1.00  0.00     0.049 A 
ATOM     44  C   UNL A   1      43.835  26.768  27.919  1.00  0.00     0.074 A 
ATOM     45  C   UNL A   1      44.290  31.310  32.547  1.00  0.00     0.029 A 
ATOM     46  N   UNL A   1      44.767  29.284  31.838  1.00  0.00    -0.354 N 
ATOM     47  N   UNL A   1      44.628  27.787  27.778  1.00  0.00    -0.248 NA
ATOM     48  C   UNL A   1      43.937  26.034  29.163  1.00  0.00     0.031 C 
ATOM     49  C   UNL A   1      44.643  31.354  31.162  1.00  0.00     0.029 A 
ATOM     50  C   UNL A   1      44.827  30.050  30.711  1.00  0.00     0.049 A 
ATOM     51  H   UNL A   1      45.116  28.366  31.912  1.00  0.00     0.167 HD
ATOM     52  C   UNL A   1      44.874  28.164  29.088  1.00  0.00     0.074 A 
ATOM     53  C   UNL A   1      44.490  27.001  29.897  1.00  0.00     0.031 C 
ATOM     54  C   UNL A   1      45.020  29.486  29.396  1.00  0.00     0.034 A 
BRANCH  41  55
ATOM     55  C   UNL A   1      43.739  27.830  34.276  1.00  0.00     0.023 A 
ATOM     56  C   UNL A   1      43.628  26.715  33.420  1.00  0.00     0.012 A 
ATOM     57  C   UNL A   1      44.036  27.539  35.635  1.00  0.00     0.148 A 
ATOM     58  C   UNL A   1      43.723  25.403  33.901  1.00  0.00     0.002 A 
ATOM     59  C   UNL A   1      44.167  26.240  36.106  1.00  0.00     0.091 A 
ATOM     60  F   UNL A   1      44.132  28.493  36.551  1.00  0.00    -0.205 F 
ATOM     61  C   UNL A   1      43.984  25.164  35.245  1.00  0.00     0.022 A 
BRANCH  59  62
ATOM     62  S   UNL A   1      44.504  25.895  37.845  1.00  0.00     0.127 S 
ATOM     63  O   UNL A   1      43.293  26.409  38.480  1.00  0.00    -0.237 OA
ATOM     64  O   UNL A   1      44.634  24.439  37.831  1.00  0.00    -0.237 OA
ATOM     65  O   UNL A   1      45.732  26.607  38.180  1.00  0.00    -0.744 OA
ENDBRANCH  59  62
ENDBRANCH  41  55
BRANCH  42  66
ATOM     66  C   UNL A   1      42.427  25.363  26.338  1.00  0.00     0.023 A 
ATOM     67  C   UNL A   1      43.434  24.956  25.410  1.00  0.00     0.012 A 
ATOM     68  C   UNL A   1      41.500  24.381  26.727  1.00  0.00     0.148 A 
ATOM     69  C   UNL A   1      43.530  23.628  24.940  1.00  0.00     0.002 A 
ATOM     70  C   UNL A   1      41.607  23.061  26.270  1.00  0.00     0.091 A 
ATOM     71  F   UNL A   1      40.566  24.722  27.622  1.00  0.00    -0.205 F 
ATOM     72  C   UNL A   1      42.624  22.675  25.387  1.00  0.00     0.022 A 
BRANCH  70  73
ATOM     73  S   UNL A   1      40.504  21.764  26.853  1.00  0.00     0.127 S 
ATOM     74  O   UNL A   1      41.015  20.591  26.142  1.00  0.00    -0.237 OA
ATOM     75  O   UNL A   1      40.761  21.767  28.290  1.00  0.00    -0.237 OA
ATOM     76  O   UNL A   1      39.164  22.175  26.453  1.00  0.00    -0.744 OA
ENDBRANCH  70  73
ENDBRANCH  42  66
BRANCH  54  77
ATOM     77  C   UNL A   1      45.271  30.448  28.260  1.00  0.00     0.023 A 
ATOM     78  C   UNL A   1      44.257  31.039  27.473  1.00  0.00     0.012 A 
ATOM     79  C   UNL A   1      46.602  30.839  28.056  1.00  0.00     0.148 A 
ATOM     80  C   UNL A   1      44.580  31.981  26.486  1.00  0.00     0.002 A 
ATOM     81  C   UNL A   1      46.913  31.800  27.108  1.00  0.00     0.091 A 
ATOM     82  F   UNL A   1      47.548  30.264  28.814  1.00  0.00    -0.205 F 
ATOM     83  C   UNL A   1      45.908  32.369  26.312  1.00  0.00     0.022 A 
BRANCH  81  84
ATOM     84  S   UNL A   1      48.591  32.397  26.915  1.00  0.00     0.127 S 
ATOM     85  O   UNL A   1      48.442  33.377  25.842  1.00  0.00    -0.237 OA
ATOM     86  O   UNL A   1      48.872  32.968  28.233  1.00  0.00    -0.237 OA
ATOM     87  O   UNL A   1      49.400  31.230  26.589  1.00  0.00    -0.744 OA
ENDBRANCH  81  84
ENDBRANCH  54  77
ENDBRANCH  28  29
ENDBRANCH  21  23
ENDBRANCH  20  21
ENDBRANCH   1  20
TORSDOF 16
ENDMDL
