MODEL 1
REMARK VINA RESULT:     -11.0      0.000      0.000
REMARK SMILES CC1([C@@]2(C)C[C@@H]2C(=O)OCCOC(=O)c2ccc(-c3c4nc(c(-c5cccc(S(=O)(=O)[O-])c5F)c5ccc([nH]5)c(-c5cccc(S(=O)(=O)[O-])c5F)c5nc(c(-c6cccc(S(=O)(=O)[O-])c6F)c6ccc3[nH]6)C=C5)C=C4)cc2)CC1
REMARK SMILES IDX 11 1 10 2 9 3 7 4 8 5 6 6 3 7 4 8 5 9 2 10 1 11 78 12 79 13
REMARK SMILES IDX 12 14 13 15 14 16 15 17 16 18 77 19 17 20 76 21 18 22 19 23
REMARK SMILES IDX 20 24 70 25 21 26 75 27 69 28 71 29 22 30 74 31 68 32 67 33
REMARK SMILES IDX 23 35 55 36 35 37 54 38 36 39 39 40 53 41 72 42 37 43 38 44
REMARK SMILES IDX 52 46 73 47 40 48 24 49 25 50 33 51 26 52 28 53 34 54 27 55
REMARK SMILES IDX 29 56 30 57 31 58 32 59 56 60 57 61 65 62 58 63 60 64 66 65
REMARK SMILES IDX 59 66 61 67 62 68 63 69 64 70 41 71 42 72 50 73 43 74 45 75
REMARK SMILES IDX 51 76 44 77 46 78 47 79 48 80 49 81
REMARK H PARENT 71 34 39 45
REMARK Flexibility Score: inf
ROOT
ATOM      1  C   UNL A   1      36.952  20.064  24.993  1.00  0.00     0.275 C 
ENDROOT
BRANCH   1   2
ATOM      2  C   UNL A   1      35.534  20.608  25.188  1.00  0.00     0.274 C 
BRANCH   2   3
ATOM      3  O   UNL A   1      35.545  21.784  26.019  1.00  0.00    -0.462 OA
BRANCH   3   4
ATOM      4  C   UNL A   1      34.324  22.277  26.368  1.00  0.00     0.309 C 
ATOM      5  O   UNL A   1      33.385  21.610  26.768  1.00  0.00    -0.252 OA
BRANCH   4   6
ATOM      6  C   UNL A   1      34.281  23.762  26.234  1.00  0.00     0.106 C 
ATOM      7  C   UNL A   1      34.005  24.535  24.925  1.00  0.00    -0.013 C 
ATOM      8  C   UNL A   1      33.807  23.776  23.625  1.00  0.00     0.013 C 
ATOM      9  C   UNL A   1      35.403  24.459  25.517  1.00  0.00     0.024 C 
BRANCH   7  10
ATOM     10  C   UNL A   1      33.181  25.885  24.980  1.00  0.00    -0.026 C 
ATOM     11  C   UNL A   1      31.691  25.742  24.779  1.00  0.00     0.012 C 
ATOM     12  C   UNL A   1      33.789  27.130  24.345  1.00  0.00     0.008 C 
ATOM     13  C   UNL A   1      33.609  27.071  25.828  1.00  0.00     0.008 C 
ENDBRANCH   7  10
ENDBRANCH   4   6
ENDBRANCH   3   4
ENDBRANCH   2   3
ENDBRANCH   1   2
BRANCH   1  14
ATOM     14  O   UNL A   1      37.934  21.115  25.072  1.00  0.00    -0.458 OA
BRANCH  14  15
ATOM     15  C   UNL A   1      39.022  20.821  25.819  1.00  0.00     0.338 C 
ATOM     16  O   UNL A   1      39.630  19.763  25.853  1.00  0.00    -0.246 OA
BRANCH  15  17
ATOM     17  C   UNL A   1      39.499  22.023  26.518  1.00  0.00     0.060 A 
ATOM     18  C   UNL A   1      38.949  23.240  26.136  1.00  0.00     0.016 A 
ATOM     19  C   UNL A   1      40.582  21.989  27.394  1.00  0.00     0.016 A 
ATOM     20  C   UNL A   1      39.535  24.430  26.546  1.00  0.00     0.010 A 
ATOM     21  C   UNL A   1      41.136  23.196  27.851  1.00  0.00     0.010 A 
ATOM     22  C   UNL A   1      40.652  24.433  27.388  1.00  0.00    -0.014 A 
BRANCH  22  23
ATOM     23  C   UNL A   1      41.326  25.732  27.682  1.00  0.00     0.031 A 
ATOM     24  C   UNL A   1      40.618  26.795  28.490  1.00  0.00     0.074 A 
ATOM     25  C   UNL A   1      42.607  25.936  27.307  1.00  0.00     0.049 A 
ATOM     26  N   UNL A   1      41.009  28.009  28.781  1.00  0.00    -0.248 NA
ATOM     27  C   UNL A   1      39.298  26.449  29.043  1.00  0.00     0.031 C 
ATOM     28  C   UNL A   1      43.440  24.978  26.576  1.00  0.00     0.029 A 
ATOM     29  N   UNL A   1      43.440  27.013  27.498  1.00  0.00    -0.354 N 
ATOM     30  C   UNL A   1      39.963  28.592  29.488  1.00  0.00     0.074 A 
ATOM     31  C   UNL A   1      38.920  27.595  29.589  1.00  0.00     0.031 C 
ATOM     32  C   UNL A   1      44.665  25.495  26.403  1.00  0.00     0.029 A 
ATOM     33  C   UNL A   1      44.682  26.857  26.924  1.00  0.00     0.049 A 
ATOM     34  H   UNL A   1      43.174  27.819  27.997  1.00  0.00     0.167 HD
ATOM     35  C   UNL A   1      39.880  29.838  30.015  1.00  0.00     0.034 A 
ATOM     36  C   UNL A   1      45.704  27.723  26.781  1.00  0.00     0.034 A 
ATOM     37  C   UNL A   1      40.940  30.810  29.967  1.00  0.00     0.049 A 
ATOM     38  C   UNL A   1      45.565  29.114  27.334  1.00  0.00     0.074 A 
ATOM     39  C   UNL A   1      40.953  32.093  30.490  1.00  0.00     0.029 A 
ATOM     40  N   UNL A   1      42.174  30.612  29.369  1.00  0.00    -0.354 N 
ATOM     41  N   UNL A   1      44.579  29.636  28.022  1.00  0.00    -0.248 NA
ATOM     42  C   UNL A   1      46.687  30.035  27.102  1.00  0.00     0.031 C 
ATOM     43  C   UNL A   1      42.183  32.682  30.176  1.00  0.00     0.029 A 
ATOM     44  C   UNL A   1      42.952  31.750  29.498  1.00  0.00     0.049 A 
ATOM     45  H   UNL A   1      42.456  29.783  28.918  1.00  0.00     0.167 HD
ATOM     46  C   UNL A   1      44.975  30.932  28.332  1.00  0.00     0.074 A 
ATOM     47  C   UNL A   1      46.303  31.106  27.781  1.00  0.00     0.031 C 
ATOM     48  C   UNL A   1      44.293  31.897  28.995  1.00  0.00     0.034 A 
BRANCH  35  49
ATOM     49  C   UNL A   1      38.594  30.236  30.696  1.00  0.00     0.023 A 
ATOM     50  C   UNL A   1      38.398  29.950  32.061  1.00  0.00     0.012 A 
ATOM     51  C   UNL A   1      37.613  30.968  29.996  1.00  0.00     0.148 A 
ATOM     52  C   UNL A   1      37.232  30.359  32.712  1.00  0.00     0.002 A 
ATOM     53  C   UNL A   1      36.477  31.413  30.662  1.00  0.00     0.091 A 
ATOM     54  F   UNL A   1      37.812  31.219  28.694  1.00  0.00    -0.205 F 
ATOM     55  C   UNL A   1      36.279  31.099  32.016  1.00  0.00     0.022 A 
BRANCH  53  56
ATOM     56  S   UNL A   1      35.231  32.443  29.877  1.00  0.00     0.127 S 
ATOM     57  O   UNL A   1      34.305  32.680  30.984  1.00  0.00    -0.237 OA
ATOM     58  O   UNL A   1      36.011  33.613  29.474  1.00  0.00    -0.237 OA
ATOM     59  O   UNL A   1      34.694  31.659  28.775  1.00  0.00    -0.744 OA
ENDBRANCH  53  56
ENDBRANCH  35  49
BRANCH  36  60
ATOM     60  C   UNL A   1      46.943  27.315  26.056  1.00  0.00     0.023 A 
ATOM     61  C   UNL A   1      47.931  26.563  26.721  1.00  0.00     0.012 A 
ATOM     62  C   UNL A   1      47.151  27.682  24.711  1.00  0.00     0.148 A 
ATOM     63  C   UNL A   1      49.119  26.220  26.073  1.00  0.00     0.002 A 
ATOM     64  C   UNL A   1      48.305  27.280  24.052  1.00  0.00     0.091 A 
ATOM     65  F   UNL A   1      46.213  28.419  24.100  1.00  0.00    -0.205 F 
ATOM     66  C   UNL A   1      49.301  26.568  24.738  1.00  0.00     0.022 A 
BRANCH  64  67
ATOM     67  S   UNL A   1      48.557  27.567  22.298  1.00  0.00     0.127 S 
ATOM     68  O   UNL A   1      47.368  28.339  21.948  1.00  0.00    -0.237 OA
ATOM     69  O   UNL A   1      49.809  28.326  22.293  1.00  0.00    -0.237 OA
ATOM     70  O   UNL A   1      48.656  26.245  21.694  1.00  0.00    -0.744 OA
ENDBRANCH  64  67
ENDBRANCH  36  60
BRANCH  48  71
ATOM     71  C   UNL A   1      44.989  33.215  29.216  1.00  0.00     0.023 A 
ATOM     72  C   UNL A   1      45.771  33.417  30.371  1.00  0.00     0.012 A 
ATOM     73  C   UNL A   1      44.910  34.234  28.247  1.00  0.00     0.148 A 
ATOM     74  C   UNL A   1      46.432  34.628  30.576  1.00  0.00     0.002 A 
ATOM     75  C   UNL A   1      45.615  35.418  28.433  1.00  0.00     0.091 A 
ATOM     76  F   UNL A   1      44.148  34.030  27.163  1.00  0.00    -0.205 F 
ATOM     77  C   UNL A   1      46.363  35.623  29.603  1.00  0.00     0.022 A 
BRANCH  75  78
ATOM     78  S   UNL A   1      45.665  36.716  27.192  1.00  0.00     0.127 S 
ATOM     79  O   UNL A   1      46.548  37.695  27.822  1.00  0.00    -0.237 OA
ATOM     80  O   UNL A   1      46.246  36.020  26.043  1.00  0.00    -0.237 OA
ATOM     81  O   UNL A   1      44.287  37.149  27.004  1.00  0.00    -0.744 OA
ENDBRANCH  75  78
ENDBRANCH  48  71
ENDBRANCH  22  23
ENDBRANCH  15  17
ENDBRANCH  14  15
ENDBRANCH   1  14
TORSDOF 15
ENDMDL
MODEL 2
REMARK VINA RESULT:     -10.9      1.440      8.113
REMARK SMILES CC1([C@@]2(C)C[C@@H]2C(=O)OCCOC(=O)c2ccc(-c3c4nc(c(-c5cccc(S(=O)(=O)[O-])c5F)c5ccc([nH]5)c(-c5cccc(S(=O)(=O)[O-])c5F)c5nc(c(-c6cccc(S(=O)(=O)[O-])c6F)c6ccc3[nH]6)C=C5)C=C4)cc2)CC1
REMARK SMILES IDX 11 1 10 2 9 3 7 4 8 5 6 6 3 7 4 8 5 9 2 10 1 11 78 12 79 13
REMARK SMILES IDX 12 14 13 15 14 16 15 17 16 18 77 19 17 20 76 21 18 22 19 23
REMARK SMILES IDX 20 24 70 25 21 26 75 27 69 28 71 29 22 30 74 31 68 32 67 33
REMARK SMILES IDX 23 35 55 36 35 37 54 38 36 39 39 40 53 41 72 42 37 43 38 44
REMARK SMILES IDX 52 46 73 47 40 48 24 49 25 50 33 51 26 52 28 53 34 54 27 55
REMARK SMILES IDX 29 56 30 57 31 58 32 59 56 60 57 61 65 62 58 63 60 64 66 65
REMARK SMILES IDX 59 66 61 67 62 68 63 69 64 70 41 71 42 72 50 73 43 74 45 75
REMARK SMILES IDX 51 76 44 77 46 78 47 79 48 80 49 81
REMARK H PARENT 71 34 39 45
REMARK Flexibility Score: inf
ROOT
ATOM      1  C   UNL A   1      37.443  19.954  24.862  1.00  0.00     0.275 C 
ENDROOT
BRANCH   1   2
ATOM      2  C   UNL A   1      35.942  20.225  24.999  1.00  0.00     0.274 C 
BRANCH   2   3
ATOM      3  O   UNL A   1      35.687  21.177  26.050  1.00  0.00    -0.462 OA
BRANCH   3   4
ATOM      4  C   UNL A   1      34.395  21.593  26.172  1.00  0.00     0.309 C 
ATOM      5  O   UNL A   1      33.419  20.864  26.176  1.00  0.00    -0.252 OA
BRANCH   4   6
ATOM      6  C   UNL A   1      34.318  23.073  26.340  1.00  0.00     0.106 C 
ATOM      7  C   UNL A   1      34.105  24.094  25.200  1.00  0.00    -0.013 C 
ATOM      8  C   UNL A   1      34.015  23.614  23.762  1.00  0.00     0.013 C 
ATOM      9  C   UNL A   1      35.463  23.919  25.860  1.00  0.00     0.024 C 
BRANCH   7  10
ATOM     10  C   UNL A   1      33.241  25.391  25.470  1.00  0.00    -0.026 C 
ATOM     11  C   UNL A   1      34.029  26.667  25.655  1.00  0.00     0.012 C 
ATOM     12  C   UNL A   1      32.014  25.269  26.366  1.00  0.00     0.008 C 
ATOM     13  C   UNL A   1      31.839  25.571  24.913  1.00  0.00     0.008 C 
ENDBRANCH   7  10
ENDBRANCH   4   6
ENDBRANCH   3   4
ENDBRANCH   2   3
ENDBRANCH   1   2
BRANCH   1  14
ATOM     14  O   UNL A   1      38.222  21.118  25.202  1.00  0.00    -0.458 OA
BRANCH  14  15
ATOM     15  C   UNL A   1      39.269  20.881  26.023  1.00  0.00     0.338 C 
ATOM     16  O   UNL A   1      39.897  19.841  26.138  1.00  0.00    -0.246 OA
BRANCH  15  17
ATOM     17  C   UNL A   1      39.677  22.122  26.698  1.00  0.00     0.060 A 
ATOM     18  C   UNL A   1      39.063  23.299  26.289  1.00  0.00     0.016 A 
ATOM     19  C   UNL A   1      40.758  22.166  27.577  1.00  0.00     0.016 A 
ATOM     20  C   UNL A   1      39.582  24.527  26.674  1.00  0.00     0.010 A 
ATOM     21  C   UNL A   1      41.244  23.411  28.009  1.00  0.00     0.010 A 
ATOM     22  C   UNL A   1      40.694  24.610  27.519  1.00  0.00    -0.014 A 
BRANCH  22  23
ATOM     23  C   UNL A   1      41.295  25.950  27.786  1.00  0.00     0.031 A 
ATOM     24  C   UNL A   1      42.674  26.285  27.268  1.00  0.00     0.074 A 
ATOM     25  C   UNL A   1      40.580  26.906  28.416  1.00  0.00     0.049 A 
ATOM     26  N   UNL A   1      43.391  27.362  27.462  1.00  0.00    -0.248 NA
ATOM     27  C   UNL A   1      43.335  25.279  26.419  1.00  0.00     0.031 C 
ATOM     28  C   UNL A   1      39.213  26.748  28.919  1.00  0.00     0.029 A 
ATOM     29  N   UNL A   1      40.897  28.206  28.733  1.00  0.00    -0.354 N 
ATOM     30  C   UNL A   1      44.606  27.138  26.822  1.00  0.00     0.074 A 
ATOM     31  C   UNL A   1      44.528  25.823  26.225  1.00  0.00     0.031 C 
ATOM     32  C   UNL A   1      38.801  27.907  29.455  1.00  0.00     0.029 A 
ATOM     33  C   UNL A   1      39.902  28.862  29.422  1.00  0.00     0.049 A 
ATOM     34  H   UNL A   1      41.753  28.627  28.490  1.00  0.00     0.167 HD
ATOM     35  C   UNL A   1      45.684  27.955  26.729  1.00  0.00     0.034 A 
ATOM     36  C   UNL A   1      39.888  30.074  30.011  1.00  0.00     0.034 A 
ATOM     37  C   UNL A   1      45.740  29.286  27.271  1.00  0.00     0.049 A 
ATOM     38  C   UNL A   1      41.115  30.938  29.932  1.00  0.00     0.074 A 
ATOM     39  C   UNL A   1      46.784  30.195  27.210  1.00  0.00     0.029 A 
ATOM     40  N   UNL A   1      44.715  29.906  27.968  1.00  0.00    -0.354 N 
ATOM     41  N   UNL A   1      42.242  30.719  29.300  1.00  0.00    -0.248 NA
ATOM     42  C   UNL A   1      41.066  32.227  30.639  1.00  0.00     0.031 C 
ATOM     43  C   UNL A   1      46.402  31.350  27.901  1.00  0.00     0.029 A 
ATOM     44  C   UNL A   1      45.104  31.178  28.353  1.00  0.00     0.049 A 
ATOM     45  H   UNL A   1      43.839  29.500  28.161  1.00  0.00     0.167 HD
ATOM     46  C   UNL A   1      43.020  31.852  29.505  1.00  0.00     0.074 A 
ATOM     47  C   UNL A   1      42.225  32.768  30.297  1.00  0.00     0.031 C 
ATOM     48  C   UNL A   1      44.287  32.104  29.093  1.00  0.00     0.034 A 
BRANCH  35  49
ATOM     49  C   UNL A   1      46.906  27.437  26.012  1.00  0.00     0.023 A 
ATOM     50  C   UNL A   1      47.070  27.670  24.633  1.00  0.00     0.012 A 
ATOM     51  C   UNL A   1      47.932  26.787  26.730  1.00  0.00     0.148 A 
ATOM     52  C   UNL A   1      48.221  27.238  23.972  1.00  0.00     0.002 A 
ATOM     53  C   UNL A   1      49.095  26.403  26.075  1.00  0.00     0.091 A 
ATOM     54  F   UNL A   1      47.751  26.563  28.039  1.00  0.00    -0.205 F 
ATOM     55  C   UNL A   1      49.237  26.616  24.694  1.00  0.00     0.022 A 
BRANCH  53  56
ATOM     56  S   UNL A   1      50.495  25.670  26.930  1.00  0.00     0.127 S 
ATOM     57  O   UNL A   1      49.901  24.450  27.477  1.00  0.00    -0.237 OA
ATOM     58  O   UNL A   1      51.441  25.449  25.836  1.00  0.00    -0.237 OA
ATOM     59  O   UNL A   1      50.923  26.648  27.918  1.00  0.00    -0.744 OA
ENDBRANCH  53  56
ENDBRANCH  35  49
BRANCH  36  60
ATOM     60  C   UNL A   1      38.681  30.535  30.758  1.00  0.00     0.023 A 
ATOM     61  C   UNL A   1      38.563  30.270  32.136  1.00  0.00     0.012 A 
ATOM     62  C   UNL A   1      37.641  31.225  30.102  1.00  0.00     0.148 A 
ATOM     63  C   UNL A   1      37.416  30.648  32.837  1.00  0.00     0.002 A 
ATOM     64  C   UNL A   1      36.534  31.657  30.819  1.00  0.00     0.091 A 
ATOM     65  F   UNL A   1      37.757  31.447  28.785  1.00  0.00    -0.205 F 
ATOM     66  C   UNL A   1      36.408  31.350  32.182  1.00  0.00     0.022 A 
BRANCH  64  67
ATOM     67  S   UNL A   1      35.257  32.683  30.084  1.00  0.00     0.127 S 
ATOM     68  O   UNL A   1      34.326  32.844  31.197  1.00  0.00    -0.237 OA
ATOM     69  O   UNL A   1      36.007  33.889  29.728  1.00  0.00    -0.237 OA
ATOM     70  O   UNL A   1      34.757  31.930  28.942  1.00  0.00    -0.744 OA
ENDBRANCH  64  67
ENDBRANCH  36  60
BRANCH  48  71
ATOM     71  C   UNL A   1      44.878  33.446  29.438  1.00  0.00     0.023 A 
ATOM     72  C   UNL A   1      45.648  33.600  30.608  1.00  0.00     0.012 A 
ATOM     73  C   UNL A   1      44.715  34.542  28.569  1.00  0.00     0.148 A 
ATOM     74  C   UNL A   1      46.213  34.834  30.928  1.00  0.00     0.002 A 
ATOM     75  C   UNL A   1      45.326  35.755  28.866  1.00  0.00     0.091 A 
ATOM     76  F   UNL A   1      43.965  34.381  27.468  1.00  0.00    -0.205 F 
ATOM     77  C   UNL A   1      46.061  35.908  30.052  1.00  0.00     0.022 A 
BRANCH  75  78
ATOM     78  S   UNL A   1      45.268  37.163  27.752  1.00  0.00     0.127 S 
ATOM     79  O   UNL A   1      43.886  37.610  27.909  1.00  0.00    -0.237 OA
ATOM     80  O   UNL A   1      46.269  38.058  28.335  1.00  0.00    -0.237 OA
ATOM     81  O   UNL A   1      45.610  36.649  26.432  1.00  0.00    -0.744 OA
ENDBRANCH  75  78
ENDBRANCH  48  71
ENDBRANCH  22  23
ENDBRANCH  15  17
ENDBRANCH  14  15
ENDBRANCH   1  14
TORSDOF 15
ENDMDL
MODEL 3
REMARK VINA RESULT:     -10.9      5.505     10.401
REMARK SMILES CC1([C@@]2(C)C[C@@H]2C(=O)OCCOC(=O)c2ccc(-c3c4nc(c(-c5cccc(S(=O)(=O)[O-])c5F)c5ccc([nH]5)c(-c5cccc(S(=O)(=O)[O-])c5F)c5nc(c(-c6cccc(S(=O)(=O)[O-])c6F)c6ccc3[nH]6)C=C5)C=C4)cc2)CC1
REMARK SMILES IDX 11 1 10 2 9 3 7 4 8 5 6 6 3 7 4 8 5 9 2 10 1 11 78 12 79 13
REMARK SMILES IDX 12 14 13 15 14 16 15 17 16 18 77 19 17 20 76 21 18 22 19 23
REMARK SMILES IDX 20 24 70 25 21 26 75 27 69 28 71 29 22 30 74 31 68 32 67 33
REMARK SMILES IDX 23 35 55 36 35 37 54 38 36 39 39 40 53 41 72 42 37 43 38 44
REMARK SMILES IDX 52 46 73 47 40 48 24 49 25 50 33 51 26 52 28 53 34 54 27 55
REMARK SMILES IDX 29 56 30 57 31 58 32 59 56 60 57 61 65 62 58 63 60 64 66 65
REMARK SMILES IDX 59 66 61 67 62 68 63 69 64 70 41 71 42 72 50 73 43 74 45 75
REMARK SMILES IDX 51 76 44 77 46 78 47 79 48 80 49 81
REMARK H PARENT 71 34 39 45
REMARK Flexibility Score: inf
ROOT
ATOM      1  C   UNL A   1      31.589  30.524  25.804  1.00  0.00     0.275 C 
ENDROOT
BRANCH   1   2
ATOM      2  C   UNL A   1      31.971  29.351  24.897  1.00  0.00     0.274 C 
BRANCH   2   3
ATOM      3  O   UNL A   1      31.077  28.239  25.092  1.00  0.00    -0.462 OA
BRANCH   3   4
ATOM      4  C   UNL A   1      31.514  27.269  25.943  1.00  0.00     0.309 C 
ATOM      5  O   UNL A   1      31.027  27.017  27.031  1.00  0.00    -0.252 OA
BRANCH   4   6
ATOM      6  C   UNL A   1      32.658  26.512  25.358  1.00  0.00     0.106 C 
ATOM      7  C   UNL A   1      32.568  25.114  24.705  1.00  0.00    -0.013 C 
ATOM      8  C   UNL A   1      31.241  24.377  24.678  1.00  0.00     0.013 C 
ATOM      9  C   UNL A   1      33.178  25.304  26.085  1.00  0.00     0.024 C 
BRANCH   7  10
ATOM     10  C   UNL A   1      33.484  24.778  23.460  1.00  0.00    -0.026 C 
ATOM     11  C   UNL A   1      34.781  24.072  23.783  1.00  0.00     0.012 C 
ATOM     12  C   UNL A   1      33.585  25.804  22.338  1.00  0.00     0.008 C 
ATOM     13  C   UNL A   1      32.918  24.491  22.080  1.00  0.00     0.008 C 
ENDBRANCH   7  10
ENDBRANCH   4   6
ENDBRANCH   3   4
ENDBRANCH   2   3
ENDBRANCH   1   2
BRANCH   1  14
ATOM     14  O   UNL A   1      32.345  30.509  27.031  1.00  0.00    -0.458 OA
BRANCH  14  15
ATOM     15  C   UNL A   1      33.051  31.635  27.277  1.00  0.00     0.338 C 
ATOM     16  O   UNL A   1      32.628  32.780  27.306  1.00  0.00    -0.246 OA
BRANCH  15  17
ATOM     17  C   UNL A   1      34.429  31.298  27.662  1.00  0.00     0.060 A 
ATOM     18  C   UNL A   1      34.694  29.971  27.974  1.00  0.00     0.016 A 
ATOM     19  C   UNL A   1      35.394  32.276  27.889  1.00  0.00     0.016 A 
ATOM     20  C   UNL A   1      35.882  29.626  28.603  1.00  0.00     0.010 A 
ATOM     21  C   UNL A   1      36.619  31.913  28.475  1.00  0.00     0.010 A 
ATOM     22  C   UNL A   1      36.855  30.589  28.889  1.00  0.00    -0.014 A 
BRANCH  22  23
ATOM     23  C   UNL A   1      38.048  30.189  29.692  1.00  0.00     0.031 A 
ATOM     24  C   UNL A   1      39.099  29.279  29.099  1.00  0.00     0.074 A 
ATOM     25  C   UNL A   1      38.247  30.706  30.924  1.00  0.00     0.049 A 
ATOM     26  N   UNL A   1      40.160  28.763  29.664  1.00  0.00    -0.248 NA
ATOM     27  C   UNL A   1      38.936  28.899  27.685  1.00  0.00     0.031 C 
ATOM     28  C   UNL A   1      37.351  31.645  31.604  1.00  0.00     0.029 A 
ATOM     29  N   UNL A   1      39.273  30.526  31.821  1.00  0.00    -0.354 N 
ATOM     30  C   UNL A   1      40.751  27.949  28.703  1.00  0.00     0.074 A 
ATOM     31  C   UNL A   1      39.933  28.044  27.514  1.00  0.00     0.031 C 
ATOM     32  C   UNL A   1      37.875  31.976  32.793  1.00  0.00     0.029 A 
ATOM     33  C   UNL A   1      39.094  31.205  33.005  1.00  0.00     0.049 A 
ATOM     34  H   UNL A   1      40.060  29.964  31.635  1.00  0.00     0.167 HD
ATOM     35  C   UNL A   1      41.876  27.199  28.796  1.00  0.00     0.034 A 
ATOM     36  C   UNL A   1      39.795  31.175  34.155  1.00  0.00     0.034 A 
ATOM     37  C   UNL A   1      42.723  27.150  29.959  1.00  0.00     0.049 A 
ATOM     38  C   UNL A   1      41.012  30.296  34.245  1.00  0.00     0.074 A 
ATOM     39  C   UNL A   1      43.894  26.432  30.139  1.00  0.00     0.029 A 
ATOM     40  N   UNL A   1      42.499  27.846  31.136  1.00  0.00    -0.354 N 
ATOM     41  N   UNL A   1      41.569  29.556  33.317  1.00  0.00    -0.248 NA
ATOM     42  C   UNL A   1      41.708  30.258  35.540  1.00  0.00     0.031 C 
ATOM     43  C   UNL A   1      44.358  26.667  31.438  1.00  0.00     0.029 A 
ATOM     44  C   UNL A   1      43.500  27.566  32.050  1.00  0.00     0.049 A 
ATOM     45  H   UNL A   1      41.738  28.450  31.298  1.00  0.00     0.167 HD
ATOM     46  C   UNL A   1      42.694  28.992  33.905  1.00  0.00     0.074 A 
ATOM     47  C   UNL A   1      42.757  29.499  35.261  1.00  0.00     0.031 C 
ATOM     48  C   UNL A   1      43.586  28.118  33.378  1.00  0.00     0.034 A 
BRANCH  35  49
ATOM     49  C   UNL A   1      42.270  26.359  27.607  1.00  0.00     0.023 A 
ATOM     50  C   UNL A   1      43.102  26.894  26.605  1.00  0.00     0.012 A 
ATOM     51  C   UNL A   1      41.875  25.007  27.527  1.00  0.00     0.148 A 
ATOM     52  C   UNL A   1      43.511  26.108  25.526  1.00  0.00     0.002 A 
ATOM     53  C   UNL A   1      42.325  24.217  26.476  1.00  0.00     0.091 A 
ATOM     54  F   UNL A   1      41.072  24.519  28.483  1.00  0.00    -0.205 F 
ATOM     55  C   UNL A   1      43.133  24.769  25.468  1.00  0.00     0.022 A 
BRANCH  53  56
ATOM     56  S   UNL A   1      41.962  22.462  26.354  1.00  0.00     0.127 S 
ATOM     57  O   UNL A   1      40.503  22.468  26.266  1.00  0.00    -0.237 OA
ATOM     58  O   UNL A   1      42.646  22.093  25.114  1.00  0.00    -0.237 OA
ATOM     59  O   UNL A   1      42.509  21.851  27.557  1.00  0.00    -0.744 OA
ENDBRANCH  53  56
ENDBRANCH  35  49
BRANCH  36  60
ATOM     60  C   UNL A   1      39.350  31.978  35.332  1.00  0.00     0.023 A 
ATOM     61  C   UNL A   1      38.487  31.406  36.286  1.00  0.00     0.012 A 
ATOM     62  C   UNL A   1      39.769  33.313  35.499  1.00  0.00     0.148 A 
ATOM     63  C   UNL A   1      38.018  32.162  37.363  1.00  0.00     0.002 A 
ATOM     64  C   UNL A   1      39.353  34.037  36.608  1.00  0.00     0.091 A 
ATOM     65  F   UNL A   1      40.571  33.850  34.568  1.00  0.00    -0.205 F 
ATOM     66  C   UNL A   1      38.460  33.472  37.530  1.00  0.00     0.022 A 
BRANCH  64  67
ATOM     67  S   UNL A   1      39.981  35.680  36.971  1.00  0.00     0.127 S 
ATOM     68  O   UNL A   1      39.273  36.004  38.206  1.00  0.00    -0.237 OA
ATOM     69  O   UNL A   1      41.414  35.427  37.130  1.00  0.00    -0.237 OA
ATOM     70  O   UNL A   1      39.642  36.494  35.812  1.00  0.00    -0.744 OA
ENDBRANCH  64  67
ENDBRANCH  36  60
BRANCH  48  71
ATOM     71  C   UNL A   1      44.742  27.692  34.245  1.00  0.00     0.023 A 
ATOM     72  C   UNL A   1      45.928  28.452  34.265  1.00  0.00     0.012 A 
ATOM     73  C   UNL A   1      44.628  26.566  35.083  1.00  0.00     0.148 A 
ATOM     74  C   UNL A   1      46.998  28.075  35.076  1.00  0.00     0.002 A 
ATOM     75  C   UNL A   1      45.678  26.227  35.929  1.00  0.00     0.091 A 
ATOM     76  F   UNL A   1      43.498  25.846  35.038  1.00  0.00    -0.205 F 
ATOM     77  C   UNL A   1      46.869  26.970  35.916  1.00  0.00     0.022 A 
BRANCH  75  78
ATOM     78  S   UNL A   1      45.566  24.882  37.114  1.00  0.00     0.127 S 
ATOM     79  O   UNL A   1      45.423  23.723  36.236  1.00  0.00    -0.237 OA
ATOM     80  O   UNL A   1      46.855  24.971  37.803  1.00  0.00    -0.237 OA
ATOM     81  O   UNL A   1      44.411  25.175  37.952  1.00  0.00    -0.744 OA
ENDBRANCH  75  78
ENDBRANCH  48  71
ENDBRANCH  22  23
ENDBRANCH  15  17
ENDBRANCH  14  15
ENDBRANCH   1  14
TORSDOF 15
ENDMDL
