MODEL 1
REMARK VINA RESULT:     -11.0      0.000      0.000
REMARK SMILES C[C@@H]1CCC[C@](C#N)([C@H](O)C(=O)OCCOC(=O)c2ccc(-c3c4nc(c(-c5cccc(S(=O)(=O)[O-])c5F)c5ccc([nH]5)c(-c5cccc(S(=O)(=O)[O-])c5F)c5nc(c(-c6cccc(S(=O)(=O)[O-])c6F)c6ccc3[nH]6)C=C5)C=C4)cc2)C1
REMARK SMILES IDX 15 1 14 2 13 3 11 4 12 5 9 6 6 7 1 8 2 9 3 10 82 11 4 12
REMARK SMILES IDX 5 13 7 14 8 15 10 16 16 18 17 19 18 20 19 21 20 22 81 23
REMARK SMILES IDX 21 24 80 25 22 26 23 27 24 28 74 29 25 30 79 31 73 32 75 33
REMARK SMILES IDX 26 34 78 35 72 36 71 37 27 39 59 40 39 41 58 42 40 43 43 44
REMARK SMILES IDX 57 45 76 46 41 47 42 48 56 50 77 51 44 52 28 53 29 54 37 55
REMARK SMILES IDX 30 56 32 57 38 58 31 59 33 60 34 61 35 62 36 63 60 64 61 65
REMARK SMILES IDX 69 66 62 67 64 68 70 69 63 70 65 71 66 72 67 73 68 74 45 75
REMARK SMILES IDX 46 76 54 77 47 78 49 79 55 80 48 81 50 82 51 83 52 84 53 85
REMARK H PARENT 10 17 75 38 43 49
REMARK Flexibility Score: inf
ROOT
ATOM      1  C   UNL A   1      31.555  30.493  25.790  1.00  0.00     0.275 C 
ENDROOT
BRANCH   1   2
ATOM      2  C   UNL A   1      31.579  29.326  24.800  1.00  0.00     0.274 C 
BRANCH   2   3
ATOM      3  O   UNL A   1      32.912  29.050  24.324  1.00  0.00    -0.460 OA
BRANCH   3   4
ATOM      4  C   UNL A   1      33.016  28.487  23.098  1.00  0.00     0.336 C 
ATOM      5  O   UNL A   1      33.744  28.900  22.201  1.00  0.00    -0.249 OA
BRANCH   4   6
ATOM      6  C   UNL A   1      31.969  27.394  22.839  1.00  0.00     0.244 C 
BRANCH   6   7
ATOM      7  C   UNL A   1      32.379  25.902  22.662  1.00  0.00     0.094 C 
ATOM      8  C   UNL A   1      29.921  26.031  24.984  1.00  0.00     0.008 C 
ATOM      9  C   UNL A   1      30.777  24.866  24.475  1.00  0.00    -0.013 C 
ATOM     10  C   UNL A   1      32.002  24.622  25.369  1.00  0.00     0.003 C 
ATOM     11  C   UNL A   1      31.162  24.977  22.986  1.00  0.00     0.029 C 
ATOM     12  C   UNL A   1      33.203  25.504  25.039  1.00  0.00     0.002 C 
ATOM     13  C   UNL A   1      33.546  25.434  23.556  1.00  0.00     0.026 C 
BRANCH   7  14
ATOM     14  C   UNL A   1      32.744  25.615  21.248  1.00  0.00     0.072 C 
ATOM     15  N   UNL A   1      32.944  25.428  20.124  1.00  0.00    -0.198 NA
ENDBRANCH   7  14
ENDBRANCH   6   7
BRANCH   6  16
ATOM     16  O   UNL A   1      31.101  27.789  21.759  1.00  0.00    -0.380 OA
ATOM     17  H   UNL A   1      31.409  27.385  20.932  1.00  0.00     0.211 HD
ENDBRANCH   6  16
ENDBRANCH   4   6
ENDBRANCH   3   4
ENDBRANCH   2   3
ENDBRANCH   1   2
BRANCH   1  18
ATOM     18  O   UNL A   1      32.584  30.360  26.785  1.00  0.00    -0.458 OA
BRANCH  18  19
ATOM     19  C   UNL A   1      33.178  31.526  27.140  1.00  0.00     0.338 C 
ATOM     20  O   UNL A   1      32.656  32.628  27.143  1.00  0.00    -0.246 OA
BRANCH  19  21
ATOM     21  C   UNL A   1      34.505  31.255  27.710  1.00  0.00     0.060 A 
ATOM     22  C   UNL A   1      34.779  29.958  28.148  1.00  0.00     0.016 A 
ATOM     23  C   UNL A   1      35.435  32.273  27.901  1.00  0.00     0.016 A 
ATOM     24  C   UNL A   1      35.957  29.664  28.811  1.00  0.00     0.010 A 
ATOM     25  C   UNL A   1      36.639  31.973  28.543  1.00  0.00     0.010 A 
ATOM     26  C   UNL A   1      36.897  30.671  29.014  1.00  0.00    -0.014 A 
BRANCH  26  27
ATOM     27  C   UNL A   1      38.127  30.364  29.772  1.00  0.00     0.031 A 
ATOM     28  C   UNL A   1      39.149  29.452  29.169  1.00  0.00     0.074 A 
ATOM     29  C   UNL A   1      38.312  30.914  30.986  1.00  0.00     0.049 A 
ATOM     30  N   UNL A   1      40.212  28.928  29.717  1.00  0.00    -0.248 NA
ATOM     31  C   UNL A   1      38.941  29.068  27.763  1.00  0.00     0.031 C 
ATOM     32  C   UNL A   1      37.405  31.865  31.631  1.00  0.00     0.029 A 
ATOM     33  N   UNL A   1      39.316  30.735  31.901  1.00  0.00    -0.354 N 
ATOM     34  C   UNL A   1      40.769  28.106  28.746  1.00  0.00     0.074 A 
ATOM     35  C   UNL A   1      39.925  28.200  27.575  1.00  0.00     0.031 C 
ATOM     36  C   UNL A   1      37.887  32.176  32.845  1.00  0.00     0.029 A 
ATOM     37  C   UNL A   1      39.098  31.399  33.084  1.00  0.00     0.049 A 
ATOM     38  H   UNL A   1      40.114  30.185  31.728  1.00  0.00     0.167 HD
ATOM     39  C   UNL A   1      41.887  27.347  28.829  1.00  0.00     0.034 A 
ATOM     40  C   UNL A   1      39.778  31.350  34.244  1.00  0.00     0.034 A 
ATOM     41  C   UNL A   1      42.728  27.298  29.996  1.00  0.00     0.049 A 
ATOM     42  C   UNL A   1      40.989  30.462  34.326  1.00  0.00     0.074 A 
ATOM     43  C   UNL A   1      43.894  26.581  30.190  1.00  0.00     0.029 A 
ATOM     44  N   UNL A   1      42.489  27.999  31.171  1.00  0.00    -0.354 N 
ATOM     45  N   UNL A   1      41.530  29.715  33.394  1.00  0.00    -0.248 NA
ATOM     46  C   UNL A   1      41.695  30.424  35.613  1.00  0.00     0.031 C 
ATOM     47  C   UNL A   1      44.344  26.826  31.493  1.00  0.00     0.029 A 
ATOM     48  C   UNL A   1      43.480  27.726  32.098  1.00  0.00     0.049 A 
ATOM     49  H   UNL A   1      41.727  28.603  31.322  1.00  0.00     0.167 HD
ATOM     50  C   UNL A   1      42.661  29.147  33.968  1.00  0.00     0.074 A 
ATOM     51  C   UNL A   1      42.734  29.653  35.325  1.00  0.00     0.031 C 
ATOM     52  C   UNL A   1      43.554  28.281  33.428  1.00  0.00     0.034 A 
BRANCH  39  53
ATOM     53  C   UNL A   1      42.253  26.513  27.629  1.00  0.00     0.023 A 
ATOM     54  C   UNL A   1      42.959  27.092  26.555  1.00  0.00     0.012 A 
ATOM     55  C   UNL A   1      41.908  25.148  27.569  1.00  0.00     0.148 A 
ATOM     56  C   UNL A   1      43.272  26.342  25.421  1.00  0.00     0.002 A 
ATOM     57  C   UNL A   1      42.266  24.393  26.457  1.00  0.00     0.091 A 
ATOM     58  F   UNL A   1      41.217  24.616  28.588  1.00  0.00    -0.205 F 
ATOM     59  C   UNL A   1      42.934  24.992  25.377  1.00  0.00     0.022 A 
BRANCH  57  60
ATOM     60  S   UNL A   1      41.945  22.630  26.340  1.00  0.00     0.127 S 
ATOM     61  O   UNL A   1      40.483  22.594  26.347  1.00  0.00    -0.237 OA
ATOM     62  O   UNL A   1      42.556  22.290  25.054  1.00  0.00    -0.237 OA
ATOM     63  O   UNL A   1      42.591  22.025  27.496  1.00  0.00    -0.744 OA
ENDBRANCH  57  60
ENDBRANCH  39  53
BRANCH  40  64
ATOM     64  C   UNL A   1      39.343  32.181  35.402  1.00  0.00     0.023 A 
ATOM     65  C   UNL A   1      38.473  31.624  36.358  1.00  0.00     0.012 A 
ATOM     66  C   UNL A   1      39.811  33.497  35.583  1.00  0.00     0.148 A 
ATOM     67  C   UNL A   1      38.053  32.372  37.458  1.00  0.00     0.002 A 
ATOM     68  C   UNL A   1      39.433  34.218  36.710  1.00  0.00     0.091 A 
ATOM     69  F   UNL A   1      40.631  34.014  34.657  1.00  0.00    -0.205 F 
ATOM     70  C   UNL A   1      38.541  33.663  37.640  1.00  0.00     0.022 A 
BRANCH  68  71
ATOM     71  S   UNL A   1      40.106  35.839  37.096  1.00  0.00     0.127 S 
ATOM     72  O   UNL A   1      39.685  36.620  35.935  1.00  0.00    -0.237 OA
ATOM     73  O   UNL A   1      39.410  36.165  38.342  1.00  0.00    -0.237 OA
ATOM     74  O   UNL A   1      41.542  35.648  37.241  1.00  0.00    -0.744 OA
ENDBRANCH  68  71
ENDBRANCH  40  64
BRANCH  52  75
ATOM     75  C   UNL A   1      44.716  27.861  34.290  1.00  0.00     0.023 A 
ATOM     76  C   UNL A   1      45.902  28.620  34.292  1.00  0.00     0.012 A 
ATOM     77  C   UNL A   1      44.601  26.750  35.150  1.00  0.00     0.148 A 
ATOM     78  C   UNL A   1      46.972  28.257  35.111  1.00  0.00     0.002 A 
ATOM     79  C   UNL A   1      45.649  26.428  36.000  1.00  0.00     0.091 A 
ATOM     80  F   UNL A   1      43.469  26.032  35.117  1.00  0.00    -0.205 F 
ATOM     81  C   UNL A   1      46.841  27.170  35.973  1.00  0.00     0.022 A 
BRANCH  79  82
ATOM     82  S   UNL A   1      45.534  25.109  37.214  1.00  0.00     0.127 S 
ATOM     83  O   UNL A   1      46.853  25.165  37.842  1.00  0.00    -0.237 OA
ATOM     84  O   UNL A   1      44.434  25.567  38.064  1.00  0.00    -0.237 OA
ATOM     85  O   UNL A   1      45.251  23.893  36.463  1.00  0.00    -0.744 OA
ENDBRANCH  79  82
ENDBRANCH  52  75
ENDBRANCH  26  27
ENDBRANCH  19  21
ENDBRANCH  18  19
ENDBRANCH   1  18
TORSDOF 17
ENDMDL
MODEL 2
REMARK VINA RESULT:     -10.9      5.271     10.213
REMARK SMILES C[C@@H]1CCC[C@](C#N)([C@H](O)C(=O)OCCOC(=O)c2ccc(-c3c4nc(c(-c5cccc(S(=O)(=O)[O-])c5F)c5ccc([nH]5)c(-c5cccc(S(=O)(=O)[O-])c5F)c5nc(c(-c6cccc(S(=O)(=O)[O-])c6F)c6ccc3[nH]6)C=C5)C=C4)cc2)C1
REMARK SMILES IDX 15 1 14 2 13 3 11 4 12 5 9 6 6 7 1 8 2 9 3 10 82 11 4 12
REMARK SMILES IDX 5 13 7 14 8 15 10 16 16 18 17 19 18 20 19 21 20 22 81 23
REMARK SMILES IDX 21 24 80 25 22 26 23 27 24 28 74 29 25 30 79 31 73 32 75 33
REMARK SMILES IDX 26 34 78 35 72 36 71 37 27 39 59 40 39 41 58 42 40 43 43 44
REMARK SMILES IDX 57 45 76 46 41 47 42 48 56 50 77 51 44 52 28 53 29 54 37 55
REMARK SMILES IDX 30 56 32 57 38 58 31 59 33 60 34 61 35 62 36 63 60 64 61 65
REMARK SMILES IDX 69 66 62 67 64 68 70 69 63 70 65 71 66 72 67 73 68 74 45 75
REMARK SMILES IDX 46 76 54 77 47 78 49 79 55 80 48 81 50 82 51 83 52 84 53 85
REMARK H PARENT 10 17 75 38 43 49
REMARK Flexibility Score: inf
ROOT
ATOM      1  C   UNL A   1      36.493  21.037  24.865  1.00  0.00     0.275 C 
ENDROOT
BRANCH   1   2
ATOM      2  C   UNL A   1      34.987  21.221  25.064  1.00  0.00     0.274 C 
BRANCH   2   3
ATOM      3  O   UNL A   1      34.599  21.046  26.441  1.00  0.00    -0.460 OA
BRANCH   3   4
ATOM      4  C   UNL A   1      33.508  21.730  26.858  1.00  0.00     0.336 C 
ATOM      5  O   UNL A   1      33.257  21.995  28.029  1.00  0.00    -0.249 OA
BRANCH   4   6
ATOM      6  C   UNL A   1      32.476  21.965  25.745  1.00  0.00     0.244 C 
BRANCH   6   7
ATOM      7  C   UNL A   1      31.700  23.310  25.629  1.00  0.00     0.094 C 
ATOM      8  C   UNL A   1      32.720  22.432  22.525  1.00  0.00     0.008 C 
ATOM      9  C   UNL A   1      32.012  23.688  23.043  1.00  0.00    -0.013 C 
ATOM     10  C   UNL A   1      33.006  24.815  23.362  1.00  0.00     0.003 C 
ATOM     11  C   UNL A   1      31.046  23.422  24.214  1.00  0.00     0.029 C 
ATOM     12  C   UNL A   1      33.627  24.726  24.753  1.00  0.00     0.002 C 
ATOM     13  C   UNL A   1      32.556  24.578  25.826  1.00  0.00     0.026 C 
BRANCH   7  14
ATOM     14  C   UNL A   1      30.576  23.362  26.603  1.00  0.00     0.072 C 
ATOM     15  N   UNL A   1      29.666  23.328  27.316  1.00  0.00    -0.198 NA
ENDBRANCH   7  14
ENDBRANCH   6   7
BRANCH   6  16
ATOM     16  O   UNL A   1      31.547  20.864  25.693  1.00  0.00    -0.380 OA
ATOM     17  H   UNL A   1      31.802  20.260  24.978  1.00  0.00     0.211 HD
ENDBRANCH   6  16
ENDBRANCH   4   6
ENDBRANCH   3   4
ENDBRANCH   2   3
ENDBRANCH   1   2
BRANCH   1  18
ATOM     18  O   UNL A   1      37.225  21.354  26.063  1.00  0.00    -0.458 OA
BRANCH  18  19
ATOM     19  C   UNL A   1      38.568  21.213  25.955  1.00  0.00     0.338 C 
ATOM     20  O   UNL A   1      39.154  20.335  25.346  1.00  0.00    -0.246 OA
BRANCH  19  21
ATOM     21  C   UNL A   1      39.239  22.389  26.527  1.00  0.00     0.060 A 
ATOM     22  C   UNL A   1      38.811  23.653  26.116  1.00  0.00     0.016 A 
ATOM     23  C   UNL A   1      40.331  22.260  27.379  1.00  0.00     0.016 A 
ATOM     24  C   UNL A   1      39.480  24.796  26.513  1.00  0.00     0.010 A 
ATOM     25  C   UNL A   1      40.992  23.414  27.807  1.00  0.00     0.010 A 
ATOM     26  C   UNL A   1      40.579  24.685  27.363  1.00  0.00    -0.014 A 
BRANCH  26  27
ATOM     27  C   UNL A   1      41.324  25.903  27.737  1.00  0.00     0.031 A 
ATOM     28  C   UNL A   1      40.636  26.965  28.537  1.00  0.00     0.074 A 
ATOM     29  C   UNL A   1      42.609  26.036  27.361  1.00  0.00     0.049 A 
ATOM     30  N   UNL A   1      41.045  28.169  28.835  1.00  0.00    -0.248 NA
ATOM     31  C   UNL A   1      39.301  26.632  29.063  1.00  0.00     0.031 C 
ATOM     32  C   UNL A   1      43.387  25.030  26.636  1.00  0.00     0.029 A 
ATOM     33  N   UNL A   1      43.480  27.082  27.521  1.00  0.00    -0.354 N 
ATOM     34  C   UNL A   1      39.999  28.760  29.531  1.00  0.00     0.074 A 
ATOM     35  C   UNL A   1      38.935  27.782  29.610  1.00  0.00     0.031 C 
ATOM     36  C   UNL A   1      44.617  25.513  26.401  1.00  0.00     0.029 A 
ATOM     37  C   UNL A   1      44.690  26.881  26.902  1.00  0.00     0.049 A 
ATOM     38  H   UNL A   1      43.260  27.897  28.029  1.00  0.00     0.167 HD
ATOM     39  C   UNL A   1      39.939  30.005  30.059  1.00  0.00     0.034 A 
ATOM     40  C   UNL A   1      45.723  27.724  26.722  1.00  0.00     0.034 A 
ATOM     41  C   UNL A   1      41.026  30.946  29.996  1.00  0.00     0.049 A 
ATOM     42  C   UNL A   1      45.613  29.118  27.277  1.00  0.00     0.074 A 
ATOM     43  C   UNL A   1      41.088  32.228  30.510  1.00  0.00     0.029 A 
ATOM     44  N   UNL A   1      42.246  30.704  29.378  1.00  0.00    -0.354 N 
ATOM     45  N   UNL A   1      44.636  29.659  27.964  1.00  0.00    -0.248 NA
ATOM     46  C   UNL A   1      46.755  30.012  27.047  1.00  0.00     0.031 C 
ATOM     47  C   UNL A   1      42.334  32.771  30.177  1.00  0.00     0.029 A 
ATOM     48  C   UNL A   1      43.065  31.814  29.489  1.00  0.00     0.049 A 
ATOM     49  H   UNL A   1      42.492  29.864  28.928  1.00  0.00     0.167 HD
ATOM     50  C   UNL A   1      45.059  30.944  28.283  1.00  0.00     0.074 A 
ATOM     51  C   UNL A   1      46.389  31.091  27.726  1.00  0.00     0.031 C 
ATOM     52  C   UNL A   1      44.405  31.917  28.966  1.00  0.00     0.034 A 
BRANCH  39  53
ATOM     53  C   UNL A   1      38.659  30.412  30.740  1.00  0.00     0.023 A 
ATOM     54  C   UNL A   1      38.436  30.067  32.090  1.00  0.00     0.012 A 
ATOM     55  C   UNL A   1      37.676  31.147  30.048  1.00  0.00     0.148 A 
ATOM     56  C   UNL A   1      37.240  30.405  32.724  1.00  0.00     0.002 A 
ATOM     57  C   UNL A   1      36.507  31.523  30.700  1.00  0.00     0.091 A 
ATOM     58  F   UNL A   1      37.891  31.448  28.759  1.00  0.00    -0.205 F 
ATOM     59  C   UNL A   1      36.281  31.139  32.032  1.00  0.00     0.022 A 
BRANCH  57  60
ATOM     60  S   UNL A   1      35.246  32.536  29.919  1.00  0.00     0.127 S 
ATOM     61  O   UNL A   1      36.036  33.661  29.419  1.00  0.00    -0.237 OA
ATOM     62  O   UNL A   1      34.733  31.643  28.880  1.00  0.00    -0.237 OA
ATOM     63  O   UNL A   1      34.287  32.862  30.965  1.00  0.00    -0.744 OA
ENDBRANCH  57  60
ENDBRANCH  39  53
BRANCH  40  64
ATOM     64  C   UNL A   1      46.950  27.265  26.013  1.00  0.00     0.023 A 
ATOM     65  C   UNL A   1      47.081  27.517  24.634  1.00  0.00     0.012 A 
ATOM     66  C   UNL A   1      47.998  26.616  26.695  1.00  0.00     0.148 A 
ATOM     67  C   UNL A   1      48.219  27.107  23.941  1.00  0.00     0.002 A 
ATOM     68  C   UNL A   1      49.154  26.260  26.009  1.00  0.00     0.091 A 
ATOM     69  F   UNL A   1      47.851  26.375  28.005  1.00  0.00    -0.205 F 
ATOM     70  C   UNL A   1      49.260  26.489  24.629  1.00  0.00     0.022 A 
BRANCH  68  71
ATOM     71  S   UNL A   1      50.596  25.572  26.833  1.00  0.00     0.127 S 
ATOM     72  O   UNL A   1      51.498  25.336  25.708  1.00  0.00    -0.237 OA
ATOM     73  O   UNL A   1      50.990  26.671  27.717  1.00  0.00    -0.237 OA
ATOM     74  O   UNL A   1      50.127  24.381  27.526  1.00  0.00    -0.744 OA
ENDBRANCH  68  71
ENDBRANCH  40  64
BRANCH  52  75
ATOM     75  C   UNL A   1      45.140  33.212  29.191  1.00  0.00     0.023 A 
ATOM     76  C   UNL A   1      45.907  33.394  30.358  1.00  0.00     0.012 A 
ATOM     77  C   UNL A   1      45.121  34.223  28.209  1.00  0.00     0.148 A 
ATOM     78  C   UNL A   1      46.616  34.577  30.562  1.00  0.00     0.002 A 
ATOM     79  C   UNL A   1      45.872  35.375  28.394  1.00  0.00     0.091 A 
ATOM     80  F   UNL A   1      44.369  34.036  27.115  1.00  0.00    -0.205 F 
ATOM     81  C   UNL A   1      46.608  35.562  29.575  1.00  0.00     0.022 A 
BRANCH  79  82
ATOM     82  S   UNL A   1      46.004  36.651  27.137  1.00  0.00     0.127 S 
ATOM     83  O   UNL A   1      46.335  35.867  25.949  1.00  0.00    -0.237 OA
ATOM     84  O   UNL A   1      44.656  37.222  27.134  1.00  0.00    -0.237 OA
ATOM     85  O   UNL A   1      47.045  37.562  27.594  1.00  0.00    -0.744 OA
ENDBRANCH  79  82
ENDBRANCH  52  75
ENDBRANCH  26  27
ENDBRANCH  19  21
ENDBRANCH  18  19
ENDBRANCH   1  18
TORSDOF 17
ENDMDL
MODEL 3
REMARK VINA RESULT:     -10.7      1.446      1.699
REMARK SMILES C[C@@H]1CCC[C@](C#N)([C@H](O)C(=O)OCCOC(=O)c2ccc(-c3c4nc(c(-c5cccc(S(=O)(=O)[O-])c5F)c5ccc([nH]5)c(-c5cccc(S(=O)(=O)[O-])c5F)c5nc(c(-c6cccc(S(=O)(=O)[O-])c6F)c6ccc3[nH]6)C=C5)C=C4)cc2)C1
REMARK SMILES IDX 15 1 14 2 13 3 11 4 12 5 9 6 6 7 1 8 2 9 3 10 82 11 4 12
REMARK SMILES IDX 5 13 7 14 8 15 10 16 16 18 17 19 18 20 19 21 20 22 81 23
REMARK SMILES IDX 21 24 80 25 22 26 23 27 24 28 74 29 25 30 79 31 73 32 75 33
REMARK SMILES IDX 26 34 78 35 72 36 71 37 27 39 59 40 39 41 58 42 40 43 43 44
REMARK SMILES IDX 57 45 76 46 41 47 42 48 56 50 77 51 44 52 28 53 29 54 37 55
REMARK SMILES IDX 30 56 32 57 38 58 31 59 33 60 34 61 35 62 36 63 60 64 61 65
REMARK SMILES IDX 69 66 62 67 64 68 70 69 63 70 65 71 66 72 67 73 68 74 45 75
REMARK SMILES IDX 46 76 54 77 47 78 49 79 55 80 48 81 50 82 51 83 52 84 53 85
REMARK H PARENT 10 17 75 38 43 49
REMARK Flexibility Score: inf
ROOT
ATOM      1  C   UNL A   1      31.783  30.035  25.855  1.00  0.00     0.275 C 
ENDROOT
BRANCH   1   2
ATOM      2  C   UNL A   1      31.685  29.187  24.585  1.00  0.00     0.274 C 
BRANCH   2   3
ATOM      3  O   UNL A   1      32.984  28.832  24.070  1.00  0.00    -0.460 OA
BRANCH   3   4
ATOM      4  C   UNL A   1      33.019  28.267  22.841  1.00  0.00     0.336 C 
ATOM      5  O   UNL A   1      33.676  28.694  21.897  1.00  0.00    -0.249 OA
BRANCH   4   6
ATOM      6  C   UNL A   1      31.981  27.151  22.655  1.00  0.00     0.244 C 
BRANCH   6   7
ATOM      7  C   UNL A   1      32.410  25.666  22.467  1.00  0.00     0.094 C 
ATOM      8  C   UNL A   1      30.093  25.771  24.930  1.00  0.00     0.008 C 
ATOM      9  C   UNL A   1      30.941  24.618  24.383  1.00  0.00    -0.013 C 
ATOM     10  C   UNL A   1      32.221  24.408  25.205  1.00  0.00     0.003 C 
ATOM     11  C   UNL A   1      31.234  24.721  22.873  1.00  0.00     0.029 C 
ATOM     12  C   UNL A   1      33.382  25.310  24.795  1.00  0.00     0.002 C 
ATOM     13  C   UNL A   1      33.638  25.231  23.295  1.00  0.00     0.026 C 
BRANCH   7  14
ATOM     14  C   UNL A   1      32.696  25.371  21.037  1.00  0.00     0.072 C 
ATOM     15  N   UNL A   1      32.885  25.227  19.905  1.00  0.00    -0.198 NA
ENDBRANCH   7  14
ENDBRANCH   6   7
BRANCH   6  16
ATOM     16  O   UNL A   1      31.043  27.517  21.624  1.00  0.00    -0.380 OA
ATOM     17  H   UNL A   1      31.366  27.202  20.765  1.00  0.00     0.211 HD
ENDBRANCH   6  16
ENDBRANCH   4   6
ENDBRANCH   3   4
ENDBRANCH   2   3
ENDBRANCH   1   2
BRANCH   1  18
ATOM     18  O   UNL A   1      33.075  30.656  25.974  1.00  0.00    -0.458 OA
BRANCH  18  19
ATOM     19  C   UNL A   1      33.239  31.403  27.092  1.00  0.00     0.338 C 
ATOM     20  O   UNL A   1      32.388  32.092  27.630  1.00  0.00    -0.246 OA
BRANCH  19  21
ATOM     21  C   UNL A   1      34.552  31.124  27.690  1.00  0.00     0.060 A 
ATOM     22  C   UNL A   1      34.809  29.824  28.131  1.00  0.00     0.016 A 
ATOM     23  C   UNL A   1      35.483  32.136  27.904  1.00  0.00     0.016 A 
ATOM     24  C   UNL A   1      35.970  29.522  28.819  1.00  0.00     0.010 A 
ATOM     25  C   UNL A   1      36.672  31.828  28.571  1.00  0.00     0.010 A 
ATOM     26  C   UNL A   1      36.912  30.523  29.045  1.00  0.00    -0.014 A 
BRANCH  26  27
ATOM     27  C   UNL A   1      38.123  30.207  29.828  1.00  0.00     0.031 A 
ATOM     28  C   UNL A   1      39.165  29.311  29.235  1.00  0.00     0.074 A 
ATOM     29  C   UNL A   1      38.274  30.735  31.057  1.00  0.00     0.049 A 
ATOM     30  N   UNL A   1      40.216  28.782  29.801  1.00  0.00    -0.248 NA
ATOM     31  C   UNL A   1      38.995  28.953  27.817  1.00  0.00     0.031 C 
ATOM     32  C   UNL A   1      37.346  31.670  31.696  1.00  0.00     0.029 A 
ATOM     33  N   UNL A   1      39.255  30.543  31.994  1.00  0.00    -0.354 N 
ATOM     34  C   UNL A   1      40.802  27.980  28.829  1.00  0.00     0.074 A 
ATOM     35  C   UNL A   1      39.988  28.093  27.639  1.00  0.00     0.031 C 
ATOM     36  C   UNL A   1      37.795  31.960  32.927  1.00  0.00     0.029 A 
ATOM     37  C   UNL A   1      39.003  31.184  33.183  1.00  0.00     0.049 A 
ATOM     38  H   UNL A   1      40.060  30.000  31.831  1.00  0.00     0.167 HD
ATOM     39  C   UNL A   1      41.921  27.225  28.927  1.00  0.00     0.034 A 
ATOM     40  C   UNL A   1      39.653  31.116  34.360  1.00  0.00     0.034 A 
ATOM     41  C   UNL A   1      42.732  27.158  30.115  1.00  0.00     0.049 A 
ATOM     42  C   UNL A   1      40.866  30.232  34.456  1.00  0.00     0.074 A 
ATOM     43  C   UNL A   1      43.896  26.443  30.325  1.00  0.00     0.029 A 
ATOM     44  N   UNL A   1      42.459  27.835  31.296  1.00  0.00    -0.354 N 
ATOM     45  N   UNL A   1      41.435  29.505  33.525  1.00  0.00    -0.248 NA
ATOM     46  C   UNL A   1      41.538  30.173  35.761  1.00  0.00     0.031 C 
ATOM     47  C   UNL A   1      44.311  26.665  31.643  1.00  0.00     0.029 A 
ATOM     48  C   UNL A   1      43.427  27.549  32.243  1.00  0.00     0.049 A 
ATOM     49  H   UNL A   1      41.690  28.433  31.439  1.00  0.00     0.167 HD
ATOM     50  C   UNL A   1      42.553  28.931  34.117  1.00  0.00     0.074 A 
ATOM     51  C   UNL A   1      42.589  29.411  35.485  1.00  0.00     0.031 C 
ATOM     52  C   UNL A   1      43.464  28.079  33.584  1.00  0.00     0.034 A 
BRANCH  39  53
ATOM     53  C   UNL A   1      42.322  26.415  27.722  1.00  0.00     0.023 A 
ATOM     54  C   UNL A   1      43.082  27.009  26.693  1.00  0.00     0.012 A 
ATOM     55  C   UNL A   1      41.956  25.059  27.611  1.00  0.00     0.148 A 
ATOM     56  C   UNL A   1      43.429  26.282  25.554  1.00  0.00     0.002 A 
ATOM     57  C   UNL A   1      42.347  24.326  26.496  1.00  0.00     0.091 A 
ATOM     58  F   UNL A   1      41.214  24.514  28.587  1.00  0.00    -0.205 F 
ATOM     59  C   UNL A   1      43.069  24.940  25.460  1.00  0.00     0.022 A 
BRANCH  57  60
ATOM     60  S   UNL A   1      42.000  22.573  26.319  1.00  0.00     0.127 S 
ATOM     61  O   UNL A   1      42.613  22.025  27.528  1.00  0.00    -0.237 OA
ATOM     62  O   UNL A   1      40.536  22.547  26.314  1.00  0.00    -0.237 OA
ATOM     63  O   UNL A   1      42.616  22.165  25.064  1.00  0.00    -0.744 OA
ENDBRANCH  57  60
ENDBRANCH  39  53
BRANCH  40  64
ATOM     64  C   UNL A   1      39.185  31.923  35.521  1.00  0.00     0.023 A 
ATOM     65  C   UNL A   1      39.438  33.308  35.542  1.00  0.00     0.012 A 
ATOM     66  C   UNL A   1      38.463  31.341  36.582  1.00  0.00     0.148 A 
ATOM     67  C   UNL A   1      39.007  34.093  36.610  1.00  0.00     0.002 A 
ATOM     68  C   UNL A   1      37.987  32.139  37.616  1.00  0.00     0.091 A 
ATOM     69  F   UNL A   1      38.240  30.020  36.550  1.00  0.00    -0.205 F 
ATOM     70  C   UNL A   1      38.273  33.513  37.640  1.00  0.00     0.022 A 
BRANCH  68  71
ATOM     71  S   UNL A   1      36.929  31.505  38.922  1.00  0.00     0.127 S 
ATOM     72  O   UNL A   1      36.748  30.114  38.511  1.00  0.00    -0.237 OA
ATOM     73  O   UNL A   1      37.768  31.693  40.107  1.00  0.00    -0.237 OA
ATOM     74  O   UNL A   1      35.730  32.331  38.897  1.00  0.00    -0.744 OA
ENDBRANCH  68  71
ENDBRANCH  40  64
BRANCH  52  75
ATOM     75  C   UNL A   1      44.605  27.648  34.468  1.00  0.00     0.023 A 
ATOM     76  C   UNL A   1      45.766  28.440  34.556  1.00  0.00     0.012 A 
ATOM     77  C   UNL A   1      44.492  26.491  35.264  1.00  0.00     0.148 A 
ATOM     78  C   UNL A   1      46.815  28.066  35.396  1.00  0.00     0.002 A 
ATOM     79  C   UNL A   1      45.517  26.154  36.137  1.00  0.00     0.091 A 
ATOM     80  F   UNL A   1      43.385  25.742  35.151  1.00  0.00    -0.205 F 
ATOM     81  C   UNL A   1      46.686  26.932  36.195  1.00  0.00     0.022 A 
BRANCH  79  82
ATOM     82  S   UNL A   1      45.398  24.770  37.276  1.00  0.00     0.127 S 
ATOM     83  O   UNL A   1      46.678  24.849  37.977  1.00  0.00    -0.237 OA
ATOM     84  O   UNL A   1      44.235  25.137  38.085  1.00  0.00    -0.237 OA
ATOM     85  O   UNL A   1      45.210  23.584  36.451  1.00  0.00    -0.744 OA
ENDBRANCH  79  82
ENDBRANCH  52  75
ENDBRANCH  26  27
ENDBRANCH  19  21
ENDBRANCH  18  19
ENDBRANCH   1  18
TORSDOF 17
ENDMDL
