MODEL 1
REMARK VINA RESULT:     -12.7      0.000      0.000
REMARK SMILES CC(C)[C@H](NC(=O)N1c2ccccc2N=C(OCCOC(=O)c2ccc(-c3c4nc(c(-c5cccc(S(=O)(=O)[O-])c5F)c5ccc([nH]5)c(-c5cccc(S(=O)(=O)[O-])c5F)c5nc(c(-c6cccc(S(=O)(=O)[O-])c6F)c6ccc3[nH]6)C=C5)C=C4)cc2)[C@@H]1C(C)C)C(=O)N1CCC(C(=O)[O-])CC1
REMARK SMILES IDX 18 1 17 2 16 3 8 4 9 5 86 6 10 7 14 8 11 9 13 10 15 11 12 12
REMARK SMILES IDX 6 13 5 14 7 16 4 17 2 18 1 19 3 20 90 21 91 22 92 23 93 24
REMARK SMILES IDX 100 25 94 26 99 27 95 28 96 29 97 30 98 31 87 32 88 33 89 34
REMARK SMILES IDX 19 35 20 36 21 37 22 38 23 39 24 40 85 41 25 42 84 43 26 44
REMARK SMILES IDX 27 45 28 46 78 47 29 48 83 49 77 50 79 51 30 52 82 53 76 54
REMARK SMILES IDX 75 55 31 57 63 58 43 59 62 60 44 61 47 62 61 63 80 64 45 65
REMARK SMILES IDX 46 66 60 68 81 69 48 70 32 71 33 72 41 73 34 74 36 75 42 76
REMARK SMILES IDX 35 77 37 78 38 79 39 80 40 81 64 82 65 83 73 84 66 85 68 86
REMARK SMILES IDX 74 87 67 88 69 89 70 90 71 91 72 92 49 93 50 94 58 95 51 96
REMARK SMILES IDX 53 97 59 98 52 99 54 100 55 101 56 102 57 103
REMARK H PARENT 5 15 79 56 47 67
REMARK Flexibility Score: inf
ROOT
ATOM      1  C   UNL A   1      35.268  22.544  26.129  1.00  0.00     0.272 C 
ENDROOT
BRANCH   1   2
ATOM      2  O   UNL A   1      34.231  23.263  25.405  1.00  0.00    -0.476 OA
BRANCH   2   3
ATOM      3  C   UNL A   1      33.785  24.417  25.950  1.00  0.00     0.212 C 
ATOM      4  N   UNL A   1      31.688  25.607  25.912  1.00  0.00    -0.280 N 
ATOM      5  C   UNL A   1      32.467  26.811  26.233  1.00  0.00     0.072 A 
ATOM      6  C   UNL A   1      32.366  24.432  26.553  1.00  0.00     0.181 C 
ATOM      7  C   UNL A   1      31.912  28.087  26.349  1.00  0.00     0.029 A 
ATOM      8  C   UNL A   1      33.889  26.678  26.300  1.00  0.00     0.091 A 
ATOM      9  C   UNL A   1      32.749  29.206  26.482  1.00  0.00     0.002 A 
ATOM     10  C   UNL A   1      34.707  27.802  26.429  1.00  0.00     0.030 A 
ATOM     11  N   UNL A   1      34.531  25.472  25.961  1.00  0.00    -0.214 NA
ATOM     12  C   UNL A   1      34.138  29.067  26.509  1.00  0.00     0.002 A 
BRANCH   4  13
ATOM     13  C   UNL A   1      30.320  25.677  25.796  1.00  0.00     0.323 C 
ATOM     14  N   UNL A   1      29.757  25.975  24.574  1.00  0.00    -0.326 N 
ATOM     15  H   UNL A   1      29.112  25.322  24.218  1.00  0.00     0.166 HD
ATOM     16  O   UNL A   1      29.557  25.360  26.712  1.00  0.00    -0.248 OA
BRANCH  14  17
ATOM     17  C   UNL A   1      30.016  27.168  23.738  1.00  0.00     0.175 C 
BRANCH  17  18
ATOM     18  C   UNL A   1      31.000  26.991  22.549  1.00  0.00     0.015 C 
ATOM     19  C   UNL A   1      32.372  27.653  22.643  1.00  0.00     0.010 C 
ATOM     20  C   UNL A   1      31.203  25.484  22.291  1.00  0.00     0.010 C 
ENDBRANCH  17  18
BRANCH  17  21
ATOM     21  C   UNL A   1      28.772  27.988  23.226  1.00  0.00     0.245 C 
ATOM     22  O   UNL A   1      27.637  27.529  23.392  1.00  0.00    -0.272 OA
ATOM     23  N   UNL A   1      28.936  29.327  22.898  1.00  0.00    -0.341 N 
ATOM     24  C   UNL A   1      28.072  30.312  23.559  1.00  0.00     0.120 C 
ATOM     25  C   UNL A   1      29.942  29.843  21.986  1.00  0.00     0.120 C 
ATOM     26  C   UNL A   1      27.450  31.306  22.598  1.00  0.00     0.031 C 
ATOM     27  C   UNL A   1      29.297  30.772  20.959  1.00  0.00     0.031 C 
ATOM     28  C   UNL A   1      28.504  31.885  21.653  1.00  0.00     0.038 C 
BRANCH  28  29
ATOM     29  C   UNL A   1      27.862  32.796  20.643  1.00  0.00     0.045 C 
ATOM     30  O   UNL A   1      27.316  33.864  20.894  1.00  0.00    -0.550 OA
ATOM     31  O   UNL A   1      27.942  32.347  19.380  1.00  0.00    -0.550 OA
ENDBRANCH  28  29
ENDBRANCH  17  21
ENDBRANCH  14  17
ENDBRANCH   4  13
BRANCH   6  32
ATOM     32  C   UNL A   1      31.652  23.067  26.748  1.00  0.00     0.015 C 
ATOM     33  C   UNL A   1      31.602  22.313  25.396  1.00  0.00     0.010 C 
ATOM     34  C   UNL A   1      32.402  22.124  27.707  1.00  0.00     0.010 C 
ENDBRANCH   6  32
ENDBRANCH   2   3
ENDBRANCH   1   2
BRANCH   1  35
ATOM     35  C   UNL A   1      35.942  21.435  25.312  1.00  0.00     0.274 C 
BRANCH  35  36
ATOM     36  O   UNL A   1      37.248  21.834  24.829  1.00  0.00    -0.458 OA
BRANCH  36  37
ATOM     37  C   UNL A   1      38.280  21.454  25.621  1.00  0.00     0.338 C 
ATOM     38  O   UNL A   1      38.740  20.323  25.666  1.00  0.00    -0.246 OA
BRANCH  37  39
ATOM     39  C   UNL A   1      38.925  22.575  26.359  1.00  0.00     0.060 A 
ATOM     40  C   UNL A   1      38.493  23.852  26.044  1.00  0.00     0.016 A 
ATOM     41  C   UNL A   1      40.139  22.452  27.035  1.00  0.00     0.016 A 
ATOM     42  C   UNL A   1      39.221  24.995  26.370  1.00  0.00     0.010 A 
ATOM     43  C   UNL A   1      40.880  23.611  27.398  1.00  0.00     0.010 A 
ATOM     44  C   UNL A   1      40.430  24.898  27.055  1.00  0.00    -0.014 A 
BRANCH  44  45
ATOM     45  C   UNL A   1      41.102  26.189  27.383  1.00  0.00     0.031 A 
ATOM     46  C   UNL A   1      40.503  27.198  28.328  1.00  0.00     0.074 A 
ATOM     47  C   UNL A   1      42.398  26.330  27.034  1.00  0.00     0.049 A 
ATOM     48  N   UNL A   1      41.016  28.320  28.771  1.00  0.00    -0.248 NA
ATOM     49  C   UNL A   1      39.177  26.893  28.877  1.00  0.00     0.031 C 
ATOM     50  C   UNL A   1      43.156  25.345  26.265  1.00  0.00     0.029 A 
ATOM     51  N   UNL A   1      43.319  27.306  27.324  1.00  0.00    -0.354 N 
ATOM     52  C   UNL A   1      40.057  28.878  29.613  1.00  0.00     0.074 A 
ATOM     53  C   UNL A   1      38.961  27.934  29.671  1.00  0.00     0.031 C 
ATOM     54  C   UNL A   1      44.435  25.737  26.189  1.00  0.00     0.029 A 
ATOM     55  C   UNL A   1      44.568  27.054  26.806  1.00  0.00     0.049 A 
ATOM     56  H   UNL A   1      43.106  28.110  27.853  1.00  0.00     0.167 HD
ATOM     57  C   UNL A   1      40.073  30.081  30.241  1.00  0.00     0.034 A 
ATOM     58  C   UNL A   1      45.682  27.812  26.775  1.00  0.00     0.034 A 
ATOM     59  C   UNL A   1      41.166  31.021  30.174  1.00  0.00     0.049 A 
ATOM     60  C   UNL A   1      45.645  29.180  27.396  1.00  0.00     0.074 A 
ATOM     61  C   UNL A   1      41.235  32.303  30.693  1.00  0.00     0.029 A 
ATOM     62  N   UNL A   1      42.377  30.786  29.544  1.00  0.00    -0.354 N 
ATOM     63  N   UNL A   1      44.697  29.735  28.111  1.00  0.00    -0.248 NA
ATOM     64  C   UNL A   1      46.824  30.031  27.193  1.00  0.00     0.031 C 
ATOM     65  C   UNL A   1      42.469  32.859  30.333  1.00  0.00     0.029 A 
ATOM     66  C   UNL A   1      43.192  31.903  29.640  1.00  0.00     0.049 A 
ATOM     67  H   UNL A   1      42.624  29.945  29.093  1.00  0.00     0.167 HD
ATOM     68  C   UNL A   1      45.161  31.004  28.438  1.00  0.00     0.074 A 
ATOM     69  C   UNL A   1      46.498  31.111  27.889  1.00  0.00     0.031 C 
ATOM     70  C   UNL A   1      44.527  32.000  29.104  1.00  0.00     0.034 A 
BRANCH  57  71
ATOM     71  C   UNL A   1      38.822  30.504  30.971  1.00  0.00     0.023 A 
ATOM     72  C   UNL A   1      38.686  30.304  32.358  1.00  0.00     0.012 A 
ATOM     73  C   UNL A   1      37.785  31.151  30.264  1.00  0.00     0.148 A 
ATOM     74  C   UNL A   1      37.528  30.716  33.023  1.00  0.00     0.002 A 
ATOM     75  C   UNL A   1      36.654  31.593  30.938  1.00  0.00     0.091 A 
ATOM     76  F   UNL A   1      37.925  31.315  28.940  1.00  0.00    -0.205 F 
ATOM     77  C   UNL A   1      36.519  31.368  32.317  1.00  0.00     0.022 A 
BRANCH  75  78
ATOM     78  S   UNL A   1      35.332  32.496  30.122  1.00  0.00     0.127 S 
ATOM     79  O   UNL A   1      34.363  32.646  31.206  1.00  0.00    -0.237 OA
ATOM     80  O   UNL A   1      36.002  33.735  29.729  1.00  0.00    -0.237 OA
ATOM     81  O   UNL A   1      34.896  31.661  29.011  1.00  0.00    -0.744 OA
ENDBRANCH  75  78
ENDBRANCH  57  71
BRANCH  58  82
ATOM     82  C   UNL A   1      46.898  27.327  26.057  1.00  0.00     0.023 A 
ATOM     83  C   UNL A   1      47.786  26.426  26.674  1.00  0.00     0.012 A 
ATOM     84  C   UNL A   1      47.168  27.756  24.742  1.00  0.00     0.148 A 
ATOM     85  C   UNL A   1      48.922  25.974  25.997  1.00  0.00     0.002 A 
ATOM     86  C   UNL A   1      48.245  27.231  24.043  1.00  0.00     0.091 A 
ATOM     87  F   UNL A   1      46.351  28.663  24.186  1.00  0.00    -0.205 F 
ATOM     88  C   UNL A   1      49.139  26.357  24.676  1.00  0.00     0.022 A 
BRANCH  86  89
ATOM     89  S   UNL A   1      48.464  27.532  22.286  1.00  0.00     0.127 S 
ATOM     90  O   UNL A   1      49.659  28.370  22.271  1.00  0.00    -0.237 OA
ATOM     91  O   UNL A   1      48.651  26.176  21.767  1.00  0.00    -0.237 OA
ATOM     92  O   UNL A   1      47.229  28.170  21.846  1.00  0.00    -0.744 OA
ENDBRANCH  86  89
ENDBRANCH  58  82
BRANCH  70  93
ATOM     93  C   UNL A   1      45.285  33.291  29.286  1.00  0.00     0.023 A 
ATOM     94  C   UNL A   1      46.099  33.476  30.423  1.00  0.00     0.012 A 
ATOM     95  C   UNL A   1      45.195  34.319  28.328  1.00  0.00     0.148 A 
ATOM     96  C   UNL A   1      46.763  34.685  30.632  1.00  0.00     0.002 A 
ATOM     97  C   UNL A   1      45.903  35.501  28.516  1.00  0.00     0.091 A 
ATOM     98  F   UNL A   1      44.402  34.136  27.263  1.00  0.00    -0.205 F 
ATOM     99  C   UNL A   1      46.671  35.693  29.676  1.00  0.00     0.022 A 
BRANCH  97 100
ATOM    100  S   UNL A   1      45.914  36.816  27.293  1.00  0.00     0.127 S 
ATOM    101  O   UNL A   1      46.780  37.807  27.930  1.00  0.00    -0.237 OA
ATOM    102  O   UNL A   1      46.502  36.151  26.128  1.00  0.00    -0.237 OA
ATOM    103  O   UNL A   1      44.524  37.214  27.121  1.00  0.00    -0.744 OA
ENDBRANCH  97 100
ENDBRANCH  70  93
ENDBRANCH  44  45
ENDBRANCH  37  39
ENDBRANCH  36  37
ENDBRANCH  35  36
ENDBRANCH   1  35
TORSDOF 19
ENDMDL
MODEL 2
REMARK VINA RESULT:     -12.1      1.335      7.173
REMARK SMILES CC(C)[C@H](NC(=O)N1c2ccccc2N=C(OCCOC(=O)c2ccc(-c3c4nc(c(-c5cccc(S(=O)(=O)[O-])c5F)c5ccc([nH]5)c(-c5cccc(S(=O)(=O)[O-])c5F)c5nc(c(-c6cccc(S(=O)(=O)[O-])c6F)c6ccc3[nH]6)C=C5)C=C4)cc2)[C@@H]1C(C)C)C(=O)N1CCC(C(=O)[O-])CC1
REMARK SMILES IDX 18 1 17 2 16 3 8 4 9 5 86 6 10 7 14 8 11 9 13 10 15 11 12 12
REMARK SMILES IDX 6 13 5 14 7 16 4 17 2 18 1 19 3 20 90 21 91 22 92 23 93 24
REMARK SMILES IDX 100 25 94 26 99 27 95 28 96 29 97 30 98 31 87 32 88 33 89 34
REMARK SMILES IDX 19 35 20 36 21 37 22 38 23 39 24 40 85 41 25 42 84 43 26 44
REMARK SMILES IDX 27 45 28 46 78 47 29 48 83 49 77 50 79 51 30 52 82 53 76 54
REMARK SMILES IDX 75 55 31 57 63 58 43 59 62 60 44 61 47 62 61 63 80 64 45 65
REMARK SMILES IDX 46 66 60 68 81 69 48 70 32 71 33 72 41 73 34 74 36 75 42 76
REMARK SMILES IDX 35 77 37 78 38 79 39 80 40 81 64 82 65 83 73 84 66 85 68 86
REMARK SMILES IDX 74 87 67 88 69 89 70 90 71 91 72 92 49 93 50 94 58 95 51 96
REMARK SMILES IDX 53 97 59 98 52 99 54 100 55 101 56 102 57 103
REMARK H PARENT 5 15 79 56 47 67
REMARK Flexibility Score: inf
ROOT
ATOM      1  C   UNL A   1      35.200  22.399  25.807  1.00  0.00     0.272 C 
ENDROOT
BRANCH   1   2
ATOM      2  O   UNL A   1      34.140  23.158  25.163  1.00  0.00    -0.476 OA
BRANCH   2   3
ATOM      3  C   UNL A   1      33.744  24.300  25.769  1.00  0.00     0.212 C 
ATOM      4  N   UNL A   1      31.686  25.556  25.833  1.00  0.00    -0.280 N 
ATOM      5  C   UNL A   1      32.510  26.720  26.187  1.00  0.00     0.072 A 
ATOM      6  C   UNL A   1      32.340  24.333  26.406  1.00  0.00     0.181 C 
ATOM      7  C   UNL A   1      31.999  28.005  26.372  1.00  0.00     0.029 A 
ATOM      8  C   UNL A   1      33.929  26.540  26.214  1.00  0.00     0.091 A 
ATOM      9  C   UNL A   1      32.875  29.091  26.534  1.00  0.00     0.002 A 
ATOM     10  C   UNL A   1      34.785  27.631  26.373  1.00  0.00     0.030 A 
ATOM     11  N   UNL A   1      34.523  25.331  25.808  1.00  0.00    -0.214 NA
ATOM     12  C   UNL A   1      34.258  28.908  26.522  1.00  0.00     0.002 A 
BRANCH   4  13
ATOM     13  C   UNL A   1      30.318  25.674  25.753  1.00  0.00     0.323 C 
ATOM     14  N   UNL A   1      29.736  26.010  24.550  1.00  0.00    -0.326 N 
ATOM     15  H   UNL A   1      29.060  25.385  24.201  1.00  0.00     0.166 HD
ATOM     16  O   UNL A   1      29.569  25.367  26.684  1.00  0.00    -0.248 OA
BRANCH  14  17
ATOM     17  C   UNL A   1      30.014  27.207  23.727  1.00  0.00     0.175 C 
BRANCH  17  18
ATOM     18  C   UNL A   1      30.989  27.025  22.531  1.00  0.00     0.015 C 
ATOM     19  C   UNL A   1      32.386  27.630  22.641  1.00  0.00     0.010 C 
ATOM     20  C   UNL A   1      31.132  25.519  22.231  1.00  0.00     0.010 C 
ENDBRANCH  17  18
BRANCH  17  21
ATOM     21  C   UNL A   1      28.784  28.057  23.230  1.00  0.00     0.245 C 
ATOM     22  O   UNL A   1      27.639  27.638  23.433  1.00  0.00    -0.272 OA
ATOM     23  N   UNL A   1      28.981  29.385  22.874  1.00  0.00    -0.341 N 
ATOM     24  C   UNL A   1      28.166  30.408  23.536  1.00  0.00     0.120 C 
ATOM     25  C   UNL A   1      29.980  29.851  21.928  1.00  0.00     0.120 C 
ATOM     26  C   UNL A   1      27.551  31.403  22.572  1.00  0.00     0.031 C 
ATOM     27  C   UNL A   1      29.338  30.781  20.899  1.00  0.00     0.031 C 
ATOM     28  C   UNL A   1      28.598  31.932  21.591  1.00  0.00     0.038 C 
BRANCH  28  29
ATOM     29  C   UNL A   1      27.960  32.844  20.580  1.00  0.00     0.045 C 
ATOM     30  O   UNL A   1      27.277  33.827  20.841  1.00  0.00    -0.550 OA
ATOM     31  O   UNL A   1      28.211  32.502  19.306  1.00  0.00    -0.550 OA
ENDBRANCH  28  29
ENDBRANCH  17  21
ENDBRANCH  14  17
ENDBRANCH   4  13
BRANCH   6  32
ATOM     32  C   UNL A   1      31.587  22.984  26.558  1.00  0.00     0.015 C 
ATOM     33  C   UNL A   1      31.512  22.277  25.182  1.00  0.00     0.010 C 
ATOM     34  C   UNL A   1      32.312  21.988  27.483  1.00  0.00     0.010 C 
ENDBRANCH   6  32
ENDBRANCH   2   3
ENDBRANCH   1   2
BRANCH   1  35
ATOM     35  C   UNL A   1      35.958  21.462  24.859  1.00  0.00     0.274 C 
BRANCH  35  36
ATOM     36  O   UNL A   1      37.310  21.919  24.611  1.00  0.00    -0.458 OA
BRANCH  36  37
ATOM     37  C   UNL A   1      38.237  21.421  25.465  1.00  0.00     0.338 C 
ATOM     38  O   UNL A   1      38.599  20.253  25.491  1.00  0.00    -0.246 OA
BRANCH  37  39
ATOM     39  C   UNL A   1      38.906  22.451  26.306  1.00  0.00     0.060 A 
ATOM     40  C   UNL A   1      38.573  23.770  26.048  1.00  0.00     0.016 A 
ATOM     41  C   UNL A   1      40.067  22.210  27.039  1.00  0.00     0.016 A 
ATOM     42  C   UNL A   1      39.350  24.842  26.485  1.00  0.00     0.010 A 
ATOM     43  C   UNL A   1      40.856  23.294  27.515  1.00  0.00     0.010 A 
ATOM     44  C   UNL A   1      40.508  24.625  27.228  1.00  0.00    -0.014 A 
BRANCH  44  45
ATOM     45  C   UNL A   1      41.238  25.849  27.673  1.00  0.00     0.031 A 
ATOM     46  C   UNL A   1      42.610  26.204  27.162  1.00  0.00     0.074 A 
ATOM     47  C   UNL A   1      40.538  26.791  28.339  1.00  0.00     0.049 A 
ATOM     48  N   UNL A   1      43.324  27.279  27.395  1.00  0.00    -0.248 NA
ATOM     49  C   UNL A   1      43.247  25.254  26.244  1.00  0.00     0.031 C 
ATOM     50  C   UNL A   1      39.142  26.647  28.744  1.00  0.00     0.029 A 
ATOM     51  N   UNL A   1      40.871  28.063  28.735  1.00  0.00    -0.354 N 
ATOM     52  C   UNL A   1      44.513  27.113  26.691  1.00  0.00     0.074 A 
ATOM     53  C   UNL A   1      44.393  25.865  25.968  1.00  0.00     0.031 C 
ATOM     54  C   UNL A   1      38.720  27.801  29.282  1.00  0.00     0.029 A 
ATOM     55  C   UNL A   1      39.844  28.729  29.362  1.00  0.00     0.049 A 
ATOM     56  H   UNL A   1      41.760  28.461  28.583  1.00  0.00     0.167 HD
ATOM     57  C   UNL A   1      45.616  27.904  26.684  1.00  0.00     0.034 A 
ATOM     58  C   UNL A   1      39.815  29.925  29.983  1.00  0.00     0.034 A 
ATOM     59  C   UNL A   1      45.733  29.144  27.412  1.00  0.00     0.049 A 
ATOM     60  C   UNL A   1      41.075  30.741  30.043  1.00  0.00     0.074 A 
ATOM     61  C   UNL A   1      46.840  29.966  27.547  1.00  0.00     0.029 A 
ATOM     62  N   UNL A   1      44.712  29.740  28.135  1.00  0.00    -0.354 N 
ATOM     63  N   UNL A   1      42.225  30.528  29.450  1.00  0.00    -0.248 NA
ATOM     64  C   UNL A   1      41.040  31.954  30.870  1.00  0.00     0.031 C 
ATOM     65  C   UNL A   1      46.501  31.029  28.392  1.00  0.00     0.029 A 
ATOM     66  C   UNL A   1      45.166  30.903  28.737  1.00  0.00     0.049 A 
ATOM     67  H   UNL A   1      43.795  29.387  28.211  1.00  0.00     0.167 HD
ATOM     68  C   UNL A   1      43.052  31.575  29.837  1.00  0.00     0.074 A 
ATOM     69  C   UNL A   1      42.252  32.450  30.670  1.00  0.00     0.031 C 
ATOM     70  C   UNL A   1      44.363  31.778  29.554  1.00  0.00     0.034 A 
BRANCH  57  71
ATOM     71  C   UNL A   1      46.833  27.400  25.948  1.00  0.00     0.023 A 
ATOM     72  C   UNL A   1      46.980  27.600  24.562  1.00  0.00     0.012 A 
ATOM     73  C   UNL A   1      47.865  26.755  26.664  1.00  0.00     0.148 A 
ATOM     74  C   UNL A   1      48.121  27.142  23.898  1.00  0.00     0.002 A 
ATOM     75  C   UNL A   1      49.013  26.337  26.004  1.00  0.00     0.091 A 
ATOM     76  F   UNL A   1      47.697  26.557  27.980  1.00  0.00    -0.205 F 
ATOM     77  C   UNL A   1      49.140  26.521  24.618  1.00  0.00     0.022 A 
BRANCH  75  78
ATOM     78  S   UNL A   1      50.402  25.583  26.860  1.00  0.00     0.127 S 
ATOM     79  O   UNL A   1      50.816  26.660  27.758  1.00  0.00    -0.237 OA
ATOM     80  O   UNL A   1      49.770  24.444  27.527  1.00  0.00    -0.237 OA
ATOM     81  O   UNL A   1      51.369  25.227  25.832  1.00  0.00    -0.744 OA
ENDBRANCH  75  78
ENDBRANCH  57  71
BRANCH  58  82
ATOM     82  C   UNL A   1      38.572  30.380  30.673  1.00  0.00     0.023 A 
ATOM     83  C   UNL A   1      38.304  29.994  32.001  1.00  0.00     0.012 A 
ATOM     84  C   UNL A   1      37.652  31.216  30.009  1.00  0.00     0.148 A 
ATOM     85  C   UNL A   1      37.141  30.424  32.644  1.00  0.00     0.002 A 
ATOM     86  C   UNL A   1      36.548  31.714  30.684  1.00  0.00     0.091 A 
ATOM     87  F   UNL A   1      37.884  31.526  28.725  1.00  0.00    -0.205 F 
ATOM     88  C   UNL A   1      36.275  31.302  31.995  1.00  0.00     0.022 A 
BRANCH  86  89
ATOM     89  S   UNL A   1      35.509  32.996  29.972  1.00  0.00     0.127 S 
ATOM     90  O   UNL A   1      34.194  32.643  30.499  1.00  0.00    -0.237 OA
ATOM     91  O   UNL A   1      36.097  34.211  30.538  1.00  0.00    -0.237 OA
ATOM     92  O   UNL A   1      35.676  32.872  28.530  1.00  0.00    -0.744 OA
ENDBRANCH  86  89
ENDBRANCH  58  82
BRANCH  70  93
ATOM     93  C   UNL A   1      45.007  33.006  30.144  1.00  0.00     0.023 A 
ATOM     94  C   UNL A   1      45.637  32.937  31.404  1.00  0.00     0.012 A 
ATOM     95  C   UNL A   1      44.995  34.231  29.448  1.00  0.00     0.148 A 
ATOM     96  C   UNL A   1      46.190  34.077  31.987  1.00  0.00     0.002 A 
ATOM     97  C   UNL A   1      45.596  35.351  30.011  1.00  0.00     0.091 A 
ATOM     98  F   UNL A   1      44.377  34.287  28.259  1.00  0.00    -0.205 F 
ATOM     99  C   UNL A   1      46.176  35.281  31.288  1.00  0.00     0.022 A 
BRANCH  97 100
ATOM    100  S   UNL A   1      45.704  36.918  29.142  1.00  0.00     0.127 S 
ATOM    101  O   UNL A   1      46.197  37.807  30.193  1.00  0.00    -0.237 OA
ATOM    102  O   UNL A   1      46.677  36.623  28.088  1.00  0.00    -0.237 OA
ATOM    103  O   UNL A   1      44.360  37.201  28.658  1.00  0.00    -0.744 OA
ENDBRANCH  97 100
ENDBRANCH  70  93
ENDBRANCH  44  45
ENDBRANCH  37  39
ENDBRANCH  36  37
ENDBRANCH  35  36
ENDBRANCH   1  35
TORSDOF 19
ENDMDL
MODEL 3
REMARK VINA RESULT:     -11.2      5.152     10.282
REMARK SMILES CC(C)[C@H](NC(=O)N1c2ccccc2N=C(OCCOC(=O)c2ccc(-c3c4nc(c(-c5cccc(S(=O)(=O)[O-])c5F)c5ccc([nH]5)c(-c5cccc(S(=O)(=O)[O-])c5F)c5nc(c(-c6cccc(S(=O)(=O)[O-])c6F)c6ccc3[nH]6)C=C5)C=C4)cc2)[C@@H]1C(C)C)C(=O)N1CCC(C(=O)[O-])CC1
REMARK SMILES IDX 18 1 17 2 16 3 8 4 9 5 86 6 10 7 14 8 11 9 13 10 15 11 12 12
REMARK SMILES IDX 6 13 5 14 7 16 4 17 2 18 1 19 3 20 90 21 91 22 92 23 93 24
REMARK SMILES IDX 100 25 94 26 99 27 95 28 96 29 97 30 98 31 87 32 88 33 89 34
REMARK SMILES IDX 19 35 20 36 21 37 22 38 23 39 24 40 85 41 25 42 84 43 26 44
REMARK SMILES IDX 27 45 28 46 78 47 29 48 83 49 77 50 79 51 30 52 82 53 76 54
REMARK SMILES IDX 75 55 31 57 63 58 43 59 62 60 44 61 47 62 61 63 80 64 45 65
REMARK SMILES IDX 46 66 60 68 81 69 48 70 32 71 33 72 41 73 34 74 36 75 42 76
REMARK SMILES IDX 35 77 37 78 38 79 39 80 40 81 64 82 65 83 73 84 66 85 68 86
REMARK SMILES IDX 74 87 67 88 69 89 70 90 71 91 72 92 49 93 50 94 58 95 51 96
REMARK SMILES IDX 53 97 59 98 52 99 54 100 55 101 56 102 57 103
REMARK H PARENT 5 15 79 56 47 67
REMARK Flexibility Score: inf
ROOT
ATOM      1  C   UNL A   1      33.651  30.127  25.747  1.00  0.00     0.272 C 
ENDROOT
BRANCH   1   2
ATOM      2  O   UNL A   1      33.091  28.966  25.073  1.00  0.00    -0.476 OA
BRANCH   2   3
ATOM      3  C   UNL A   1      31.782  29.016  24.742  1.00  0.00     0.212 C 
ATOM      4  N   UNL A   1      30.120  27.370  24.157  1.00  0.00    -0.280 N 
ATOM      5  C   UNL A   1      29.402  28.462  23.484  1.00  0.00     0.072 A 
ATOM      6  C   UNL A   1      30.843  27.948  25.337  1.00  0.00     0.181 C 
ATOM      7  C   UNL A   1      28.215  28.287  22.772  1.00  0.00     0.029 A 
ATOM      8  C   UNL A   1      30.033  29.745  23.455  1.00  0.00     0.091 A 
ATOM      9  C   UNL A   1      27.690  29.346  22.013  1.00  0.00     0.002 A 
ATOM     10  C   UNL A   1      29.499  30.786  22.693  1.00  0.00     0.030 A 
ATOM     11  N   UNL A   1      31.337  29.935  23.948  1.00  0.00    -0.214 NA
ATOM     12  C   UNL A   1      28.334  30.584  21.963  1.00  0.00     0.002 A 
BRANCH   4  13
ATOM     13  C   UNL A   1      29.584  26.104  24.186  1.00  0.00     0.323 C 
ATOM     14  N   UNL A   1      30.419  25.012  24.085  1.00  0.00    -0.326 N 
ATOM     15  H   UNL A   1      30.372  24.355  24.817  1.00  0.00     0.166 HD
ATOM     16  O   UNL A   1      28.394  25.891  24.428  1.00  0.00    -0.248 OA
BRANCH  14  17
ATOM     17  C   UNL A   1      31.378  24.718  22.998  1.00  0.00     0.175 C 
BRANCH  17  18
ATOM     18  C   UNL A   1      31.977  25.935  22.242  1.00  0.00     0.015 C 
ATOM     19  C   UNL A   1      33.316  26.492  22.718  1.00  0.00     0.010 C 
ATOM     20  C   UNL A   1      32.101  25.580  20.746  1.00  0.00     0.010 C 
ENDBRANCH  17  18
BRANCH  17  21
ATOM     21  C   UNL A   1      32.548  23.709  23.306  1.00  0.00     0.245 C 
ATOM     22  O   UNL A   1      33.664  24.150  23.601  1.00  0.00    -0.272 OA
ATOM     23  N   UNL A   1      32.242  22.377  23.558  1.00  0.00    -0.341 N 
ATOM     24  C   UNL A   1      32.718  21.783  24.811  1.00  0.00     0.120 C 
ATOM     25  C   UNL A   1      31.431  21.534  22.697  1.00  0.00     0.120 C 
ATOM     26  C   UNL A   1      33.383  20.433  24.621  1.00  0.00     0.031 C 
ATOM     27  C   UNL A   1      32.147  20.211  22.430  1.00  0.00     0.031 C 
ATOM     28  C   UNL A   1      32.525  19.520  23.745  1.00  0.00     0.038 C 
BRANCH  28  29
ATOM     29  C   UNL A   1      33.236  18.221  23.484  1.00  0.00     0.045 C 
ATOM     30  O   UNL A   1      34.044  17.688  24.237  1.00  0.00    -0.550 OA
ATOM     31  O   UNL A   1      32.902  17.645  22.319  1.00  0.00    -0.550 OA
ENDBRANCH  28  29
ENDBRANCH  17  21
ENDBRANCH  14  17
ENDBRANCH   4  13
BRANCH   6  32
ATOM     32  C   UNL A   1      31.397  27.063  26.486  1.00  0.00     0.015 C 
ATOM     33  C   UNL A   1      32.806  26.546  26.105  1.00  0.00     0.010 C 
ATOM     34  C   UNL A   1      31.596  27.836  27.803  1.00  0.00     0.010 C 
ENDBRANCH   6  32
ENDBRANCH   2   3
ENDBRANCH   1   2
BRANCH   1  35
ATOM     35  C   UNL A   1      32.629  30.924  26.566  1.00  0.00     0.274 C 
BRANCH  35  36
ATOM     36  O   UNL A   1      33.129  31.253  27.885  1.00  0.00    -0.458 OA
BRANCH  36  37
ATOM     37  C   UNL A   1      34.122  32.175  27.895  1.00  0.00     0.338 C 
ATOM     38  O   UNL A   1      33.952  33.379  27.776  1.00  0.00    -0.246 OA
BRANCH  37  39
ATOM     39  C   UNL A   1      35.466  31.617  28.208  1.00  0.00     0.060 A 
ATOM     40  C   UNL A   1      35.494  30.359  28.786  1.00  0.00     0.016 A 
ATOM     41  C   UNL A   1      36.619  32.396  28.302  1.00  0.00     0.016 A 
ATOM     42  C   UNL A   1      36.613  29.859  29.449  1.00  0.00     0.010 A 
ATOM     43  C   UNL A   1      37.778  31.888  28.952  1.00  0.00     0.010 A 
ATOM     44  C   UNL A   1      37.780  30.614  29.545  1.00  0.00    -0.014 A 
BRANCH  44  45
ATOM     45  C   UNL A   1      38.926  29.962  30.245  1.00  0.00     0.031 A 
ATOM     46  C   UNL A   1      39.868  29.015  29.548  1.00  0.00     0.074 A 
ATOM     47  C   UNL A   1      39.280  30.445  31.454  1.00  0.00     0.049 A 
ATOM     48  N   UNL A   1      40.955  28.445  30.009  1.00  0.00    -0.248 NA
ATOM     49  C   UNL A   1      39.578  28.696  28.146  1.00  0.00     0.031 C 
ATOM     50  C   UNL A   1      38.553  31.491  32.169  1.00  0.00     0.029 A 
ATOM     51  N   UNL A   1      40.357  30.175  32.262  1.00  0.00    -0.354 N 
ATOM     52  C   UNL A   1      41.452  27.664  28.970  1.00  0.00     0.074 A 
ATOM     53  C   UNL A   1      40.584  27.889  27.834  1.00  0.00     0.031 C 
ATOM     54  C   UNL A   1      39.229  31.814  33.281  1.00  0.00     0.029 A 
ATOM     55  C   UNL A   1      40.378  30.923  33.416  1.00  0.00     0.049 A 
ATOM     56  H   UNL A   1      41.049  29.511  32.037  1.00  0.00     0.167 HD
ATOM     57  C   UNL A   1      42.506  26.807  28.977  1.00  0.00     0.034 A 
ATOM     58  C   UNL A   1      41.188  30.867  34.492  1.00  0.00     0.034 A 
ATOM     59  C   UNL A   1      43.364  26.582  30.115  1.00  0.00     0.049 A 
ATOM     60  C   UNL A   1      42.290  29.845  34.516  1.00  0.00     0.074 A 
ATOM     61  C   UNL A   1      44.393  25.666  30.253  1.00  0.00     0.029 A 
ATOM     62  N   UNL A   1      43.290  27.273  31.314  1.00  0.00    -0.354 N 
ATOM     63  N   UNL A   1      42.693  29.044  33.560  1.00  0.00    -0.248 NA
ATOM     64  C   UNL A   1      43.039  29.709  35.772  1.00  0.00     0.031 C 
ATOM     65  C   UNL A   1      44.906  25.769  31.552  1.00  0.00     0.029 A 
ATOM     66  C   UNL A   1      44.237  26.790  32.205  1.00  0.00     0.049 A 
ATOM     67  H   UNL A   1      42.656  28.002  31.507  1.00  0.00     0.167 HD
ATOM     68  C   UNL A   1      43.738  28.303  34.100  1.00  0.00     0.074 A 
ATOM     69  C   UNL A   1      43.940  28.793  35.449  1.00  0.00     0.031 C 
ATOM     70  C   UNL A   1      44.444  27.289  33.541  1.00  0.00     0.034 A 
BRANCH  57  71
ATOM     71  C   UNL A   1      42.728  25.962  27.747  1.00  0.00     0.023 A 
ATOM     72  C   UNL A   1      43.520  26.425  26.679  1.00  0.00     0.012 A 
ATOM     73  C   UNL A   1      42.169  24.668  27.679  1.00  0.00     0.148 A 
ATOM     74  C   UNL A   1      43.731  25.624  25.554  1.00  0.00     0.002 A 
ATOM     75  C   UNL A   1      42.414  23.861  26.575  1.00  0.00     0.091 A 
ATOM     76  F   UNL A   1      41.401  24.252  28.697  1.00  0.00    -0.205 F 
ATOM     77  C   UNL A   1      43.187  24.341  25.506  1.00  0.00     0.022 A 
BRANCH  75  78
ATOM     78  S   UNL A   1      41.806  22.175  26.454  1.00  0.00     0.127 S 
ATOM     79  O   UNL A   1      42.224  21.617  27.739  1.00  0.00    -0.237 OA
ATOM     80  O   UNL A   1      40.363  22.377  26.319  1.00  0.00    -0.237 OA
ATOM     81  O   UNL A   1      42.451  21.593  25.285  1.00  0.00    -0.744 OA
ENDBRANCH  75  78
ENDBRANCH  57  71
BRANCH  58  82
ATOM     82  C   UNL A   1      40.931  31.747  35.670  1.00  0.00     0.023 A 
ATOM     83  C   UNL A   1      41.866  32.729  36.051  1.00  0.00     0.012 A 
ATOM     84  C   UNL A   1      39.741  31.617  36.412  1.00  0.00     0.148 A 
ATOM     85  C   UNL A   1      41.621  33.552  37.153  1.00  0.00     0.002 A 
ATOM     86  C   UNL A   1      39.462  32.498  37.446  1.00  0.00     0.091 A 
ATOM     87  F   UNL A   1      38.887  30.637  36.081  1.00  0.00    -0.205 F 
ATOM     88  C   UNL A   1      40.411  33.453  37.836  1.00  0.00     0.022 A 
BRANCH  86  89
ATOM     89  S   UNL A   1      37.847  32.549  38.230  1.00  0.00     0.127 S 
ATOM     90  O   UNL A   1      37.950  33.750  39.054  1.00  0.00    -0.237 OA
ATOM     91  O   UNL A   1      36.953  32.664  37.076  1.00  0.00    -0.237 OA
ATOM     92  O   UNL A   1      37.726  31.287  38.949  1.00  0.00    -0.744 OA
ENDBRANCH  86  89
ENDBRANCH  58  82
BRANCH  70  93
ATOM     93  C   UNL A   1      45.513  26.652  34.391  1.00  0.00     0.023 A 
ATOM     94  C   UNL A   1      46.824  27.173  34.384  1.00  0.00     0.012 A 
ATOM     95  C   UNL A   1      45.220  25.538  35.201  1.00  0.00     0.148 A 
ATOM     96  C   UNL A   1      47.836  26.562  35.123  1.00  0.00     0.002 A 
ATOM     97  C   UNL A   1      46.222  24.966  35.978  1.00  0.00     0.091 A 
ATOM     98  F   UNL A   1      43.975  25.042  35.184  1.00  0.00    -0.205 F 
ATOM     99  C   UNL A   1      47.534  25.464  35.925  1.00  0.00     0.022 A 
BRANCH  97 100
ATOM    100  S   UNL A   1      45.901  23.609  37.108  1.00  0.00     0.127 S 
ATOM    101  O   UNL A   1      44.992  24.230  38.069  1.00  0.00    -0.237 OA
ATOM    102  O   UNL A   1      45.277  22.616  36.232  1.00  0.00    -0.237 OA
ATOM    103  O   UNL A   1      47.199  23.213  37.636  1.00  0.00    -0.744 OA
ENDBRANCH  97 100
ENDBRANCH  70  93
ENDBRANCH  44  45
ENDBRANCH  37  39
ENDBRANCH  36  37
ENDBRANCH  35  36
ENDBRANCH   1  35
TORSDOF 19
ENDMDL
