MODEL 1
REMARK VINA RESULT:     -10.9      0.000      0.000
REMARK SMILES C[NH2+][C@]1(C(=O)OCCOC(=O)c2ccc(-c3c4nc(c(-c5cccc(S(=O)(=O)[O-])c5F)c5ccc([nH]5)c(-c5cccc(S(=O)(=O)[O-])c5F)c5nc(c(-c6cccc(S(=O)(=O)[O-])c6F)c6ccc3[nH]6)C=C5)C=C4)cc2)CC[C@H](SC2CCCCC2)C1
REMARK SMILES IDX 8 1 7 2 6 3 4 4 5 5 3 6 75 7 85 8 76 9 77 10 2 11 1 12 78 15
REMARK SMILES IDX 79 16 80 17 84 18 81 19 83 20 82 21 9 22 10 23 11 24 12 25
REMARK SMILES IDX 13 26 74 27 14 28 73 29 15 30 16 31 17 32 67 33 18 34 72 35
REMARK SMILES IDX 66 36 68 37 19 38 71 39 65 40 64 41 20 43 52 44 32 45 51 46
REMARK SMILES IDX 33 47 36 48 50 49 69 50 34 51 35 52 49 54 70 55 37 56 21 57
REMARK SMILES IDX 22 58 30 59 23 60 25 61 31 62 24 63 26 64 27 65 28 66 29 67
REMARK SMILES IDX 53 68 54 69 62 70 55 71 57 72 63 73 56 74 58 75 59 76 60 77
REMARK SMILES IDX 61 78 38 79 39 80 47 81 40 82 42 83 48 84 41 85 43 86 44 87
REMARK SMILES IDX 45 88 46 89
REMARK H PARENT 2 13 2 14 68 42 36 53
REMARK Flexibility Score: inf
ROOT
ATOM      1  C   UNL A   1      31.415  29.761  26.098  1.00  0.00     0.275 C 
ENDROOT
BRANCH   1   2
ATOM      2  C   UNL A   1      30.916  29.735  24.657  1.00  0.00     0.274 C 
BRANCH   2   3
ATOM      3  O   UNL A   1      31.812  28.983  23.813  1.00  0.00    -0.457 OA
BRANCH   3   4
ATOM      4  C   UNL A   1      31.211  28.196  22.877  1.00  0.00     0.368 C 
ATOM      5  O   UNL A   1      30.348  28.586  22.096  1.00  0.00    -0.245 OA
BRANCH   4   6
ATOM      6  C   UNL A   1      31.721  26.745  22.895  1.00  0.00     0.195 C 
ATOM      7  C   UNL A   1      32.527  26.301  21.671  1.00  0.00     0.082 C 
ATOM      8  C   UNL A   1      32.824  26.651  23.972  1.00  0.00     0.095 C 
ATOM      9  C   UNL A   1      33.284  25.072  22.177  1.00  0.00     0.022 C 
ATOM     10  C   UNL A   1      33.603  25.360  23.654  1.00  0.00     0.054 C 
BRANCH   6  11
ATOM     11  N   UNL A   1      30.646  25.805  23.280  1.00  0.00    -0.335 N 
ATOM     12  C   UNL A   1      29.944  26.079  24.518  1.00  0.00     0.331 C 
ATOM     13  H   UNL A   1      29.956  25.803  22.529  1.00  0.00     0.347 HD
ATOM     14  H   UNL A   1      31.117  24.914  23.436  1.00  0.00     0.347 HD
ENDBRANCH   6  11
BRANCH  10  15
ATOM     15  S   UNL A   1      33.098  24.053  24.842  1.00  0.00    -0.155 SA
BRANCH  15  16
ATOM     16  C   UNL A   1      34.651  23.179  25.255  1.00  0.00     0.047 C 
ATOM     17  C   UNL A   1      34.739  21.781  24.639  1.00  0.00     0.014 C 
ATOM     18  C   UNL A   1      35.904  24.010  24.976  1.00  0.00     0.014 C 
ATOM     19  C   UNL A   1      35.995  21.052  25.110  1.00  0.00     0.001 C 
ATOM     20  C   UNL A   1      37.159  23.269  25.439  1.00  0.00     0.001 C 
ATOM     21  C   UNL A   1      37.247  21.876  24.819  1.00  0.00     0.000 C 
ENDBRANCH  15  16
ENDBRANCH  10  15
ENDBRANCH   4   6
ENDBRANCH   3   4
ENDBRANCH   2   3
ENDBRANCH   1   2
BRANCH   1  22
ATOM     22  O   UNL A   1      32.834  29.977  26.110  1.00  0.00    -0.458 OA
BRANCH  22  23
ATOM     23  C   UNL A   1      33.262  31.049  26.816  1.00  0.00     0.338 C 
ATOM     24  O   UNL A   1      32.661  32.095  26.991  1.00  0.00    -0.246 OA
BRANCH  23  25
ATOM     25  C   UNL A   1      34.593  30.778  27.399  1.00  0.00     0.060 A 
ATOM     26  C   UNL A   1      34.994  29.475  27.691  1.00  0.00     0.016 A 
ATOM     27  C   UNL A   1      35.399  31.850  27.778  1.00  0.00     0.016 A 
ATOM     28  C   UNL A   1      36.133  29.246  28.462  1.00  0.00     0.010 A 
ATOM     29  C   UNL A   1      36.607  31.609  28.441  1.00  0.00     0.010 A 
ATOM     30  C   UNL A   1      36.972  30.307  28.830  1.00  0.00    -0.014 A 
BRANCH  30  31
ATOM     31  C   UNL A   1      38.220  30.077  29.616  1.00  0.00     0.031 A 
ATOM     32  C   UNL A   1      39.324  29.213  29.058  1.00  0.00     0.074 A 
ATOM     33  C   UNL A   1      38.354  30.594  30.856  1.00  0.00     0.049 A 
ATOM     34  N   UNL A   1      40.352  28.685  29.670  1.00  0.00    -0.248 NA
ATOM     35  C   UNL A   1      39.248  28.879  27.625  1.00  0.00     0.031 C 
ATOM     36  C   UNL A   1      37.380  31.455  31.529  1.00  0.00     0.029 A 
ATOM     37  N   UNL A   1      39.360  30.451  31.783  1.00  0.00    -0.354 N 
ATOM     38  C   UNL A   1      40.989  27.885  28.729  1.00  0.00     0.074 A 
ATOM     39  C   UNL A   1      40.245  28.013  27.494  1.00  0.00     0.031 C 
ATOM     40  C   UNL A   1      37.843  31.784  32.743  1.00  0.00     0.029 A 
ATOM     41  C   UNL A   1      39.100  31.085  32.975  1.00  0.00     0.049 A 
ATOM     42  H   UNL A   1      40.186  29.945  31.607  1.00  0.00     0.167 HD
ATOM     43  C   UNL A   1      42.096  27.118  28.877  1.00  0.00     0.034 A 
ATOM     44  C   UNL A   1      39.765  31.070  34.148  1.00  0.00     0.034 A 
ATOM     45  C   UNL A   1      42.896  27.072  30.072  1.00  0.00     0.049 A 
ATOM     46  C   UNL A   1      41.015  30.247  34.274  1.00  0.00     0.074 A 
ATOM     47  C   UNL A   1      44.063  26.362  30.300  1.00  0.00     0.029 A 
ATOM     48  N   UNL A   1      42.630  27.785  31.231  1.00  0.00    -0.354 N 
ATOM     49  N   UNL A   1      41.613  29.514  33.366  1.00  0.00    -0.248 NA
ATOM     50  C   UNL A   1      41.684  30.252  35.582  1.00  0.00     0.031 C 
ATOM     51  C   UNL A   1      44.504  26.650  31.596  1.00  0.00     0.029 A 
ATOM     52  C   UNL A   1      43.613  27.539  32.175  1.00  0.00     0.049 A 
ATOM     53  H   UNL A   1      41.855  28.378  31.364  1.00  0.00     0.167 HD
ATOM     54  C   UNL A   1      42.732  28.977  33.990  1.00  0.00     0.074 A 
ATOM     55  C   UNL A   1      42.749  29.498  35.341  1.00  0.00     0.031 C 
ATOM     56  C   UNL A   1      43.647  28.107  33.496  1.00  0.00     0.034 A 
BRANCH  43  57
ATOM     57  C   UNL A   1      42.541  26.286  27.703  1.00  0.00     0.023 A 
ATOM     58  C   UNL A   1      43.505  26.794  26.812  1.00  0.00     0.012 A 
ATOM     59  C   UNL A   1      42.057  24.974  27.525  1.00  0.00     0.148 A 
ATOM     60  C   UNL A   1      43.966  26.019  25.749  1.00  0.00     0.002 A 
ATOM     61  C   UNL A   1      42.550  24.193  26.485  1.00  0.00     0.091 A 
ATOM     62  F   UNL A   1      41.119  24.515  28.367  1.00  0.00    -0.205 F 
ATOM     63  C   UNL A   1      43.498  24.716  25.592  1.00  0.00     0.022 A 
BRANCH  61  64
ATOM     64  S   UNL A   1      42.055  22.480  26.255  1.00  0.00     0.127 S 
ATOM     65  O   UNL A   1      42.751  22.134  25.017  1.00  0.00    -0.237 OA
ATOM     66  O   UNL A   1      42.591  21.836  27.455  1.00  0.00    -0.237 OA
ATOM     67  O   UNL A   1      40.601  22.495  26.181  1.00  0.00    -0.744 OA
ENDBRANCH  61  64
ENDBRANCH  43  57
BRANCH  44  68
ATOM     68  C   UNL A   1      39.258  31.883  35.289  1.00  0.00     0.023 A 
ATOM     69  C   UNL A   1      38.389  31.288  36.223  1.00  0.00     0.012 A 
ATOM     70  C   UNL A   1      39.683  33.210  35.496  1.00  0.00     0.148 A 
ATOM     71  C   UNL A   1      37.945  32.003  37.337  1.00  0.00     0.002 A 
ATOM     72  C   UNL A   1      39.288  33.894  36.640  1.00  0.00     0.091 A 
ATOM     73  F   UNL A   1      40.486  33.772  34.582  1.00  0.00    -0.205 F 
ATOM     74  C   UNL A   1      38.408  33.298  37.555  1.00  0.00     0.022 A 
BRANCH  72  75
ATOM     75  S   UNL A   1      39.978  35.498  37.062  1.00  0.00     0.127 S 
ATOM     76  O   UNL A   1      41.399  35.190  37.197  1.00  0.00    -0.237 OA
ATOM     77  O   UNL A   1      39.632  36.306  35.892  1.00  0.00    -0.237 OA
ATOM     78  O   UNL A   1      39.288  35.898  38.283  1.00  0.00    -0.744 OA
ENDBRANCH  72  75
ENDBRANCH  44  68
BRANCH  56  79
ATOM     79  C   UNL A   1      44.752  27.669  34.418  1.00  0.00     0.023 A 
ATOM     80  C   UNL A   1      45.942  28.421  34.472  1.00  0.00     0.012 A 
ATOM     81  C   UNL A   1      44.591  26.562  35.273  1.00  0.00     0.148 A 
ATOM     82  C   UNL A   1      46.966  28.063  35.347  1.00  0.00     0.002 A 
ATOM     83  C   UNL A   1      45.602  26.233  36.168  1.00  0.00     0.091 A 
ATOM     84  F   UNL A   1      43.460  25.846  35.189  1.00  0.00    -0.205 F 
ATOM     85  C   UNL A   1      46.792  26.977  36.202  1.00  0.00     0.022 A 
BRANCH  83  86
ATOM     86  S   UNL A   1      45.423  24.896  37.355  1.00  0.00     0.127 S 
ATOM     87  O   UNL A   1      44.247  25.321  38.110  1.00  0.00    -0.237 OA
ATOM     88  O   UNL A   1      45.205  23.734  36.492  1.00  0.00    -0.237 OA
ATOM     89  O   UNL A   1      46.674  24.861  38.100  1.00  0.00    -0.744 OA
ENDBRANCH  83  86
ENDBRANCH  56  79
ENDBRANCH  30  31
ENDBRANCH  23  25
ENDBRANCH  22  23
ENDBRANCH   1  22
TORSDOF 17
ENDMDL
MODEL 2
REMARK VINA RESULT:     -10.9      1.220      1.901
REMARK SMILES C[NH2+][C@]1(C(=O)OCCOC(=O)c2ccc(-c3c4nc(c(-c5cccc(S(=O)(=O)[O-])c5F)c5ccc([nH]5)c(-c5cccc(S(=O)(=O)[O-])c5F)c5nc(c(-c6cccc(S(=O)(=O)[O-])c6F)c6ccc3[nH]6)C=C5)C=C4)cc2)CC[C@H](SC2CCCCC2)C1
REMARK SMILES IDX 8 1 7 2 6 3 4 4 5 5 3 6 75 7 85 8 76 9 77 10 2 11 1 12 78 15
REMARK SMILES IDX 79 16 80 17 84 18 81 19 83 20 82 21 9 22 10 23 11 24 12 25
REMARK SMILES IDX 13 26 74 27 14 28 73 29 15 30 16 31 17 32 67 33 18 34 72 35
REMARK SMILES IDX 66 36 68 37 19 38 71 39 65 40 64 41 20 43 52 44 32 45 51 46
REMARK SMILES IDX 33 47 36 48 50 49 69 50 34 51 35 52 49 54 70 55 37 56 21 57
REMARK SMILES IDX 22 58 30 59 23 60 25 61 31 62 24 63 26 64 27 65 28 66 29 67
REMARK SMILES IDX 53 68 54 69 62 70 55 71 57 72 63 73 56 74 58 75 59 76 60 77
REMARK SMILES IDX 61 78 38 79 39 80 47 81 40 82 42 83 48 84 41 85 43 86 44 87
REMARK SMILES IDX 45 88 46 89
REMARK H PARENT 2 13 2 14 68 42 36 53
REMARK Flexibility Score: inf
ROOT
ATOM      1  C   UNL A   1      31.365  30.337  25.361  1.00  0.00     0.275 C 
ENDROOT
BRANCH   1   2
ATOM      2  C   UNL A   1      31.217  29.283  24.268  1.00  0.00     0.274 C 
BRANCH   2   3
ATOM      3  O   UNL A   1      32.062  28.144  24.531  1.00  0.00    -0.457 OA
BRANCH   3   4
ATOM      4  C   UNL A   1      31.411  26.957  24.684  1.00  0.00     0.368 C 
ATOM      5  O   UNL A   1      30.227  26.851  24.989  1.00  0.00    -0.245 OA
BRANCH   4   6
ATOM      6  C   UNL A   1      32.318  25.738  24.439  1.00  0.00     0.195 C 
ATOM      7  C   UNL A   1      33.336  25.426  25.540  1.00  0.00     0.082 C 
ATOM      8  C   UNL A   1      31.437  24.473  24.544  1.00  0.00     0.095 C 
ATOM      9  C   UNL A   1      33.703  23.965  25.273  1.00  0.00     0.022 C 
ATOM     10  C   UNL A   1      32.418  23.303  24.750  1.00  0.00     0.054 C 
BRANCH   6  11
ATOM     11  N   UNL A   1      32.893  25.764  23.077  1.00  0.00    -0.335 N 
ATOM     12  C   UNL A   1      31.964  25.893  21.972  1.00  0.00     0.331 C 
ATOM     13  H   UNL A   1      33.537  26.554  23.030  1.00  0.00     0.347 HD
ATOM     14  H   UNL A   1      33.324  24.849  22.954  1.00  0.00     0.347 HD
ENDBRANCH   6  11
BRANCH  10  15
ATOM     15  S   UNL A   1      32.588  22.385  23.167  1.00  0.00    -0.155 SA
BRANCH  15  16
ATOM     16  C   UNL A   1      32.854  20.646  23.667  1.00  0.00     0.047 C 
ATOM     17  C   UNL A   1      32.542  20.388  25.144  1.00  0.00     0.014 C 
ATOM     18  C   UNL A   1      32.158  19.641  22.749  1.00  0.00     0.014 C 
ATOM     19  C   UNL A   1      32.893  18.955  25.536  1.00  0.00     0.001 C 
ATOM     20  C   UNL A   1      32.504  18.207  23.155  1.00  0.00     0.001 C 
ATOM     21  C   UNL A   1      32.188  17.950  24.627  1.00  0.00     0.000 C 
ENDBRANCH  15  16
ENDBRANCH  10  15
ENDBRANCH   4   6
ENDBRANCH   3   4
ENDBRANCH   2   3
ENDBRANCH   1   2
BRANCH   1  22
ATOM     22  O   UNL A   1      32.617  30.153  26.038  1.00  0.00    -0.458 OA
BRANCH  22  23
ATOM     23  C   UNL A   1      32.998  31.159  26.859  1.00  0.00     0.338 C 
ATOM     24  O   UNL A   1      32.351  32.152  27.144  1.00  0.00    -0.246 OA
BRANCH  23  25
ATOM     25  C   UNL A   1      34.339  30.885  27.415  1.00  0.00     0.060 A 
ATOM     26  C   UNL A   1      34.757  29.577  27.662  1.00  0.00     0.016 A 
ATOM     27  C   UNL A   1      35.141  31.952  27.814  1.00  0.00     0.016 A 
ATOM     28  C   UNL A   1      35.909  29.337  28.411  1.00  0.00     0.010 A 
ATOM     29  C   UNL A   1      36.361  31.704  28.453  1.00  0.00     0.010 A 
ATOM     30  C   UNL A   1      36.743  30.395  28.797  1.00  0.00    -0.014 A 
BRANCH  30  31
ATOM     31  C   UNL A   1      38.004  30.154  29.559  1.00  0.00     0.031 A 
ATOM     32  C   UNL A   1      39.092  29.286  28.976  1.00  0.00     0.074 A 
ATOM     33  C   UNL A   1      38.165  30.665  30.798  1.00  0.00     0.049 A 
ATOM     34  N   UNL A   1      40.128  28.749  29.568  1.00  0.00    -0.248 NA
ATOM     35  C   UNL A   1      38.987  28.957  27.544  1.00  0.00     0.031 C 
ATOM     36  C   UNL A   1      37.210  31.530  31.492  1.00  0.00     0.029 A 
ATOM     37  N   UNL A   1      39.188  30.512  31.705  1.00  0.00    -0.354 N 
ATOM     38  C   UNL A   1      40.742  27.948  28.611  1.00  0.00     0.074 A 
ATOM     39  C   UNL A   1      39.975  28.085  27.392  1.00  0.00     0.031 C 
ATOM     40  C   UNL A   1      37.698  31.851  32.698  1.00  0.00     0.029 A 
ATOM     41  C   UNL A   1      38.955  31.144  32.905  1.00  0.00     0.049 A 
ATOM     42  H   UNL A   1      40.007  30.002  31.512  1.00  0.00     0.167 HD
ATOM     43  C   UNL A   1      41.847  27.173  28.735  1.00  0.00     0.034 A 
ATOM     44  C   UNL A   1      39.642  31.121  34.064  1.00  0.00     0.034 A 
ATOM     45  C   UNL A   1      42.669  27.118  29.915  1.00  0.00     0.049 A 
ATOM     46  C   UNL A   1      40.889  30.290  34.163  1.00  0.00     0.074 A 
ATOM     47  C   UNL A   1      43.835  26.400  30.118  1.00  0.00     0.029 A 
ATOM     48  N   UNL A   1      42.429  27.828  31.081  1.00  0.00    -0.354 N 
ATOM     49  N   UNL A   1      41.465  29.556  33.242  1.00  0.00    -0.248 NA
ATOM     50  C   UNL A   1      41.583  30.285  35.458  1.00  0.00     0.031 C 
ATOM     51  C   UNL A   1      44.303  26.680  31.407  1.00  0.00     0.029 A 
ATOM     52  C   UNL A   1      43.429  27.573  32.005  1.00  0.00     0.049 A 
ATOM     53  H   UNL A   1      41.661  28.426  31.231  1.00  0.00     0.167 HD
ATOM     54  C   UNL A   1      42.592  29.010  33.842  1.00  0.00     0.074 A 
ATOM     55  C   UNL A   1      42.638  29.525  35.194  1.00  0.00     0.031 C 
ATOM     56  C   UNL A   1      43.492  28.136  33.328  1.00  0.00     0.034 A 
BRANCH  43  57
ATOM     57  C   UNL A   1      42.264  26.343  27.550  1.00  0.00     0.023 A 
ATOM     58  C   UNL A   1      43.086  26.907  26.556  1.00  0.00     0.012 A 
ATOM     59  C   UNL A   1      41.901  24.984  27.459  1.00  0.00     0.148 A 
ATOM     60  C   UNL A   1      43.523  26.140  25.478  1.00  0.00     0.002 A 
ATOM     61  C   UNL A   1      42.373  24.214  26.401  1.00  0.00     0.091 A 
ATOM     62  F   UNL A   1      41.096  24.470  28.400  1.00  0.00    -0.205 F 
ATOM     63  C   UNL A   1      43.178  24.792  25.406  1.00  0.00     0.022 A 
BRANCH  61  64
ATOM     64  S   UNL A   1      42.035  22.453  26.271  1.00  0.00     0.127 S 
ATOM     65  O   UNL A   1      40.576  22.434  26.213  1.00  0.00    -0.237 OA
ATOM     66  O   UNL A   1      42.700  22.099  25.016  1.00  0.00    -0.237 OA
ATOM     67  O   UNL A   1      42.630  21.850  27.456  1.00  0.00    -0.744 OA
ENDBRANCH  61  64
ENDBRANCH  43  57
BRANCH  44  68
ATOM     68  C   UNL A   1      39.162  31.932  35.218  1.00  0.00     0.023 A 
ATOM     69  C   UNL A   1      38.290  31.345  36.155  1.00  0.00     0.012 A 
ATOM     70  C   UNL A   1      39.614  33.249  35.433  1.00  0.00     0.148 A 
ATOM     71  C   UNL A   1      37.872  32.059  37.280  1.00  0.00     0.002 A 
ATOM     72  C   UNL A   1      39.244  33.930  36.587  1.00  0.00     0.091 A 
ATOM     73  F   UNL A   1      40.419  33.804  34.516  1.00  0.00    -0.205 F 
ATOM     74  C   UNL A   1      38.362  33.342  37.505  1.00  0.00     0.022 A 
BRANCH  72  75
ATOM     75  S   UNL A   1      39.969  35.517  37.016  1.00  0.00     0.127 S 
ATOM     76  O   UNL A   1      39.311  35.816  38.284  1.00  0.00    -0.237 OA
ATOM     77  O   UNL A   1      41.392  35.193  37.123  1.00  0.00    -0.237 OA
ATOM     78  O   UNL A   1      39.644  36.396  35.900  1.00  0.00    -0.744 OA
ENDBRANCH  72  75
ENDBRANCH  44  68
BRANCH  56  79
ATOM     79  C   UNL A   1      44.612  27.687  34.227  1.00  0.00     0.023 A 
ATOM     80  C   UNL A   1      45.793  28.452  34.287  1.00  0.00     0.012 A 
ATOM     81  C   UNL A   1      44.472  26.558  35.055  1.00  0.00     0.148 A 
ATOM     82  C   UNL A   1      46.830  28.084  35.142  1.00  0.00     0.002 A 
ATOM     83  C   UNL A   1      45.496  26.218  35.931  1.00  0.00     0.091 A 
ATOM     84  F   UNL A   1      43.349  25.830  34.964  1.00  0.00    -0.205 F 
ATOM     85  C   UNL A   1      46.678  26.974  35.971  1.00  0.00     0.022 A 
BRANCH  83  86
ATOM     86  S   UNL A   1      45.345  24.849  37.085  1.00  0.00     0.127 S 
ATOM     87  O   UNL A   1      46.550  25.006  37.896  1.00  0.00    -0.237 OA
ATOM     88  O   UNL A   1      44.096  25.159  37.783  1.00  0.00    -0.237 OA
ATOM     89  O   UNL A   1      45.287  23.647  36.264  1.00  0.00    -0.744 OA
ENDBRANCH  83  86
ENDBRANCH  56  79
ENDBRANCH  30  31
ENDBRANCH  23  25
ENDBRANCH  22  23
ENDBRANCH   1  22
TORSDOF 17
ENDMDL
MODEL 3
REMARK VINA RESULT:     -10.8      5.460     10.218
REMARK SMILES C[NH2+][C@]1(C(=O)OCCOC(=O)c2ccc(-c3c4nc(c(-c5cccc(S(=O)(=O)[O-])c5F)c5ccc([nH]5)c(-c5cccc(S(=O)(=O)[O-])c5F)c5nc(c(-c6cccc(S(=O)(=O)[O-])c6F)c6ccc3[nH]6)C=C5)C=C4)cc2)CC[C@H](SC2CCCCC2)C1
REMARK SMILES IDX 8 1 7 2 6 3 4 4 5 5 3 6 75 7 85 8 76 9 77 10 2 11 1 12 78 15
REMARK SMILES IDX 79 16 80 17 84 18 81 19 83 20 82 21 9 22 10 23 11 24 12 25
REMARK SMILES IDX 13 26 74 27 14 28 73 29 15 30 16 31 17 32 67 33 18 34 72 35
REMARK SMILES IDX 66 36 68 37 19 38 71 39 65 40 64 41 20 43 52 44 32 45 51 46
REMARK SMILES IDX 33 47 36 48 50 49 69 50 34 51 35 52 49 54 70 55 37 56 21 57
REMARK SMILES IDX 22 58 30 59 23 60 25 61 31 62 24 63 26 64 27 65 28 66 29 67
REMARK SMILES IDX 53 68 54 69 62 70 55 71 57 72 63 73 56 74 58 75 59 76 60 77
REMARK SMILES IDX 61 78 38 79 39 80 47 81 40 82 42 83 48 84 41 85 43 86 44 87
REMARK SMILES IDX 45 88 46 89
REMARK H PARENT 2 13 2 14 68 42 36 53
REMARK Flexibility Score: inf
ROOT
ATOM      1  C   UNL A   1      35.731  20.865  25.094  1.00  0.00     0.275 C 
ENDROOT
BRANCH   1   2
ATOM      2  C   UNL A   1      34.345  20.986  25.720  1.00  0.00     0.274 C 
BRANCH   2   3
ATOM      3  O   UNL A   1      33.751  22.266  25.416  1.00  0.00    -0.457 OA
BRANCH   3   4
ATOM      4  C   UNL A   1      33.322  22.981  26.493  1.00  0.00     0.368 C 
ATOM      5  O   UNL A   1      33.520  22.659  27.661  1.00  0.00    -0.245 OA
BRANCH   4   6
ATOM      6  C   UNL A   1      32.547  24.251  26.102  1.00  0.00     0.195 C 
ATOM      7  C   UNL A   1      33.361  25.548  26.056  1.00  0.00     0.082 C 
ATOM      8  C   UNL A   1      32.180  24.131  24.606  1.00  0.00     0.095 C 
ATOM      9  C   UNL A   1      32.499  26.471  25.193  1.00  0.00     0.022 C 
ATOM     10  C   UNL A   1      31.830  25.560  24.151  1.00  0.00     0.054 C 
BRANCH   6  11
ATOM     11  N   UNL A   1      31.282  24.360  26.860  1.00  0.00    -0.335 N 
ATOM     12  C   UNL A   1      30.360  23.247  26.767  1.00  0.00     0.331 C 
ATOM     13  H   UNL A   1      31.523  24.478  27.844  1.00  0.00     0.347 HD
ATOM     14  H   UNL A   1      30.789  25.147  26.440  1.00  0.00     0.347 HD
ENDBRANCH   6  11
BRANCH  10  15
ATOM     15  S   UNL A   1      30.003  25.713  24.022  1.00  0.00    -0.155 SA
BRANCH  15  16
ATOM     16  C   UNL A   1      29.716  27.464  23.577  1.00  0.00     0.047 C 
ATOM     17  C   UNL A   1      30.596  27.945  22.420  1.00  0.00     0.014 C 
ATOM     18  C   UNL A   1      28.240  27.795  23.353  1.00  0.00     0.014 C 
ATOM     19  C   UNL A   1      30.403  29.438  22.168  1.00  0.00     0.001 C 
ATOM     20  C   UNL A   1      28.056  29.290  23.089  1.00  0.00     0.001 C 
ATOM     21  C   UNL A   1      28.930  29.768  21.932  1.00  0.00     0.000 C 
ENDBRANCH  15  16
ENDBRANCH  10  15
ENDBRANCH   4   6
ENDBRANCH   3   4
ENDBRANCH   2   3
ENDBRANCH   1   2
BRANCH   1  22
ATOM     22  O   UNL A   1      36.680  21.593  25.886  1.00  0.00    -0.458 OA
BRANCH  22  23
ATOM     23  C   UNL A   1      37.973  21.215  25.753  1.00  0.00     0.338 C 
ATOM     24  O   UNL A   1      38.381  20.125  25.393  1.00  0.00    -0.246 OA
BRANCH  23  25
ATOM     25  C   UNL A   1      38.870  22.343  26.081  1.00  0.00     0.060 A 
ATOM     26  C   UNL A   1      40.075  22.127  26.749  1.00  0.00     0.016 A 
ATOM     27  C   UNL A   1      38.443  23.646  25.831  1.00  0.00     0.016 A 
ATOM     28  C   UNL A   1      40.791  23.203  27.273  1.00  0.00     0.010 A 
ATOM     29  C   UNL A   1      39.229  24.726  26.247  1.00  0.00     0.010 A 
ATOM     30  C   UNL A   1      40.394  24.522  27.010  1.00  0.00    -0.014 A 
BRANCH  30  31
ATOM     31  C   UNL A   1      41.173  25.687  27.523  1.00  0.00     0.031 A 
ATOM     32  C   UNL A   1      40.513  26.712  28.411  1.00  0.00     0.074 A 
ATOM     33  C   UNL A   1      42.459  25.866  27.157  1.00  0.00     0.049 A 
ATOM     34  N   UNL A   1      40.927  27.908  28.744  1.00  0.00    -0.248 NA
ATOM     35  C   UNL A   1      39.202  26.356  28.982  1.00  0.00     0.031 C 
ATOM     36  C   UNL A   1      43.238  24.959  26.312  1.00  0.00     0.029 A 
ATOM     37  N   UNL A   1      43.336  26.889  27.434  1.00  0.00    -0.354 N 
ATOM     38  C   UNL A   1      39.894  28.479  29.479  1.00  0.00     0.074 A 
ATOM     39  C   UNL A   1      38.840  27.492  29.564  1.00  0.00     0.031 C 
ATOM     40  C   UNL A   1      44.477  25.447  26.161  1.00  0.00     0.029 A 
ATOM     41  C   UNL A   1      44.557  26.746  26.817  1.00  0.00     0.049 A 
ATOM     42  H   UNL A   1      43.111  27.648  28.019  1.00  0.00     0.167 HD
ATOM     43  C   UNL A   1      39.831  29.713  30.037  1.00  0.00     0.034 A 
ATOM     44  C   UNL A   1      45.611  27.582  26.737  1.00  0.00     0.034 A 
ATOM     45  C   UNL A   1      40.918  30.655  30.043  1.00  0.00     0.049 A 
ATOM     46  C   UNL A   1      45.535  28.926  27.402  1.00  0.00     0.074 A 
ATOM     47  C   UNL A   1      40.966  31.910  30.626  1.00  0.00     0.029 A 
ATOM     48  N   UNL A   1      42.159  30.438  29.463  1.00  0.00    -0.354 N 
ATOM     49  N   UNL A   1      44.558  29.440  28.110  1.00  0.00    -0.248 NA
ATOM     50  C   UNL A   1      46.704  29.804  27.263  1.00  0.00     0.031 C 
ATOM     51  C   UNL A   1      42.237  32.450  30.402  1.00  0.00     0.029 A 
ATOM     52  C   UNL A   1      42.982  31.530  29.681  1.00  0.00     0.049 A 
ATOM     53  H   UNL A   1      42.416  29.626  28.969  1.00  0.00     0.167 HD
ATOM     54  C   UNL A   1      44.998  30.697  28.507  1.00  0.00     0.074 A 
ATOM     55  C   UNL A   1      46.342  30.852  27.991  1.00  0.00     0.031 C 
ATOM     56  C   UNL A   1      44.336  31.648  29.210  1.00  0.00     0.034 A 
BRANCH  43  57
ATOM     57  C   UNL A   1      38.554  30.110  30.728  1.00  0.00     0.023 A 
ATOM     58  C   UNL A   1      38.355  29.768  32.079  1.00  0.00     0.012 A 
ATOM     59  C   UNL A   1      37.585  30.886  30.061  1.00  0.00     0.148 A 
ATOM     60  C   UNL A   1      37.201  30.171  32.750  1.00  0.00     0.002 A 
ATOM     61  C   UNL A   1      36.454  31.317  30.747  1.00  0.00     0.091 A 
ATOM     62  F   UNL A   1      37.778  31.181  28.767  1.00  0.00    -0.205 F 
ATOM     63  C   UNL A   1      36.258  30.955  32.089  1.00  0.00     0.022 A 
BRANCH  61  64
ATOM     64  S   UNL A   1      35.225  32.390  29.993  1.00  0.00     0.127 S 
ATOM     65  O   UNL A   1      34.318  32.635  31.112  1.00  0.00    -0.237 OA
ATOM     66  O   UNL A   1      36.025  33.548  29.592  1.00  0.00    -0.237 OA
ATOM     67  O   UNL A   1      34.668  31.632  28.881  1.00  0.00    -0.744 OA
ENDBRANCH  61  64
ENDBRANCH  43  57
BRANCH  44  68
ATOM     68  C   UNL A   1      46.837  27.151  26.007  1.00  0.00     0.023 A 
ATOM     69  C   UNL A   1      47.704  26.220  26.609  1.00  0.00     0.012 A 
ATOM     70  C   UNL A   1      47.111  27.598  24.699  1.00  0.00     0.148 A 
ATOM     71  C   UNL A   1      48.826  25.749  25.925  1.00  0.00     0.002 A 
ATOM     72  C   UNL A   1      48.195  27.078  24.001  1.00  0.00     0.091 A 
ATOM     73  F   UNL A   1      46.293  28.509  24.152  1.00  0.00    -0.205 F 
ATOM     74  C   UNL A   1      49.061  26.163  24.617  1.00  0.00     0.022 A 
BRANCH  72  75
ATOM     75  S   UNL A   1      48.458  27.444  22.262  1.00  0.00     0.127 S 
ATOM     76  O   UNL A   1      49.629  28.313  22.310  1.00  0.00    -0.237 OA
ATOM     77  O   UNL A   1      48.698  26.116  21.695  1.00  0.00    -0.237 OA
ATOM     78  O   UNL A   1      47.216  28.063  21.813  1.00  0.00    -0.744 OA
ENDBRANCH  72  75
ENDBRANCH  44  68
BRANCH  56  79
ATOM     79  C   UNL A   1      45.059  32.941  29.473  1.00  0.00     0.023 A 
ATOM     80  C   UNL A   1      45.901  33.041  30.598  1.00  0.00     0.012 A 
ATOM     81  C   UNL A   1      44.958  34.026  28.582  1.00  0.00     0.148 A 
ATOM     82  C   UNL A   1      46.615  34.212  30.844  1.00  0.00     0.002 A 
ATOM     83  C   UNL A   1      45.701  35.177  28.815  1.00  0.00     0.091 A 
ATOM     84  F   UNL A   1      44.132  33.918  27.531  1.00  0.00    -0.205 F 
ATOM     85  C   UNL A   1      46.524  35.275  29.948  1.00  0.00     0.022 A 
BRANCH  83  86
ATOM     86  S   UNL A   1      45.697  36.559  27.668  1.00  0.00     0.127 S 
ATOM     87  O   UNL A   1      46.180  37.651  28.511  1.00  0.00    -0.237 OA
ATOM     88  O   UNL A   1      46.643  36.121  26.639  1.00  0.00    -0.237 OA
ATOM     89  O   UNL A   1      44.322  36.680  27.201  1.00  0.00    -0.744 OA
ENDBRANCH  83  86
ENDBRANCH  56  79
ENDBRANCH  30  31
ENDBRANCH  23  25
ENDBRANCH  22  23
ENDBRANCH   1  22
TORSDOF 17
ENDMDL
