MODEL 1
REMARK VINA RESULT:     -11.1      0.000      0.000
REMARK SMILES CCS(=O)(=O)c1ccccc1NC[C@H]1CC[C@H](C(=O)OCCOC(=O)c2ccc(-c3c4nc(c(-c5cccc(S(=O)(=O)[O-])c5F)c5ccc([nH]5)c(-c5cccc(S(=O)(=O)[O-])c5F)c5nc(c(-c6cccc(S(=O)(=O)[O-])c6F)c6ccc3[nH]6)C=C5)C=C4)cc2)O1
REMARK SMILES IDX 21 1 20 2 18 3 19 4 17 5 14 6 15 7 89 8 16 9 13 10 12 11
REMARK SMILES IDX 11 13 6 14 7 15 8 16 10 17 9 18 3 19 4 20 5 21 2 22 1 23
REMARK SMILES IDX 22 24 23 25 24 26 25 27 26 28 27 29 88 30 28 31 87 32 29 33
REMARK SMILES IDX 30 34 31 35 81 36 32 37 86 38 80 39 82 40 33 41 85 42 79 43
REMARK SMILES IDX 78 44 34 46 66 47 46 48 65 49 47 50 50 51 64 52 83 53 48 54
REMARK SMILES IDX 49 55 63 57 84 58 51 59 35 60 36 61 44 62 37 63 39 64 45 65
REMARK SMILES IDX 38 66 40 67 41 68 42 69 43 70 67 71 68 72 76 73 69 74 71 75
REMARK SMILES IDX 77 76 70 77 72 78 73 79 74 80 75 81 52 82 53 83 61 84 54 85
REMARK SMILES IDX 56 86 62 87 55 88 57 89 58 90 59 91 60 92
REMARK H PARENT 12 12 82 45 50 56
REMARK Flexibility Score: inf
ROOT
ATOM      1  C   UNL A   1      31.880  28.183  24.593  1.00  0.00     0.274 C 
ENDROOT
BRANCH   1   2
ATOM      2  O   UNL A   1      32.692  27.104  25.092  1.00  0.00    -0.460 OA
BRANCH   2   3
ATOM      3  C   UNL A   1      32.046  26.177  25.852  1.00  0.00     0.335 C 
ATOM      4  O   UNL A   1      31.309  26.441  26.796  1.00  0.00    -0.249 OA
BRANCH   3   5
ATOM      5  C   UNL A   1      32.336  24.742  25.405  1.00  0.00     0.228 C 
ATOM      6  C   UNL A   1      31.207  22.705  25.322  1.00  0.00     0.138 C 
ATOM      7  C   UNL A   1      31.801  22.837  26.713  1.00  0.00     0.037 C 
ATOM      8  O   UNL A   1      31.182  24.073  24.857  1.00  0.00    -0.361 OA
ATOM      9  C   UNL A   1      32.911  23.835  26.491  1.00  0.00     0.047 C 
BRANCH   6  10
ATOM     10  C   UNL A   1      32.028  21.855  24.319  1.00  0.00     0.145 C 
BRANCH  10  11
ATOM     11  N   UNL A   1      32.573  20.640  24.906  1.00  0.00    -0.381 N 
ATOM     12  H   UNL A   1      31.941  20.050  25.377  1.00  0.00     0.160 HD
BRANCH  11  13
ATOM     13  C   UNL A   1      33.895  20.231  24.866  1.00  0.00     0.053 A 
ATOM     14  C   UNL A   1      34.246  18.889  24.607  1.00  0.00     0.090 A 
ATOM     15  C   UNL A   1      35.584  18.462  24.590  1.00  0.00     0.022 A 
ATOM     16  C   UNL A   1      36.603  19.362  24.880  1.00  0.00     0.001 A 
ATOM     17  C   UNL A   1      34.949  21.104  25.178  1.00  0.00     0.027 A 
ATOM     18  C   UNL A   1      36.284  20.680  25.181  1.00  0.00     0.002 A 
BRANCH  14  19
ATOM     19  S   UNL A   1      32.991  17.673  24.240  1.00  0.00     0.180 S 
ATOM     20  O   UNL A   1      32.878  17.567  22.795  1.00  0.00    -0.224 OA
ATOM     21  O   UNL A   1      31.822  18.013  25.034  1.00  0.00    -0.224 OA
BRANCH  19  22
ATOM     22  C   UNL A   1      33.641  16.140  24.866  1.00  0.00     0.139 C 
ATOM     23  C   UNL A   1      32.587  15.240  25.474  1.00  0.00     0.021 C 
ENDBRANCH  19  22
ENDBRANCH  14  19
ENDBRANCH  11  13
ENDBRANCH  10  11
ENDBRANCH   6  10
ENDBRANCH   3   5
ENDBRANCH   2   3
ENDBRANCH   1   2
BRANCH   1  24
ATOM     24  C   UNL A   1      32.426  29.546  25.029  1.00  0.00     0.275 C 
BRANCH  24  25
ATOM     25  O   UNL A   1      32.419  29.693  26.461  1.00  0.00    -0.458 OA
BRANCH  25  26
ATOM     26  C   UNL A   1      32.878  30.878  26.928  1.00  0.00     0.338 C 
ATOM     27  O   UNL A   1      32.296  31.948  26.925  1.00  0.00    -0.246 OA
BRANCH  26  28
ATOM     28  C   UNL A   1      34.182  30.681  27.579  1.00  0.00     0.060 A 
ATOM     29  C   UNL A   1      34.538  29.387  27.970  1.00  0.00     0.016 A 
ATOM     30  C   UNL A   1      35.010  31.766  27.865  1.00  0.00     0.016 A 
ATOM     31  C   UNL A   1      35.738  29.171  28.645  1.00  0.00     0.010 A 
ATOM     32  C   UNL A   1      36.215  31.546  28.540  1.00  0.00     0.010 A 
ATOM     33  C   UNL A   1      36.585  30.248  28.937  1.00  0.00    -0.014 A 
BRANCH  33  34
ATOM     34  C   UNL A   1      37.864  30.020  29.649  1.00  0.00     0.031 A 
ATOM     35  C   UNL A   1      38.908  29.114  29.061  1.00  0.00     0.074 A 
ATOM     36  C   UNL A   1      38.067  30.604  30.844  1.00  0.00     0.049 A 
ATOM     37  N   UNL A   1      40.047  28.729  29.574  1.00  0.00    -0.248 NA
ATOM     38  C   UNL A   1      38.633  28.566  27.724  1.00  0.00     0.031 C 
ATOM     39  C   UNL A   1      37.123  31.499  31.515  1.00  0.00     0.029 A 
ATOM     40  N   UNL A   1      39.120  30.509  31.720  1.00  0.00    -0.354 N 
ATOM     41  C   UNL A   1      40.611  27.867  28.642  1.00  0.00     0.074 A 
ATOM     42  C   UNL A   1      39.688  27.785  27.530  1.00  0.00     0.031 C 
ATOM     43  C   UNL A   1      37.629  31.854  32.707  1.00  0.00     0.029 A 
ATOM     44  C   UNL A   1      38.913  31.184  32.900  1.00  0.00     0.049 A 
ATOM     45  H   UNL A   1      39.944  30.006  31.522  1.00  0.00     0.167 HD
ATOM     46  C   UNL A   1      41.797  27.215  28.703  1.00  0.00     0.034 A 
ATOM     47  C   UNL A   1      39.657  31.234  34.022  1.00  0.00     0.034 A 
ATOM     48  C   UNL A   1      42.726  27.325  29.797  1.00  0.00     0.049 A 
ATOM     49  C   UNL A   1      40.961  30.484  34.069  1.00  0.00     0.074 A 
ATOM     50  C   UNL A   1      43.979  26.749  29.922  1.00  0.00     0.029 A 
ATOM     51  N   UNL A   1      42.502  28.051  30.957  1.00  0.00    -0.354 N 
ATOM     52  N   UNL A   1      41.534  29.768  33.132  1.00  0.00    -0.248 NA
ATOM     53  C   UNL A   1      41.730  30.565  35.319  1.00  0.00     0.031 C 
ATOM     54  C   UNL A   1      44.505  27.115  31.167  1.00  0.00     0.029 A 
ATOM     55  C   UNL A   1      43.584  27.927  31.810  1.00  0.00     0.049 A 
ATOM     56  H   UNL A   1      41.691  28.577  31.145  1.00  0.00     0.167 HD
ATOM     57  C   UNL A   1      42.738  29.329  33.671  1.00  0.00     0.074 A 
ATOM     58  C   UNL A   1      42.824  29.885  35.007  1.00  0.00     0.031 C 
ATOM     59  C   UNL A   1      43.677  28.523  33.119  1.00  0.00     0.034 A 
BRANCH  46  60
ATOM     60  C   UNL A   1      42.178  26.346  27.535  1.00  0.00     0.023 A 
ATOM     61  C   UNL A   1      42.938  26.896  26.483  1.00  0.00     0.012 A 
ATOM     62  C   UNL A   1      41.844  24.979  27.506  1.00  0.00     0.148 A 
ATOM     63  C   UNL A   1      43.339  26.104  25.407  1.00  0.00     0.002 A 
ATOM     64  C   UNL A   1      42.276  24.187  26.447  1.00  0.00     0.091 A 
ATOM     65  F   UNL A   1      41.100  24.480  28.504  1.00  0.00    -0.205 F 
ATOM     66  C   UNL A   1      43.017  24.749  25.395  1.00  0.00     0.022 A 
BRANCH  64  67
ATOM     67  S   UNL A   1      41.967  22.418  26.376  1.00  0.00     0.127 S 
ATOM     68  O   UNL A   1      42.674  22.044  25.153  1.00  0.00    -0.237 OA
ATOM     69  O   UNL A   1      42.592  21.944  27.611  1.00  0.00    -0.237 OA
ATOM     70  O   UNL A   1      40.519  22.269  26.337  1.00  0.00    -0.744 OA
ENDBRANCH  64  67
ENDBRANCH  46  60
BRANCH  47  71
ATOM     71  C   UNL A   1      39.196  32.050  35.179  1.00  0.00     0.023 A 
ATOM     72  C   UNL A   1      38.276  31.497  36.091  1.00  0.00     0.012 A 
ATOM     73  C   UNL A   1      39.693  33.348  35.406  1.00  0.00     0.148 A 
ATOM     74  C   UNL A   1      37.845  32.230  37.198  1.00  0.00     0.002 A 
ATOM     75  C   UNL A   1      39.300  34.052  36.540  1.00  0.00     0.091 A 
ATOM     76  F   UNL A   1      40.547  33.868  34.513  1.00  0.00    -0.205 F 
ATOM     77  C   UNL A   1      38.366  33.500  37.429  1.00  0.00     0.022 A 
BRANCH  75  78
ATOM     78  S   UNL A   1      40.026  35.637  36.978  1.00  0.00     0.127 S 
ATOM     79  O   UNL A   1      39.652  36.464  35.835  1.00  0.00    -0.237 OA
ATOM     80  O   UNL A   1      39.331  35.958  38.226  1.00  0.00    -0.237 OA
ATOM     81  O   UNL A   1      41.451  35.377  37.140  1.00  0.00    -0.744 OA
ENDBRANCH  75  78
ENDBRANCH  47  71
BRANCH  59  82
ATOM     82  C   UNL A   1      44.887  28.192  33.952  1.00  0.00     0.023 A 
ATOM     83  C   UNL A   1      45.937  29.127  34.048  1.00  0.00     0.012 A 
ATOM     84  C   UNL A   1      44.952  26.998  34.696  1.00  0.00     0.148 A 
ATOM     85  C   UNL A   1      47.044  28.867  34.852  1.00  0.00     0.002 A 
ATOM     86  C   UNL A   1      46.041  26.764  35.528  1.00  0.00     0.091 A 
ATOM     87  F   UNL A   1      43.953  26.112  34.575  1.00  0.00    -0.205 F 
ATOM     88  C   UNL A   1      47.092  27.693  35.601  1.00  0.00     0.022 A 
BRANCH  86  89
ATOM     89  S   UNL A   1      46.144  25.320  36.592  1.00  0.00     0.127 S 
ATOM     90  O   UNL A   1      45.590  25.832  37.844  1.00  0.00    -0.237 OA
ATOM     91  O   UNL A   1      45.290  24.356  35.897  1.00  0.00    -0.237 OA
ATOM     92  O   UNL A   1      47.554  24.955  36.632  1.00  0.00    -0.744 OA
ENDBRANCH  86  89
ENDBRANCH  59  82
ENDBRANCH  33  34
ENDBRANCH  26  28
ENDBRANCH  25  26
ENDBRANCH  24  25
ENDBRANCH   1  24
TORSDOF 19
ENDMDL
MODEL 2
REMARK VINA RESULT:     -10.8      5.481     10.078
REMARK SMILES CCS(=O)(=O)c1ccccc1NC[C@H]1CC[C@H](C(=O)OCCOC(=O)c2ccc(-c3c4nc(c(-c5cccc(S(=O)(=O)[O-])c5F)c5ccc([nH]5)c(-c5cccc(S(=O)(=O)[O-])c5F)c5nc(c(-c6cccc(S(=O)(=O)[O-])c6F)c6ccc3[nH]6)C=C5)C=C4)cc2)O1
REMARK SMILES IDX 21 1 20 2 18 3 19 4 17 5 14 6 15 7 89 8 16 9 13 10 12 11
REMARK SMILES IDX 11 13 6 14 7 15 8 16 10 17 9 18 3 19 4 20 5 21 2 22 1 23
REMARK SMILES IDX 22 24 23 25 24 26 25 27 26 28 27 29 88 30 28 31 87 32 29 33
REMARK SMILES IDX 30 34 31 35 81 36 32 37 86 38 80 39 82 40 33 41 85 42 79 43
REMARK SMILES IDX 78 44 34 46 66 47 46 48 65 49 47 50 50 51 64 52 83 53 48 54
REMARK SMILES IDX 49 55 63 57 84 58 51 59 35 60 36 61 44 62 37 63 39 64 45 65
REMARK SMILES IDX 38 66 40 67 41 68 42 69 43 70 67 71 68 72 76 73 69 74 71 75
REMARK SMILES IDX 77 76 70 77 72 78 73 79 74 80 75 81 52 82 53 83 61 84 54 85
REMARK SMILES IDX 56 86 62 87 55 88 57 89 58 90 59 91 60 92
REMARK H PARENT 12 12 82 45 50 56
REMARK Flexibility Score: inf
ROOT
ATOM      1  C   UNL A   1      44.227  18.566  25.426  1.00  0.00     0.274 C 
ENDROOT
BRANCH   1   2
ATOM      2  O   UNL A   1      44.461  19.454  24.317  1.00  0.00    -0.460 OA
BRANCH   2   3
ATOM      3  C   UNL A   1      45.479  20.344  24.472  1.00  0.00     0.335 C 
ATOM      4  O   UNL A   1      46.668  20.072  24.346  1.00  0.00    -0.249 OA
BRANCH   3   5
ATOM      5  C   UNL A   1      44.986  21.750  24.826  1.00  0.00     0.228 C 
ATOM      6  C   UNL A   1      45.664  23.951  24.471  1.00  0.00     0.138 C 
ATOM      7  C   UNL A   1      46.398  23.444  25.700  1.00  0.00     0.037 C 
ATOM      8  O   UNL A   1      45.276  22.728  23.807  1.00  0.00    -0.361 OA
ATOM      9  C   UNL A   1      45.517  22.303  26.147  1.00  0.00     0.047 C 
BRANCH   6  10
ATOM     10  C   UNL A   1      44.391  24.791  24.747  1.00  0.00     0.145 C 
BRANCH  10  11
ATOM     11  N   UNL A   1      44.672  26.198  24.995  1.00  0.00    -0.381 N 
ATOM     12  H   UNL A   1      45.589  26.508  24.812  1.00  0.00     0.160 HD
BRANCH  11  13
ATOM     13  C   UNL A   1      43.776  27.144  25.463  1.00  0.00     0.053 A 
ATOM     14  C   UNL A   1      44.213  28.310  26.127  1.00  0.00     0.090 A 
ATOM     15  C   UNL A   1      43.308  29.261  26.627  1.00  0.00     0.022 A 
ATOM     16  C   UNL A   1      41.940  29.043  26.515  1.00  0.00     0.001 A 
ATOM     17  C   UNL A   1      42.389  26.947  25.392  1.00  0.00     0.027 A 
ATOM     18  C   UNL A   1      41.481  27.883  25.905  1.00  0.00     0.002 A 
BRANCH  14  19
ATOM     19  S   UNL A   1      45.954  28.651  26.321  1.00  0.00     0.180 S 
ATOM     20  O   UNL A   1      46.391  29.421  25.169  1.00  0.00    -0.224 OA
ATOM     21  O   UNL A   1      46.604  27.389  26.637  1.00  0.00    -0.224 OA
BRANCH  19  22
ATOM     22  C   UNL A   1      46.061  29.689  27.762  1.00  0.00     0.139 C 
ATOM     23  C   UNL A   1      46.357  31.138  27.443  1.00  0.00     0.021 C 
ENDBRANCH  19  22
ENDBRANCH  14  19
ENDBRANCH  11  13
ENDBRANCH  10  11
ENDBRANCH   6  10
ENDBRANCH   3   5
ENDBRANCH   2   3
ENDBRANCH   1   2
BRANCH   1  24
ATOM     24  C   UNL A   1      42.894  18.867  26.115  1.00  0.00     0.275 C 
BRANCH  24  25
ATOM     25  O   UNL A   1      42.271  20.051  25.585  1.00  0.00    -0.458 OA
BRANCH  25  26
ATOM     26  C   UNL A   1      41.189  20.496  26.268  1.00  0.00     0.338 C 
ATOM     27  O   UNL A   1      40.118  19.932  26.403  1.00  0.00    -0.246 OA
BRANCH  26  28
ATOM     28  C   UNL A   1      41.522  21.751  26.959  1.00  0.00     0.060 A 
ATOM     29  C   UNL A   1      41.523  22.935  26.218  1.00  0.00     0.016 A 
ATOM     30  C   UNL A   1      41.899  21.750  28.302  1.00  0.00     0.016 A 
ATOM     31  C   UNL A   1      41.893  24.134  26.823  1.00  0.00     0.010 A 
ATOM     32  C   UNL A   1      42.267  22.955  28.908  1.00  0.00     0.010 A 
ATOM     33  C   UNL A   1      42.270  24.153  28.173  1.00  0.00    -0.014 A 
BRANCH  33  34
ATOM     34  C   UNL A   1      42.658  25.428  28.821  1.00  0.00     0.031 A 
ATOM     35  C   UNL A   1      44.096  25.702  29.155  1.00  0.00     0.074 A 
ATOM     36  C   UNL A   1      41.705  26.324  29.139  1.00  0.00     0.049 A 
ATOM     37  N   UNL A   1      44.614  26.719  29.794  1.00  0.00    -0.248 NA
ATOM     38  C   UNL A   1      45.081  24.700  28.717  1.00  0.00     0.031 C 
ATOM     39  C   UNL A   1      40.275  26.164  28.867  1.00  0.00     0.029 A 
ATOM     40  N   UNL A   1      41.790  27.532  29.785  1.00  0.00    -0.354 N 
ATOM     41  C   UNL A   1      45.978  26.466  29.867  1.00  0.00     0.074 A 
ATOM     42  C   UNL A   1      46.208  25.198  29.207  1.00  0.00     0.031 C 
ATOM     43  C   UNL A   1      39.615  27.222  29.363  1.00  0.00     0.029 A 
ATOM     44  C   UNL A   1      40.567  28.116  30.018  1.00  0.00     0.049 A 
ATOM     45  H   UNL A   1      42.645  27.940  30.056  1.00  0.00     0.167 HD
ATOM     46  C   UNL A   1      46.950  27.228  30.423  1.00  0.00     0.034 A 
ATOM     47  C   UNL A   1      40.246  29.228  30.707  1.00  0.00     0.034 A 
ATOM     48  C   UNL A   1      46.719  28.503  31.050  1.00  0.00     0.049 A 
ATOM     49  C   UNL A   1      41.345  30.045  31.330  1.00  0.00     0.074 A 
ATOM     50  C   UNL A   1      47.648  29.377  31.589  1.00  0.00     0.029 A 
ATOM     51  N   UNL A   1      45.474  29.084  31.231  1.00  0.00    -0.354 N 
ATOM     52  N   UNL A   1      42.641  29.852  31.289  1.00  0.00    -0.248 NA
ATOM     53  C   UNL A   1      40.939  31.245  32.078  1.00  0.00     0.031 C 
ATOM     54  C   UNL A   1      46.961  30.478  32.110  1.00  0.00     0.029 A 
ATOM     55  C   UNL A   1      45.606  30.296  31.886  1.00  0.00     0.049 A 
ATOM     56  H   UNL A   1      44.620  28.690  30.937  1.00  0.00     0.167 HD
ATOM     57  C   UNL A   1      43.207  30.913  31.987  1.00  0.00     0.074 A 
ATOM     58  C   UNL A   1      42.112  31.761  32.415  1.00  0.00     0.031 C 
ATOM     59  C   UNL A   1      44.512  31.153  32.266  1.00  0.00     0.034 A 
BRANCH  46  60
ATOM     60  C   UNL A   1      48.365  26.721  30.349  1.00  0.00     0.023 A 
ATOM     61  C   UNL A   1      48.799  25.743  31.265  1.00  0.00     0.012 A 
ATOM     62  C   UNL A   1      49.243  27.161  29.339  1.00  0.00     0.148 A 
ATOM     63  C   UNL A   1      50.092  25.227  31.195  1.00  0.00     0.002 A 
ATOM     64  C   UNL A   1      50.520  26.617  29.253  1.00  0.00     0.091 A 
ATOM     65  F   UNL A   1      48.820  28.110  28.492  1.00  0.00    -0.205 F 
ATOM     66  C   UNL A   1      50.948  25.656  30.183  1.00  0.00     0.022 A 
BRANCH  64  67
ATOM     67  S   UNL A   1      51.671  27.060  27.946  1.00  0.00     0.127 S 
ATOM     68  O   UNL A   1      52.691  26.022  28.087  1.00  0.00    -0.237 OA
ATOM     69  O   UNL A   1      50.840  26.938  26.747  1.00  0.00    -0.237 OA
ATOM     70  O   UNL A   1      52.108  28.416  28.243  1.00  0.00    -0.744 OA
ENDBRANCH  64  67
ENDBRANCH  46  60
BRANCH  47  71
ATOM     71  C   UNL A   1      38.820  29.645  30.814  1.00  0.00     0.023 A 
ATOM     72  C   UNL A   1      38.086  29.303  31.966  1.00  0.00     0.012 A 
ATOM     73  C   UNL A   1      38.202  30.411  29.807  1.00  0.00     0.148 A 
ATOM     74  C   UNL A   1      36.755  29.702  32.104  1.00  0.00     0.002 A 
ATOM     75  C   UNL A   1      36.894  30.850  29.975  1.00  0.00     0.091 A 
ATOM     76  F   UNL A   1      38.909  30.704  28.706  1.00  0.00    -0.205 F 
ATOM     77  C   UNL A   1      36.164  30.485  31.116  1.00  0.00     0.022 A 
BRANCH  75  78
ATOM     78  S   UNL A   1      36.107  31.972  28.812  1.00  0.00     0.127 S 
ATOM     79  O   UNL A   1      37.061  33.075  28.767  1.00  0.00    -0.237 OA
ATOM     80  O   UNL A   1      36.045  31.159  27.596  1.00  0.00    -0.237 OA
ATOM     81  O   UNL A   1      34.804  32.277  29.391  1.00  0.00    -0.744 OA
ENDBRANCH  75  78
ENDBRANCH  47  71
BRANCH  59  82
ATOM     82  C   UNL A   1      44.836  32.384  33.068  1.00  0.00     0.023 A 
ATOM     83  C   UNL A   1      45.108  33.594  32.400  1.00  0.00     0.012 A 
ATOM     84  C   UNL A   1      44.799  32.364  34.477  1.00  0.00     0.148 A 
ATOM     85  C   UNL A   1      45.362  34.760  33.119  1.00  0.00     0.002 A 
ATOM     86  C   UNL A   1      45.012  33.540  35.187  1.00  0.00     0.091 A 
ATOM     87  F   UNL A   1      44.559  31.199  35.095  1.00  0.00    -0.205 F 
ATOM     88  C   UNL A   1      45.303  34.736  34.511  1.00  0.00     0.022 A 
BRANCH  86  89
ATOM     89  S   UNL A   1      44.870  33.621  36.976  1.00  0.00     0.127 S 
ATOM     90  O   UNL A   1      45.830  32.602  37.398  1.00  0.00    -0.237 OA
ATOM     91  O   UNL A   1      45.278  34.997  37.262  1.00  0.00    -0.237 OA
ATOM     92  O   UNL A   1      43.475  33.333  37.278  1.00  0.00    -0.744 OA
ENDBRANCH  86  89
ENDBRANCH  59  82
ENDBRANCH  33  34
ENDBRANCH  26  28
ENDBRANCH  25  26
ENDBRANCH  24  25
ENDBRANCH   1  24
TORSDOF 19
ENDMDL
MODEL 3
REMARK VINA RESULT:     -10.7      4.417     11.683
REMARK SMILES CCS(=O)(=O)c1ccccc1NC[C@H]1CC[C@H](C(=O)OCCOC(=O)c2ccc(-c3c4nc(c(-c5cccc(S(=O)(=O)[O-])c5F)c5ccc([nH]5)c(-c5cccc(S(=O)(=O)[O-])c5F)c5nc(c(-c6cccc(S(=O)(=O)[O-])c6F)c6ccc3[nH]6)C=C5)C=C4)cc2)O1
REMARK SMILES IDX 21 1 20 2 18 3 19 4 17 5 14 6 15 7 89 8 16 9 13 10 12 11
REMARK SMILES IDX 11 13 6 14 7 15 8 16 10 17 9 18 3 19 4 20 5 21 2 22 1 23
REMARK SMILES IDX 22 24 23 25 24 26 25 27 26 28 27 29 88 30 28 31 87 32 29 33
REMARK SMILES IDX 30 34 31 35 81 36 32 37 86 38 80 39 82 40 33 41 85 42 79 43
REMARK SMILES IDX 78 44 34 46 66 47 46 48 65 49 47 50 50 51 64 52 83 53 48 54
REMARK SMILES IDX 49 55 63 57 84 58 51 59 35 60 36 61 44 62 37 63 39 64 45 65
REMARK SMILES IDX 38 66 40 67 41 68 42 69 43 70 67 71 68 72 76 73 69 74 71 75
REMARK SMILES IDX 77 76 70 77 72 78 73 79 74 80 75 81 52 82 53 83 61 84 54 85
REMARK SMILES IDX 56 86 62 87 55 88 57 89 58 90 59 91 60 92
REMARK H PARENT 12 12 82 45 50 56
REMARK Flexibility Score: inf
ROOT
ATOM      1  C   UNL A   1      34.020  34.398  28.540  1.00  0.00     0.274 C 
ENDROOT
BRANCH   1   2
ATOM      2  O   UNL A   1      35.144  34.274  29.429  1.00  0.00    -0.460 OA
BRANCH   2   3
ATOM      3  C   UNL A   1      34.848  34.198  30.756  1.00  0.00     0.335 C 
ATOM      4  O   UNL A   1      33.748  34.443  31.239  1.00  0.00    -0.249 OA
BRANCH   3   5
ATOM      5  C   UNL A   1      36.046  33.765  31.605  1.00  0.00     0.228 C 
ATOM      6  C   UNL A   1      38.158  34.590  32.147  1.00  0.00     0.138 C 
ATOM      7  C   UNL A   1      38.287  33.843  30.831  1.00  0.00     0.037 C 
ATOM      8  O   UNL A   1      36.742  34.873  32.212  1.00  0.00    -0.361 OA
ATOM      9  C   UNL A   1      37.088  32.928  30.866  1.00  0.00     0.047 C 
BRANCH   6  10
ATOM     10  C   UNL A   1      38.564  33.794  33.413  1.00  0.00     0.145 C 
BRANCH  10  11
ATOM     11  N   UNL A   1      38.062  34.382  34.647  1.00  0.00    -0.381 N 
ATOM     12  H   UNL A   1      37.093  34.553  34.697  1.00  0.00     0.160 HD
BRANCH  11  13
ATOM     13  C   UNL A   1      38.813  34.722  35.759  1.00  0.00     0.053 A 
ATOM     14  C   UNL A   1      38.536  34.179  37.032  1.00  0.00     0.090 A 
ATOM     15  C   UNL A   1      39.278  34.539  38.169  1.00  0.00     0.022 A 
ATOM     16  C   UNL A   1      40.287  35.489  38.067  1.00  0.00     0.001 A 
ATOM     17  C   UNL A   1      39.822  35.695  35.700  1.00  0.00     0.027 A 
ATOM     18  C   UNL A   1      40.553  36.073  36.834  1.00  0.00     0.002 A 
BRANCH  14  19
ATOM     19  S   UNL A   1      37.246  32.963  37.243  1.00  0.00     0.180 S 
ATOM     20  O   UNL A   1      37.729  31.699  36.713  1.00  0.00    -0.224 OA
ATOM     21  O   UNL A   1      36.020  33.546  36.722  1.00  0.00    -0.224 OA
BRANCH  19  22
ATOM     22  C   UNL A   1      37.057  32.797  39.005  1.00  0.00     0.139 C 
ATOM     23  C   UNL A   1      37.008  31.359  39.474  1.00  0.00     0.021 C 
ENDBRANCH  19  22
ENDBRANCH  14  19
ENDBRANCH  11  13
ENDBRANCH  10  11
ENDBRANCH   6  10
ENDBRANCH   3   5
ENDBRANCH   2   3
ENDBRANCH   1   2
BRANCH   1  24
ATOM     24  C   UNL A   1      33.596  33.039  27.976  1.00  0.00     0.275 C 
BRANCH  24  25
ATOM     25  O   UNL A   1      34.291  31.953  28.617  1.00  0.00    -0.458 OA
BRANCH  25  26
ATOM     26  C   UNL A   1      34.607  30.909  27.815  1.00  0.00     0.338 C 
ATOM     27  O   UNL A   1      34.034  30.558  26.798  1.00  0.00    -0.246 OA
BRANCH  26  28
ATOM     28  C   UNL A   1      35.860  30.293  28.277  1.00  0.00     0.060 A 
ATOM     29  C   UNL A   1      35.870  29.673  29.529  1.00  0.00     0.016 A 
ATOM     30  C   UNL A   1      37.027  30.387  27.518  1.00  0.00     0.016 A 
ATOM     31  C   UNL A   1      37.054  29.132  30.028  1.00  0.00     0.010 A 
ATOM     32  C   UNL A   1      38.212  29.841  28.019  1.00  0.00     0.010 A 
ATOM     33  C   UNL A   1      38.234  29.213  29.277  1.00  0.00    -0.014 A 
BRANCH  33  34
ATOM     34  C   UNL A   1      39.493  28.633  29.802  1.00  0.00     0.031 A 
ATOM     35  C   UNL A   1      40.179  29.254  30.985  1.00  0.00     0.074 A 
ATOM     36  C   UNL A   1      40.034  27.565  29.188  1.00  0.00     0.049 A 
ATOM     37  N   UNL A   1      41.324  28.939  31.532  1.00  0.00    -0.248 NA
ATOM     38  C   UNL A   1      39.489  30.379  31.636  1.00  0.00     0.031 C 
ATOM     39  C   UNL A   1      39.459  26.880  28.028  1.00  0.00     0.029 A 
ATOM     40  N   UNL A   1      41.202  26.886  29.433  1.00  0.00    -0.354 N 
ATOM     41  C   UNL A   1      41.512  29.846  32.567  1.00  0.00     0.074 A 
ATOM     42  C   UNL A   1      40.362  30.725  32.573  1.00  0.00     0.031 C 
ATOM     43  C   UNL A   1      40.287  25.894  27.649  1.00  0.00     0.029 A 
ATOM     44  C   UNL A   1      41.465  25.898  28.513  1.00  0.00     0.049 A 
ATOM     45  H   UNL A   1      41.793  27.087  30.194  1.00  0.00     0.167 HD
ATOM     46  C   UNL A   1      42.544  29.928  33.441  1.00  0.00     0.034 A 
ATOM     47  C   UNL A   1      42.545  25.107  28.364  1.00  0.00     0.034 A 
ATOM     48  C   UNL A   1      43.670  29.032  33.451  1.00  0.00     0.049 A 
ATOM     49  C   UNL A   1      43.684  25.234  29.337  1.00  0.00     0.074 A 
ATOM     50  C   UNL A   1      44.736  28.999  34.334  1.00  0.00     0.029 A 
ATOM     51  N   UNL A   1      43.883  28.017  32.530  1.00  0.00    -0.354 N 
ATOM     52  N   UNL A   1      43.793  26.018  30.382  1.00  0.00    -0.248 NA
ATOM     53  C   UNL A   1      44.842  24.353  29.124  1.00  0.00     0.031 C 
ATOM     54  C   UNL A   1      45.601  27.974  33.937  1.00  0.00     0.029 A 
ATOM     55  C   UNL A   1      45.069  27.361  32.813  1.00  0.00     0.049 A 
ATOM     56  H   UNL A   1      43.279  27.796  31.785  1.00  0.00     0.167 HD
ATOM     57  C   UNL A   1      45.019  25.713  30.962  1.00  0.00     0.074 A 
ATOM     58  C   UNL A   1      45.604  24.651  30.168  1.00  0.00     0.031 C 
ATOM     59  C   UNL A   1      45.617  26.275  32.041  1.00  0.00     0.034 A 
BRANCH  46  60
ATOM     60  C   UNL A   1      42.489  31.008  34.488  1.00  0.00     0.023 A 
ATOM     61  C   UNL A   1      41.881  30.737  35.730  1.00  0.00     0.012 A 
ATOM     62  C   UNL A   1      43.091  32.262  34.272  1.00  0.00     0.148 A 
ATOM     63  C   UNL A   1      41.850  31.706  36.733  1.00  0.00     0.002 A 
ATOM     64  C   UNL A   1      43.088  33.211  35.289  1.00  0.00     0.091 A 
ATOM     65  F   UNL A   1      43.644  32.509  33.076  1.00  0.00    -0.205 F 
ATOM     66  C   UNL A   1      42.463  32.937  36.515  1.00  0.00     0.022 A 
BRANCH  64  67
ATOM     67  S   UNL A   1      43.908  34.802  35.125  1.00  0.00     0.127 S 
ATOM     68  O   UNL A   1      43.035  35.487  34.173  1.00  0.00    -0.237 OA
ATOM     69  O   UNL A   1      43.848  35.324  36.491  1.00  0.00    -0.237 OA
ATOM     70  O   UNL A   1      45.252  34.510  34.649  1.00  0.00    -0.744 OA
ENDBRANCH  64  67
ENDBRANCH  46  60
BRANCH  47  71
ATOM     71  C   UNL A   1      42.580  24.105  27.262  1.00  0.00     0.023 A 
ATOM     72  C   UNL A   1      43.233  24.426  26.057  1.00  0.00     0.012 A 
ATOM     73  C   UNL A   1      42.010  22.826  27.416  1.00  0.00     0.148 A 
ATOM     74  C   UNL A   1      43.303  23.498  25.017  1.00  0.00     0.002 A 
ATOM     75  C   UNL A   1      42.130  21.888  26.397  1.00  0.00     0.091 A 
ATOM     76  F   UNL A   1      41.369  22.548  28.560  1.00  0.00    -0.205 F 
ATOM     77  C   UNL A   1      42.764  22.226  25.192  1.00  0.00     0.022 A 
BRANCH  75  78
ATOM     78  S   UNL A   1      41.580  20.188  26.595  1.00  0.00     0.127 S 
ATOM     79  O   UNL A   1      42.114  19.559  25.391  1.00  0.00    -0.237 OA
ATOM     80  O   UNL A   1      42.240  19.795  27.841  1.00  0.00    -0.237 OA
ATOM     81  O   UNL A   1      40.127  20.261  26.687  1.00  0.00    -0.744 OA
ENDBRANCH  75  78
ENDBRANCH  47  71
BRANCH  59  82
ATOM     82  C   UNL A   1      46.972  25.753  32.436  1.00  0.00     0.023 A 
ATOM     83  C   UNL A   1      48.125  26.293  31.832  1.00  0.00     0.012 A 
ATOM     84  C   UNL A   1      47.111  24.787  33.452  1.00  0.00     0.148 A 
ATOM     85  C   UNL A   1      49.393  25.863  32.214  1.00  0.00     0.002 A 
ATOM     86  C   UNL A   1      48.382  24.393  33.857  1.00  0.00     0.091 A 
ATOM     87  F   UNL A   1      46.002  24.270  34.000  1.00  0.00    -0.205 F 
ATOM     88  C   UNL A   1      49.523  24.923  33.234  1.00  0.00     0.022 A 
BRANCH  86  89
ATOM     89  S   UNL A   1      48.644  23.253  35.221  1.00  0.00     0.127 S 
ATOM     90  O   UNL A   1      48.172  21.992  34.651  1.00  0.00    -0.237 OA
ATOM     91  O   UNL A   1      50.092  23.328  35.419  1.00  0.00    -0.237 OA
ATOM     92  O   UNL A   1      47.857  23.773  36.331  1.00  0.00    -0.744 OA
ENDBRANCH  86  89
ENDBRANCH  59  82
ENDBRANCH  33  34
ENDBRANCH  26  28
ENDBRANCH  25  26
ENDBRANCH  24  25
ENDBRANCH   1  24
TORSDOF 19
ENDMDL
