MODEL 1
REMARK VINA RESULT:     -12.3      0.000      0.000
REMARK SMILES O=C(CC1CC[NH+](C[C@H]2COc3ccccc3O2)CC1)OCCOC(=O)c1ccc(-c2c3nc(c(-c4cccc(S(=O)(=O)[O-])c4F)c4ccc([nH]4)c(-c4cccc(S(=O)(=O)[O-])c4F)c4nc(c(-c5cccc(S(=O)(=O)[O-])c5F)c5ccc2[nH]5)C=C4)C=C3)cc1
REMARK SMILES IDX 22 1 21 2 2 3 1 4 3 5 4 6 5 7 20 8 6 9 19 10 7 11 8 13 9 14
REMARK SMILES IDX 10 15 18 16 11 17 17 18 12 19 16 20 13 21 15 22 14 23 23 24
REMARK SMILES IDX 24 25 25 26 26 27 27 28 28 29 89 30 29 31 88 32 30 33 31 34
REMARK SMILES IDX 32 35 82 36 33 37 87 38 81 39 83 40 34 41 86 42 80 43 79 44
REMARK SMILES IDX 35 46 67 47 47 48 66 49 48 50 51 51 65 52 84 53 49 54 50 55
REMARK SMILES IDX 64 57 85 58 52 59 36 60 37 61 45 62 38 63 40 64 46 65 39 66
REMARK SMILES IDX 41 67 42 68 43 69 44 70 68 71 69 72 77 73 70 74 72 75 78 76
REMARK SMILES IDX 71 77 73 78 74 79 75 80 76 81 53 82 54 83 62 84 55 85 57 86
REMARK SMILES IDX 63 87 56 88 58 89 59 90 60 91 61 92
REMARK H PARENT 7 12 83 45 51 56
REMARK Flexibility Score: inf
ROOT
ATOM      1  C   UNL A   1      31.938  29.490  25.163  1.00  0.00     0.274 C 
ENDROOT
BRANCH   1   2
ATOM      2  O   UNL A   1      33.321  29.172  24.923  1.00  0.00    -0.462 OA
BRANCH   2   3
ATOM      3  C   UNL A   1      33.652  28.570  23.743  1.00  0.00     0.306 C 
ATOM      4  O   UNL A   1      34.046  29.224  22.785  1.00  0.00    -0.252 OA
BRANCH   3   5
ATOM      5  C   UNL A   1      33.321  27.093  23.653  1.00  0.00     0.126 C 
BRANCH   5   6
ATOM      6  C   UNL A   1      32.613  26.629  22.368  1.00  0.00     0.011 C 
ATOM      7  C   UNL A   1      31.125  26.340  22.646  1.00  0.00     0.066 C 
ATOM      8  C   UNL A   1      33.213  25.355  21.760  1.00  0.00     0.066 C 
ATOM      9  C   UNL A   1      30.938  25.103  23.535  1.00  0.00     0.262 C 
ATOM     10  C   UNL A   1      32.967  24.098  22.610  1.00  0.00     0.262 C 
ATOM     11  N   UNL A   1      31.570  23.895  23.000  1.00  0.00    -0.332 N 
ATOM     12  H   UNL A   1      31.054  23.702  22.142  1.00  0.00     0.348 HD
BRANCH  11  13
ATOM     13  C   UNL A   1      31.394  22.686  23.850  1.00  0.00     0.311 C 
BRANCH  13  14
ATOM     14  C   UNL A   1      32.507  21.600  23.921  1.00  0.00     0.265 C 
ATOM     15  C   UNL A   1      33.065  21.357  25.321  1.00  0.00     0.281 C 
ATOM     16  O   UNL A   1      31.967  20.338  23.436  1.00  0.00    -0.477 OA
ATOM     17  O   UNL A   1      34.225  20.516  25.237  1.00  0.00    -0.486 OA
ATOM     18  C   UNL A   1      32.839  19.293  23.656  1.00  0.00     0.162 A 
ATOM     19  C   UNL A   1      33.950  19.394  24.502  1.00  0.00     0.161 A 
ATOM     20  C   UNL A   1      32.575  18.083  23.017  1.00  0.00     0.050 A 
ATOM     21  C   UNL A   1      34.834  18.327  24.647  1.00  0.00     0.050 A 
ATOM     22  C   UNL A   1      33.443  16.998  23.189  1.00  0.00     0.004 A 
ATOM     23  C   UNL A   1      34.579  17.124  23.992  1.00  0.00     0.004 A 
ENDBRANCH  13  14
ENDBRANCH  11  13
ENDBRANCH   5   6
ENDBRANCH   3   5
ENDBRANCH   2   3
ENDBRANCH   1   2
BRANCH   1  24
ATOM     24  C   UNL A   1      31.708  30.745  26.022  1.00  0.00     0.275 C 
BRANCH  24  25
ATOM     25  O   UNL A   1      32.470  30.725  27.237  1.00  0.00    -0.458 OA
BRANCH  25  26
ATOM     26  C   UNL A   1      33.206  31.852  27.416  1.00  0.00     0.338 C 
ATOM     27  O   UNL A   1      32.776  32.996  27.440  1.00  0.00    -0.246 OA
BRANCH  26  28
ATOM     28  C   UNL A   1      34.590  31.516  27.806  1.00  0.00     0.060 A 
ATOM     29  C   UNL A   1      34.851  30.167  28.073  1.00  0.00     0.016 A 
ATOM     30  C   UNL A   1      35.599  32.471  27.962  1.00  0.00     0.016 A 
ATOM     31  C   UNL A   1      36.092  29.778  28.570  1.00  0.00     0.010 A 
ATOM     32  C   UNL A   1      36.852  32.073  28.457  1.00  0.00     0.010 A 
ATOM     33  C   UNL A   1      37.091  30.732  28.808  1.00  0.00    -0.014 A 
BRANCH  33  34
ATOM     34  C   UNL A   1      38.317  30.304  29.536  1.00  0.00     0.031 A 
ATOM     35  C   UNL A   1      38.542  30.761  30.954  1.00  0.00     0.074 A 
ATOM     36  C   UNL A   1      39.182  29.437  28.975  1.00  0.00     0.049 A 
ATOM     37  N   UNL A   1      39.465  30.392  31.805  1.00  0.00    -0.248 NA
ATOM     38  C   UNL A   1      37.602  31.760  31.488  1.00  0.00     0.031 C 
ATOM     39  C   UNL A   1      39.092  28.916  27.611  1.00  0.00     0.029 A 
ATOM     40  N   UNL A   1      40.309  28.841  29.488  1.00  0.00    -0.354 N 
ATOM     41  C   UNL A   1      39.220  31.108  32.971  1.00  0.00     0.074 A 
ATOM     42  C   UNL A   1      38.080  31.961  32.708  1.00  0.00     0.031 C 
ATOM     43  C   UNL A   1      40.127  28.086  27.392  1.00  0.00     0.029 A 
ATOM     44  C   UNL A   1      40.957  28.020  28.594  1.00  0.00     0.049 A 
ATOM     45  H   UNL A   1      40.623  28.987  30.409  1.00  0.00     0.167 HD
ATOM     46  C   UNL A   1      39.864  31.047  34.163  1.00  0.00     0.034 A 
ATOM     47  C   UNL A   1      42.090  27.300  28.727  1.00  0.00     0.034 A 
ATOM     48  C   UNL A   1      40.992  30.197  34.437  1.00  0.00     0.049 A 
ATOM     49  C   UNL A   1      42.801  27.272  30.056  1.00  0.00     0.074 A 
ATOM     50  C   UNL A   1      41.682  30.044  35.627  1.00  0.00     0.029 A 
ATOM     51  N   UNL A   1      41.607  29.369  33.512  1.00  0.00    -0.354 N 
ATOM     52  N   UNL A   1      42.469  27.847  31.187  1.00  0.00    -0.248 NA
ATOM     53  C   UNL A   1      44.024  26.459  30.138  1.00  0.00     0.031 C 
ATOM     54  C   UNL A   1      42.735  29.147  35.414  1.00  0.00     0.029 A 
ATOM     55  C   UNL A   1      42.677  28.714  34.099  1.00  0.00     0.049 A 
ATOM     56  H   UNL A   1      41.324  29.262  32.575  1.00  0.00     0.167 HD
ATOM     57  C   UNL A   1      43.418  27.435  32.118  1.00  0.00     0.074 A 
ATOM     58  C   UNL A   1      44.320  26.539  31.428  1.00  0.00     0.031 C 
ATOM     59  C   UNL A   1      43.543  27.783  33.423  1.00  0.00     0.034 A 
BRANCH  46  60
ATOM     60  C   UNL A   1      39.340  31.902  35.288  1.00  0.00     0.023 A 
ATOM     61  C   UNL A   1      38.439  31.345  36.219  1.00  0.00     0.012 A 
ATOM     62  C   UNL A   1      39.802  33.218  35.474  1.00  0.00     0.148 A 
ATOM     63  C   UNL A   1      37.987  32.094  37.305  1.00  0.00     0.002 A 
ATOM     64  C   UNL A   1      39.380  33.944  36.582  1.00  0.00     0.091 A 
ATOM     65  F   UNL A   1      40.645  33.733  34.568  1.00  0.00    -0.205 F 
ATOM     66  C   UNL A   1      38.466  33.388  37.492  1.00  0.00     0.022 A 
BRANCH  64  67
ATOM     67  S   UNL A   1      39.994  35.590  36.958  1.00  0.00     0.127 S 
ATOM     68  O   UNL A   1      39.318  35.875  38.223  1.00  0.00    -0.237 OA
ATOM     69  O   UNL A   1      41.434  35.361  37.074  1.00  0.00    -0.237 OA
ATOM     70  O   UNL A   1      39.598  36.435  35.840  1.00  0.00    -0.744 OA
ENDBRANCH  64  67
ENDBRANCH  46  60
BRANCH  47  71
ATOM     71  C   UNL A   1      42.622  26.515  27.574  1.00  0.00     0.023 A 
ATOM     72  C   UNL A   1      43.469  27.133  26.634  1.00  0.00     0.012 A 
ATOM     73  C   UNL A   1      42.262  25.167  27.392  1.00  0.00     0.148 A 
ATOM     74  C   UNL A   1      43.910  26.434  25.508  1.00  0.00     0.002 A 
ATOM     75  C   UNL A   1      42.753  24.459  26.301  1.00  0.00     0.091 A 
ATOM     76  F   UNL A   1      41.437  24.602  28.286  1.00  0.00    -0.205 F 
ATOM     77  C   UNL A   1      43.559  25.096  25.347  1.00  0.00     0.022 A 
BRANCH  75  78
ATOM     78  S   UNL A   1      42.451  22.703  26.085  1.00  0.00     0.127 S 
ATOM     79  O   UNL A   1      43.154  22.134  27.232  1.00  0.00    -0.237 OA
ATOM     80  O   UNL A   1      40.991  22.634  26.159  1.00  0.00    -0.237 OA
ATOM     81  O   UNL A   1      42.998  22.371  24.776  1.00  0.00    -0.744 OA
ENDBRANCH  75  78
ENDBRANCH  47  71
BRANCH  59  82
ATOM     82  C   UNL A   1      44.676  27.170  34.209  1.00  0.00     0.023 A 
ATOM     83  C   UNL A   1      45.949  27.777  34.198  1.00  0.00     0.012 A 
ATOM     84  C   UNL A   1      44.469  26.021  34.999  1.00  0.00     0.148 A 
ATOM     85  C   UNL A   1      47.007  27.225  34.921  1.00  0.00     0.002 A 
ATOM     86  C   UNL A   1      45.514  25.507  35.759  1.00  0.00     0.091 A 
ATOM     87  F   UNL A   1      43.259  25.446  34.988  1.00  0.00    -0.205 F 
ATOM     88  C   UNL A   1      46.787  26.098  35.710  1.00  0.00     0.022 A 
BRANCH  86  89
ATOM     89  S   UNL A   1      45.302  24.117  36.878  1.00  0.00     0.127 S 
ATOM     90  O   UNL A   1      44.690  23.120  36.001  1.00  0.00    -0.237 OA
ATOM     91  O   UNL A   1      46.680  23.821  37.271  1.00  0.00    -0.237 OA
ATOM     92  O   UNL A   1      44.457  24.601  37.962  1.00  0.00    -0.744 OA
ENDBRANCH  86  89
ENDBRANCH  59  82
ENDBRANCH  33  34
ENDBRANCH  26  28
ENDBRANCH  25  26
ENDBRANCH  24  25
ENDBRANCH   1  24
TORSDOF 17
ENDMDL
MODEL 2
REMARK VINA RESULT:     -12.3      4.772     10.632
REMARK SMILES O=C(CC1CC[NH+](C[C@H]2COc3ccccc3O2)CC1)OCCOC(=O)c1ccc(-c2c3nc(c(-c4cccc(S(=O)(=O)[O-])c4F)c4ccc([nH]4)c(-c4cccc(S(=O)(=O)[O-])c4F)c4nc(c(-c5cccc(S(=O)(=O)[O-])c5F)c5ccc2[nH]5)C=C4)C=C3)cc1
REMARK SMILES IDX 22 1 21 2 2 3 1 4 3 5 4 6 5 7 20 8 6 9 19 10 7 11 8 13 9 14
REMARK SMILES IDX 10 15 18 16 11 17 17 18 12 19 16 20 13 21 15 22 14 23 23 24
REMARK SMILES IDX 24 25 25 26 26 27 27 28 28 29 89 30 29 31 88 32 30 33 31 34
REMARK SMILES IDX 32 35 82 36 33 37 87 38 81 39 83 40 34 41 86 42 80 43 79 44
REMARK SMILES IDX 35 46 67 47 47 48 66 49 48 50 51 51 65 52 84 53 49 54 50 55
REMARK SMILES IDX 64 57 85 58 52 59 36 60 37 61 45 62 38 63 40 64 46 65 39 66
REMARK SMILES IDX 41 67 42 68 43 69 44 70 68 71 69 72 77 73 70 74 72 75 78 76
REMARK SMILES IDX 71 77 73 78 74 79 75 80 76 81 53 82 54 83 62 84 55 85 57 86
REMARK SMILES IDX 63 87 56 88 58 89 59 90 60 91 61 92
REMARK H PARENT 7 12 83 45 51 56
REMARK Flexibility Score: inf
ROOT
ATOM      1  C   UNL A   1      35.323  20.629  25.362  1.00  0.00     0.274 C 
ENDROOT
BRANCH   1   2
ATOM      2  O   UNL A   1      34.380  20.629  24.275  1.00  0.00    -0.462 OA
BRANCH   2   3
ATOM      3  C   UNL A   1      33.134  21.139  24.499  1.00  0.00     0.306 C 
ATOM      4  O   UNL A   1      32.274  20.486  25.078  1.00  0.00    -0.252 OA
BRANCH   3   5
ATOM      5  C   UNL A   1      32.846  22.467  23.825  1.00  0.00     0.126 C 
BRANCH   5   6
ATOM      6  C   UNL A   1      33.621  23.685  24.359  1.00  0.00     0.011 C 
ATOM      7  C   UNL A   1      32.693  24.591  25.192  1.00  0.00     0.066 C 
ATOM      8  C   UNL A   1      34.231  24.559  23.256  1.00  0.00     0.066 C 
ATOM      9  C   UNL A   1      31.638  25.286  24.322  1.00  0.00     0.262 C 
ATOM     10  C   UNL A   1      33.182  25.315  22.425  1.00  0.00     0.262 C 
ATOM     11  N   UNL A   1      32.207  26.065  23.219  1.00  0.00    -0.332 N 
ATOM     12  H   UNL A   1      32.722  26.813  23.683  1.00  0.00     0.348 HD
BRANCH  11  13
ATOM     13  C   UNL A   1      31.195  26.747  22.368  1.00  0.00     0.311 C 
BRANCH  13  14
ATOM     14  C   UNL A   1      30.415  27.983  22.903  1.00  0.00     0.265 C 
ATOM     15  C   UNL A   1      31.251  28.942  23.748  1.00  0.00     0.281 C 
ATOM     16  O   UNL A   1      29.888  28.735  21.774  1.00  0.00    -0.477 OA
ATOM     17  O   UNL A   1      30.391  29.907  24.371  1.00  0.00    -0.486 OA
ATOM     18  C   UNL A   1      29.356  29.944  22.170  1.00  0.00     0.162 A 
ATOM     19  C   UNL A   1      29.574  30.492  23.440  1.00  0.00     0.161 A 
ATOM     20  C   UNL A   1      28.587  30.648  21.246  1.00  0.00     0.050 A 
ATOM     21  C   UNL A   1      28.968  31.689  23.813  1.00  0.00     0.050 A 
ATOM     22  C   UNL A   1      28.005  31.870  21.607  1.00  0.00     0.004 A 
ATOM     23  C   UNL A   1      28.184  32.382  22.893  1.00  0.00     0.004 A 
ENDBRANCH  13  14
ENDBRANCH  11  13
ENDBRANCH   5   6
ENDBRANCH   3   5
ENDBRANCH   2   3
ENDBRANCH   1   2
BRANCH   1  24
ATOM     24  C   UNL A   1      36.785  20.404  24.943  1.00  0.00     0.275 C 
BRANCH  24  25
ATOM     25  O   UNL A   1      37.616  21.539  25.222  1.00  0.00    -0.458 OA
BRANCH  25  26
ATOM     26  C   UNL A   1      38.779  21.203  25.838  1.00  0.00     0.338 C 
ATOM     27  O   UNL A   1      39.400  20.161  25.683  1.00  0.00    -0.246 OA
BRANCH  26  28
ATOM     28  C   UNL A   1      39.337  22.358  26.569  1.00  0.00     0.060 A 
ATOM     29  C   UNL A   1      38.776  23.607  26.279  1.00  0.00     0.016 A 
ATOM     30  C   UNL A   1      40.403  22.258  27.468  1.00  0.00     0.016 A 
ATOM     31  C   UNL A   1      39.324  24.766  26.824  1.00  0.00     0.010 A 
ATOM     32  C   UNL A   1      40.949  23.428  28.021  1.00  0.00     0.010 A 
ATOM     33  C   UNL A   1      40.442  24.692  27.667  1.00  0.00    -0.014 A 
BRANCH  33  34
ATOM     34  C   UNL A   1      41.121  25.960  28.051  1.00  0.00     0.031 A 
ATOM     35  C   UNL A   1      42.537  26.216  27.599  1.00  0.00     0.074 A 
ATOM     36  C   UNL A   1      40.455  26.921  28.719  1.00  0.00     0.049 A 
ATOM     37  N   UNL A   1      43.253  27.306  27.705  1.00  0.00    -0.248 NA
ATOM     38  C   UNL A   1      43.234  25.104  26.935  1.00  0.00     0.031 C 
ATOM     39  C   UNL A   1      39.086  26.808  29.221  1.00  0.00     0.029 A 
ATOM     40  N   UNL A   1      40.844  28.186  29.087  1.00  0.00    -0.354 N 
ATOM     41  C   UNL A   1      44.482  27.015  27.125  1.00  0.00     0.074 A 
ATOM     42  C   UNL A   1      44.426  25.633  26.696  1.00  0.00     0.031 C 
ATOM     43  C   UNL A   1      38.753  27.954  29.843  1.00  0.00     0.029 A 
ATOM     44  C   UNL A   1      39.884  28.878  29.789  1.00  0.00     0.049 A 
ATOM     45  H   UNL A   1      41.728  28.563  28.870  1.00  0.00     0.167 HD
ATOM     46  C   UNL A   1      45.552  27.825  26.937  1.00  0.00     0.034 A 
ATOM     47  C   UNL A   1      39.914  30.114  30.329  1.00  0.00     0.034 A 
ATOM     48  C   UNL A   1      45.615  29.202  27.351  1.00  0.00     0.049 A 
ATOM     49  C   UNL A   1      41.128  30.985  30.129  1.00  0.00     0.074 A 
ATOM     50  C   UNL A   1      46.645  30.108  27.168  1.00  0.00     0.029 A 
ATOM     51  N   UNL A   1      44.617  29.870  28.042  1.00  0.00    -0.354 N 
ATOM     52  N   UNL A   1      42.224  30.737  29.452  1.00  0.00    -0.248 NA
ATOM     53  C   UNL A   1      41.092  32.325  30.734  1.00  0.00     0.031 C 
ATOM     54  C   UNL A   1      46.284  31.315  27.777  1.00  0.00     0.029 A 
ATOM     55  C   UNL A   1      45.012  31.171  28.306  1.00  0.00     0.049 A 
ATOM     56  H   UNL A   1      43.753  29.478  28.306  1.00  0.00     0.167 HD
ATOM     57  C   UNL A   1      42.986  31.900  29.519  1.00  0.00     0.074 A 
ATOM     58  C   UNL A   1      42.215  32.862  30.276  1.00  0.00     0.031 C 
ATOM     59  C   UNL A   1      44.222  32.143  29.016  1.00  0.00     0.034 A 
BRANCH  46  60
ATOM     60  C   UNL A   1      46.746  27.256  26.214  1.00  0.00     0.023 A 
ATOM     61  C   UNL A   1      46.862  27.436  24.820  1.00  0.00     0.012 A 
ATOM     62  C   UNL A   1      47.787  26.625  26.920  1.00  0.00     0.148 A 
ATOM     63  C   UNL A   1      47.985  26.974  24.136  1.00  0.00     0.002 A 
ATOM     64  C   UNL A   1      48.924  26.205  26.237  1.00  0.00     0.091 A 
ATOM     65  F   UNL A   1      47.649  26.450  28.241  1.00  0.00    -0.205 F 
ATOM     66  C   UNL A   1      49.020  26.370  24.846  1.00  0.00     0.022 A 
BRANCH  64  67
ATOM     67  S   UNL A   1      50.345  25.484  27.066  1.00  0.00     0.127 S 
ATOM     68  O   UNL A   1      50.687  26.531  28.028  1.00  0.00    -0.237 OA
ATOM     69  O   UNL A   1      49.774  24.274  27.658  1.00  0.00    -0.237 OA
ATOM     70  O   UNL A   1      51.340  25.246  26.030  1.00  0.00    -0.744 OA
ENDBRANCH  64  67
ENDBRANCH  46  60
BRANCH  47  71
ATOM     71  C   UNL A   1      38.741  30.627  31.097  1.00  0.00     0.023 A 
ATOM     72  C   UNL A   1      38.682  30.450  32.494  1.00  0.00     0.012 A 
ATOM     73  C   UNL A   1      37.670  31.261  30.441  1.00  0.00     0.148 A 
ATOM     74  C   UNL A   1      37.557  30.852  33.215  1.00  0.00     0.002 A 
ATOM     75  C   UNL A   1      36.578  31.714  31.172  1.00  0.00     0.091 A 
ATOM     76  F   UNL A   1      37.733  31.401  29.109  1.00  0.00    -0.205 F 
ATOM     77  C   UNL A   1      36.509  31.491  32.556  1.00  0.00     0.022 A 
BRANCH  75  78
ATOM     78  S   UNL A   1      35.247  32.655  30.421  1.00  0.00     0.127 S 
ATOM     79  O   UNL A   1      34.805  31.756  29.360  1.00  0.00    -0.237 OA
ATOM     80  O   UNL A   1      34.311  32.801  31.537  1.00  0.00    -0.237 OA
ATOM     81  O   UNL A   1      35.852  33.907  29.984  1.00  0.00    -0.744 OA
ENDBRANCH  75  78
ENDBRANCH  47  71
BRANCH  59  82
ATOM     82  C   UNL A   1      44.812  33.515  29.234  1.00  0.00     0.023 A 
ATOM     83  C   UNL A   1      45.523  33.795  30.420  1.00  0.00     0.012 A 
ATOM     84  C   UNL A   1      44.708  34.512  28.244  1.00  0.00     0.148 A 
ATOM     85  C   UNL A   1      46.078  35.056  30.635  1.00  0.00     0.002 A 
ATOM     86  C   UNL A   1      45.309  35.750  28.443  1.00  0.00     0.091 A 
ATOM     87  F   UNL A   1      44.017  34.238  27.128  1.00  0.00    -0.205 F 
ATOM     88  C   UNL A   1      45.980  36.029  29.644  1.00  0.00     0.022 A 
BRANCH  86  89
ATOM     89  S   UNL A   1      45.319  37.033  27.185  1.00  0.00     0.127 S 
ATOM     90  O   UNL A   1      46.029  36.372  26.091  1.00  0.00    -0.237 OA
ATOM     91  O   UNL A   1      43.891  37.245  26.945  1.00  0.00    -0.237 OA
ATOM     92  O   UNL A   1      46.005  38.172  27.780  1.00  0.00    -0.744 OA
ENDBRANCH  86  89
ENDBRANCH  59  82
ENDBRANCH  33  34
ENDBRANCH  26  28
ENDBRANCH  25  26
ENDBRANCH  24  25
ENDBRANCH   1  24
TORSDOF 17
ENDMDL
MODEL 3
REMARK VINA RESULT:     -12.2      1.485      2.095
REMARK SMILES O=C(CC1CC[NH+](C[C@H]2COc3ccccc3O2)CC1)OCCOC(=O)c1ccc(-c2c3nc(c(-c4cccc(S(=O)(=O)[O-])c4F)c4ccc([nH]4)c(-c4cccc(S(=O)(=O)[O-])c4F)c4nc(c(-c5cccc(S(=O)(=O)[O-])c5F)c5ccc2[nH]5)C=C4)C=C3)cc1
REMARK SMILES IDX 22 1 21 2 2 3 1 4 3 5 4 6 5 7 20 8 6 9 19 10 7 11 8 13 9 14
REMARK SMILES IDX 10 15 18 16 11 17 17 18 12 19 16 20 13 21 15 22 14 23 23 24
REMARK SMILES IDX 24 25 25 26 26 27 27 28 28 29 89 30 29 31 88 32 30 33 31 34
REMARK SMILES IDX 32 35 82 36 33 37 87 38 81 39 83 40 34 41 86 42 80 43 79 44
REMARK SMILES IDX 35 46 67 47 47 48 66 49 48 50 51 51 65 52 84 53 49 54 50 55
REMARK SMILES IDX 64 57 85 58 52 59 36 60 37 61 45 62 38 63 40 64 46 65 39 66
REMARK SMILES IDX 41 67 42 68 43 69 44 70 68 71 69 72 77 73 70 74 72 75 78 76
REMARK SMILES IDX 71 77 73 78 74 79 75 80 76 81 53 82 54 83 62 84 55 85 57 86
REMARK SMILES IDX 63 87 56 88 58 89 59 90 60 91 61 92
REMARK H PARENT 7 12 83 45 51 56
REMARK Flexibility Score: inf
ROOT
ATOM      1  C   UNL A   1      30.966  30.498  25.111  1.00  0.00     0.274 C 
ENDROOT
BRANCH   1   2
ATOM      2  O   UNL A   1      29.868  30.816  24.237  1.00  0.00    -0.462 OA
BRANCH   2   3
ATOM      3  C   UNL A   1      29.613  29.980  23.188  1.00  0.00     0.306 C 
ATOM      4  O   UNL A   1      28.503  29.929  22.672  1.00  0.00    -0.252 OA
BRANCH   3   5
ATOM      5  C   UNL A   1      30.726  29.009  22.848  1.00  0.00     0.126 C 
BRANCH   5   6
ATOM      6  C   UNL A   1      30.309  27.546  22.610  1.00  0.00     0.011 C 
ATOM      7  C   UNL A   1      29.676  26.953  23.884  1.00  0.00     0.066 C 
ATOM      8  C   UNL A   1      31.473  26.629  22.217  1.00  0.00     0.066 C 
ATOM      9  C   UNL A   1      30.707  26.773  25.006  1.00  0.00     0.262 C 
ATOM     10  C   UNL A   1      32.473  26.387  23.358  1.00  0.00     0.262 C 
ATOM     11  N   UNL A   1      31.861  25.959  24.618  1.00  0.00    -0.332 N 
ATOM     12  H   UNL A   1      31.468  25.033  24.451  1.00  0.00     0.348 HD
BRANCH  11  13
ATOM     13  C   UNL A   1      32.869  25.774  25.697  1.00  0.00     0.311 C 
BRANCH  13  14
ATOM     14  C   UNL A   1      33.615  24.418  25.858  1.00  0.00     0.265 C 
ATOM     15  C   UNL A   1      32.866  23.212  25.294  1.00  0.00     0.281 C 
ATOM     16  O   UNL A   1      34.897  24.499  25.174  1.00  0.00    -0.477 OA
ATOM     17  O   UNL A   1      33.528  22.004  25.695  1.00  0.00    -0.486 OA
ATOM     18  C   UNL A   1      35.520  23.271  25.110  1.00  0.00     0.162 A 
ATOM     19  C   UNL A   1      34.863  22.068  25.397  1.00  0.00     0.161 A 
ATOM     20  C   UNL A   1      36.859  23.242  24.721  1.00  0.00     0.050 A 
ATOM     21  C   UNL A   1      35.552  20.857  25.374  1.00  0.00     0.050 A 
ATOM     22  C   UNL A   1      37.543  22.022  24.664  1.00  0.00     0.004 A 
ATOM     23  C   UNL A   1      36.895  20.833  25.004  1.00  0.00     0.004 A 
ENDBRANCH  13  14
ENDBRANCH  11  13
ENDBRANCH   5   6
ENDBRANCH   3   5
ENDBRANCH   2   3
ENDBRANCH   1   2
BRANCH   1  24
ATOM     24  C   UNL A   1      31.270  31.567  26.174  1.00  0.00     0.275 C 
BRANCH  24  25
ATOM     25  O   UNL A   1      32.386  31.216  27.002  1.00  0.00    -0.458 OA
BRANCH  25  26
ATOM     26  C   UNL A   1      33.076  32.299  27.445  1.00  0.00     0.338 C 
ATOM     27  O   UNL A   1      32.607  33.402  27.684  1.00  0.00    -0.246 OA
BRANCH  26  28
ATOM     28  C   UNL A   1      34.453  31.923  27.823  1.00  0.00     0.060 A 
ATOM     29  C   UNL A   1      34.674  30.570  28.104  1.00  0.00     0.016 A 
ATOM     30  C   UNL A   1      35.494  32.847  27.955  1.00  0.00     0.016 A 
ATOM     31  C   UNL A   1      35.908  30.147  28.591  1.00  0.00     0.010 A 
ATOM     32  C   UNL A   1      36.740  32.416  28.441  1.00  0.00     0.010 A 
ATOM     33  C   UNL A   1      36.940  31.072  28.805  1.00  0.00    -0.014 A 
BRANCH  33  34
ATOM     34  C   UNL A   1      38.160  30.613  29.524  1.00  0.00     0.031 A 
ATOM     35  C   UNL A   1      38.413  31.075  30.936  1.00  0.00     0.074 A 
ATOM     36  C   UNL A   1      38.994  29.717  28.961  1.00  0.00     0.049 A 
ATOM     37  N   UNL A   1      39.334  30.685  31.781  1.00  0.00    -0.248 NA
ATOM     38  C   UNL A   1      37.508  32.104  31.471  1.00  0.00     0.031 C 
ATOM     39  C   UNL A   1      38.875  29.189  27.602  1.00  0.00     0.029 A 
ATOM     40  N   UNL A   1      40.108  29.092  29.467  1.00  0.00    -0.354 N 
ATOM     41  C   UNL A   1      39.122  31.417  32.943  1.00  0.00     0.074 A 
ATOM     42  C   UNL A   1      38.005  32.300  32.685  1.00  0.00     0.031 C 
ATOM     43  C   UNL A   1      39.883  28.327  27.379  1.00  0.00     0.029 A 
ATOM     44  C   UNL A   1      40.722  28.246  28.573  1.00  0.00     0.049 A 
ATOM     45  H   UNL A   1      40.436  29.236  30.384  1.00  0.00     0.167 HD
ATOM     46  C   UNL A   1      39.776  31.346  34.129  1.00  0.00     0.034 A 
ATOM     47  C   UNL A   1      41.835  27.494  28.701  1.00  0.00     0.034 A 
ATOM     48  C   UNL A   1      40.882  30.465  34.398  1.00  0.00     0.049 A 
ATOM     49  C   UNL A   1      42.559  27.455  30.023  1.00  0.00     0.074 A 
ATOM     50  C   UNL A   1      41.579  30.301  35.583  1.00  0.00     0.029 A 
ATOM     51  N   UNL A   1      41.463  29.612  33.474  1.00  0.00    -0.354 N 
ATOM     52  N   UNL A   1      42.256  28.048  31.152  1.00  0.00    -0.248 NA
ATOM     53  C   UNL A   1      43.759  26.607  30.099  1.00  0.00     0.031 C 
ATOM     54  C   UNL A   1      42.603  29.372  35.366  1.00  0.00     0.029 A 
ATOM     55  C   UNL A   1      42.519  28.931  34.056  1.00  0.00     0.049 A 
ATOM     56  H   UNL A   1      41.167  29.507  32.541  1.00  0.00     0.167 HD
ATOM     57  C   UNL A   1      43.202  27.616  32.077  1.00  0.00     0.074 A 
ATOM     58  C   UNL A   1      44.070  26.688  31.385  1.00  0.00     0.031 C 
ATOM     59  C   UNL A   1      43.350  27.970  33.378  1.00  0.00     0.034 A 
BRANCH  46  60
ATOM     60  C   UNL A   1      39.289  32.224  35.252  1.00  0.00     0.023 A 
ATOM     61  C   UNL A   1      38.354  31.712  36.176  1.00  0.00     0.012 A 
ATOM     62  C   UNL A   1      39.817  33.514  35.445  1.00  0.00     0.148 A 
ATOM     63  C   UNL A   1      37.934  32.481  37.261  1.00  0.00     0.002 A 
ATOM     64  C   UNL A   1      39.426  34.259  36.552  1.00  0.00     0.091 A 
ATOM     65  F   UNL A   1      40.692  33.987  34.546  1.00  0.00    -0.205 F 
ATOM     66  C   UNL A   1      38.478  33.748  37.454  1.00  0.00     0.022 A 
BRANCH  64  67
ATOM     67  S   UNL A   1      40.121  35.870  36.936  1.00  0.00     0.127 S 
ATOM     68  O   UNL A   1      41.544  35.556  37.057  1.00  0.00    -0.237 OA
ATOM     69  O   UNL A   1      39.767  36.647  35.748  1.00  0.00    -0.237 OA
ATOM     70  O   UNL A   1      39.476  36.307  38.166  1.00  0.00    -0.744 OA
ENDBRANCH  64  67
ENDBRANCH  46  60
BRANCH  47  71
ATOM     71  C   UNL A   1      42.331  26.685  27.549  1.00  0.00     0.023 A 
ATOM     72  C   UNL A   1      43.104  27.295  26.541  1.00  0.00     0.012 A 
ATOM     73  C   UNL A   1      42.012  25.319  27.435  1.00  0.00     0.148 A 
ATOM     74  C   UNL A   1      43.508  26.571  25.418  1.00  0.00     0.002 A 
ATOM     75  C   UNL A   1      42.468  24.588  26.344  1.00  0.00     0.091 A 
ATOM     76  F   UNL A   1      41.257  24.761  28.393  1.00  0.00    -0.205 F 
ATOM     77  C   UNL A   1      43.197  25.216  25.324  1.00  0.00     0.022 A 
BRANCH  75  78
ATOM     78  S   UNL A   1      42.219  22.815  26.208  1.00  0.00     0.127 S 
ATOM     79  O   UNL A   1      40.764  22.712  26.262  1.00  0.00    -0.237 OA
ATOM     80  O   UNL A   1      42.811  22.525  24.902  1.00  0.00    -0.237 OA
ATOM     81  O   UNL A   1      42.940  22.233  27.333  1.00  0.00    -0.744 OA
ENDBRANCH  75  78
ENDBRANCH  47  71
BRANCH  59  82
ATOM     82  C   UNL A   1      44.473  27.329  34.157  1.00  0.00     0.023 A 
ATOM     83  C   UNL A   1      45.748  27.933  34.179  1.00  0.00     0.012 A 
ATOM     84  C   UNL A   1      44.254  26.158  34.909  1.00  0.00     0.148 A 
ATOM     85  C   UNL A   1      46.795  27.356  34.896  1.00  0.00     0.002 A 
ATOM     86  C   UNL A   1      45.290  25.618  35.664  1.00  0.00     0.091 A 
ATOM     87  F   UNL A   1      43.042  25.586  34.867  1.00  0.00    -0.205 F 
ATOM     88  C   UNL A   1      46.564  26.206  35.647  1.00  0.00     0.022 A 
BRANCH  86  89
ATOM     89  S   UNL A   1      45.062  24.194  36.738  1.00  0.00     0.127 S 
ATOM     90  O   UNL A   1      46.434  23.918  37.161  1.00  0.00    -0.237 OA
ATOM     91  O   UNL A   1      44.195  24.732  37.787  1.00  0.00    -0.237 OA
ATOM     92  O   UNL A   1      44.442  23.166  35.912  1.00  0.00    -0.744 OA
ENDBRANCH  86  89
ENDBRANCH  59  82
ENDBRANCH  33  34
ENDBRANCH  26  28
ENDBRANCH  25  26
ENDBRANCH  24  25
ENDBRANCH   1  24
TORSDOF 17
ENDMDL
