MODEL 1
REMARK VINA RESULT:     -11.9      0.000      0.000
REMARK SMILES N#C/C(=C\c1ccc(Oc2ccccc2Cl)c([N+](=O)[O-])c1)C(=O)OCCOC(=O)c1ccc(-c2c3nc(c(-c4cccc(S(=O)(=O)[O-])c4F)c4ccc([nH]4)c(-c4cccc(S(=O)(=O)[O-])c4F)c4nc(c(-c5cccc(S(=O)(=O)[O-])c5F)c5ccc2[nH]5)C=C4)C=C3)cc1
REMARK SMILES IDX 25 1 24 2 22 3 23 4 3 5 4 6 2 7 1 8 5 9 6 10 21 11 7 12
REMARK SMILES IDX 17 13 8 14 18 15 19 16 20 17 9 18 10 19 11 20 15 21 12 22
REMARK SMILES IDX 14 23 16 24 13 25 26 26 27 27 28 28 29 29 30 30 31 31 92 32
REMARK SMILES IDX 32 33 91 34 33 35 34 36 35 37 85 38 36 39 90 40 84 41 86 42
REMARK SMILES IDX 37 43 89 44 83 45 82 46 38 48 70 49 50 50 69 51 51 52 54 53
REMARK SMILES IDX 68 54 87 55 52 56 53 57 67 59 88 60 55 61 39 62 40 63 48 64
REMARK SMILES IDX 41 65 43 66 49 67 42 68 44 69 45 70 46 71 47 72 71 73 72 74
REMARK SMILES IDX 80 75 73 76 75 77 81 78 74 79 76 80 77 81 78 82 79 83 56 84
REMARK SMILES IDX 57 85 65 86 58 87 60 88 66 89 59 90 61 91 62 92 63 93 64 94
REMARK H PARENT 86 47 54 58
REMARK Flexibility Score: inf
ROOT
ATOM      1  C   UNL A   1      35.406  20.631  25.381  1.00  0.00     0.275 C 
ENDROOT
BRANCH   1   2
ATOM      2  O   UNL A   1      35.386  21.733  26.309  1.00  0.00    -0.458 OA
BRANCH   2   3
ATOM      3  C   UNL A   1      34.215  21.938  26.964  1.00  0.00     0.349 C 
ATOM      4  O   UNL A   1      33.675  21.149  27.726  1.00  0.00    -0.245 OA
BRANCH   3   5
ATOM      5  C   UNL A   1      33.665  23.267  26.646  1.00  0.00     0.138 C 
ATOM      6  C   UNL A   1      34.386  24.084  25.839  1.00  0.00     0.035 C 
BRANCH   5   7
ATOM      7  C   UNL A   1      32.214  23.615  26.935  1.00  0.00     0.107 C 
ATOM      8  N   UNL A   1      31.011  23.904  27.175  1.00  0.00    -0.192 NA
ENDBRANCH   5   7
BRANCH   6   9
ATOM      9  C   UNL A   1      33.844  25.299  25.196  1.00  0.00    -0.017 A 
ATOM     10  C   UNL A   1      34.053  26.546  25.792  1.00  0.00     0.012 A 
ATOM     11  C   UNL A   1      33.221  25.256  23.947  1.00  0.00     0.098 A 
ATOM     12  C   UNL A   1      33.677  27.725  25.129  1.00  0.00     0.055 A 
ATOM     13  C   UNL A   1      32.948  26.444  23.247  1.00  0.00     0.312 A 
ATOM     14  C   UNL A   1      33.123  27.700  23.838  1.00  0.00     0.204 A 
BRANCH  13  15
ATOM     15  N   UNL A   1      32.626  26.256  21.847  1.00  0.00     0.066 N 
ATOM     16  O   UNL A   1      31.433  26.095  21.560  1.00  0.00    -0.258 OA
ATOM     17  O   UNL A   1      33.565  26.330  21.043  1.00  0.00    -0.258 OA
ENDBRANCH  13  15
BRANCH  14  18
ATOM     18  O   UNL A   1      32.846  28.965  23.364  1.00  0.00    -0.449 OA
BRANCH  18  19
ATOM     19  C   UNL A   1      31.554  29.412  23.259  1.00  0.00     0.146 A 
ATOM     20  C   UNL A   1      30.959  29.266  22.002  1.00  0.00     0.049 A 
ATOM     21  C   UNL A   1      30.843  30.017  24.303  1.00  0.00     0.083 A 
ATOM     22  C   UNL A   1      29.622  29.616  21.818  1.00  0.00     0.004 A 
ATOM     23  C   UNL A   1      29.495  30.337  24.123  1.00  0.00     0.024 A 
ATOM     24  Cl  UNL A   1      31.573  30.361  25.830  1.00  0.00    -0.080 Cl
ATOM     25  C   UNL A   1      28.883  30.123  22.885  1.00  0.00     0.002 A 
ENDBRANCH  18  19
ENDBRANCH  14  18
ENDBRANCH   6   9
ENDBRANCH   3   5
ENDBRANCH   2   3
ENDBRANCH   1   2
BRANCH   1  26
ATOM     26  C   UNL A   1      36.807  20.473  24.785  1.00  0.00     0.275 C 
BRANCH  26  27
ATOM     27  O   UNL A   1      37.661  21.570  25.165  1.00  0.00    -0.458 OA
BRANCH  27  28
ATOM     28  C   UNL A   1      38.783  21.216  25.832  1.00  0.00     0.338 C 
ATOM     29  O   UNL A   1      39.397  20.167  25.729  1.00  0.00    -0.246 OA
BRANCH  28  30
ATOM     30  C   UNL A   1      39.311  22.352  26.602  1.00  0.00     0.060 A 
ATOM     31  C   UNL A   1      38.876  23.617  26.244  1.00  0.00     0.016 A 
ATOM     32  C   UNL A   1      40.385  22.213  27.475  1.00  0.00     0.016 A 
ATOM     33  C   UNL A   1      39.611  24.738  26.596  1.00  0.00     0.010 A 
ATOM     34  C   UNL A   1      41.019  23.365  27.970  1.00  0.00     0.010 A 
ATOM     35  C   UNL A   1      40.672  24.644  27.494  1.00  0.00    -0.014 A 
BRANCH  35  36
ATOM     36  C   UNL A   1      41.405  25.883  27.888  1.00  0.00     0.031 A 
ATOM     37  C   UNL A   1      40.715  26.954  28.692  1.00  0.00     0.074 A 
ATOM     38  C   UNL A   1      42.704  26.044  27.551  1.00  0.00     0.049 A 
ATOM     39  N   UNL A   1      41.099  28.180  28.937  1.00  0.00    -0.248 NA
ATOM     40  C   UNL A   1      39.409  26.610  29.281  1.00  0.00     0.031 C 
ATOM     41  C   UNL A   1      43.524  25.071  26.821  1.00  0.00     0.029 A 
ATOM     42  N   UNL A   1      43.569  27.089  27.771  1.00  0.00    -0.354 N 
ATOM     43  C   UNL A   1      40.053  28.777  29.633  1.00  0.00     0.074 A 
ATOM     44  C   UNL A   1      39.018  27.776  29.776  1.00  0.00     0.031 C 
ATOM     45  C   UNL A   1      44.768  25.546  26.682  1.00  0.00     0.029 A 
ATOM     46  C   UNL A   1      44.804  26.907  27.191  1.00  0.00     0.049 A 
ATOM     47  H   UNL A   1      43.329  27.890  28.292  1.00  0.00     0.167 HD
ATOM     48  C   UNL A   1      39.969  30.042  30.111  1.00  0.00     0.034 A 
ATOM     49  C   UNL A   1      45.833  27.756  27.011  1.00  0.00     0.034 A 
ATOM     50  C   UNL A   1      41.036  31.004  30.026  1.00  0.00     0.049 A 
ATOM     51  C   UNL A   1      45.705  29.159  27.525  1.00  0.00     0.074 A 
ATOM     52  C   UNL A   1      41.059  32.308  30.492  1.00  0.00     0.029 A 
ATOM     53  N   UNL A   1      42.276  30.765  29.452  1.00  0.00    -0.354 N 
ATOM     54  N   UNL A   1      44.708  29.713  28.170  1.00  0.00    -0.248 NA
ATOM     55  C   UNL A   1      46.848  30.054  27.297  1.00  0.00     0.031 C 
ATOM     56  C   UNL A   1      42.302  32.864  30.173  1.00  0.00     0.029 A 
ATOM     57  C   UNL A   1      43.069  31.896  29.546  1.00  0.00     0.049 A 
ATOM     58  H   UNL A   1      42.552  29.915  29.038  1.00  0.00     0.167 HD
ATOM     59  C   UNL A   1      45.110  31.011  28.448  1.00  0.00     0.074 A 
ATOM     60  C   UNL A   1      46.455  31.152  27.926  1.00  0.00     0.031 C 
ATOM     61  C   UNL A   1      44.423  32.004  29.064  1.00  0.00     0.034 A 
BRANCH  48  62
ATOM     62  C   UNL A   1      38.680  30.463  30.772  1.00  0.00     0.023 A 
ATOM     63  C   UNL A   1      38.471  30.218  32.143  1.00  0.00     0.012 A 
ATOM     64  C   UNL A   1      37.693  31.153  30.038  1.00  0.00     0.148 A 
ATOM     65  C   UNL A   1      37.289  30.619  32.765  1.00  0.00     0.002 A 
ATOM     66  C   UNL A   1      36.540  31.594  30.675  1.00  0.00     0.091 A 
ATOM     67  F   UNL A   1      37.900  31.364  28.730  1.00  0.00    -0.205 F 
ATOM     68  C   UNL A   1      36.329  31.316  32.035  1.00  0.00     0.022 A 
BRANCH  66  69
ATOM     69  S   UNL A   1      35.280  32.569  29.842  1.00  0.00     0.127 S 
ATOM     70  O   UNL A   1      35.986  33.827  29.606  1.00  0.00    -0.237 OA
ATOM     71  O   UNL A   1      35.027  31.777  28.637  1.00  0.00    -0.237 OA
ATOM     72  O   UNL A   1      34.156  32.650  30.765  1.00  0.00    -0.744 OA
ENDBRANCH  66  69
ENDBRANCH  48  62
BRANCH  49  73
ATOM     73  C   UNL A   1      47.049  27.308  26.270  1.00  0.00     0.023 A 
ATOM     74  C   UNL A   1      47.198  27.627  24.908  1.00  0.00     0.012 A 
ATOM     75  C   UNL A   1      48.074  26.592  26.923  1.00  0.00     0.148 A 
ATOM     76  C   UNL A   1      48.332  27.218  24.203  1.00  0.00     0.002 A 
ATOM     77  C   UNL A   1      49.229  26.248  26.234  1.00  0.00     0.091 A 
ATOM     78  F   UNL A   1      47.907  26.279  28.216  1.00  0.00    -0.205 F 
ATOM     79  C   UNL A   1      49.352  26.542  24.868  1.00  0.00     0.022 A 
BRANCH  77  80
ATOM     80  S   UNL A   1      50.651  25.512  27.049  1.00  0.00     0.127 S 
ATOM     81  O   UNL A   1      50.073  24.298  27.619  1.00  0.00    -0.237 OA
ATOM     82  O   UNL A   1      51.565  25.293  25.927  1.00  0.00    -0.237 OA
ATOM     83  O   UNL A   1      51.113  26.506  28.011  1.00  0.00    -0.744 OA
ENDBRANCH  77  80
ENDBRANCH  49  73
BRANCH  61  84
ATOM     84  C   UNL A   1      45.131  33.317  29.254  1.00  0.00     0.023 A 
ATOM     85  C   UNL A   1      45.889  33.548  30.419  1.00  0.00     0.012 A 
ATOM     86  C   UNL A   1      45.090  34.302  28.247  1.00  0.00     0.148 A 
ATOM     87  C   UNL A   1      46.564  34.755  30.596  1.00  0.00     0.002 A 
ATOM     88  C   UNL A   1      45.809  35.479  28.407  1.00  0.00     0.091 A 
ATOM     89  F   UNL A   1      44.347  34.069  27.155  1.00  0.00    -0.205 F 
ATOM     90  C   UNL A   1      46.534  35.714  29.586  1.00  0.00     0.022 A 
BRANCH  88  91
ATOM     91  S   UNL A   1      45.909  36.729  27.121  1.00  0.00     0.127 S 
ATOM     92  O   UNL A   1      44.511  37.140  26.997  1.00  0.00    -0.237 OA
ATOM     93  O   UNL A   1      46.788  37.727  27.730  1.00  0.00    -0.237 OA
ATOM     94  O   UNL A   1      46.468  36.062  25.953  1.00  0.00    -0.744 OA
ENDBRANCH  88  91
ENDBRANCH  61  84
ENDBRANCH  35  36
ENDBRANCH  28  30
ENDBRANCH  27  28
ENDBRANCH  26  27
ENDBRANCH   1  26
TORSDOF 19
ENDMDL
MODEL 2
REMARK VINA RESULT:     -11.5      1.871      7.748
REMARK SMILES N#C/C(=C\c1ccc(Oc2ccccc2Cl)c([N+](=O)[O-])c1)C(=O)OCCOC(=O)c1ccc(-c2c3nc(c(-c4cccc(S(=O)(=O)[O-])c4F)c4ccc([nH]4)c(-c4cccc(S(=O)(=O)[O-])c4F)c4nc(c(-c5cccc(S(=O)(=O)[O-])c5F)c5ccc2[nH]5)C=C4)C=C3)cc1
REMARK SMILES IDX 25 1 24 2 22 3 23 4 3 5 4 6 2 7 1 8 5 9 6 10 21 11 7 12
REMARK SMILES IDX 17 13 8 14 18 15 19 16 20 17 9 18 10 19 11 20 15 21 12 22
REMARK SMILES IDX 14 23 16 24 13 25 26 26 27 27 28 28 29 29 30 30 31 31 92 32
REMARK SMILES IDX 32 33 91 34 33 35 34 36 35 37 85 38 36 39 90 40 84 41 86 42
REMARK SMILES IDX 37 43 89 44 83 45 82 46 38 48 70 49 50 50 69 51 51 52 54 53
REMARK SMILES IDX 68 54 87 55 52 56 53 57 67 59 88 60 55 61 39 62 40 63 48 64
REMARK SMILES IDX 41 65 43 66 49 67 42 68 44 69 45 70 46 71 47 72 71 73 72 74
REMARK SMILES IDX 80 75 73 76 75 77 81 78 74 79 76 80 77 81 78 82 79 83 56 84
REMARK SMILES IDX 57 85 65 86 58 87 60 88 66 89 59 90 61 91 62 92 63 93 64 94
REMARK H PARENT 86 47 54 58
REMARK Flexibility Score: inf
ROOT
ATOM      1  C   UNL A   1      35.397  21.410  25.616  1.00  0.00     0.275 C 
ENDROOT
BRANCH   1   2
ATOM      2  O   UNL A   1      34.550  21.699  24.488  1.00  0.00    -0.458 OA
BRANCH   2   3
ATOM      3  C   UNL A   1      34.880  22.795  23.760  1.00  0.00     0.349 C 
ATOM      4  O   UNL A   1      35.794  22.866  22.951  1.00  0.00    -0.245 OA
BRANCH   3   5
ATOM      5  C   UNL A   1      33.973  23.915  24.061  1.00  0.00     0.138 C 
ATOM      6  C   UNL A   1      34.518  25.122  24.349  1.00  0.00     0.035 C 
BRANCH   5   7
ATOM      7  C   UNL A   1      32.485  23.834  23.763  1.00  0.00     0.107 C 
ATOM      8  N   UNL A   1      31.250  23.767  23.516  1.00  0.00    -0.192 NA
ENDBRANCH   5   7
BRANCH   6   9
ATOM      9  C   UNL A   1      33.756  26.388  24.374  1.00  0.00    -0.017 A 
ATOM     10  C   UNL A   1      33.470  27.045  23.173  1.00  0.00     0.012 A 
ATOM     11  C   UNL A   1      33.211  26.897  25.555  1.00  0.00     0.098 A 
ATOM     12  C   UNL A   1      32.626  28.167  23.157  1.00  0.00     0.055 A 
ATOM     13  C   UNL A   1      32.283  27.952  25.513  1.00  0.00     0.312 A 
ATOM     14  C   UNL A   1      32.007  28.639  24.327  1.00  0.00     0.204 A 
BRANCH  13  15
ATOM     15  N   UNL A   1      31.546  28.154  26.744  1.00  0.00     0.066 N 
ATOM     16  O   UNL A   1      30.972  27.169  27.225  1.00  0.00    -0.258 OA
ATOM     17  O   UNL A   1      31.598  29.285  27.247  1.00  0.00    -0.258 OA
ENDBRANCH  13  15
BRANCH  14  18
ATOM     18  O   UNL A   1      31.205  29.735  24.085  1.00  0.00    -0.449 OA
BRANCH  18  19
ATOM     19  C   UNL A   1      29.899  29.582  23.696  1.00  0.00     0.146 A 
ATOM     20  C   UNL A   1      29.509  28.280  23.369  1.00  0.00     0.049 A 
ATOM     21  C   UNL A   1      28.983  30.635  23.581  1.00  0.00     0.083 A 
ATOM     22  C   UNL A   1      28.181  28.010  23.041  1.00  0.00     0.004 A 
ATOM     23  C   UNL A   1      27.647  30.357  23.282  1.00  0.00     0.024 A 
ATOM     24  Cl  UNL A   1      29.446  32.282  23.825  1.00  0.00    -0.080 Cl
ATOM     25  C   UNL A   1      27.246  29.043  23.026  1.00  0.00     0.002 A 
ENDBRANCH  18  19
ENDBRANCH  14  18
ENDBRANCH   6   9
ENDBRANCH   3   5
ENDBRANCH   2   3
ENDBRANCH   1   2
BRANCH   1  26
ATOM     26  C   UNL A   1      36.617  20.604  25.165  1.00  0.00     0.275 C 
BRANCH  26  27
ATOM     27  O   UNL A   1      37.771  21.454  25.005  1.00  0.00    -0.458 OA
BRANCH  27  28
ATOM     28  C   UNL A   1      38.819  21.151  25.805  1.00  0.00     0.338 C 
ATOM     29  O   UNL A   1      39.410  20.085  25.867  1.00  0.00    -0.246 OA
BRANCH  28  30
ATOM     30  C   UNL A   1      39.307  22.350  26.500  1.00  0.00     0.060 A 
ATOM     31  C   UNL A   1      38.659  23.545  26.234  1.00  0.00     0.016 A 
ATOM     32  C   UNL A   1      40.514  22.360  27.193  1.00  0.00     0.016 A 
ATOM     33  C   UNL A   1      39.286  24.755  26.484  1.00  0.00     0.010 A 
ATOM     34  C   UNL A   1      41.060  23.589  27.600  1.00  0.00     0.010 A 
ATOM     35  C   UNL A   1      40.478  24.807  27.204  1.00  0.00    -0.014 A 
BRANCH  35  36
ATOM     36  C   UNL A   1      41.094  26.134  27.497  1.00  0.00     0.031 A 
ATOM     37  C   UNL A   1      42.498  26.441  27.042  1.00  0.00     0.074 A 
ATOM     38  C   UNL A   1      40.391  27.085  28.152  1.00  0.00     0.049 A 
ATOM     39  N   UNL A   1      43.281  27.430  27.385  1.00  0.00    -0.248 NA
ATOM     40  C   UNL A   1      43.111  25.498  26.089  1.00  0.00     0.031 C 
ATOM     41  C   UNL A   1      39.003  26.956  28.609  1.00  0.00     0.029 A 
ATOM     42  N   UNL A   1      40.744  28.351  28.554  1.00  0.00    -0.354 N 
ATOM     43  C   UNL A   1      44.500  27.188  26.762  1.00  0.00     0.074 A 
ATOM     44  C   UNL A   1      44.353  25.958  26.013  1.00  0.00     0.031 C 
ATOM     45  C   UNL A   1      38.616  28.095  29.196  1.00  0.00     0.029 A 
ATOM     46  C   UNL A   1      39.761  28.988  29.278  1.00  0.00     0.049 A 
ATOM     47  H   UNL A   1      41.615  28.762  28.346  1.00  0.00     0.167 HD
ATOM     48  C   UNL A   1      45.635  27.926  26.807  1.00  0.00     0.034 A 
ATOM     49  C   UNL A   1      39.786  30.124  29.999  1.00  0.00     0.034 A 
ATOM     50  C   UNL A   1      45.745  29.186  27.495  1.00  0.00     0.049 A 
ATOM     51  C   UNL A   1      41.062  30.910  30.056  1.00  0.00     0.074 A 
ATOM     52  C   UNL A   1      46.844  30.021  27.591  1.00  0.00     0.029 A 
ATOM     53  N   UNL A   1      44.716  29.801  28.193  1.00  0.00    -0.354 N 
ATOM     54  N   UNL A   1      42.209  30.664  29.473  1.00  0.00    -0.248 NA
ATOM     55  C   UNL A   1      41.046  32.138  30.863  1.00  0.00     0.031 C 
ATOM     56  C   UNL A   1      46.487  31.127  28.370  1.00  0.00     0.029 A 
ATOM     57  C   UNL A   1      45.154  31.001  28.726  1.00  0.00     0.049 A 
ATOM     58  H   UNL A   1      43.806  29.437  28.294  1.00  0.00     0.167 HD
ATOM     59  C   UNL A   1      43.045  31.715  29.818  1.00  0.00     0.074 A 
ATOM     60  C   UNL A   1      42.262  32.617  30.641  1.00  0.00     0.031 C 
ATOM     61  C   UNL A   1      44.348  31.910  29.500  1.00  0.00     0.034 A 
BRANCH  48  62
ATOM     62  C   UNL A   1      46.853  27.396  26.093  1.00  0.00     0.023 A 
ATOM     63  C   UNL A   1      47.688  26.450  26.719  1.00  0.00     0.012 A 
ATOM     64  C   UNL A   1      47.140  27.800  24.773  1.00  0.00     0.148 A 
ATOM     65  C   UNL A   1      48.808  25.942  26.059  1.00  0.00     0.002 A 
ATOM     66  C   UNL A   1      48.228  27.254  24.103  1.00  0.00     0.091 A 
ATOM     67  F   UNL A   1      46.345  28.714  24.197  1.00  0.00    -0.205 F 
ATOM     68  C   UNL A   1      49.071  26.335  24.749  1.00  0.00     0.022 A 
BRANCH  66  69
ATOM     69  S   UNL A   1      48.606  27.635  22.388  1.00  0.00     0.127 S 
ATOM     70  O   UNL A   1      48.763  26.298  21.815  1.00  0.00    -0.237 OA
ATOM     71  O   UNL A   1      47.401  28.344  21.958  1.00  0.00    -0.237 OA
ATOM     72  O   UNL A   1      49.815  28.447  22.411  1.00  0.00    -0.744 OA
ENDBRANCH  66  69
ENDBRANCH  48  62
BRANCH  49  73
ATOM     73  C   UNL A   1      38.575  30.552  30.758  1.00  0.00     0.023 A 
ATOM     74  C   UNL A   1      38.477  30.278  32.135  1.00  0.00     0.012 A 
ATOM     75  C   UNL A   1      37.533  31.260  30.124  1.00  0.00     0.148 A 
ATOM     76  C   UNL A   1      37.351  30.677  32.859  1.00  0.00     0.002 A 
ATOM     77  C   UNL A   1      36.449  31.713  30.863  1.00  0.00     0.091 A 
ATOM     78  F   UNL A   1      37.633  31.495  28.807  1.00  0.00    -0.205 F 
ATOM     79  C   UNL A   1      36.345  31.404  32.227  1.00  0.00     0.022 A 
BRANCH  77  80
ATOM     80  S   UNL A   1      35.187  32.783  30.163  1.00  0.00     0.127 S 
ATOM     81  O   UNL A   1      34.621  31.933  29.119  1.00  0.00    -0.237 OA
ATOM     82  O   UNL A   1      34.312  33.014  31.312  1.00  0.00    -0.237 OA
ATOM     83  O   UNL A   1      35.892  33.972  29.699  1.00  0.00    -0.744 OA
ENDBRANCH  77  80
ENDBRANCH  49  73
BRANCH  61  84
ATOM     84  C   UNL A   1      44.998  33.172  30.000  1.00  0.00     0.023 A 
ATOM     85  C   UNL A   1      45.688  33.172  31.228  1.00  0.00     0.012 A 
ATOM     86  C   UNL A   1      44.972  34.344  29.220  1.00  0.00     0.148 A 
ATOM     87  C   UNL A   1      46.308  34.331  31.690  1.00  0.00     0.002 A 
ATOM     88  C   UNL A   1      45.638  35.479  29.661  1.00  0.00     0.091 A 
ATOM     89  F   UNL A   1      44.293  34.328  28.062  1.00  0.00    -0.205 F 
ATOM     90  C   UNL A   1      46.294  35.479  30.903  1.00  0.00     0.022 A 
BRANCH  88  91
ATOM     91  S   UNL A   1      45.757  36.973  28.672  1.00  0.00     0.127 S 
ATOM     92  O   UNL A   1      46.383  36.471  27.449  1.00  0.00    -0.237 OA
ATOM     93  O   UNL A   1      44.354  37.359  28.526  1.00  0.00    -0.237 OA
ATOM     94  O   UNL A   1      46.564  37.907  29.446  1.00  0.00    -0.744 OA
ENDBRANCH  88  91
ENDBRANCH  61  84
ENDBRANCH  35  36
ENDBRANCH  28  30
ENDBRANCH  27  28
ENDBRANCH  26  27
ENDBRANCH   1  26
TORSDOF 19
ENDMDL
MODEL 3
REMARK VINA RESULT:     -11.3      5.251      8.016
REMARK SMILES N#C/C(=C\c1ccc(Oc2ccccc2Cl)c([N+](=O)[O-])c1)C(=O)OCCOC(=O)c1ccc(-c2c3nc(c(-c4cccc(S(=O)(=O)[O-])c4F)c4ccc([nH]4)c(-c4cccc(S(=O)(=O)[O-])c4F)c4nc(c(-c5cccc(S(=O)(=O)[O-])c5F)c5ccc2[nH]5)C=C4)C=C3)cc1
REMARK SMILES IDX 25 1 24 2 22 3 23 4 3 5 4 6 2 7 1 8 5 9 6 10 21 11 7 12
REMARK SMILES IDX 17 13 8 14 18 15 19 16 20 17 9 18 10 19 11 20 15 21 12 22
REMARK SMILES IDX 14 23 16 24 13 25 26 26 27 27 28 28 29 29 30 30 31 31 92 32
REMARK SMILES IDX 32 33 91 34 33 35 34 36 35 37 85 38 36 39 90 40 84 41 86 42
REMARK SMILES IDX 37 43 89 44 83 45 82 46 38 48 70 49 50 50 69 51 51 52 54 53
REMARK SMILES IDX 68 54 87 55 52 56 53 57 67 59 88 60 55 61 39 62 40 63 48 64
REMARK SMILES IDX 41 65 43 66 49 67 42 68 44 69 45 70 46 71 47 72 71 73 72 74
REMARK SMILES IDX 80 75 73 76 75 77 81 78 74 79 76 80 77 81 78 82 79 83 56 84
REMARK SMILES IDX 57 85 65 86 58 87 60 88 66 89 59 90 61 91 62 92 63 93 64 94
REMARK H PARENT 86 47 54 58
REMARK Flexibility Score: inf
ROOT
ATOM      1  C   UNL A   1      32.227  29.631  25.397  1.00  0.00     0.275 C 
ENDROOT
BRANCH   1   2
ATOM      2  O   UNL A   1      31.232  28.595  25.506  1.00  0.00    -0.458 OA
BRANCH   2   3
ATOM      3  C   UNL A   1      31.461  27.646  26.448  1.00  0.00     0.349 C 
ATOM      4  O   UNL A   1      31.213  27.750  27.641  1.00  0.00    -0.245 OA
BRANCH   3   5
ATOM      5  C   UNL A   1      32.049  26.440  25.843  1.00  0.00     0.138 C 
ATOM      6  C   UNL A   1      33.307  26.088  26.205  1.00  0.00     0.035 C 
BRANCH   5   7
ATOM      7  C   UNL A   1      31.197  25.436  25.084  1.00  0.00     0.107 C 
ATOM      8  N   UNL A   1      30.490  24.603  24.454  1.00  0.00    -0.192 NA
ENDBRANCH   5   7
BRANCH   6   9
ATOM      9  C   UNL A   1      33.910  24.768  25.925  1.00  0.00    -0.017 A 
ATOM     10  C   UNL A   1      33.663  23.700  26.793  1.00  0.00     0.012 A 
ATOM     11  C   UNL A   1      34.632  24.521  24.756  1.00  0.00     0.098 A 
ATOM     12  C   UNL A   1      34.101  22.405  26.471  1.00  0.00     0.055 A 
ATOM     13  C   UNL A   1      34.970  23.205  24.394  1.00  0.00     0.312 A 
ATOM     14  C   UNL A   1      34.757  22.128  25.260  1.00  0.00     0.204 A 
BRANCH  13  15
ATOM     15  N   UNL A   1      35.403  23.053  23.019  1.00  0.00     0.066 N 
ATOM     16  O   UNL A   1      34.554  23.229  22.138  1.00  0.00    -0.258 OA
ATOM     17  O   UNL A   1      36.605  22.814  22.836  1.00  0.00    -0.258 OA
ENDBRANCH  13  15
BRANCH  14  18
ATOM     18  O   UNL A   1      35.082  20.794  25.136  1.00  0.00    -0.449 OA
BRANCH  18  19
ATOM     19  C   UNL A   1      34.231  19.914  24.519  1.00  0.00     0.146 A 
ATOM     20  C   UNL A   1      33.024  20.453  24.062  1.00  0.00     0.049 A 
ATOM     21  C   UNL A   1      34.490  18.547  24.362  1.00  0.00     0.083 A 
ATOM     22  C   UNL A   1      32.129  19.656  23.350  1.00  0.00     0.004 A 
ATOM     23  C   UNL A   1      33.605  17.759  23.622  1.00  0.00     0.024 A 
ATOM     24  Cl  UNL A   1      35.892  17.797  25.038  1.00  0.00    -0.080 Cl
ATOM     25  C   UNL A   1      32.434  18.318  23.105  1.00  0.00     0.002 A 
ENDBRANCH  18  19
ENDBRANCH  14  18
ENDBRANCH   6   9
ENDBRANCH   3   5
ENDBRANCH   2   3
ENDBRANCH   1   2
BRANCH   1  26
ATOM     26  C   UNL A   1      31.795  30.860  26.199  1.00  0.00     0.275 C 
BRANCH  26  27
ATOM     27  O   UNL A   1      32.524  30.953  27.439  1.00  0.00    -0.458 OA
BRANCH  27  28
ATOM     28  C   UNL A   1      33.390  31.990  27.517  1.00  0.00     0.338 C 
ATOM     29  O   UNL A   1      33.115  33.178  27.481  1.00  0.00    -0.246 OA
BRANCH  28  30
ATOM     30  C   UNL A   1      34.742  31.515  27.842  1.00  0.00     0.060 A 
ATOM     31  C   UNL A   1      34.893  30.165  28.112  1.00  0.00     0.016 A 
ATOM     32  C   UNL A   1      35.784  32.394  28.121  1.00  0.00     0.016 A 
ATOM     33  C   UNL A   1      35.989  29.710  28.825  1.00  0.00     0.010 A 
ATOM     34  C   UNL A   1      36.969  31.895  28.687  1.00  0.00     0.010 A 
ATOM     35  C   UNL A   1      37.067  30.551  29.096  1.00  0.00    -0.014 A 
BRANCH  35  36
ATOM     36  C   UNL A   1      38.252  30.008  29.822  1.00  0.00     0.031 A 
ATOM     37  C   UNL A   1      38.558  30.459  31.227  1.00  0.00     0.074 A 
ATOM     38  C   UNL A   1      39.049  29.087  29.236  1.00  0.00     0.049 A 
ATOM     39  N   UNL A   1      39.644  30.282  31.933  1.00  0.00    -0.248 NA
ATOM     40  C   UNL A   1      37.513  31.229  31.923  1.00  0.00     0.031 C 
ATOM     41  C   UNL A   1      38.850  28.512  27.901  1.00  0.00     0.029 A 
ATOM     42  N   UNL A   1      40.192  28.469  29.683  1.00  0.00    -0.354 N 
ATOM     43  C   UNL A   1      39.448  30.983  33.118  1.00  0.00     0.074 A 
ATOM     44  C   UNL A   1      38.136  31.588  33.037  1.00  0.00     0.031 C 
ATOM     45  C   UNL A   1      39.811  27.614  27.651  1.00  0.00     0.029 A 
ATOM     46  C   UNL A   1      40.767  27.641  28.746  1.00  0.00     0.049 A 
ATOM     47  H   UNL A   1      40.564  28.606  30.585  1.00  0.00     0.167 HD
ATOM     48  C   UNL A   1      40.286  31.108  34.175  1.00  0.00     0.034 A 
ATOM     49  C   UNL A   1      41.965  27.027  28.721  1.00  0.00     0.034 A 
ATOM     50  C   UNL A   1      41.558  30.441  34.273  1.00  0.00     0.049 A 
ATOM     51  C   UNL A   1      42.886  27.201  29.892  1.00  0.00     0.074 A 
ATOM     52  C   UNL A   1      42.477  30.488  35.307  1.00  0.00     0.029 A 
ATOM     53  N   UNL A   1      42.086  29.594  33.310  1.00  0.00    -0.354 N 
ATOM     54  N   UNL A   1      42.694  27.876  30.998  1.00  0.00    -0.248 NA
ATOM     55  C   UNL A   1      44.186  26.522  29.816  1.00  0.00     0.031 C 
ATOM     56  C   UNL A   1      43.572  29.691  34.956  1.00  0.00     0.029 A 
ATOM     57  C   UNL A   1      43.318  29.115  33.722  1.00  0.00     0.049 A 
ATOM     58  H   UNL A   1      41.647  29.365  32.458  1.00  0.00     0.167 HD
ATOM     59  C   UNL A   1      43.835  27.684  31.763  1.00  0.00     0.074 A 
ATOM     60  C   UNL A   1      44.702  26.805  31.004  1.00  0.00     0.031 C 
ATOM     61  C   UNL A   1      44.146  28.202  32.976  1.00  0.00     0.034 A 
BRANCH  48  62
ATOM     62  C   UNL A   1      39.858  31.997  35.316  1.00  0.00     0.023 A 
ATOM     63  C   UNL A   1      40.267  33.344  35.359  1.00  0.00     0.012 A 
ATOM     64  C   UNL A   1      39.002  31.506  36.323  1.00  0.00     0.148 A 
ATOM     65  C   UNL A   1      39.862  34.178  36.402  1.00  0.00     0.002 A 
ATOM     66  C   UNL A   1      38.562  32.354  37.332  1.00  0.00     0.091 A 
ATOM     67  F   UNL A   1      38.635  30.216  36.276  1.00  0.00    -0.205 F 
ATOM     68  C   UNL A   1      39.002  33.686  37.381  1.00  0.00     0.022 A 
BRANCH  66  69
ATOM     69  S   UNL A   1      37.390  31.839  38.594  1.00  0.00     0.127 S 
ATOM     70  O   UNL A   1      36.318  32.819  38.420  1.00  0.00    -0.237 OA
ATOM     71  O   UNL A   1      37.051  30.482  38.163  1.00  0.00    -0.237 OA
ATOM     72  O   UNL A   1      38.103  31.915  39.862  1.00  0.00    -0.744 OA
ENDBRANCH  66  69
ENDBRANCH  48  62
BRANCH  49  73
ATOM     73  C   UNL A   1      42.370  26.232  27.524  1.00  0.00     0.023 A 
ATOM     74  C   UNL A   1      43.162  26.825  26.523  1.00  0.00     0.012 A 
ATOM     75  C   UNL A   1      42.000  24.878  27.393  1.00  0.00     0.148 A 
ATOM     76  C   UNL A   1      43.552  26.093  25.401  1.00  0.00     0.002 A 
ATOM     77  C   UNL A   1      42.449  24.136  26.309  1.00  0.00     0.091 A 
ATOM     78  F   UNL A   1      41.229  24.333  28.346  1.00  0.00    -0.205 F 
ATOM     79  C   UNL A   1      43.208  24.747  25.300  1.00  0.00     0.022 A 
BRANCH  77  80
ATOM     80  S   UNL A   1      42.179  22.365  26.178  1.00  0.00     0.127 S 
ATOM     81  O   UNL A   1      42.941  22.034  24.978  1.00  0.00    -0.237 OA
ATOM     82  O   UNL A   1      42.757  21.876  27.430  1.00  0.00    -0.237 OA
ATOM     83  O   UNL A   1      40.735  22.192  26.080  1.00  0.00    -0.744 OA
ENDBRANCH  77  80
ENDBRANCH  49  73
BRANCH  61  84
ATOM     84  C   UNL A   1      45.460  27.791  33.584  1.00  0.00     0.023 A 
ATOM     85  C   UNL A   1      46.611  28.576  33.373  1.00  0.00     0.012 A 
ATOM     86  C   UNL A   1      45.537  26.655  34.414  1.00  0.00     0.148 A 
ATOM     87  C   UNL A   1      47.828  28.213  33.947  1.00  0.00     0.002 A 
ATOM     88  C   UNL A   1      46.740  26.331  35.025  1.00  0.00     0.091 A 
ATOM     89  F   UNL A   1      44.433  25.913  34.585  1.00  0.00    -0.205 F 
ATOM     90  C   UNL A   1      47.890  27.100  34.782  1.00  0.00     0.022 A 
BRANCH  88  91
ATOM     91  S   UNL A   1      46.894  24.975  36.192  1.00  0.00     0.127 S 
ATOM     92  O   UNL A   1      45.967  23.992  35.630  1.00  0.00    -0.237 OA
ATOM     93  O   UNL A   1      48.308  24.621  36.068  1.00  0.00    -0.237 OA
ATOM     94  O   UNL A   1      46.517  25.514  37.491  1.00  0.00    -0.744 OA
ENDBRANCH  88  91
ENDBRANCH  61  84
ENDBRANCH  35  36
ENDBRANCH  28  30
ENDBRANCH  27  28
ENDBRANCH  26  27
ENDBRANCH   1  26
TORSDOF 19
ENDMDL
