MODEL 1
REMARK VINA RESULT:     -11.6      0.000      0.000
REMARK SMILES C[C@@H](C(=O)OCCOC(=O)c1ccc(-c2c3nc(c(-c4cccc(S(=O)(=O)[O-])c4F)c4ccc([nH]4)c(-c4cccc(S(=O)(=O)[O-])c4F)c4nc(c(-c5cccc(S(=O)(=O)[O-])c5F)c5ccc2[nH]5)C=C4)C=C3)cc1)[C@H](C)n1ncc2ccc([N+](=O)[O-])cc21
REMARK SMILES IDX 6 1 5 2 3 3 4 4 2 5 1 6 74 7 75 8 76 9 77 10 87 11 78 12
REMARK SMILES IDX 79 13 86 14 80 15 82 16 81 17 83 18 84 19 85 20 7 21 8 22
REMARK SMILES IDX 9 23 10 24 11 25 12 26 73 27 13 28 72 29 14 30 15 31 16 32
REMARK SMILES IDX 66 33 17 34 71 35 65 36 67 37 18 38 70 39 64 40 63 41 19 43
REMARK SMILES IDX 51 44 31 45 50 46 32 47 35 48 49 49 68 50 33 51 34 52 48 54
REMARK SMILES IDX 69 55 36 56 20 57 21 58 29 59 22 60 24 61 30 62 23 63 25 64
REMARK SMILES IDX 26 65 27 66 28 67 52 68 53 69 61 70 54 71 56 72 62 73 55 74
REMARK SMILES IDX 57 75 58 76 59 77 60 78 37 79 38 80 46 81 39 82 41 83 47 84
REMARK SMILES IDX 40 85 42 86 43 87 44 88 45 89
REMARK H PARENT 67 42 35 53
REMARK Flexibility Score: inf
ROOT
ATOM      1  C   UNL A   1      31.390  31.989  26.521  1.00  0.00     0.274 C 
ENDROOT
BRANCH   1   2
ATOM      2  O   UNL A   1      32.412  31.116  26.020  1.00  0.00    -0.462 OA
BRANCH   2   3
ATOM      3  C   UNL A   1      32.386  29.855  26.502  1.00  0.00     0.310 C 
ATOM      4  O   UNL A   1      31.654  29.447  27.396  1.00  0.00    -0.252 OA
BRANCH   3   5
ATOM      5  C   UNL A   1      33.264  28.927  25.716  1.00  0.00     0.120 C 
ATOM      6  C   UNL A   1      33.668  29.423  24.314  1.00  0.00     0.022 C 
BRANCH   5   7
ATOM      7  C   UNL A   1      32.552  27.562  25.757  1.00  0.00     0.119 C 
ATOM      8  C   UNL A   1      33.687  26.467  25.977  1.00  0.00     0.034 C 
BRANCH   7   9
ATOM      9  N   UNL A   1      31.740  27.370  24.475  1.00  0.00    -0.261 N 
ATOM     10  N   UNL A   1      31.236  25.590  24.482  1.00  0.00    -0.180 NA
ATOM     11  C   UNL A   1      30.417  28.505  23.815  1.00  0.00     0.075 A 
ATOM     12  C   UNL A   1      29.600  25.484  23.988  1.00  0.00     0.143 A 
ATOM     13  C   UNL A   1      28.977  27.470  23.441  1.00  0.00     0.020 A 
ATOM     14  C   UNL A   1      30.026  29.897  23.879  1.00  0.00     0.114 A 
ATOM     15  C   UNL A   1      27.899  28.171  22.724  1.00  0.00     0.019 A 
ATOM     16  C   UNL A   1      28.732  30.341  23.321  1.00  0.00     0.271 A 
ATOM     17  C   UNL A   1      27.800  29.535  22.659  1.00  0.00     0.086 A 
BRANCH  16  18
ATOM     18  N   UNL A   1      28.211  31.716  23.559  1.00  0.00     0.062 N 
ATOM     19  O   UNL A   1      26.999  31.841  23.793  1.00  0.00    -0.258 OA
ATOM     20  O   UNL A   1      29.029  32.641  23.528  1.00  0.00    -0.258 OA
ENDBRANCH  16  18
ENDBRANCH   7   9
ENDBRANCH   5   7
ENDBRANCH   3   5
ENDBRANCH   2   3
ENDBRANCH   1   2
BRANCH   1  21
ATOM     21  C   UNL A   1      32.037  33.296  26.965  1.00  0.00     0.275 C 
BRANCH  21  22
ATOM     22  O   UNL A   1      32.478  33.177  28.340  1.00  0.00    -0.458 OA
BRANCH  22  23
ATOM     23  C   UNL A   1      33.433  34.076  28.704  1.00  0.00     0.338 C 
ATOM     24  O   UNL A   1      33.279  35.291  28.694  1.00  0.00    -0.246 OA
BRANCH  23  25
ATOM     25  C   UNL A   1      34.815  33.438  29.037  1.00  0.00     0.060 A 
ATOM     26  C   UNL A   1      36.839  33.980  29.092  1.00  0.00     0.016 A 
ATOM     27  C   UNL A   1      34.575  31.673  28.935  1.00  0.00     0.016 A 
ATOM     28  C   UNL A   1      38.065  32.953  29.029  1.00  0.00     0.010 A 
ATOM     29  C   UNL A   1      36.042  30.726  28.963  1.00  0.00     0.010 A 
ATOM     30  C   UNL A   1      37.664  31.432  29.129  1.00  0.00    -0.014 A 
BRANCH  30  31
ATOM     31  C   UNL A   1      38.836  30.787  29.755  1.00  0.00     0.031 A 
ATOM     32  C   UNL A   1      38.956  31.147  31.157  1.00  0.00     0.074 A 
ATOM     33  C   UNL A   1      39.562  29.786  29.160  1.00  0.00     0.049 A 
ATOM     34  N   UNL A   1      39.855  30.772  31.997  1.00  0.00    -0.248 NA
ATOM     35  C   UNL A   1      37.907  32.042  31.684  1.00  0.00     0.031 C 
ATOM     36  C   UNL A   1      39.339  29.183  27.824  1.00  0.00     0.029 A 
ATOM     37  N   UNL A   1      40.623  29.035  29.609  1.00  0.00    -0.354 N 
ATOM     38  C   UNL A   1      39.504  31.424  33.151  1.00  0.00     0.074 A 
ATOM     39  C   UNL A   1      38.385  32.291  32.882  1.00  0.00     0.031 C 
ATOM     40  C   UNL A   1      40.244  28.236  27.549  1.00  0.00     0.029 A 
ATOM     41  C   UNL A   1      41.138  28.145  28.675  1.00  0.00     0.049 A 
ATOM     42  H   UNL A   1      40.987  29.121  30.519  1.00  0.00     0.167 HD
ATOM     43  C   UNL A   1      40.058  31.250  34.355  1.00  0.00     0.034 A 
ATOM     44  C   UNL A   1      42.222  27.346  28.722  1.00  0.00     0.034 A 
ATOM     45  C   UNL A   1      41.177  30.395  34.557  1.00  0.00     0.049 A 
ATOM     46  C   UNL A   1      42.946  27.347  30.033  1.00  0.00     0.074 A 
ATOM     47  C   UNL A   1      41.920  30.231  35.701  1.00  0.00     0.029 A 
ATOM     48  N   UNL A   1      41.738  29.592  33.570  1.00  0.00    -0.354 N 
ATOM     49  N   UNL A   1      42.631  27.996  31.129  1.00  0.00    -0.248 NA
ATOM     50  C   UNL A   1      44.133  26.497  30.147  1.00  0.00     0.031 C 
ATOM     51  C   UNL A   1      42.982  29.387  35.384  1.00  0.00     0.029 A 
ATOM     52  C   UNL A   1      42.843  28.946  34.073  1.00  0.00     0.049 A 
ATOM     53  H   UNL A   1      41.396  29.502  32.650  1.00  0.00     0.167 HD
ATOM     54  C   UNL A   1      43.548  27.600  32.081  1.00  0.00     0.074 A 
ATOM     55  C   UNL A   1      44.425  26.641  31.432  1.00  0.00     0.031 C 
ATOM     56  C   UNL A   1      43.659  27.987  33.373  1.00  0.00     0.034 A 
BRANCH  43  57
ATOM     57  C   UNL A   1      39.510  32.127  35.418  1.00  0.00     0.023 A 
ATOM     58  C   UNL A   1      38.375  31.743  36.162  1.00  0.00     0.012 A 
ATOM     59  C   UNL A   1      40.030  33.421  35.527  1.00  0.00     0.148 A 
ATOM     60  C   UNL A   1      37.734  32.672  36.976  1.00  0.00     0.002 A 
ATOM     61  C   UNL A   1      39.436  34.312  36.397  1.00  0.00     0.091 A 
ATOM     62  F   UNL A   1      41.043  33.772  34.723  1.00  0.00    -0.205 F 
ATOM     63  C   UNL A   1      38.276  33.950  37.107  1.00  0.00     0.022 A 
BRANCH  61  64
ATOM     64  S   UNL A   1      40.110  35.944  36.671  1.00  0.00     0.127 S 
ATOM     65  O   UNL A   1      41.530  35.650  36.864  1.00  0.00    -0.237 OA
ATOM     66  O   UNL A   1      39.783  36.608  35.411  1.00  0.00    -0.237 OA
ATOM     67  O   UNL A   1      39.430  36.475  37.844  1.00  0.00    -0.744 OA
ENDBRANCH  61  64
ENDBRANCH  43  57
BRANCH  44  68
ATOM     68  C   UNL A   1      42.692  26.517  27.560  1.00  0.00     0.023 A 
ATOM     69  C   UNL A   1      43.425  27.110  26.510  1.00  0.00     0.012 A 
ATOM     70  C   UNL A   1      42.345  25.152  27.447  1.00  0.00     0.148 A 
ATOM     71  C   UNL A   1      43.748  26.386  25.356  1.00  0.00     0.002 A 
ATOM     72  C   UNL A   1      42.700  24.426  26.311  1.00  0.00     0.091 A 
ATOM     73  F   UNL A   1      41.650  24.594  28.448  1.00  0.00    -0.205 F 
ATOM     74  C   UNL A   1      43.385  25.048  25.256  1.00  0.00     0.022 A 
BRANCH  72  75
ATOM     75  S   UNL A   1      42.309  22.683  26.084  1.00  0.00     0.127 S 
ATOM     76  O   UNL A   1      42.831  22.433  24.740  1.00  0.00    -0.237 OA
ATOM     77  O   UNL A   1      43.080  22.064  27.162  1.00  0.00    -0.237 OA
ATOM     78  O   UNL A   1      40.864  22.578  26.211  1.00  0.00    -0.744 OA
ENDBRANCH  72  75
ENDBRANCH  44  68
BRANCH  56  79
ATOM     79  C   UNL A   1      44.724  27.319  34.183  1.00  0.00     0.023 A 
ATOM     80  C   UNL A   1      46.012  27.874  34.264  1.00  0.00     0.012 A 
ATOM     81  C   UNL A   1      44.386  26.192  34.954  1.00  0.00     0.148 A 
ATOM     82  C   UNL A   1      46.970  27.287  35.084  1.00  0.00     0.002 A 
ATOM     83  C   UNL A   1      45.318  25.661  35.823  1.00  0.00     0.091 A 
ATOM     84  F   UNL A   1      43.147  25.689  34.843  1.00  0.00    -0.205 F 
ATOM     85  C   UNL A   1      46.617  26.194  35.876  1.00  0.00     0.022 A 
BRANCH  83  86
ATOM     86  S   UNL A   1      44.912  24.338  36.961  1.00  0.00     0.127 S 
ATOM     87  O   UNL A   1      44.523  23.270  36.042  1.00  0.00    -0.237 OA
ATOM     88  O   UNL A   1      46.187  24.125  37.646  1.00  0.00    -0.237 OA
ATOM     89  O   UNL A   1      43.843  24.844  37.811  1.00  0.00    -0.744 OA
ENDBRANCH  83  86
ENDBRANCH  56  79
ENDBRANCH  30  31
ENDBRANCH  23  25
ENDBRANCH  22  23
ENDBRANCH  21  22
ENDBRANCH   1  21
TORSDOF 17
ENDMDL
MODEL 2
REMARK VINA RESULT:     -11.5      2.018      3.681
REMARK SMILES C[C@@H](C(=O)OCCOC(=O)c1ccc(-c2c3nc(c(-c4cccc(S(=O)(=O)[O-])c4F)c4ccc([nH]4)c(-c4cccc(S(=O)(=O)[O-])c4F)c4nc(c(-c5cccc(S(=O)(=O)[O-])c5F)c5ccc2[nH]5)C=C4)C=C3)cc1)[C@H](C)n1ncc2ccc([N+](=O)[O-])cc21
REMARK SMILES IDX 6 1 5 2 3 3 4 4 2 5 1 6 74 7 75 8 76 9 77 10 87 11 78 12
REMARK SMILES IDX 79 13 86 14 80 15 82 16 81 17 83 18 84 19 85 20 7 21 8 22
REMARK SMILES IDX 9 23 10 24 11 25 12 26 73 27 13 28 72 29 14 30 15 31 16 32
REMARK SMILES IDX 66 33 17 34 71 35 65 36 67 37 18 38 70 39 64 40 63 41 19 43
REMARK SMILES IDX 51 44 31 45 50 46 32 47 35 48 49 49 68 50 33 51 34 52 48 54
REMARK SMILES IDX 69 55 36 56 20 57 21 58 29 59 22 60 24 61 30 62 23 63 25 64
REMARK SMILES IDX 26 65 27 66 28 67 52 68 53 69 61 70 54 71 56 72 62 73 55 74
REMARK SMILES IDX 57 75 58 76 59 77 60 78 37 79 38 80 46 81 39 82 41 83 47 84
REMARK SMILES IDX 40 85 42 86 43 87 44 88 45 89
REMARK H PARENT 67 42 35 53
REMARK Flexibility Score: inf
ROOT
ATOM      1  C   UNL A   1      32.835  31.698  26.862  1.00  0.00     0.274 C 
ENDROOT
BRANCH   1   2
ATOM      2  O   UNL A   1      31.787  30.861  26.355  1.00  0.00    -0.462 OA
BRANCH   2   3
ATOM      3  C   UNL A   1      32.192  29.719  25.759  1.00  0.00     0.310 C 
ATOM      4  O   UNL A   1      33.113  29.621  24.956  1.00  0.00    -0.252 OA
BRANCH   3   5
ATOM      5  C   UNL A   1      31.482  28.512  26.295  1.00  0.00     0.120 C 
ATOM      6  C   UNL A   1      31.562  28.318  27.822  1.00  0.00     0.022 C 
BRANCH   5   7
ATOM      7  C   UNL A   1      31.991  27.332  25.449  1.00  0.00     0.119 C 
ATOM      8  C   UNL A   1      30.981  27.182  24.227  1.00  0.00     0.034 C 
BRANCH   7   9
ATOM      9  N   UNL A   1      32.098  26.082  26.325  1.00  0.00    -0.261 N 
ATOM     10  N   UNL A   1      30.364  25.461  26.497  1.00  0.00    -0.180 NA
ATOM     11  C   UNL A   1      33.355  24.715  26.166  1.00  0.00     0.075 A 
ATOM     12  C   UNL A   1      30.375  23.757  26.328  1.00  0.00     0.143 A 
ATOM     13  C   UNL A   1      32.435  23.155  26.160  1.00  0.00     0.020 A 
ATOM     14  C   UNL A   1      34.696  24.504  25.665  1.00  0.00     0.114 A 
ATOM     15  C   UNL A   1      33.282  21.953  26.239  1.00  0.00     0.019 A 
ATOM     16  C   UNL A   1      35.257  23.140  25.570  1.00  0.00     0.271 A 
ATOM     17  C   UNL A   1      34.625  21.960  25.972  1.00  0.00     0.086 A 
BRANCH  16  18
ATOM     18  N   UNL A   1      36.543  22.873  24.866  1.00  0.00     0.062 N 
ATOM     19  O   UNL A   1      36.712  21.742  24.385  1.00  0.00    -0.258 OA
ATOM     20  O   UNL A   1      37.347  23.807  24.790  1.00  0.00    -0.258 OA
ENDBRANCH  16  18
ENDBRANCH   7   9
ENDBRANCH   5   7
ENDBRANCH   3   5
ENDBRANCH   2   3
ENDBRANCH   1   2
BRANCH   1  21
ATOM     21  C   UNL A   1      32.226  33.016  27.329  1.00  0.00     0.275 C 
BRANCH  21  22
ATOM     22  O   UNL A   1      33.282  33.969  27.598  1.00  0.00    -0.458 OA
BRANCH  22  23
ATOM     23  C   UNL A   1      33.667  34.030  28.901  1.00  0.00     0.338 C 
ATOM     24  O   UNL A   1      33.059  34.634  29.775  1.00  0.00    -0.246 OA
BRANCH  23  25
ATOM     25  C   UNL A   1      35.038  33.349  29.193  1.00  0.00     0.060 A 
ATOM     26  C   UNL A   1      37.085  33.764  29.010  1.00  0.00     0.016 A 
ATOM     27  C   UNL A   1      34.698  31.603  29.328  1.00  0.00     0.016 A 
ATOM     28  C   UNL A   1      38.244  32.662  28.971  1.00  0.00     0.010 A 
ATOM     29  C   UNL A   1      36.108  30.575  29.350  1.00  0.00     0.010 A 
ATOM     30  C   UNL A   1      37.774  31.191  29.290  1.00  0.00    -0.014 A 
BRANCH  30  31
ATOM     31  C   UNL A   1      38.963  30.551  29.889  1.00  0.00     0.031 A 
ATOM     32  C   UNL A   1      39.146  30.958  31.272  1.00  0.00     0.074 A 
ATOM     33  C   UNL A   1      39.650  29.520  29.301  1.00  0.00     0.049 A 
ATOM     34  N   UNL A   1      40.074  30.600  32.086  1.00  0.00    -0.248 NA
ATOM     35  C   UNL A   1      38.132  31.886  31.810  1.00  0.00     0.031 C 
ATOM     36  C   UNL A   1      39.363  28.873  27.997  1.00  0.00     0.029 A 
ATOM     37  N   UNL A   1      40.718  28.769  29.731  1.00  0.00    -0.354 N 
ATOM     38  C   UNL A   1      39.780  31.296  33.231  1.00  0.00     0.074 A 
ATOM     39  C   UNL A   1      38.663  32.169  32.977  1.00  0.00     0.031 C 
ATOM     40  C   UNL A   1      40.244  27.904  27.719  1.00  0.00     0.029 A 
ATOM     41  C   UNL A   1      41.182  27.839  28.809  1.00  0.00     0.049 A 
ATOM     42  H   UNL A   1      41.122  28.881  30.622  1.00  0.00     0.167 HD
ATOM     43  C   UNL A   1      40.383  31.156  34.416  1.00  0.00     0.034 A 
ATOM     44  C   UNL A   1      42.256  27.027  28.839  1.00  0.00     0.034 A 
ATOM     45  C   UNL A   1      41.497  30.292  34.601  1.00  0.00     0.049 A 
ATOM     46  C   UNL A   1      43.035  27.063  30.118  1.00  0.00     0.074 A 
ATOM     47  C   UNL A   1      42.285  30.156  35.718  1.00  0.00     0.029 A 
ATOM     48  N   UNL A   1      42.006  29.447  33.620  1.00  0.00    -0.354 N 
ATOM     49  N   UNL A   1      42.774  27.754  31.203  1.00  0.00    -0.248 NA
ATOM     50  C   UNL A   1      44.214  26.200  30.213  1.00  0.00     0.031 C 
ATOM     51  C   UNL A   1      43.322  29.287  35.388  1.00  0.00     0.029 A 
ATOM     52  C   UNL A   1      43.122  28.802  34.100  1.00  0.00     0.049 A 
ATOM     53  H   UNL A   1      41.625  29.330  32.720  1.00  0.00     0.167 HD
ATOM     54  C   UNL A   1      43.725  27.378  32.129  1.00  0.00     0.074 A 
ATOM     55  C   UNL A   1      44.562  26.384  31.479  1.00  0.00     0.031 C 
ATOM     56  C   UNL A   1      43.895  27.808  33.401  1.00  0.00     0.034 A 
BRANCH  43  57
ATOM     57  C   UNL A   1      39.891  32.077  35.469  1.00  0.00     0.023 A 
ATOM     58  C   UNL A   1      40.495  33.336  35.672  1.00  0.00     0.012 A 
ATOM     59  C   UNL A   1      38.946  31.585  36.376  1.00  0.00     0.148 A 
ATOM     60  C   UNL A   1      40.186  34.076  36.809  1.00  0.00     0.002 A 
ATOM     61  C   UNL A   1      38.587  32.361  37.458  1.00  0.00     0.091 A 
ATOM     62  F   UNL A   1      38.479  30.342  36.199  1.00  0.00    -0.205 F 
ATOM     63  C   UNL A   1      39.220  33.597  37.691  1.00  0.00     0.022 A 
BRANCH  61  64
ATOM     64  S   UNL A   1      37.308  31.848  38.596  1.00  0.00     0.127 S 
ATOM     65  O   UNL A   1      37.073  30.466  38.174  1.00  0.00    -0.237 OA
ATOM     66  O   UNL A   1      37.988  31.994  39.881  1.00  0.00    -0.237 OA
ATOM     67  O   UNL A   1      36.186  32.751  38.383  1.00  0.00    -0.744 OA
ENDBRANCH  61  64
ENDBRANCH  43  57
BRANCH  44  68
ATOM     68  C   UNL A   1      42.666  26.151  27.689  1.00  0.00     0.023 A 
ATOM     69  C   UNL A   1      43.429  26.680  26.626  1.00  0.00     0.012 A 
ATOM     70  C   UNL A   1      42.233  24.809  27.600  1.00  0.00     0.148 A 
ATOM     71  C   UNL A   1      43.699  25.918  25.483  1.00  0.00     0.002 A 
ATOM     72  C   UNL A   1      42.536  24.043  26.475  1.00  0.00     0.091 A 
ATOM     73  F   UNL A   1      41.510  24.313  28.614  1.00  0.00    -0.205 F 
ATOM     74  C   UNL A   1      43.252  24.604  25.407  1.00  0.00     0.022 A 
BRANCH  72  75
ATOM     75  S   UNL A   1      42.034  22.326  26.279  1.00  0.00     0.127 S 
ATOM     76  O   UNL A   1      42.693  21.964  25.023  1.00  0.00    -0.237 OA
ATOM     77  O   UNL A   1      42.615  21.710  27.471  1.00  0.00    -0.237 OA
ATOM     78  O   UNL A   1      40.581  22.336  26.228  1.00  0.00    -0.744 OA
ENDBRANCH  72  75
ENDBRANCH  44  68
BRANCH  56  79
ATOM     79  C   UNL A   1      44.984  27.153  34.190  1.00  0.00     0.023 A 
ATOM     80  C   UNL A   1      46.287  27.680  34.181  1.00  0.00     0.012 A 
ATOM     81  C   UNL A   1      44.660  26.072  35.030  1.00  0.00     0.148 A 
ATOM     82  C   UNL A   1      47.271  27.109  34.981  1.00  0.00     0.002 A 
ATOM     83  C   UNL A   1      45.623  25.560  35.877  1.00  0.00     0.091 A 
ATOM     84  F   UNL A   1      43.407  25.595  35.004  1.00  0.00    -0.205 F 
ATOM     85  C   UNL A   1      46.934  26.063  35.841  1.00  0.00     0.022 A 
BRANCH  83  86
ATOM     86  S   UNL A   1      45.245  24.302  37.095  1.00  0.00     0.127 S 
ATOM     87  O   UNL A   1      44.922  23.158  36.246  1.00  0.00    -0.237 OA
ATOM     88  O   UNL A   1      46.511  24.191  37.820  1.00  0.00    -0.237 OA
ATOM     89  O   UNL A   1      44.136  24.819  37.886  1.00  0.00    -0.744 OA
ENDBRANCH  83  86
ENDBRANCH  56  79
ENDBRANCH  30  31
ENDBRANCH  23  25
ENDBRANCH  22  23
ENDBRANCH  21  22
ENDBRANCH   1  21
TORSDOF 17
ENDMDL
MODEL 3
REMARK VINA RESULT:     -11.4      3.085      8.915
REMARK SMILES C[C@@H](C(=O)OCCOC(=O)c1ccc(-c2c3nc(c(-c4cccc(S(=O)(=O)[O-])c4F)c4ccc([nH]4)c(-c4cccc(S(=O)(=O)[O-])c4F)c4nc(c(-c5cccc(S(=O)(=O)[O-])c5F)c5ccc2[nH]5)C=C4)C=C3)cc1)[C@H](C)n1ncc2ccc([N+](=O)[O-])cc21
REMARK SMILES IDX 6 1 5 2 3 3 4 4 2 5 1 6 74 7 75 8 76 9 77 10 87 11 78 12
REMARK SMILES IDX 79 13 86 14 80 15 82 16 81 17 83 18 84 19 85 20 7 21 8 22
REMARK SMILES IDX 9 23 10 24 11 25 12 26 73 27 13 28 72 29 14 30 15 31 16 32
REMARK SMILES IDX 66 33 17 34 71 35 65 36 67 37 18 38 70 39 64 40 63 41 19 43
REMARK SMILES IDX 51 44 31 45 50 46 32 47 35 48 49 49 68 50 33 51 34 52 48 54
REMARK SMILES IDX 69 55 36 56 20 57 21 58 29 59 22 60 24 61 30 62 23 63 25 64
REMARK SMILES IDX 26 65 27 66 28 67 52 68 53 69 61 70 54 71 56 72 62 73 55 74
REMARK SMILES IDX 57 75 58 76 59 77 60 78 37 79 38 80 46 81 39 82 41 83 47 84
REMARK SMILES IDX 40 85 42 86 43 87 44 88 45 89
REMARK H PARENT 67 42 35 53
REMARK Flexibility Score: inf
ROOT
ATOM      1  C   UNL A   1      30.967  29.080  24.242  1.00  0.00     0.274 C 
ENDROOT
BRANCH   1   2
ATOM      2  O   UNL A   1      31.544  27.940  24.891  1.00  0.00    -0.462 OA
BRANCH   2   3
ATOM      3  C   UNL A   1      31.291  26.749  24.306  1.00  0.00     0.310 C 
ATOM      4  O   UNL A   1      30.181  26.315  24.021  1.00  0.00    -0.252 OA
BRANCH   3   5
ATOM      5  C   UNL A   1      32.545  26.040  23.889  1.00  0.00     0.120 C 
ATOM      6  C   UNL A   1      32.833  26.034  22.375  1.00  0.00     0.022 C 
BRANCH   5   7
ATOM      7  C   UNL A   1      32.469  24.655  24.556  1.00  0.00     0.119 C 
ATOM      8  C   UNL A   1      32.334  24.914  26.122  1.00  0.00     0.034 C 
BRANCH   7   9
ATOM      9  N   UNL A   1      33.697  23.831  24.165  1.00  0.00    -0.261 N 
ATOM     10  N   UNL A   1      35.126  24.669  24.987  1.00  0.00    -0.180 NA
ATOM     11  C   UNL A   1      33.836  21.972  24.167  1.00  0.00     0.075 A 
ATOM     12  C   UNL A   1      36.150  23.471  25.657  1.00  0.00     0.143 A 
ATOM     13  C   UNL A   1      35.352  21.560  25.070  1.00  0.00     0.020 A 
ATOM     14  C   UNL A   1      32.990  20.803  24.058  1.00  0.00     0.114 A 
ATOM     15  C   UNL A   1      35.728  20.138  25.004  1.00  0.00     0.019 A 
ATOM     16  C   UNL A   1      33.534  19.453  24.314  1.00  0.00     0.271 A 
ATOM     17  C   UNL A   1      34.862  19.147  24.628  1.00  0.00     0.086 A 
BRANCH  16  18
ATOM     18  N   UNL A   1      32.647  18.261  24.417  1.00  0.00     0.062 N 
ATOM     19  O   UNL A   1      32.470  17.585  23.392  1.00  0.00    -0.258 OA
ATOM     20  O   UNL A   1      32.162  18.014  25.526  1.00  0.00    -0.258 OA
ENDBRANCH  16  18
ENDBRANCH   7   9
ENDBRANCH   5   7
ENDBRANCH   3   5
ENDBRANCH   2   3
ENDBRANCH   1   2
BRANCH   1  21
ATOM     21  C   UNL A   1      31.042  30.273  25.189  1.00  0.00     0.275 C 
BRANCH  21  22
ATOM     22  O   UNL A   1      32.421  30.508  25.565  1.00  0.00    -0.458 OA
BRANCH  22  23
ATOM     23  C   UNL A   1      32.580  31.353  26.620  1.00  0.00     0.338 C 
ATOM     24  O   UNL A   1      31.823  32.276  26.887  1.00  0.00    -0.246 OA
BRANCH  23  25
ATOM     25  C   UNL A   1      33.896  31.126  27.425  1.00  0.00     0.060 A 
ATOM     26  C   UNL A   1      35.570  32.214  28.065  1.00  0.00     0.016 A 
ATOM     27  C   UNL A   1      34.182  29.366  27.407  1.00  0.00     0.016 A 
ATOM     28  C   UNL A   1      36.975  31.572  28.479  1.00  0.00     0.010 A 
ATOM     29  C   UNL A   1      35.755  28.867  27.977  1.00  0.00     0.010 A 
ATOM     30  C   UNL A   1      36.984  29.999  28.581  1.00  0.00    -0.014 A 
BRANCH  30  31
ATOM     31  C   UNL A   1      38.016  29.706  29.597  1.00  0.00     0.031 A 
ATOM     32  C   UNL A   1      39.055  28.841  29.066  1.00  0.00     0.074 A 
ATOM     33  C   UNL A   1      38.113  30.366  30.796  1.00  0.00     0.049 A 
ATOM     34  N   UNL A   1      40.095  28.387  29.672  1.00  0.00    -0.248 NA
ATOM     35  C   UNL A   1      38.904  28.446  27.651  1.00  0.00     0.031 C 
ATOM     36  C   UNL A   1      37.236  31.449  31.302  1.00  0.00     0.029 A 
ATOM     37  N   UNL A   1      39.029  30.277  31.818  1.00  0.00    -0.354 N 
ATOM     38  C   UNL A   1      40.706  27.613  28.720  1.00  0.00     0.074 A 
ATOM     39  C   UNL A   1      39.877  27.572  27.542  1.00  0.00     0.031 C 
ATOM     40  C   UNL A   1      37.606  31.860  32.521  1.00  0.00     0.029 A 
ATOM     41  C   UNL A   1      38.749  31.078  32.918  1.00  0.00     0.049 A 
ATOM     42  H   UNL A   1      39.820  29.693  31.773  1.00  0.00     0.167 HD
ATOM     43  C   UNL A   1      41.906  27.032  28.826  1.00  0.00     0.034 A 
ATOM     44  C   UNL A   1      39.348  31.166  34.121  1.00  0.00     0.034 A 
ATOM     45  C   UNL A   1      42.670  27.089  30.024  1.00  0.00     0.049 A 
ATOM     46  C   UNL A   1      40.578  30.324  34.272  1.00  0.00     0.074 A 
ATOM     47  C   UNL A   1      43.842  26.433  30.311  1.00  0.00     0.029 A 
ATOM     48  N   UNL A   1      42.308  27.819  31.151  1.00  0.00    -0.354 N 
ATOM     49  N   UNL A   1      41.146  29.557  33.373  1.00  0.00    -0.248 NA
ATOM     50  C   UNL A   1      41.276  30.377  35.559  1.00  0.00     0.031 C 
ATOM     51  C   UNL A   1      44.150  26.701  31.643  1.00  0.00     0.029 A 
ATOM     52  C   UNL A   1      43.226  27.606  32.154  1.00  0.00     0.049 A 
ATOM     53  H   UNL A   1      41.515  28.399  31.221  1.00  0.00     0.167 HD
ATOM     54  C   UNL A   1      42.295  29.069  33.962  1.00  0.00     0.074 A 
ATOM     55  C   UNL A   1      42.348  29.643  35.296  1.00  0.00     0.031 C 
ATOM     56  C   UNL A   1      43.225  28.228  33.453  1.00  0.00     0.034 A 
BRANCH  43  57
ATOM     57  C   UNL A   1      42.298  26.210  27.657  1.00  0.00     0.023 A 
ATOM     58  C   UNL A   1      42.832  26.806  26.495  1.00  0.00     0.012 A 
ATOM     59  C   UNL A   1      41.942  24.857  27.663  1.00  0.00     0.148 A 
ATOM     60  C   UNL A   1      42.964  26.058  25.330  1.00  0.00     0.002 A 
ATOM     61  C   UNL A   1      42.151  24.102  26.528  1.00  0.00     0.091 A 
ATOM     62  F   UNL A   1      41.341  24.360  28.753  1.00  0.00    -0.205 F 
ATOM     63  C   UNL A   1      42.640  24.702  25.353  1.00  0.00     0.022 A 
BRANCH  61  64
ATOM     64  S   UNL A   1      41.825  22.345  26.498  1.00  0.00     0.127 S 
ATOM     65  O   UNL A   1      40.367  22.315  26.387  1.00  0.00    -0.237 OA
ATOM     66  O   UNL A   1      42.544  21.938  25.292  1.00  0.00    -0.237 OA
ATOM     67  O   UNL A   1      42.355  21.811  27.744  1.00  0.00    -0.744 OA
ENDBRANCH  61  64
ENDBRANCH  43  57
BRANCH  44  68
ATOM     68  C   UNL A   1      38.836  32.025  35.242  1.00  0.00     0.023 A 
ATOM     69  C   UNL A   1      39.095  33.413  35.254  1.00  0.00     0.012 A 
ATOM     70  C   UNL A   1      38.160  31.461  36.346  1.00  0.00     0.148 A 
ATOM     71  C   UNL A   1      38.749  34.202  36.356  1.00  0.00     0.002 A 
ATOM     72  C   UNL A   1      37.785  32.259  37.427  1.00  0.00     0.091 A 
ATOM     73  F   UNL A   1      37.916  30.143  36.329  1.00  0.00    -0.205 F 
ATOM     74  C   UNL A   1      38.097  33.627  37.441  1.00  0.00     0.022 A 
BRANCH  72  75
ATOM     75  S   UNL A   1      36.913  31.629  38.871  1.00  0.00     0.127 S 
ATOM     76  O   UNL A   1      36.705  30.228  38.506  1.00  0.00    -0.237 OA
ATOM     77  O   UNL A   1      37.900  31.843  39.929  1.00  0.00    -0.237 OA
ATOM     78  O   UNL A   1      35.699  32.422  38.983  1.00  0.00    -0.744 OA
ENDBRANCH  72  75
ENDBRANCH  44  68
BRANCH  56  79
ATOM     79  C   UNL A   1      44.410  27.937  34.318  1.00  0.00     0.023 A 
ATOM     80  C   UNL A   1      45.539  28.773  34.287  1.00  0.00     0.012 A 
ATOM     81  C   UNL A   1      44.333  26.880  35.244  1.00  0.00     0.148 A 
ATOM     82  C   UNL A   1      46.600  28.536  35.154  1.00  0.00     0.002 A 
ATOM     83  C   UNL A   1      45.357  26.699  36.151  1.00  0.00     0.091 A 
ATOM     84  F   UNL A   1      43.241  26.100  35.235  1.00  0.00    -0.205 F 
ATOM     85  C   UNL A   1      46.501  27.513  36.097  1.00  0.00     0.022 A 
BRANCH  83  86
ATOM     86  S   UNL A   1      45.256  25.489  37.469  1.00  0.00     0.127 S 
ATOM     87  O   UNL A   1      44.323  26.136  38.390  1.00  0.00    -0.237 OA
ATOM     88  O   UNL A   1      44.718  24.322  36.769  1.00  0.00    -0.237 OA
ATOM     89  O   UNL A   1      46.611  25.322  37.976  1.00  0.00    -0.744 OA
ENDBRANCH  83  86
ENDBRANCH  56  79
ENDBRANCH  30  31
ENDBRANCH  23  25
ENDBRANCH  22  23
ENDBRANCH  21  22
ENDBRANCH   1  21
TORSDOF 17
ENDMDL
