MODEL 1
REMARK VINA RESULT:     -11.4      0.000      0.000
REMARK SMILES CN(C(=O)N1CCC(C(=O)OCCOC(=O)c2ccc(-c3c4nc(c(-c5cccc(S(=O)(=O)[O-])c5F)c5ccc([nH]5)c(-c5cccc(S(=O)(=O)[O-])c5F)c5nc(c(-c6cccc(S(=O)(=O)[O-])c6F)c6ccc3[nH]6)C=C5)C=C4)cc2)CC1)[C@H]1CCSC1
REMARK SMILES IDX 13 1 12 2 11 3 9 4 10 5 8 6 3 7 4 8 5 9 6 10 81 11 7 12
REMARK SMILES IDX 80 13 2 14 1 15 82 16 83 17 86 18 84 19 85 20 14 21 15 22
REMARK SMILES IDX 16 23 17 24 18 25 79 26 19 27 78 28 20 29 21 30 22 31 72 32
REMARK SMILES IDX 23 33 77 34 71 35 73 36 24 37 76 38 70 39 69 40 25 42 57 43
REMARK SMILES IDX 37 44 56 45 38 46 41 47 55 48 74 49 39 50 40 51 54 53 75 54
REMARK SMILES IDX 42 55 26 56 27 57 35 58 28 59 30 60 36 61 29 62 31 63 32 64
REMARK SMILES IDX 33 65 34 66 58 67 59 68 67 69 60 70 62 71 68 72 61 73 63 74
REMARK SMILES IDX 64 75 65 76 66 77 43 78 44 79 52 80 45 81 47 82 53 83 46 84
REMARK SMILES IDX 48 85 49 86 50 87 51 88
REMARK H PARENT 73 41 41 52
REMARK Flexibility Score: inf
ROOT
ATOM      1  C   UNL A   1      31.436  31.590  26.254  1.00  0.00     0.275 C 
ENDROOT
BRANCH   1   2
ATOM      2  C   UNL A   1      31.448  30.363  25.339  1.00  0.00     0.274 C 
BRANCH   2   3
ATOM      3  O   UNL A   1      31.621  29.147  26.090  1.00  0.00    -0.462 OA
BRANCH   3   4
ATOM      4  C   UNL A   1      32.655  28.356  25.712  1.00  0.00     0.309 C 
ATOM      5  O   UNL A   1      33.702  28.761  25.219  1.00  0.00    -0.252 OA
BRANCH   4   6
ATOM      6  C   UNL A   1      32.398  26.880  25.935  1.00  0.00     0.103 C 
ATOM      7  C   UNL A   1      32.516  23.213  24.330  1.00  0.00     0.320 C 
ATOM      8  O   UNL A   1      32.086  23.533  23.223  1.00  0.00    -0.248 OA
ATOM      9  N   UNL A   1      32.329  24.054  25.409  1.00  0.00    -0.325 N 
ATOM     10  C   UNL A   1      31.082  24.808  25.481  1.00  0.00     0.122 C 
ATOM     11  C   UNL A   1      33.460  24.617  26.143  1.00  0.00     0.122 C 
ATOM     12  C   UNL A   1      31.284  26.266  25.082  1.00  0.00     0.037 C 
ATOM     13  C   UNL A   1      33.691  26.081  25.762  1.00  0.00     0.037 C 
BRANCH   7  14
ATOM     14  N   UNL A   1      33.136  21.989  24.580  1.00  0.00    -0.324 N 
ATOM     15  C   UNL A   1      32.463  20.888  25.271  1.00  0.00     0.149 C 
BRANCH  14  16
ATOM     16  C   UNL A   1      34.573  21.813  24.224  1.00  0.00     0.097 C 
ATOM     17  C   UNL A   1      35.179  23.008  23.466  1.00  0.00     0.037 C 
ATOM     18  C   UNL A   1      35.537  21.595  25.409  1.00  0.00     0.094 C 
ATOM     19  C   UNL A   1      36.658  22.737  23.267  1.00  0.00     0.072 C 
ATOM     20  S   UNL A   1      37.212  21.990  24.811  1.00  0.00    -0.160 SA
ENDBRANCH  14  16
ENDBRANCH   7  14
ENDBRANCH   4   6
ENDBRANCH   3   4
ENDBRANCH   2   3
ENDBRANCH   1   2
BRANCH   1  21
ATOM     21  O   UNL A   1      32.351  31.447  27.356  1.00  0.00    -0.458 OA
BRANCH  21  22
ATOM     22  C   UNL A   1      33.225  32.470  27.500  1.00  0.00     0.338 C 
ATOM     23  O   UNL A   1      32.978  33.663  27.433  1.00  0.00    -0.246 OA
BRANCH  22  24
ATOM     24  C   UNL A   1      34.555  31.966  27.877  1.00  0.00     0.060 A 
ATOM     25  C   UNL A   1      34.689  30.594  28.106  1.00  0.00     0.016 A 
ATOM     26  C   UNL A   1      35.617  32.835  28.132  1.00  0.00     0.016 A 
ATOM     27  C   UNL A   1      35.876  30.083  28.620  1.00  0.00     0.010 A 
ATOM     28  C   UNL A   1      36.809  32.321  28.655  1.00  0.00     0.010 A 
ATOM     29  C   UNL A   1      36.933  30.948  28.930  1.00  0.00    -0.014 A 
BRANCH  29  30
ATOM     30  C   UNL A   1      38.117  30.415  29.647  1.00  0.00     0.031 A 
ATOM     31  C   UNL A   1      38.361  30.822  31.074  1.00  0.00     0.074 A 
ATOM     32  C   UNL A   1      38.944  29.546  29.039  1.00  0.00     0.049 A 
ATOM     33  N   UNL A   1      39.325  30.465  31.883  1.00  0.00    -0.248 NA
ATOM     34  C   UNL A   1      37.389  31.753  31.672  1.00  0.00     0.031 C 
ATOM     35  C   UNL A   1      38.798  29.062  27.667  1.00  0.00     0.029 A 
ATOM     36  N   UNL A   1      40.073  28.918  29.501  1.00  0.00    -0.354 N 
ATOM     37  C   UNL A   1      39.101  31.154  33.068  1.00  0.00     0.074 A 
ATOM     38  C   UNL A   1      37.911  31.954  32.873  1.00  0.00     0.031 C 
ATOM     39  C   UNL A   1      39.801  28.210  27.397  1.00  0.00     0.029 A 
ATOM     40  C   UNL A   1      40.671  28.107  28.566  1.00  0.00     0.049 A 
ATOM     41  H   UNL A   1      40.421  29.036  30.414  1.00  0.00     0.167 HD
ATOM     42  C   UNL A   1      39.809  31.111  34.222  1.00  0.00     0.034 A 
ATOM     43  C   UNL A   1      41.797  27.370  28.646  1.00  0.00     0.034 A 
ATOM     44  C   UNL A   1      40.966  30.283  34.429  1.00  0.00     0.049 A 
ATOM     45  C   UNL A   1      42.570  27.346  29.937  1.00  0.00     0.074 A 
ATOM     46  C   UNL A   1      41.731  30.141  35.573  1.00  0.00     0.029 A 
ATOM     47  N   UNL A   1      41.527  29.457  33.468  1.00  0.00    -0.354 N 
ATOM     48  N   UNL A   1      42.288  27.926  31.080  1.00  0.00    -0.248 NA
ATOM     49  C   UNL A   1      43.802  26.545  29.958  1.00  0.00     0.031 C 
ATOM     50  C   UNL A   1      42.759  29.232  35.302  1.00  0.00     0.029 A 
ATOM     51  C   UNL A   1      42.630  28.802  33.990  1.00  0.00     0.049 A 
ATOM     52  H   UNL A   1      41.192  29.350  32.549  1.00  0.00     0.167 HD
ATOM     53  C   UNL A   1      43.286  27.531  31.965  1.00  0.00     0.074 A 
ATOM     54  C   UNL A   1      44.171  26.649  31.229  1.00  0.00     0.031 C 
ATOM     55  C   UNL A   1      43.464  27.878  33.263  1.00  0.00     0.034 A 
BRANCH  42  56
ATOM     56  C   UNL A   1      39.324  31.966  35.361  1.00  0.00     0.023 A 
ATOM     57  C   UNL A   1      38.389  31.440  36.275  1.00  0.00     0.012 A 
ATOM     58  C   UNL A   1      39.809  33.275  35.544  1.00  0.00     0.148 A 
ATOM     59  C   UNL A   1      37.919  32.215  37.336  1.00  0.00     0.002 A 
ATOM     60  C   UNL A   1      39.363  34.030  36.625  1.00  0.00     0.091 A 
ATOM     61  F   UNL A   1      40.674  33.771  34.648  1.00  0.00    -0.205 F 
ATOM     62  C   UNL A   1      38.412  33.506  37.515  1.00  0.00     0.022 A 
BRANCH  60  63
ATOM     63  S   UNL A   1      40.001  35.675  36.961  1.00  0.00     0.127 S 
ATOM     64  O   UNL A   1      39.556  36.413  35.780  1.00  0.00    -0.237 OA
ATOM     65  O   UNL A   1      39.310  36.036  38.200  1.00  0.00    -0.237 OA
ATOM     66  O   UNL A   1      41.441  35.512  37.104  1.00  0.00    -0.744 OA
ENDBRANCH  60  63
ENDBRANCH  42  56
BRANCH  43  67
ATOM     67  C   UNL A   1      42.218  26.533  27.488  1.00  0.00     0.023 A 
ATOM     68  C   UNL A   1      42.996  27.114  26.467  1.00  0.00     0.012 A 
ATOM     69  C   UNL A   1      41.888  25.166  27.406  1.00  0.00     0.148 A 
ATOM     70  C   UNL A   1      43.421  26.356  25.377  1.00  0.00     0.002 A 
ATOM     71  C   UNL A   1      42.357  24.404  26.341  1.00  0.00     0.091 A 
ATOM     72  F   UNL A   1      41.129  24.636  28.375  1.00  0.00    -0.205 F 
ATOM     73  C   UNL A   1      43.112  25.000  25.319  1.00  0.00     0.022 A 
BRANCH  71  74
ATOM     74  S   UNL A   1      42.113  22.626  26.249  1.00  0.00     0.127 S 
ATOM     75  O   UNL A   1      40.657  22.522  26.297  1.00  0.00    -0.237 OA
ATOM     76  O   UNL A   1      42.712  22.304  24.954  1.00  0.00    -0.237 OA
ATOM     77  O   UNL A   1      42.827  22.075  27.393  1.00  0.00    -0.744 OA
ENDBRANCH  71  74
ENDBRANCH  43  67
BRANCH  55  78
ATOM     78  C   UNL A   1      44.640  27.283  33.989  1.00  0.00     0.023 A 
ATOM     79  C   UNL A   1      45.886  27.937  33.951  1.00  0.00     0.012 A 
ATOM     80  C   UNL A   1      44.496  26.115  34.765  1.00  0.00     0.148 A 
ATOM     81  C   UNL A   1      46.977  27.426  34.652  1.00  0.00     0.002 A 
ATOM     82  C   UNL A   1      45.577  25.634  35.495  1.00  0.00     0.091 A 
ATOM     83  F   UNL A   1      43.308  25.491  34.770  1.00  0.00    -0.205 F 
ATOM     84  C   UNL A   1      46.820  26.283  35.433  1.00  0.00     0.022 A 
BRANCH  82  85
ATOM     85  S   UNL A   1      45.425  24.219  36.592  1.00  0.00     0.127 S 
ATOM     86  O   UNL A   1      44.416  24.683  37.542  1.00  0.00    -0.237 OA
ATOM     87  O   UNL A   1      44.971  23.162  35.688  1.00  0.00    -0.237 OA
ATOM     88  O   UNL A   1      46.759  24.004  37.139  1.00  0.00    -0.744 OA
ENDBRANCH  82  85
ENDBRANCH  55  78
ENDBRANCH  29  30
ENDBRANCH  22  24
ENDBRANCH  21  22
ENDBRANCH   1  21
TORSDOF 16
ENDMDL
MODEL 2
REMARK VINA RESULT:     -11.3      4.966     10.368
REMARK SMILES CN(C(=O)N1CCC(C(=O)OCCOC(=O)c2ccc(-c3c4nc(c(-c5cccc(S(=O)(=O)[O-])c5F)c5ccc([nH]5)c(-c5cccc(S(=O)(=O)[O-])c5F)c5nc(c(-c6cccc(S(=O)(=O)[O-])c6F)c6ccc3[nH]6)C=C5)C=C4)cc2)CC1)[C@H]1CCSC1
REMARK SMILES IDX 13 1 12 2 11 3 9 4 10 5 8 6 3 7 4 8 5 9 6 10 81 11 7 12
REMARK SMILES IDX 80 13 2 14 1 15 82 16 83 17 86 18 84 19 85 20 14 21 15 22
REMARK SMILES IDX 16 23 17 24 18 25 79 26 19 27 78 28 20 29 21 30 22 31 72 32
REMARK SMILES IDX 23 33 77 34 71 35 73 36 24 37 76 38 70 39 69 40 25 42 57 43
REMARK SMILES IDX 37 44 56 45 38 46 41 47 55 48 74 49 39 50 40 51 54 53 75 54
REMARK SMILES IDX 42 55 26 56 27 57 35 58 28 59 30 60 36 61 29 62 31 63 32 64
REMARK SMILES IDX 33 65 34 66 58 67 59 68 67 69 60 70 62 71 68 72 61 73 63 74
REMARK SMILES IDX 64 75 65 76 66 77 43 78 44 79 52 80 45 81 47 82 53 83 46 84
REMARK SMILES IDX 48 85 49 86 50 87 51 88
REMARK H PARENT 73 41 41 52
REMARK Flexibility Score: inf
ROOT
ATOM      1  C   UNL A   1      37.760  19.966  24.690  1.00  0.00     0.275 C 
ENDROOT
BRANCH   1   2
ATOM      2  C   UNL A   1      36.307  19.565  24.956  1.00  0.00     0.274 C 
BRANCH   2   3
ATOM      3  O   UNL A   1      35.503  20.704  25.316  1.00  0.00    -0.462 OA
BRANCH   3   4
ATOM      4  C   UNL A   1      34.175  20.600  25.060  1.00  0.00     0.309 C 
ATOM      5  O   UNL A   1      33.518  19.572  25.176  1.00  0.00    -0.252 OA
BRANCH   4   6
ATOM      6  C   UNL A   1      33.550  21.895  24.582  1.00  0.00     0.103 C 
ATOM      7  C   UNL A   1      32.064  25.455  25.655  1.00  0.00     0.320 C 
ATOM      8  O   UNL A   1      31.456  25.058  26.647  1.00  0.00    -0.248 OA
ATOM      9  N   UNL A   1      32.463  24.554  24.687  1.00  0.00    -0.325 N 
ATOM     10  C   UNL A   1      31.587  23.424  24.400  1.00  0.00     0.122 C 
ATOM     11  C   UNL A   1      33.873  24.371  24.351  1.00  0.00     0.122 C 
ATOM     12  C   UNL A   1      32.106  22.136  25.030  1.00  0.00     0.037 C 
ATOM     13  C   UNL A   1      34.426  23.086  24.972  1.00  0.00     0.037 C 
BRANCH   7  14
ATOM     14  N   UNL A   1      32.320  26.804  25.410  1.00  0.00    -0.324 N 
ATOM     15  C   UNL A   1      33.248  27.592  26.221  1.00  0.00     0.149 C 
BRANCH  14  16
ATOM     16  C   UNL A   1      31.553  27.510  24.345  1.00  0.00     0.097 C 
ATOM     17  C   UNL A   1      30.124  26.974  24.145  1.00  0.00     0.037 C 
ATOM     18  C   UNL A   1      31.357  29.027  24.553  1.00  0.00     0.094 C 
ATOM     19  C   UNL A   1      29.433  27.850  23.116  1.00  0.00     0.072 C 
ATOM     20  S   UNL A   1      29.956  29.530  23.501  1.00  0.00    -0.160 SA
ENDBRANCH  14  16
ENDBRANCH   7  14
ENDBRANCH   4   6
ENDBRANCH   3   4
ENDBRANCH   2   3
ENDBRANCH   1   2
BRANCH   1  21
ATOM     21  O   UNL A   1      38.156  21.100  25.481  1.00  0.00    -0.458 OA
BRANCH  21  22
ATOM     22  C   UNL A   1      39.338  20.953  26.124  1.00  0.00     0.338 C 
ATOM     23  O   UNL A   1      40.046  19.960  26.143  1.00  0.00    -0.246 OA
BRANCH  22  24
ATOM     24  C   UNL A   1      39.755  22.224  26.738  1.00  0.00     0.060 A 
ATOM     25  C   UNL A   1      39.159  23.398  26.270  1.00  0.00     0.016 A 
ATOM     26  C   UNL A   1      40.804  22.279  27.657  1.00  0.00     0.016 A 
ATOM     27  C   UNL A   1      39.625  24.638  26.695  1.00  0.00     0.010 A 
ATOM     28  C   UNL A   1      41.277  23.526  28.080  1.00  0.00     0.010 A 
ATOM     29  C   UNL A   1      40.711  24.711  27.577  1.00  0.00    -0.014 A 
BRANCH  29  30
ATOM     30  C   UNL A   1      41.313  26.033  27.874  1.00  0.00     0.031 A 
ATOM     31  C   UNL A   1      42.699  26.341  27.377  1.00  0.00     0.074 A 
ATOM     32  C   UNL A   1      40.613  26.962  28.549  1.00  0.00     0.049 A 
ATOM     33  N   UNL A   1      43.403  27.435  27.516  1.00  0.00    -0.248 NA
ATOM     34  C   UNL A   1      43.382  25.279  26.621  1.00  0.00     0.031 C 
ATOM     35  C   UNL A   1      39.255  26.786  29.062  1.00  0.00     0.029 A 
ATOM     36  N   UNL A   1      40.951  28.239  28.919  1.00  0.00    -0.354 N 
ATOM     37  C   UNL A   1      44.623  27.181  26.902  1.00  0.00     0.074 A 
ATOM     38  C   UNL A   1      44.566  25.828  26.392  1.00  0.00     0.031 C 
ATOM     39  C   UNL A   1      38.874  27.916  29.680  1.00  0.00     0.029 A 
ATOM     40  C   UNL A   1      39.967  28.884  29.629  1.00  0.00     0.049 A 
ATOM     41  H   UNL A   1      41.816  28.654  28.696  1.00  0.00     0.167 HD
ATOM     42  C   UNL A   1      45.688  28.005  26.758  1.00  0.00     0.034 A 
ATOM     43  C   UNL A   1      39.953  30.115  30.178  1.00  0.00     0.034 A 
ATOM     44  C   UNL A   1      45.728  29.363  27.227  1.00  0.00     0.049 A 
ATOM     45  C   UNL A   1      41.154  31.007  30.010  1.00  0.00     0.074 A 
ATOM     46  C   UNL A   1      46.747  30.291  27.097  1.00  0.00     0.029 A 
ATOM     47  N   UNL A   1      44.703  29.989  27.919  1.00  0.00    -0.354 N 
ATOM     48  N   UNL A   1      42.260  30.787  29.341  1.00  0.00    -0.248 NA
ATOM     49  C   UNL A   1      41.093  32.329  30.651  1.00  0.00     0.031 C 
ATOM     50  C   UNL A   1      46.339  31.477  27.717  1.00  0.00     0.029 A 
ATOM     51  C   UNL A   1      45.064  31.291  28.226  1.00  0.00     0.049 A 
ATOM     52  H   UNL A   1      43.845  29.572  28.159  1.00  0.00     0.167 HD
ATOM     53  C   UNL A   1      43.010  31.953  29.448  1.00  0.00     0.074 A 
ATOM     54  C   UNL A   1      42.225  32.883  30.235  1.00  0.00     0.031 C 
ATOM     55  C   UNL A   1      44.244  32.225  28.956  1.00  0.00     0.034 A 
BRANCH  42  56
ATOM     56  C   UNL A   1      46.888  27.461  26.031  1.00  0.00     0.023 A 
ATOM     57  C   UNL A   1      46.987  27.624  24.634  1.00  0.00     0.012 A 
ATOM     58  C   UNL A   1      47.927  26.813  26.726  1.00  0.00     0.148 A 
ATOM     59  C   UNL A   1      48.085  27.122  23.936  1.00  0.00     0.002 A 
ATOM     60  C   UNL A   1      49.036  26.347  26.028  1.00  0.00     0.091 A 
ATOM     61  F   UNL A   1      47.803  26.638  28.050  1.00  0.00    -0.205 F 
ATOM     62  C   UNL A   1      49.113  26.492  24.634  1.00  0.00     0.022 A 
BRANCH  60  63
ATOM     63  S   UNL A   1      50.431  25.584  26.865  1.00  0.00     0.127 S 
ATOM     64  O   UNL A   1      50.874  26.661  27.748  1.00  0.00    -0.237 OA
ATOM     65  O   UNL A   1      49.807  24.451  27.553  1.00  0.00    -0.237 OA
ATOM     66  O   UNL A   1      51.359  25.205  25.808  1.00  0.00    -0.744 OA
ENDBRANCH  60  63
ENDBRANCH  42  56
BRANCH  43  67
ATOM     67  C   UNL A   1      38.730  30.603  30.875  1.00  0.00     0.023 A 
ATOM     68  C   UNL A   1      38.623  30.440  32.270  1.00  0.00     0.012 A 
ATOM     69  C   UNL A   1      37.693  31.254  30.178  1.00  0.00     0.148 A 
ATOM     70  C   UNL A   1      37.499  30.899  32.956  1.00  0.00     0.002 A 
ATOM     71  C   UNL A   1      36.599  31.753  30.874  1.00  0.00     0.091 A 
ATOM     72  F   UNL A   1      37.803  31.379  28.848  1.00  0.00    -0.205 F 
ATOM     73  C   UNL A   1      36.493  31.565  32.262  1.00  0.00     0.022 A 
BRANCH  71  74
ATOM     74  S   UNL A   1      35.318  32.732  30.081  1.00  0.00     0.127 S 
ATOM     75  O   UNL A   1      34.404  32.984  31.191  1.00  0.00    -0.237 OA
ATOM     76  O   UNL A   1      36.068  33.900  29.623  1.00  0.00    -0.237 OA
ATOM     77  O   UNL A   1      34.797  31.896  29.008  1.00  0.00    -0.744 OA
ENDBRANCH  71  74
ENDBRANCH  43  67
BRANCH  55  78
ATOM     78  C   UNL A   1      44.814  33.592  29.220  1.00  0.00     0.023 A 
ATOM     79  C   UNL A   1      45.512  33.835  30.419  1.00  0.00     0.012 A 
ATOM     80  C   UNL A   1      44.721  34.615  28.255  1.00  0.00     0.148 A 
ATOM     81  C   UNL A   1      46.086  35.082  30.665  1.00  0.00     0.002 A 
ATOM     82  C   UNL A   1      45.331  35.842  28.489  1.00  0.00     0.091 A 
ATOM     83  F   UNL A   1      44.031  34.374  27.130  1.00  0.00    -0.205 F 
ATOM     84  C   UNL A   1      46.007  36.081  29.696  1.00  0.00     0.022 A 
BRANCH  82  85
ATOM     85  S   UNL A   1      45.345  37.144  27.251  1.00  0.00     0.127 S 
ATOM     86  O   UNL A   1      43.918  37.366  27.033  1.00  0.00    -0.237 OA
ATOM     87  O   UNL A   1      46.034  38.235  27.943  1.00  0.00    -0.237 OA
ATOM     88  O   UNL A   1      46.083  36.598  26.118  1.00  0.00    -0.744 OA
ENDBRANCH  82  85
ENDBRANCH  55  78
ENDBRANCH  29  30
ENDBRANCH  22  24
ENDBRANCH  21  22
ENDBRANCH   1  21
TORSDOF 16
ENDMDL
MODEL 3
REMARK VINA RESULT:     -11.2      5.144     10.409
REMARK SMILES CN(C(=O)N1CCC(C(=O)OCCOC(=O)c2ccc(-c3c4nc(c(-c5cccc(S(=O)(=O)[O-])c5F)c5ccc([nH]5)c(-c5cccc(S(=O)(=O)[O-])c5F)c5nc(c(-c6cccc(S(=O)(=O)[O-])c6F)c6ccc3[nH]6)C=C5)C=C4)cc2)CC1)[C@H]1CCSC1
REMARK SMILES IDX 13 1 12 2 11 3 9 4 10 5 8 6 3 7 4 8 5 9 6 10 81 11 7 12
REMARK SMILES IDX 80 13 2 14 1 15 82 16 83 17 86 18 84 19 85 20 14 21 15 22
REMARK SMILES IDX 16 23 17 24 18 25 79 26 19 27 78 28 20 29 21 30 22 31 72 32
REMARK SMILES IDX 23 33 77 34 71 35 73 36 24 37 76 38 70 39 69 40 25 42 57 43
REMARK SMILES IDX 37 44 56 45 38 46 41 47 55 48 74 49 39 50 40 51 54 53 75 54
REMARK SMILES IDX 42 55 26 56 27 57 35 58 28 59 30 60 36 61 29 62 31 63 32 64
REMARK SMILES IDX 33 65 34 66 58 67 59 68 67 69 60 70 62 71 68 72 61 73 63 74
REMARK SMILES IDX 64 75 65 76 66 77 43 78 44 79 52 80 45 81 47 82 53 83 46 84
REMARK SMILES IDX 48 85 49 86 50 87 51 88
REMARK H PARENT 73 41 41 52
REMARK Flexibility Score: inf
ROOT
ATOM      1  C   UNL A   1      37.694  19.770  24.947  1.00  0.00     0.275 C 
ENDROOT
BRANCH   1   2
ATOM      2  C   UNL A   1      36.164  19.822  24.927  1.00  0.00     0.274 C 
BRANCH   2   3
ATOM      3  O   UNL A   1      35.679  21.158  25.155  1.00  0.00    -0.462 OA
BRANCH   3   4
ATOM      4  C   UNL A   1      34.386  21.263  25.550  1.00  0.00     0.309 C 
ATOM      5  O   UNL A   1      33.615  20.318  25.680  1.00  0.00    -0.252 OA
BRANCH   4   6
ATOM      6  C   UNL A   1      33.947  22.690  25.808  1.00  0.00     0.103 C 
ATOM      7  C   UNL A   1      32.584  26.086  24.182  1.00  0.00     0.320 C 
ATOM      8  O   UNL A   1      33.304  26.061  23.186  1.00  0.00    -0.248 OA
ATOM      9  N   UNL A   1      32.908  25.319  25.284  1.00  0.00    -0.325 N 
ATOM     10  C   UNL A   1      34.321  25.149  25.608  1.00  0.00     0.122 C 
ATOM     11  C   UNL A   1      32.009  24.281  25.782  1.00  0.00     0.122 C 
ATOM     12  C   UNL A   1      34.832  23.776  25.189  1.00  0.00     0.037 C 
ATOM     13  C   UNL A   1      32.494  22.888  25.375  1.00  0.00     0.037 C 
BRANCH   7  14
ATOM     14  N   UNL A   1      31.469  26.916  24.294  1.00  0.00    -0.324 N 
ATOM     15  C   UNL A   1      30.233  26.686  23.545  1.00  0.00     0.149 C 
BRANCH  14  16
ATOM     16  C   UNL A   1      31.558  28.147  25.130  1.00  0.00     0.097 C 
ATOM     17  C   UNL A   1      31.631  27.871  26.643  1.00  0.00     0.037 C 
ATOM     18  C   UNL A   1      32.773  29.058  24.857  1.00  0.00     0.094 C 
ATOM     19  C   UNL A   1      31.825  29.197  27.354  1.00  0.00     0.072 C 
ATOM     20  S   UNL A   1      32.982  30.118  26.325  1.00  0.00    -0.160 SA
ENDBRANCH  14  16
ENDBRANCH   7  14
ENDBRANCH   4   6
ENDBRANCH   3   4
ENDBRANCH   2   3
ENDBRANCH   1   2
BRANCH   1  21
ATOM     21  O   UNL A   1      38.266  21.006  25.411  1.00  0.00    -0.458 OA
BRANCH  21  22
ATOM     22  C   UNL A   1      39.434  20.870  26.082  1.00  0.00     0.338 C 
ATOM     23  O   UNL A   1      40.152  19.885  26.115  1.00  0.00    -0.246 OA
BRANCH  22  24
ATOM     24  C   UNL A   1      39.821  22.143  26.710  1.00  0.00     0.060 A 
ATOM     25  C   UNL A   1      39.242  23.315  26.214  1.00  0.00     0.016 A 
ATOM     26  C   UNL A   1      40.830  22.202  27.672  1.00  0.00     0.016 A 
ATOM     27  C   UNL A   1      39.688  24.557  26.656  1.00  0.00     0.010 A 
ATOM     28  C   UNL A   1      41.282  23.451  28.112  1.00  0.00     0.010 A 
ATOM     29  C   UNL A   1      40.735  24.634  27.583  1.00  0.00    -0.014 A 
BRANCH  29  30
ATOM     30  C   UNL A   1      41.321  25.958  27.902  1.00  0.00     0.031 A 
ATOM     31  C   UNL A   1      42.709  26.285  27.424  1.00  0.00     0.074 A 
ATOM     32  C   UNL A   1      40.604  26.872  28.581  1.00  0.00     0.049 A 
ATOM     33  N   UNL A   1      43.401  27.384  27.584  1.00  0.00    -0.248 NA
ATOM     34  C   UNL A   1      43.410  25.239  26.663  1.00  0.00     0.031 C 
ATOM     35  C   UNL A   1      39.243  26.677  29.077  1.00  0.00     0.029 A 
ATOM     36  N   UNL A   1      40.926  28.147  28.969  1.00  0.00    -0.354 N 
ATOM     37  C   UNL A   1      44.630  27.149  26.980  1.00  0.00     0.074 A 
ATOM     38  C   UNL A   1      44.592  25.802  26.453  1.00  0.00     0.031 C 
ATOM     39  C   UNL A   1      38.844  27.796  29.704  1.00  0.00     0.029 A 
ATOM     40  C   UNL A   1      39.928  28.775  29.676  1.00  0.00     0.049 A 
ATOM     41  H   UNL A   1      41.789  28.574  28.761  1.00  0.00     0.167 HD
ATOM     42  C   UNL A   1      45.689  27.985  26.858  1.00  0.00     0.034 A 
ATOM     43  C   UNL A   1      39.897  29.999  30.240  1.00  0.00     0.034 A 
ATOM     44  C   UNL A   1      45.710  29.338  27.344  1.00  0.00     0.049 A 
ATOM     45  C   UNL A   1      41.090  30.905  30.096  1.00  0.00     0.074 A 
ATOM     46  C   UNL A   1      46.721  30.277  27.236  1.00  0.00     0.029 A 
ATOM     47  N   UNL A   1      44.672  29.946  28.032  1.00  0.00    -0.354 N 
ATOM     48  N   UNL A   1      42.206  30.703  29.436  1.00  0.00    -0.248 NA
ATOM     49  C   UNL A   1      41.009  32.218  30.752  1.00  0.00     0.031 C 
ATOM     50  C   UNL A   1      46.296  31.452  27.865  1.00  0.00     0.029 A 
ATOM     51  C   UNL A   1      45.016  31.247  28.358  1.00  0.00     0.049 A 
ATOM     52  H   UNL A   1      43.815  29.517  28.257  1.00  0.00     0.167 HD
ATOM     53  C   UNL A   1      42.944  31.875  29.565  1.00  0.00     0.074 A 
ATOM     54  C   UNL A   1      42.140  32.788  30.355  1.00  0.00     0.031 C 
ATOM     55  C   UNL A   1      44.179  32.165  29.090  1.00  0.00     0.034 A 
BRANCH  42  56
ATOM     56  C   UNL A   1      46.902  27.461  26.137  1.00  0.00     0.023 A 
ATOM     57  C   UNL A   1      47.811  26.631  26.823  1.00  0.00     0.012 A 
ATOM     58  C   UNL A   1      47.129  27.765  24.782  1.00  0.00     0.148 A 
ATOM     59  C   UNL A   1      48.947  26.138  26.180  1.00  0.00     0.002 A 
ATOM     60  C   UNL A   1      48.245  27.241  24.137  1.00  0.00     0.091 A 
ATOM     61  F   UNL A   1      46.272  28.582  24.153  1.00  0.00    -0.205 F 
ATOM     62  C   UNL A   1      49.159  26.436  24.836  1.00  0.00     0.022 A 
BRANCH  60  63
ATOM     63  S   UNL A   1      48.551  27.525  22.389  1.00  0.00     0.127 S 
ATOM     64  O   UNL A   1      48.606  26.158  21.872  1.00  0.00    -0.237 OA
ATOM     65  O   UNL A   1      47.367  28.283  21.979  1.00  0.00    -0.237 OA
ATOM     66  O   UNL A   1      49.795  28.279  22.330  1.00  0.00    -0.744 OA
ENDBRANCH  60  63
ENDBRANCH  42  56
BRANCH  43  67
ATOM     67  C   UNL A   1      38.661  30.466  30.929  1.00  0.00     0.023 A 
ATOM     68  C   UNL A   1      38.529  30.261  32.317  1.00  0.00     0.012 A 
ATOM     69  C   UNL A   1      37.638  31.140  30.234  1.00  0.00     0.148 A 
ATOM     70  C   UNL A   1      37.393  30.700  32.996  1.00  0.00     0.002 A 
ATOM     71  C   UNL A   1      36.531  31.618  30.925  1.00  0.00     0.091 A 
ATOM     72  F   UNL A   1      37.771  31.305  28.910  1.00  0.00    -0.205 F 
ATOM     73  C   UNL A   1      36.401  31.388  32.304  1.00  0.00     0.022 A 
BRANCH  71  74
ATOM     74  S   UNL A   1      35.265  32.622  30.139  1.00  0.00     0.127 S 
ATOM     75  O   UNL A   1      36.038  33.774  29.684  1.00  0.00    -0.237 OA
ATOM     76  O   UNL A   1      34.793  31.737  29.074  1.00  0.00    -0.237 OA
ATOM     77  O   UNL A   1      34.278  32.888  31.177  1.00  0.00    -0.744 OA
ENDBRANCH  71  74
ENDBRANCH  43  67
BRANCH  55  78
ATOM     78  C   UNL A   1      44.734  33.534  29.377  1.00  0.00     0.023 A 
ATOM     79  C   UNL A   1      45.417  33.769  30.586  1.00  0.00     0.012 A 
ATOM     80  C   UNL A   1      44.641  34.567  28.423  1.00  0.00     0.148 A 
ATOM     81  C   UNL A   1      45.976  35.018  30.853  1.00  0.00     0.002 A 
ATOM     82  C   UNL A   1      45.237  35.797  28.679  1.00  0.00     0.091 A 
ATOM     83  F   UNL A   1      43.965  34.334  27.288  1.00  0.00    -0.205 F 
ATOM     84  C   UNL A   1      45.897  36.028  29.896  1.00  0.00     0.022 A 
BRANCH  82  85
ATOM     85  S   UNL A   1      45.252  37.114  27.456  1.00  0.00     0.127 S 
ATOM     86  O   UNL A   1      45.912  36.466  26.325  1.00  0.00    -0.237 OA
ATOM     87  O   UNL A   1      43.827  37.383  27.259  1.00  0.00    -0.237 OA
ATOM     88  O   UNL A   1      45.986  38.212  28.074  1.00  0.00    -0.744 OA
ENDBRANCH  82  85
ENDBRANCH  55  78
ENDBRANCH  29  30
ENDBRANCH  22  24
ENDBRANCH  21  22
ENDBRANCH   1  21
TORSDOF 16
ENDMDL
