MODEL 1
REMARK VINA RESULT:     -12.8      0.000      0.000
REMARK SMILES Cc1ccc(C)c(-c2cc(C(=O)OCCOC(=O)c3ccc(-c4c5nc(c(-c6cccc(S(=O)(=O)[O-])c6F)c6ccc([nH]6)c(-c6cccc(S(=O)(=O)[O-])c6F)c6nc(c(-c7cccc(S(=O)(=O)[O-])c7F)c7ccc4[nH]7)C=C6)C=C5)cc3)c3cc(C)ccc3n2)c1
REMARK SMILES IDX 15 1 14 2 13 3 11 4 12 5 10 6 8 7 9 8 89 9 88 10 82 11 87 12
REMARK SMILES IDX 83 13 86 14 84 15 85 16 7 17 1 18 2 19 3 20 90 21 4 22 5 23
REMARK SMILES IDX 6 24 16 25 17 26 18 27 19 28 20 29 81 30 21 31 80 32 22 33
REMARK SMILES IDX 23 34 24 35 74 36 25 37 79 38 73 39 75 40 26 41 78 42 72 43
REMARK SMILES IDX 71 44 27 46 59 47 39 48 58 49 40 50 43 51 57 52 76 53 41 54
REMARK SMILES IDX 42 55 56 57 77 58 44 59 28 60 29 61 37 62 30 63 32 64 38 65
REMARK SMILES IDX 31 66 33 67 34 68 35 69 36 70 60 71 61 72 69 73 62 74 64 75
REMARK SMILES IDX 70 76 63 77 65 78 66 79 67 80 68 81 45 82 46 83 54 84 47 85
REMARK SMILES IDX 49 86 55 87 48 88 50 89 51 90 52 91 53 92
REMARK H PARENT 75 45 43 56
REMARK Flexibility Score: inf
ROOT
ATOM      1  C   UNL A   1      35.122  32.742  29.253  1.00  0.00     0.275 C 
ENDROOT
BRANCH   1   2
ATOM      2  C   UNL A   1      34.884  32.447  27.772  1.00  0.00     0.275 C 
BRANCH   2   3
ATOM      3  O   UNL A   1      34.486  31.070  27.663  1.00  0.00    -0.458 OA
BRANCH   3   4
ATOM      4  C   UNL A   1      33.182  30.762  26.989  1.00  0.00     0.339 C 
ATOM      5  O   UNL A   1      32.524  31.770  27.370  1.00  0.00    -0.246 OA
BRANCH   4   6
ATOM      6  C   UNL A   1      32.752  29.077  25.695  1.00  0.00     0.071 A 
ATOM      7  C   UNL A   1      33.061  26.457  25.228  1.00  0.00     0.072 A 
ATOM      8  C   UNL A   1      33.520  27.723  25.636  1.00  0.00     0.045 A 
ATOM      9  N   UNL A   1      31.912  26.312  24.600  1.00  0.00    -0.248 NA
ATOM     10  C   UNL A   1      31.222  27.375  24.258  1.00  0.00     0.072 A 
ATOM     11  C   UNL A   1      31.470  28.746  24.659  1.00  0.00     0.015 A 
ATOM     12  C   UNL A   1      30.180  26.926  23.448  1.00  0.00     0.029 A 
ATOM     13  C   UNL A   1      30.390  29.529  23.980  1.00  0.00     0.014 A 
ATOM     14  C   UNL A   1      29.234  27.752  22.880  1.00  0.00     0.005 A 
ATOM     15  C   UNL A   1      29.337  29.090  23.136  1.00  0.00    -0.050 A 
ATOM     16  C   UNL A   1      28.357  30.073  22.566  1.00  0.00     0.044 C 
BRANCH   7  17
ATOM     17  C   UNL A   1      33.692  25.156  25.585  1.00  0.00     0.003 A 
ATOM     18  C   UNL A   1      37.241  23.643  25.483  1.00  0.00     0.044 C 
ATOM     19  C   UNL A   1      35.769  23.812  25.730  1.00  0.00    -0.050 A 
ATOM     20  C   UNL A   1      35.075  22.805  26.397  1.00  0.00     0.004 A 
ATOM     21  C   UNL A   1      35.072  24.964  25.314  1.00  0.00     0.014 A 
ATOM     22  C   UNL A   1      33.727  22.974  26.698  1.00  0.00     0.004 A 
ATOM     23  C   UNL A   1      33.036  24.150  26.334  1.00  0.00    -0.042 A 
ATOM     24  C   UNL A   1      31.611  24.260  26.806  1.00  0.00     0.045 C 
ENDBRANCH   7  17
ENDBRANCH   4   6
ENDBRANCH   3   4
ENDBRANCH   2   3
ENDBRANCH   1   2
BRANCH   1  25
ATOM     25  O   UNL A   1      35.307  31.559  30.087  1.00  0.00    -0.458 OA
BRANCH  25  26
ATOM     26  C   UNL A   1      36.534  31.227  30.583  1.00  0.00     0.338 C 
ATOM     27  O   UNL A   1      37.236  31.967  31.252  1.00  0.00    -0.246 OA
BRANCH  26  28
ATOM     28  C   UNL A   1      37.079  30.003  29.963  1.00  0.00     0.060 A 
ATOM     29  C   UNL A   1      37.596  28.701  31.117  1.00  0.00     0.016 A 
ATOM     30  C   UNL A   1      37.984  30.263  28.429  1.00  0.00     0.016 A 
ATOM     31  C   UNL A   1      39.080  27.660  30.729  1.00  0.00     0.010 A 
ATOM     32  C   UNL A   1      39.516  29.281  28.112  1.00  0.00     0.010 A 
ATOM     33  C   UNL A   1      40.067  28.007  29.261  1.00  0.00    -0.014 A 
BRANCH  33  34
ATOM     34  C   UNL A   1      41.525  27.729  29.132  1.00  0.00     0.031 A 
ATOM     35  C   UNL A   1      41.795  26.464  28.405  1.00  0.00     0.074 A 
ATOM     36  C   UNL A   1      42.565  28.606  29.214  1.00  0.00     0.049 A 
ATOM     37  N   UNL A   1      42.058  25.309  28.924  1.00  0.00    -0.248 NA
ATOM     38  C   UNL A   1      41.585  26.429  26.949  1.00  0.00     0.031 C 
ATOM     39  C   UNL A   1      42.558  30.044  29.498  1.00  0.00     0.029 A 
ATOM     40  N   UNL A   1      43.896  28.393  28.915  1.00  0.00    -0.354 N 
ATOM     41  C   UNL A   1      42.261  24.479  27.830  1.00  0.00     0.074 A 
ATOM     42  C   UNL A   1      41.619  25.117  26.714  1.00  0.00     0.031 C 
ATOM     43  C   UNL A   1      43.743  30.603  29.149  1.00  0.00     0.029 A 
ATOM     44  C   UNL A   1      44.664  29.556  28.753  1.00  0.00     0.049 A 
ATOM     45  H   UNL A   1      44.279  27.492  28.823  1.00  0.00     0.167 HD
ATOM     46  C   UNL A   1      43.228  23.521  27.804  1.00  0.00     0.034 A 
ATOM     47  C   UNL A   1      45.954  29.655  28.325  1.00  0.00     0.034 A 
ATOM     48  C   UNL A   1      43.865  23.361  29.087  1.00  0.00     0.049 A 
ATOM     49  C   UNL A   1      46.571  28.326  28.511  1.00  0.00     0.074 A 
ATOM     50  C   UNL A   1      43.434  23.141  30.379  1.00  0.00     0.029 A 
ATOM     51  N   UNL A   1      45.154  23.828  29.197  1.00  0.00    -0.354 N 
ATOM     52  N   UNL A   1      46.831  27.806  29.676  1.00  0.00    -0.248 NA
ATOM     53  C   UNL A   1      46.587  27.405  27.391  1.00  0.00     0.031 C 
ATOM     54  C   UNL A   1      44.296  23.929  31.197  1.00  0.00     0.029 A 
ATOM     55  C   UNL A   1      45.236  24.539  30.365  1.00  0.00     0.049 A 
ATOM     56  H   UNL A   1      45.884  23.679  28.554  1.00  0.00     0.167 HD
ATOM     57  C   UNL A   1      46.557  26.458  29.508  1.00  0.00     0.074 A 
ATOM     58  C   UNL A   1      46.552  26.251  28.061  1.00  0.00     0.031 C 
ATOM     59  C   UNL A   1      46.057  25.717  30.539  1.00  0.00     0.034 A 
BRANCH  46  60
ATOM     60  C   UNL A   1      43.851  22.966  26.545  1.00  0.00     0.023 A 
ATOM     61  C   UNL A   1      44.417  23.892  25.646  1.00  0.00     0.012 A 
ATOM     62  C   UNL A   1      43.743  21.627  26.099  1.00  0.00     0.148 A 
ATOM     63  C   UNL A   1      44.854  23.507  24.375  1.00  0.00     0.002 A 
ATOM     64  C   UNL A   1      44.282  21.228  24.882  1.00  0.00     0.091 A 
ATOM     65  F   UNL A   1      42.995  20.750  26.776  1.00  0.00    -0.205 F 
ATOM     66  C   UNL A   1      44.813  22.169  24.002  1.00  0.00     0.022 A 
BRANCH  64  67
ATOM     67  S   UNL A   1      44.337  19.494  24.416  1.00  0.00     0.127 S 
ATOM     68  O   UNL A   1      42.993  19.052  24.770  1.00  0.00    -0.237 OA
ATOM     69  O   UNL A   1      44.609  19.573  22.981  1.00  0.00    -0.237 OA
ATOM     70  O   UNL A   1      45.433  18.929  25.196  1.00  0.00    -0.744 OA
ENDBRANCH  64  67
ENDBRANCH  46  60
BRANCH  47  71
ATOM     71  C   UNL A   1      46.732  30.731  27.648  1.00  0.00     0.023 A 
ATOM     72  C   UNL A   1      46.112  31.542  26.667  1.00  0.00     0.012 A 
ATOM     73  C   UNL A   1      47.961  31.174  28.179  1.00  0.00     0.148 A 
ATOM     74  C   UNL A   1      46.666  32.767  26.269  1.00  0.00     0.002 A 
ATOM     75  C   UNL A   1      48.509  32.395  27.782  1.00  0.00     0.091 A 
ATOM     76  F   UNL A   1      48.540  30.442  29.140  1.00  0.00    -0.205 F 
ATOM     77  C   UNL A   1      47.857  33.202  26.838  1.00  0.00     0.022 A 
BRANCH  75  78
ATOM     78  S   UNL A   1      50.023  33.052  28.499  1.00  0.00     0.127 S 
ATOM     79  O   UNL A   1      49.695  33.086  29.924  1.00  0.00    -0.237 OA
ATOM     80  O   UNL A   1      51.003  32.036  28.121  1.00  0.00    -0.237 OA
ATOM     81  O   UNL A   1      50.212  34.364  27.894  1.00  0.00    -0.744 OA
ENDBRANCH  75  78
ENDBRANCH  47  71
BRANCH  59  82
ATOM     82  C   UNL A   1      46.092  26.314  31.928  1.00  0.00     0.023 A 
ATOM     83  C   UNL A   1      47.250  26.280  32.736  1.00  0.00     0.012 A 
ATOM     84  C   UNL A   1      44.994  27.080  32.356  1.00  0.00     0.148 A 
ATOM     85  C   UNL A   1      47.305  26.976  33.946  1.00  0.00     0.002 A 
ATOM     86  C   UNL A   1      45.072  27.814  33.534  1.00  0.00     0.091 A 
ATOM     87  F   UNL A   1      43.900  27.105  31.580  1.00  0.00    -0.205 F 
ATOM     88  C   UNL A   1      46.222  27.756  34.337  1.00  0.00     0.022 A 
BRANCH  86  89
ATOM     89  S   UNL A   1      43.771  28.944  34.035  1.00  0.00     0.127 S 
ATOM     90  O   UNL A   1      43.518  29.686  32.802  1.00  0.00    -0.237 OA
ATOM     91  O   UNL A   1      42.699  28.027  34.428  1.00  0.00    -0.237 OA
ATOM     92  O   UNL A   1      44.318  29.729  35.134  1.00  0.00    -0.744 OA
ENDBRANCH  86  89
ENDBRANCH  59  82
ENDBRANCH  33  34
ENDBRANCH  26  28
ENDBRANCH  25  26
ENDBRANCH   1  25
TORSDOF 15
ENDMDL
MODEL 2
REMARK VINA RESULT:     -12.6      2.413      6.977
REMARK SMILES Cc1ccc(C)c(-c2cc(C(=O)OCCOC(=O)c3ccc(-c4c5nc(c(-c6cccc(S(=O)(=O)[O-])c6F)c6ccc([nH]6)c(-c6cccc(S(=O)(=O)[O-])c6F)c6nc(c(-c7cccc(S(=O)(=O)[O-])c7F)c7ccc4[nH]7)C=C6)C=C5)cc3)c3cc(C)ccc3n2)c1
REMARK SMILES IDX 15 1 14 2 13 3 11 4 12 5 10 6 8 7 9 8 89 9 88 10 82 11 87 12
REMARK SMILES IDX 83 13 86 14 84 15 85 16 7 17 1 18 2 19 3 20 90 21 4 22 5 23
REMARK SMILES IDX 6 24 16 25 17 26 18 27 19 28 20 29 81 30 21 31 80 32 22 33
REMARK SMILES IDX 23 34 24 35 74 36 25 37 79 38 73 39 75 40 26 41 78 42 72 43
REMARK SMILES IDX 71 44 27 46 59 47 39 48 58 49 40 50 43 51 57 52 76 53 41 54
REMARK SMILES IDX 42 55 56 57 77 58 44 59 28 60 29 61 37 62 30 63 32 64 38 65
REMARK SMILES IDX 31 66 33 67 34 68 35 69 36 70 60 71 61 72 69 73 62 74 64 75
REMARK SMILES IDX 70 76 63 77 65 78 66 79 67 80 68 81 45 82 46 83 54 84 47 85
REMARK SMILES IDX 49 86 55 87 48 88 50 89 51 90 52 91 53 92
REMARK H PARENT 75 45 43 56
REMARK Flexibility Score: inf
ROOT
ATOM      1  C   UNL A   1      33.489  32.703  28.073  1.00  0.00     0.275 C 
ENDROOT
BRANCH   1   2
ATOM      2  C   UNL A   1      33.165  31.263  27.674  1.00  0.00     0.275 C 
BRANCH   2   3
ATOM      3  O   UNL A   1      34.218  30.807  26.809  1.00  0.00    -0.458 OA
BRANCH   3   4
ATOM      4  C   UNL A   1      34.440  29.328  26.685  1.00  0.00     0.339 C 
ATOM      5  O   UNL A   1      35.310  29.186  27.589  1.00  0.00    -0.246 OA
BRANCH   4   6
ATOM      6  C   UNL A   1      33.414  27.966  25.348  1.00  0.00     0.071 A 
ATOM      7  C   UNL A   1      33.008  25.429  24.590  1.00  0.00     0.072 A 
ATOM      8  C   UNL A   1      33.816  26.498  25.019  1.00  0.00     0.045 A 
ATOM      9  N   UNL A   1      31.770  25.623  24.182  1.00  0.00    -0.248 NA
ATOM     10  C   UNL A   1      31.308  26.847  24.078  1.00  0.00     0.072 A 
ATOM     11  C   UNL A   1      31.938  28.065  24.549  1.00  0.00     0.015 A 
ATOM     12  C   UNL A   1      30.070  26.748  23.444  1.00  0.00     0.029 A 
ATOM     13  C   UNL A   1      30.979  29.148  24.164  1.00  0.00     0.014 A 
ATOM     14  C   UNL A   1      29.268  27.830  23.146  1.00  0.00     0.005 A 
ATOM     15  C   UNL A   1      29.729  29.065  23.499  1.00  0.00    -0.050 A 
ATOM     16  C   UNL A   1      28.932  30.306  23.220  1.00  0.00     0.044 C 
BRANCH   7  17
ATOM     17  C   UNL A   1      33.360  23.985  24.699  1.00  0.00     0.003 A 
ATOM     18  C   UNL A   1      33.805  21.420  27.548  1.00  0.00     0.044 C 
ATOM     19  C   UNL A   1      33.710  22.028  26.178  1.00  0.00    -0.050 A 
ATOM     20  C   UNL A   1      33.826  21.201  25.062  1.00  0.00     0.004 A 
ATOM     21  C   UNL A   1      33.500  23.408  25.989  1.00  0.00     0.014 A 
ATOM     22  C   UNL A   1      33.670  21.733  23.787  1.00  0.00     0.004 A 
ATOM     23  C   UNL A   1      33.402  23.106  23.592  1.00  0.00    -0.042 A 
ATOM     24  C   UNL A   1      33.150  23.542  22.173  1.00  0.00     0.045 C 
ENDBRANCH   7  17
ENDBRANCH   4   6
ENDBRANCH   3   4
ENDBRANCH   2   3
ENDBRANCH   1   2
BRANCH   1  25
ATOM     25  O   UNL A   1      34.526  32.834  29.091  1.00  0.00    -0.458 OA
BRANCH  25  26
ATOM     26  C   UNL A   1      35.838  32.987  28.750  1.00  0.00     0.338 C 
ATOM     27  O   UNL A   1      36.239  33.229  27.624  1.00  0.00    -0.246 OA
BRANCH  26  28
ATOM     28  C   UNL A   1      36.753  32.513  29.807  1.00  0.00     0.060 A 
ATOM     29  C   UNL A   1      38.305  33.440  29.976  1.00  0.00     0.016 A 
ATOM     30  C   UNL A   1      36.724  30.738  30.102  1.00  0.00     0.016 A 
ATOM     31  C   UNL A   1      39.869  32.548  30.421  1.00  0.00     0.010 A 
ATOM     32  C   UNL A   1      38.310  29.857  30.446  1.00  0.00     0.010 A 
ATOM     33  C   UNL A   1      39.868  30.752  30.584  1.00  0.00    -0.014 A 
BRANCH  33  34
ATOM     34  C   UNL A   1      41.043  29.875  30.322  1.00  0.00     0.031 A 
ATOM     35  C   UNL A   1      41.656  29.366  31.574  1.00  0.00     0.074 A 
ATOM     36  C   UNL A   1      41.355  29.194  29.183  1.00  0.00     0.049 A 
ATOM     37  N   UNL A   1      42.693  29.845  32.183  1.00  0.00    -0.248 NA
ATOM     38  C   UNL A   1      40.952  28.319  32.330  1.00  0.00     0.031 C 
ATOM     39  C   UNL A   1      40.666  29.166  27.890  1.00  0.00     0.029 A 
ATOM     40  N   UNL A   1      42.334  28.240  28.992  1.00  0.00    -0.354 N 
ATOM     41  C   UNL A   1      42.872  29.000  33.270  1.00  0.00     0.074 A 
ATOM     42  C   UNL A   1      41.610  28.349  33.489  1.00  0.00     0.031 C 
ATOM     43  C   UNL A   1      41.091  28.114  27.147  1.00  0.00     0.029 A 
ATOM     44  C   UNL A   1      42.193  27.465  27.831  1.00  0.00     0.049 A 
ATOM     45  H   UNL A   1      43.079  28.113  29.622  1.00  0.00     0.167 HD
ATOM     46  C   UNL A   1      44.103  28.606  33.699  1.00  0.00     0.034 A 
ATOM     47  C   UNL A   1      42.919  26.373  27.459  1.00  0.00     0.034 A 
ATOM     48  C   UNL A   1      45.162  29.308  33.018  1.00  0.00     0.049 A 
ATOM     49  C   UNL A   1      44.181  26.415  28.225  1.00  0.00     0.074 A 
ATOM     50  C   UNL A   1      45.473  30.632  32.782  1.00  0.00     0.029 A 
ATOM     51  N   UNL A   1      45.895  28.584  32.107  1.00  0.00    -0.354 N 
ATOM     52  N   UNL A   1      45.115  27.300  28.031  1.00  0.00    -0.248 NA
ATOM     53  C   UNL A   1      44.262  25.671  29.468  1.00  0.00     0.031 C 
ATOM     54  C   UNL A   1      45.991  30.660  31.455  1.00  0.00     0.029 A 
ATOM     55  C   UNL A   1      46.020  29.348  30.978  1.00  0.00     0.049 A 
ATOM     56  H   UNL A   1      46.262  27.680  32.242  1.00  0.00     0.167 HD
ATOM     57  C   UNL A   1      45.594  27.564  29.305  1.00  0.00     0.074 A 
ATOM     58  C   UNL A   1      45.138  26.440  30.120  1.00  0.00     0.031 C 
ATOM     59  C   UNL A   1      46.039  28.811  29.635  1.00  0.00     0.034 A 
BRANCH  46  60
ATOM     60  C   UNL A   1      44.375  27.342  34.479  1.00  0.00     0.023 A 
ATOM     61  C   UNL A   1      45.149  27.464  35.650  1.00  0.00     0.012 A 
ATOM     62  C   UNL A   1      44.088  26.029  34.036  1.00  0.00     0.148 A 
ATOM     63  C   UNL A   1      45.611  26.340  36.343  1.00  0.00     0.002 A 
ATOM     64  C   UNL A   1      44.451  24.920  34.790  1.00  0.00     0.091 A 
ATOM     65  F   UNL A   1      43.587  25.825  32.813  1.00  0.00    -0.205 F 
ATOM     66  C   UNL A   1      45.238  25.067  35.930  1.00  0.00     0.022 A 
BRANCH  64  67
ATOM     67  S   UNL A   1      43.898  23.270  34.338  1.00  0.00     0.127 S 
ATOM     68  O   UNL A   1      42.458  23.377  34.544  1.00  0.00    -0.237 OA
ATOM     69  O   UNL A   1      44.324  23.180  32.942  1.00  0.00    -0.237 OA
ATOM     70  O   UNL A   1      44.618  22.373  35.236  1.00  0.00    -0.744 OA
ENDBRANCH  64  67
ENDBRANCH  46  60
BRANCH  47  71
ATOM     71  C   UNL A   1      42.631  25.193  26.594  1.00  0.00     0.023 A 
ATOM     72  C   UNL A   1      43.535  24.832  25.566  1.00  0.00     0.012 A 
ATOM     73  C   UNL A   1      41.659  24.244  26.973  1.00  0.00     0.148 A 
ATOM     74  C   UNL A   1      43.505  23.561  24.975  1.00  0.00     0.002 A 
ATOM     75  C   UNL A   1      41.634  22.979  26.383  1.00  0.00     0.091 A 
ATOM     76  F   UNL A   1      40.824  24.552  27.974  1.00  0.00    -0.205 F 
ATOM     77  C   UNL A   1      42.564  22.628  25.394  1.00  0.00     0.022 A 
BRANCH  75  78
ATOM     78  S   UNL A   1      40.478  21.698  26.897  1.00  0.00     0.127 S 
ATOM     79  O   UNL A   1      40.894  20.564  26.071  1.00  0.00    -0.237 OA
ATOM     80  O   UNL A   1      40.786  21.564  28.318  1.00  0.00    -0.237 OA
ATOM     81  O   UNL A   1      39.152  22.214  26.586  1.00  0.00    -0.744 OA
ENDBRANCH  75  78
ENDBRANCH  47  71
BRANCH  59  82
ATOM     82  C   UNL A   1      46.279  29.801  28.517  1.00  0.00     0.023 A 
ATOM     83  C   UNL A   1      45.229  30.522  27.908  1.00  0.00     0.012 A 
ATOM     84  C   UNL A   1      47.604  30.143  28.197  1.00  0.00     0.148 A 
ATOM     85  C   UNL A   1      45.492  31.544  26.992  1.00  0.00     0.002 A 
ATOM     86  C   UNL A   1      47.864  31.194  27.327  1.00  0.00     0.091 A 
ATOM     87  F   UNL A   1      48.594  29.450  28.782  1.00  0.00    -0.205 F 
ATOM     88  C   UNL A   1      46.810  31.891  26.714  1.00  0.00     0.022 A 
BRANCH  86  89
ATOM     89  S   UNL A   1      49.531  31.785  27.023  1.00  0.00     0.127 S 
ATOM     90  O   UNL A   1      50.154  30.629  26.382  1.00  0.00    -0.237 OA
ATOM     91  O   UNL A   1      49.298  32.926  26.135  1.00  0.00    -0.237 OA
ATOM     92  O   UNL A   1      50.077  32.144  28.326  1.00  0.00    -0.744 OA
ENDBRANCH  86  89
ENDBRANCH  59  82
ENDBRANCH  33  34
ENDBRANCH  26  28
ENDBRANCH  25  26
ENDBRANCH   1  25
TORSDOF 15
ENDMDL
MODEL 3
REMARK VINA RESULT:     -12.5      2.893      7.774
REMARK SMILES Cc1ccc(C)c(-c2cc(C(=O)OCCOC(=O)c3ccc(-c4c5nc(c(-c6cccc(S(=O)(=O)[O-])c6F)c6ccc([nH]6)c(-c6cccc(S(=O)(=O)[O-])c6F)c6nc(c(-c7cccc(S(=O)(=O)[O-])c7F)c7ccc4[nH]7)C=C6)C=C5)cc3)c3cc(C)ccc3n2)c1
REMARK SMILES IDX 15 1 14 2 13 3 11 4 12 5 10 6 8 7 9 8 89 9 88 10 82 11 87 12
REMARK SMILES IDX 83 13 86 14 84 15 85 16 7 17 1 18 2 19 3 20 90 21 4 22 5 23
REMARK SMILES IDX 6 24 16 25 17 26 18 27 19 28 20 29 81 30 21 31 80 32 22 33
REMARK SMILES IDX 23 34 24 35 74 36 25 37 79 38 73 39 75 40 26 41 78 42 72 43
REMARK SMILES IDX 71 44 27 46 59 47 39 48 58 49 40 50 43 51 57 52 76 53 41 54
REMARK SMILES IDX 42 55 56 57 77 58 44 59 28 60 29 61 37 62 30 63 32 64 38 65
REMARK SMILES IDX 31 66 33 67 34 68 35 69 36 70 60 71 61 72 69 73 62 74 64 75
REMARK SMILES IDX 70 76 63 77 65 78 66 79 67 80 68 81 45 82 46 83 54 84 47 85
REMARK SMILES IDX 49 86 55 87 48 88 50 89 51 90 52 91 53 92
REMARK H PARENT 75 45 43 56
REMARK Flexibility Score: inf
ROOT
ATOM      1  C   UNL A   1      35.327  32.155  28.001  1.00  0.00     0.275 C 
ENDROOT
BRANCH   1   2
ATOM      2  C   UNL A   1      34.162  31.427  27.328  1.00  0.00     0.275 C 
BRANCH   2   3
ATOM      3  O   UNL A   1      34.088  30.110  27.898  1.00  0.00    -0.458 OA
BRANCH   3   4
ATOM      4  C   UNL A   1      34.449  28.943  27.027  1.00  0.00     0.339 C 
ATOM      5  O   UNL A   1      35.668  28.840  27.335  1.00  0.00    -0.246 OA
BRANCH   4   6
ATOM      6  C   UNL A   1      33.114  27.820  25.739  1.00  0.00     0.071 A 
ATOM      7  C   UNL A   1      30.907  27.831  24.222  1.00  0.00     0.072 A 
ATOM      8  C   UNL A   1      31.649  28.187  25.364  1.00  0.00     0.045 A 
ATOM      9  N   UNL A   1      31.330  26.901  23.390  1.00  0.00    -0.248 NA
ATOM     10  C   UNL A   1      32.415  26.220  23.677  1.00  0.00     0.072 A 
ATOM     11  C   UNL A   1      33.362  26.489  24.742  1.00  0.00     0.015 A 
ATOM     12  C   UNL A   1      32.497  25.194  22.738  1.00  0.00     0.029 A 
ATOM     13  C   UNL A   1      34.388  25.408  24.604  1.00  0.00     0.014 A 
ATOM     14  C   UNL A   1      33.504  24.252  22.710  1.00  0.00     0.005 A 
ATOM     15  C   UNL A   1      34.472  24.345  23.669  1.00  0.00    -0.050 A 
ATOM     16  C   UNL A   1      35.612  23.370  23.726  1.00  0.00     0.044 C 
BRANCH   7  17
ATOM     17  C   UNL A   1      29.694  28.540  23.727  1.00  0.00     0.003 A 
ATOM     18  C   UNL A   1      28.915  31.950  22.097  1.00  0.00     0.044 C 
ATOM     19  C   UNL A   1      28.753  30.563  22.650  1.00  0.00    -0.050 A 
ATOM     20  C   UNL A   1      27.508  29.942  22.562  1.00  0.00     0.004 A 
ATOM     21  C   UNL A   1      29.824  29.869  23.245  1.00  0.00     0.014 A 
ATOM     22  C   UNL A   1      27.356  28.632  23.004  1.00  0.00     0.004 A 
ATOM     23  C   UNL A   1      28.439  27.910  23.551  1.00  0.00    -0.042 A 
ATOM     24  C   UNL A   1      28.176  26.469  23.895  1.00  0.00     0.045 C 
ENDBRANCH   7  17
ENDBRANCH   4   6
ENDBRANCH   3   4
ENDBRANCH   2   3
ENDBRANCH   1   2
BRANCH   1  25
ATOM     25  O   UNL A   1      35.906  31.454  29.141  1.00  0.00    -0.458 OA
BRANCH  25  26
ATOM     26  C   UNL A   1      35.797  31.950  30.408  1.00  0.00     0.338 C 
ATOM     27  O   UNL A   1      34.878  32.647  30.803  1.00  0.00    -0.246 OA
BRANCH  26  28
ATOM     28  C   UNL A   1      37.057  31.835  31.167  1.00  0.00     0.060 A 
ATOM     29  C   UNL A   1      38.478  32.725  30.471  1.00  0.00     0.016 A 
ATOM     30  C   UNL A   1      37.300  30.263  32.010  1.00  0.00     0.016 A 
ATOM     31  C   UNL A   1      40.177  31.995  30.600  1.00  0.00     0.010 A 
ATOM     32  C   UNL A   1      38.985  29.508  32.039  1.00  0.00     0.010 A 
ATOM     33  C   UNL A   1      40.405  30.359  31.323  1.00  0.00    -0.014 A 
BRANCH  33  34
ATOM     34  C   UNL A   1      41.499  29.415  30.963  1.00  0.00     0.031 A 
ATOM     35  C   UNL A   1      42.077  28.742  32.153  1.00  0.00     0.074 A 
ATOM     36  C   UNL A   1      41.743  28.819  29.761  1.00  0.00     0.049 A 
ATOM     37  N   UNL A   1      43.155  29.074  32.787  1.00  0.00    -0.248 NA
ATOM     38  C   UNL A   1      41.292  27.691  32.820  1.00  0.00     0.031 C 
ATOM     39  C   UNL A   1      41.045  28.970  28.482  1.00  0.00     0.029 A 
ATOM     40  N   UNL A   1      42.637  27.809  29.467  1.00  0.00    -0.354 N 
ATOM     41  C   UNL A   1      43.270  28.119  33.789  1.00  0.00     0.074 A 
ATOM     42  C   UNL A   1      41.960  27.558  33.966  1.00  0.00     0.031 C 
ATOM     43  C   UNL A   1      41.374  27.960  27.639  1.00  0.00     0.029 A 
ATOM     44  C   UNL A   1      42.422  27.161  28.242  1.00  0.00     0.049 A 
ATOM     45  H   UNL A   1      43.374  27.563  30.072  1.00  0.00     0.167 HD
ATOM     46  C   UNL A   1      44.467  27.586  34.160  1.00  0.00     0.034 A 
ATOM     47  C   UNL A   1      43.051  26.052  27.760  1.00  0.00     0.034 A 
ATOM     48  C   UNL A   1      45.576  28.258  33.531  1.00  0.00     0.049 A 
ATOM     49  C   UNL A   1      44.318  25.917  28.507  1.00  0.00     0.074 A 
ATOM     50  C   UNL A   1      45.996  29.567  33.413  1.00  0.00     0.029 A 
ATOM     51  N   UNL A   1      46.238  27.563  32.546  1.00  0.00    -0.354 N 
ATOM     52  N   UNL A   1      45.322  26.735  28.381  1.00  0.00    -0.248 NA
ATOM     53  C   UNL A   1      44.346  25.056  29.675  1.00  0.00     0.031 C 
ATOM     54  C   UNL A   1      46.504  29.676  32.086  1.00  0.00     0.029 A 
ATOM     55  C   UNL A   1      46.418  28.417  31.490  1.00  0.00     0.049 A 
ATOM     56  H   UNL A   1      46.529  26.624  32.591  1.00  0.00     0.167 HD
ATOM     57  C   UNL A   1      45.830  26.838  29.666  1.00  0.00     0.074 A 
ATOM     58  C   UNL A   1      45.288  25.685  30.381  1.00  0.00     0.031 C 
ATOM     59  C   UNL A   1      46.382  28.007  30.103  1.00  0.00     0.034 A 
BRANCH  46  60
ATOM     60  C   UNL A   1      44.637  26.236  34.816  1.00  0.00     0.023 A 
ATOM     61  C   UNL A   1      44.187  25.112  34.095  1.00  0.00     0.012 A 
ATOM     62  C   UNL A   1      45.026  26.021  36.159  1.00  0.00     0.148 A 
ATOM     63  C   UNL A   1      44.129  23.842  34.679  1.00  0.00     0.002 A 
ATOM     64  C   UNL A   1      45.075  24.741  36.698  1.00  0.00     0.091 A 
ATOM     65  F   UNL A   1      45.217  27.060  36.979  1.00  0.00    -0.205 F 
ATOM     66  C   UNL A   1      44.600  23.651  35.972  1.00  0.00     0.022 A 
BRANCH  64  67
ATOM     67  S   UNL A   1      45.773  24.447  38.327  1.00  0.00     0.127 S 
ATOM     68  O   UNL A   1      44.806  25.121  39.187  1.00  0.00    -0.237 OA
ATOM     69  O   UNL A   1      45.763  22.986  38.402  1.00  0.00    -0.237 OA
ATOM     70  O   UNL A   1      47.111  25.028  38.274  1.00  0.00    -0.744 OA
ENDBRANCH  64  67
ENDBRANCH  46  60
BRANCH  47  71
ATOM     71  C   UNL A   1      42.657  24.986  26.794  1.00  0.00     0.023 A 
ATOM     72  C   UNL A   1      43.460  24.731  25.656  1.00  0.00     0.012 A 
ATOM     73  C   UNL A   1      41.696  24.016  27.146  1.00  0.00     0.148 A 
ATOM     74  C   UNL A   1      43.345  23.538  24.928  1.00  0.00     0.002 A 
ATOM     75  C   UNL A   1      41.586  22.828  26.420  1.00  0.00     0.091 A 
ATOM     76  F   UNL A   1      40.958  24.220  28.245  1.00  0.00    -0.205 F 
ATOM     77  C   UNL A   1      42.418  22.579  25.319  1.00  0.00     0.022 A 
BRANCH  75  78
ATOM     78  S   UNL A   1      40.443  21.517  26.883  1.00  0.00     0.127 S 
ATOM     79  O   UNL A   1      40.747  21.337  28.303  1.00  0.00    -0.237 OA
ATOM     80  O   UNL A   1      39.147  22.133  26.609  1.00  0.00    -0.237 OA
ATOM     81  O   UNL A   1      40.788  20.377  26.045  1.00  0.00    -0.744 OA
ENDBRANCH  75  78
ENDBRANCH  47  71
BRANCH  59  82
ATOM     82  C   UNL A   1      46.696  29.074  29.078  1.00  0.00     0.023 A 
ATOM     83  C   UNL A   1      47.954  29.165  28.442  1.00  0.00     0.012 A 
ATOM     84  C   UNL A   1      45.648  29.888  28.615  1.00  0.00     0.148 A 
ATOM     85  C   UNL A   1      48.167  30.055  27.387  1.00  0.00     0.002 A 
ATOM     86  C   UNL A   1      45.848  30.734  27.531  1.00  0.00     0.091 A 
ATOM     87  F   UNL A   1      44.457  29.793  29.226  1.00  0.00    -0.205 F 
ATOM     88  C   UNL A   1      47.109  30.828  26.921  1.00  0.00     0.022 A 
BRANCH  86  89
ATOM     89  S   UNL A   1      44.501  31.660  26.790  1.00  0.00     0.127 S 
ATOM     90  O   UNL A   1      45.150  32.273  25.633  1.00  0.00    -0.237 OA
ATOM     91  O   UNL A   1      43.541  30.603  26.464  1.00  0.00    -0.237 OA
ATOM     92  O   UNL A   1      44.040  32.591  27.812  1.00  0.00    -0.744 OA
ENDBRANCH  86  89
ENDBRANCH  59  82
ENDBRANCH  33  34
ENDBRANCH  26  28
ENDBRANCH  25  26
ENDBRANCH   1  25
TORSDOF 15
ENDMDL
