MODEL 1
REMARK VINA RESULT:     -11.4      0.000      0.000
REMARK SMILES C[C@@H](NC1=[NH+]CCC1)C(=O)OCCOC(=O)c1ccc(-c2c3nc(c(-c4cccc(S(=O)(=O)[O-])c4F)c4ccc([nH]4)c(-c4cccc(S(=O)(=O)[O-])c4F)c4nc(c(-c5cccc(S(=O)(=O)[O-])c5F)c5ccc2[nH]5)C=C4)C=C3)cc1
REMARK SMILES IDX 13 1 12 2 11 3 9 4 10 5 2 6 1 7 3 8 4 9 5 11 8 12 6 13 7 15
REMARK SMILES IDX 14 16 15 17 16 18 17 19 18 20 79 21 19 22 78 23 20 24 21 25
REMARK SMILES IDX 22 26 72 27 23 28 77 29 71 30 73 31 24 32 76 33 70 34 69 35
REMARK SMILES IDX 25 37 57 38 37 39 56 40 38 41 41 42 55 43 74 44 39 45 40 46
REMARK SMILES IDX 54 48 75 49 42 50 26 51 27 52 35 53 28 54 30 55 36 56 29 57
REMARK SMILES IDX 31 58 32 59 33 60 34 61 58 62 59 63 67 64 60 65 62 66 68 67
REMARK SMILES IDX 61 68 63 69 64 70 65 71 66 72 43 73 44 74 52 75 45 76 47 77
REMARK SMILES IDX 53 78 46 79 48 80 49 81 50 82 51 83
REMARK H PARENT 3 10 5 14 73 36 41 47
REMARK Flexibility Score: inf
ROOT
ATOM      1  C   UNL A   1      32.118  30.501  26.094  1.00  0.00     0.275 C 
ENDROOT
BRANCH   1   2
ATOM      2  C   UNL A   1      32.559  29.258  25.309  1.00  0.00     0.274 C 
BRANCH   2   3
ATOM      3  O   UNL A   1      32.216  29.313  23.910  1.00  0.00    -0.459 OA
BRANCH   3   4
ATOM      4  C   UNL A   1      31.746  28.153  23.372  1.00  0.00     0.350 C 
ATOM      5  O   UNL A   1      32.246  27.051  23.572  1.00  0.00    -0.247 OA
BRANCH   4   6
ATOM      6  C   UNL A   1      30.557  28.361  22.427  1.00  0.00     0.279 C 
ATOM      7  C   UNL A   1      29.238  28.017  23.122  1.00  0.00     0.071 C 
BRANCH   6   8
ATOM      8  N   UNL A   1      30.451  29.712  21.879  1.00  0.00    -0.265 N 
ATOM      9  C   UNL A   1      29.575  30.695  22.216  1.00  0.00     0.243 C 
ATOM     10  H   UNL A   1      31.099  29.940  21.173  1.00  0.00     0.305 HD
ATOM     11  N   UNL A   1      29.064  31.439  21.277  1.00  0.00    -0.279 N 
ATOM     12  C   UNL A   1      29.164  31.055  23.617  1.00  0.00     0.131 C 
ATOM     13  C   UNL A   1      28.112  32.334  21.963  1.00  0.00     0.234 C 
ATOM     14  H   UNL A   1      29.269  31.412  20.315  1.00  0.00     0.304 HD
ATOM     15  C   UNL A   1      27.824  31.667  23.295  1.00  0.00     0.058 C 
ENDBRANCH   6   8
ENDBRANCH   4   6
ENDBRANCH   3   4
ENDBRANCH   2   3
ENDBRANCH   1   2
BRANCH   1  16
ATOM     16  O   UNL A   1      32.746  30.581  27.387  1.00  0.00    -0.458 OA
BRANCH  16  17
ATOM     17  C   UNL A   1      33.544  31.661  27.558  1.00  0.00     0.338 C 
ATOM     18  O   UNL A   1      33.189  32.829  27.574  1.00  0.00    -0.246 OA
BRANCH  17  19
ATOM     19  C   UNL A   1      34.914  31.249  27.915  1.00  0.00     0.060 A 
ATOM     20  C   UNL A   1      35.124  29.890  28.173  1.00  0.00     0.016 A 
ATOM     21  C   UNL A   1      35.954  32.168  28.075  1.00  0.00     0.016 A 
ATOM     22  C   UNL A   1      36.360  29.441  28.620  1.00  0.00     0.010 A 
ATOM     23  C   UNL A   1      37.195  31.717  28.540  1.00  0.00     0.010 A 
ATOM     24  C   UNL A   1      37.391  30.358  28.844  1.00  0.00    -0.014 A 
BRANCH  24  25
ATOM     25  C   UNL A   1      38.610  29.890  29.542  1.00  0.00     0.031 A 
ATOM     26  C   UNL A   1      38.893  30.398  30.929  1.00  0.00     0.074 A 
ATOM     27  C   UNL A   1      39.416  28.977  28.972  1.00  0.00     0.049 A 
ATOM     28  N   UNL A   1      39.877  30.100  31.734  1.00  0.00    -0.248 NA
ATOM     29  C   UNL A   1      37.936  31.371  31.482  1.00  0.00     0.031 C 
ATOM     30  C   UNL A   1      39.221  28.390  27.646  1.00  0.00     0.029 A 
ATOM     31  N   UNL A   1      40.561  28.384  29.439  1.00  0.00    -0.354 N 
ATOM     32  C   UNL A   1      39.682  30.873  32.872  1.00  0.00     0.074 A 
ATOM     33  C   UNL A   1      38.487  31.656  32.653  1.00  0.00     0.031 C 
ATOM     34  C   UNL A   1      40.222  27.527  27.401  1.00  0.00     0.029 A 
ATOM     35  C   UNL A   1      41.137  27.516  28.540  1.00  0.00     0.049 A 
ATOM     36  H   UNL A   1      40.935  28.561  30.332  1.00  0.00     0.167 HD
ATOM     37  C   UNL A   1      40.427  30.919  34.001  1.00  0.00     0.034 A 
ATOM     38  C   UNL A   1      42.278  26.806  28.628  1.00  0.00     0.034 A 
ATOM     39  C   UNL A   1      41.595  30.112  34.228  1.00  0.00     0.049 A 
ATOM     40  C   UNL A   1      43.091  26.883  29.896  1.00  0.00     0.074 A 
ATOM     41  C   UNL A   1      42.395  30.054  35.355  1.00  0.00     0.029 A 
ATOM     42  N   UNL A   1      42.132  29.226  33.307  1.00  0.00    -0.354 N 
ATOM     43  N   UNL A   1      42.838  27.541  31.001  1.00  0.00    -0.248 NA
ATOM     44  C   UNL A   1      44.328  26.091  29.938  1.00  0.00     0.031 C 
ATOM     45  C   UNL A   1      43.431  29.146  35.107  1.00  0.00     0.029 A 
ATOM     46  C   UNL A   1      43.260  28.622  33.835  1.00  0.00     0.049 A 
ATOM     47  H   UNL A   1      41.766  29.052  32.410  1.00  0.00     0.167 HD
ATOM     48  C   UNL A   1      43.862  27.213  31.884  1.00  0.00     0.074 A 
ATOM     49  C   UNL A   1      44.728  26.283  31.189  1.00  0.00     0.031 C 
ATOM     50  C   UNL A   1      44.076  27.652  33.149  1.00  0.00     0.034 A 
BRANCH  37  51
ATOM     51  C   UNL A   1      39.990  31.869  35.083  1.00  0.00     0.023 A 
ATOM     52  C   UNL A   1      40.429  33.209  35.061  1.00  0.00     0.012 A 
ATOM     53  C   UNL A   1      39.117  31.445  36.103  1.00  0.00     0.148 A 
ATOM     54  C   UNL A   1      40.031  34.102  36.056  1.00  0.00     0.002 A 
ATOM     55  C   UNL A   1      38.691  32.351  37.067  1.00  0.00     0.091 A 
ATOM     56  F   UNL A   1      38.733  30.160  36.123  1.00  0.00    -0.205 F 
ATOM     57  C   UNL A   1      39.156  33.675  37.052  1.00  0.00     0.022 A 
BRANCH  55  58
ATOM     58  S   UNL A   1      37.509  31.912  38.346  1.00  0.00     0.127 S 
ATOM     59  O   UNL A   1      38.309  32.079  39.558  1.00  0.00    -0.237 OA
ATOM     60  O   UNL A   1      36.464  32.920  38.161  1.00  0.00    -0.237 OA
ATOM     61  O   UNL A   1      37.091  30.548  38.053  1.00  0.00    -0.744 OA
ENDBRANCH  55  58
ENDBRANCH  37  51
BRANCH  38  62
ATOM     62  C   UNL A   1      42.696  25.920  27.504  1.00  0.00     0.023 A 
ATOM     63  C   UNL A   1      43.595  26.406  26.535  1.00  0.00     0.012 A 
ATOM     64  C   UNL A   1      42.220  24.599  27.397  1.00  0.00     0.148 A 
ATOM     65  C   UNL A   1      43.989  25.603  25.464  1.00  0.00     0.002 A 
ATOM     66  C   UNL A   1      42.660  23.787  26.358  1.00  0.00     0.091 A 
ATOM     67  F   UNL A   1      41.349  24.161  28.317  1.00  0.00    -0.205 F 
ATOM     68  C   UNL A   1      43.531  24.292  25.381  1.00  0.00     0.022 A 
BRANCH  66  69
ATOM     69  S   UNL A   1      42.216  22.050  26.242  1.00  0.00     0.127 S 
ATOM     70  O   UNL A   1      40.781  22.123  25.983  1.00  0.00    -0.237 OA
ATOM     71  O   UNL A   1      43.026  21.606  25.106  1.00  0.00    -0.237 OA
ATOM     72  O   UNL A   1      42.602  21.461  27.518  1.00  0.00    -0.744 OA
ENDBRANCH  66  69
ENDBRANCH  38  62
BRANCH  50  73
ATOM     73  C   UNL A   1      45.269  27.101  33.886  1.00  0.00     0.023 A 
ATOM     74  C   UNL A   1      46.501  27.782  33.836  1.00  0.00     0.012 A 
ATOM     75  C   UNL A   1      45.148  25.948  34.687  1.00  0.00     0.148 A 
ATOM     76  C   UNL A   1      47.604  27.304  34.542  1.00  0.00     0.002 A 
ATOM     77  C   UNL A   1      46.238  25.505  35.426  1.00  0.00     0.091 A 
ATOM     78  F   UNL A   1      43.974  25.300  34.707  1.00  0.00    -0.205 F 
ATOM     79  C   UNL A   1      47.470  26.174  35.345  1.00  0.00     0.022 A 
BRANCH  77  80
ATOM     80  S   UNL A   1      46.121  24.118  36.562  1.00  0.00     0.127 S 
ATOM     81  O   UNL A   1      45.958  22.993  35.644  1.00  0.00    -0.237 OA
ATOM     82  O   UNL A   1      47.412  24.162  37.249  1.00  0.00    -0.237 OA
ATOM     83  O   UNL A   1      44.976  24.404  37.417  1.00  0.00    -0.744 OA
ENDBRANCH  77  80
ENDBRANCH  50  73
ENDBRANCH  24  25
ENDBRANCH  17  19
ENDBRANCH  16  17
ENDBRANCH   1  16
TORSDOF 15
ENDMDL
MODEL 2
REMARK VINA RESULT:     -11.4      6.560     11.423
REMARK SMILES C[C@@H](NC1=[NH+]CCC1)C(=O)OCCOC(=O)c1ccc(-c2c3nc(c(-c4cccc(S(=O)(=O)[O-])c4F)c4ccc([nH]4)c(-c4cccc(S(=O)(=O)[O-])c4F)c4nc(c(-c5cccc(S(=O)(=O)[O-])c5F)c5ccc2[nH]5)C=C4)C=C3)cc1
REMARK SMILES IDX 13 1 12 2 11 3 9 4 10 5 2 6 1 7 3 8 4 9 5 11 8 12 6 13 7 15
REMARK SMILES IDX 14 16 15 17 16 18 17 19 18 20 79 21 19 22 78 23 20 24 21 25
REMARK SMILES IDX 22 26 72 27 23 28 77 29 71 30 73 31 24 32 76 33 70 34 69 35
REMARK SMILES IDX 25 37 57 38 37 39 56 40 38 41 41 42 55 43 74 44 39 45 40 46
REMARK SMILES IDX 54 48 75 49 42 50 26 51 27 52 35 53 28 54 30 55 36 56 29 57
REMARK SMILES IDX 31 58 32 59 33 60 34 61 58 62 59 63 67 64 60 65 62 66 68 67
REMARK SMILES IDX 61 68 63 69 64 70 65 71 66 72 43 73 44 74 52 75 45 76 47 77
REMARK SMILES IDX 53 78 46 79 48 80 49 81 50 82 51 83
REMARK H PARENT 3 10 5 14 73 36 41 47
REMARK Flexibility Score: inf
ROOT
ATOM      1  C   UNL A   1      37.049  20.705  25.202  1.00  0.00     0.275 C 
ENDROOT
BRANCH   1   2
ATOM      2  C   UNL A   1      36.020  21.702  25.753  1.00  0.00     0.274 C 
BRANCH   2   3
ATOM      3  O   UNL A   1      34.681  21.468  25.273  1.00  0.00    -0.459 OA
BRANCH   3   4
ATOM      4  C   UNL A   1      33.749  21.202  26.230  1.00  0.00     0.350 C 
ATOM      5  O   UNL A   1      33.792  21.647  27.373  1.00  0.00    -0.247 OA
BRANCH   4   6
ATOM      6  C   UNL A   1      32.660  20.231  25.763  1.00  0.00     0.279 C 
ATOM      7  C   UNL A   1      32.511  20.266  24.241  1.00  0.00     0.071 C 
BRANCH   6   8
ATOM      8  N   UNL A   1      32.871  18.843  26.173  1.00  0.00    -0.265 N 
ATOM      9  C   UNL A   1      33.308  17.797  25.424  1.00  0.00     0.243 C 
ATOM     10  H   UNL A   1      32.672  18.641  27.116  1.00  0.00     0.305 HD
ATOM     11  N   UNL A   1      32.760  16.627  25.588  1.00  0.00    -0.279 N 
ATOM     12  C   UNL A   1      34.435  17.846  24.430  1.00  0.00     0.131 C 
ATOM     13  C   UNL A   1      33.397  15.754  24.583  1.00  0.00     0.234 C 
ATOM     14  H   UNL A   1      32.069  16.377  26.242  1.00  0.00     0.304 HD
ATOM     15  C   UNL A   1      33.999  16.696  23.557  1.00  0.00     0.058 C 
ENDBRANCH   6   8
ENDBRANCH   4   6
ENDBRANCH   3   4
ENDBRANCH   2   3
ENDBRANCH   1   2
BRANCH   1  16
ATOM     16  O   UNL A   1      38.334  21.315  24.978  1.00  0.00    -0.458 OA
BRANCH  16  17
ATOM     17  C   UNL A   1      39.258  21.044  25.929  1.00  0.00     0.338 C 
ATOM     18  O   UNL A   1      39.780  19.961  26.144  1.00  0.00    -0.246 OA
BRANCH  17  19
ATOM     19  C   UNL A   1      39.716  22.283  26.584  1.00  0.00     0.060 A 
ATOM     20  C   UNL A   1      39.160  23.486  26.132  1.00  0.00     0.016 A 
ATOM     21  C   UNL A   1      40.718  22.290  27.556  1.00  0.00     0.016 A 
ATOM     22  C   UNL A   1      39.618  24.701  26.622  1.00  0.00     0.010 A 
ATOM     23  C   UNL A   1      41.191  23.516  28.039  1.00  0.00     0.010 A 
ATOM     24  C   UNL A   1      40.664  24.725  27.550  1.00  0.00    -0.014 A 
BRANCH  24  25
ATOM     25  C   UNL A   1      41.290  26.028  27.872  1.00  0.00     0.031 A 
ATOM     26  C   UNL A   1      42.674  26.314  27.361  1.00  0.00     0.074 A 
ATOM     27  C   UNL A   1      40.606  26.963  28.555  1.00  0.00     0.049 A 
ATOM     28  N   UNL A   1      43.397  27.394  27.493  1.00  0.00    -0.248 NA
ATOM     29  C   UNL A   1      43.329  25.241  26.594  1.00  0.00     0.031 C 
ATOM     30  C   UNL A   1      39.246  26.806  29.072  1.00  0.00     0.029 A 
ATOM     31  N   UNL A   1      40.967  28.231  28.933  1.00  0.00    -0.354 N 
ATOM     32  C   UNL A   1      44.605  27.119  26.864  1.00  0.00     0.074 A 
ATOM     33  C   UNL A   1      44.518  25.771  26.349  1.00  0.00     0.031 C 
ATOM     34  C   UNL A   1      38.890  27.935  29.710  1.00  0.00     0.029 A 
ATOM     35  C   UNL A   1      40.002  28.882  29.666  1.00  0.00     0.049 A 
ATOM     36  H   UNL A   1      41.833  28.638  28.701  1.00  0.00     0.167 HD
ATOM     37  C   UNL A   1      45.685  27.922  26.717  1.00  0.00     0.034 A 
ATOM     38  C   UNL A   1      40.023  30.099  30.242  1.00  0.00     0.034 A 
ATOM     39  C   UNL A   1      45.752  29.275  27.200  1.00  0.00     0.049 A 
ATOM     40  C   UNL A   1      41.242  30.969  30.069  1.00  0.00     0.074 A 
ATOM     41  C   UNL A   1      46.784  30.186  27.066  1.00  0.00     0.029 A 
ATOM     42  N   UNL A   1      44.746  29.909  27.913  1.00  0.00    -0.354 N 
ATOM     43  N   UNL A   1      42.335  30.733  29.384  1.00  0.00    -0.248 NA
ATOM     44  C   UNL A   1      41.215  32.286  30.721  1.00  0.00     0.031 C 
ATOM     45  C   UNL A   1      46.411  31.366  27.719  1.00  0.00     0.029 A 
ATOM     46  C   UNL A   1      45.136  31.197  28.236  1.00  0.00     0.049 A 
ATOM     47  H   UNL A   1      43.883  29.503  28.154  1.00  0.00     0.167 HD
ATOM     48  C   UNL A   1      43.108  31.885  29.489  1.00  0.00     0.074 A 
ATOM     49  C   UNL A   1      42.349  32.823  30.289  1.00  0.00     0.031 C 
ATOM     50  C   UNL A   1      44.341  32.138  28.983  1.00  0.00     0.034 A 
BRANCH  37  51
ATOM     51  C   UNL A   1      46.877  27.358  25.995  1.00  0.00     0.023 A 
ATOM     52  C   UNL A   1      47.733  26.451  26.654  1.00  0.00     0.012 A 
ATOM     53  C   UNL A   1      47.133  27.698  24.653  1.00  0.00     0.148 A 
ATOM     54  C   UNL A   1      48.842  25.917  25.997  1.00  0.00     0.002 A 
ATOM     55  C   UNL A   1      48.216  27.131  23.992  1.00  0.00     0.091 A 
ATOM     56  F   UNL A   1      46.325  28.585  24.053  1.00  0.00    -0.205 F 
ATOM     57  C   UNL A   1      49.077  26.250  24.665  1.00  0.00     0.022 A 
BRANCH  55  58
ATOM     58  S   UNL A   1      48.557  27.443  22.257  1.00  0.00     0.127 S 
ATOM     59  O   UNL A   1      47.397  28.242  21.866  1.00  0.00    -0.237 OA
ATOM     60  O   UNL A   1      49.817  28.185  22.318  1.00  0.00    -0.237 OA
ATOM     61  O   UNL A   1      48.659  26.133  21.628  1.00  0.00    -0.744 OA
ENDBRANCH  55  58
ENDBRANCH  37  51
BRANCH  38  62
ATOM     62  C   UNL A   1      38.834  30.591  30.995  1.00  0.00     0.023 A 
ATOM     63  C   UNL A   1      38.783  30.433  32.393  1.00  0.00     0.012 A 
ATOM     64  C   UNL A   1      37.761  31.223  30.337  1.00  0.00     0.148 A 
ATOM     65  C   UNL A   1      37.675  30.870  33.120  1.00  0.00     0.002 A 
ATOM     66  C   UNL A   1      36.684  31.705  31.073  1.00  0.00     0.091 A 
ATOM     67  F   UNL A   1      37.817  31.346  29.003  1.00  0.00    -0.205 F 
ATOM     68  C   UNL A   1      36.631  31.514  32.462  1.00  0.00     0.022 A 
BRANCH  66  69
ATOM     69  S   UNL A   1      35.356  32.654  30.324  1.00  0.00     0.127 S 
ATOM     70  O   UNL A   1      36.027  33.913  30.012  1.00  0.00    -0.237 OA
ATOM     71  O   UNL A   1      35.015  31.832  29.162  1.00  0.00    -0.237 OA
ATOM     72  O   UNL A   1      34.307  32.726  31.334  1.00  0.00    -0.744 OA
ENDBRANCH  66  69
ENDBRANCH  38  62
BRANCH  50  73
ATOM     73  C   UNL A   1      44.932  33.500  29.239  1.00  0.00     0.023 A 
ATOM     74  C   UNL A   1      45.633  33.748  30.436  1.00  0.00     0.012 A 
ATOM     75  C   UNL A   1      44.856  34.512  28.261  1.00  0.00     0.148 A 
ATOM     76  C   UNL A   1      46.217  34.992  30.671  1.00  0.00     0.002 A 
ATOM     77  C   UNL A   1      45.483  35.732  28.482  1.00  0.00     0.091 A 
ATOM     78  F   UNL A   1      44.168  34.267  27.136  1.00  0.00    -0.205 F 
ATOM     79  C   UNL A   1      46.152  35.979  29.691  1.00  0.00     0.022 A 
BRANCH  77  80
ATOM     80  S   UNL A   1      45.532  37.019  27.229  1.00  0.00     0.127 S 
ATOM     81  O   UNL A   1      46.311  38.059  27.898  1.00  0.00    -0.237 OA
ATOM     82  O   UNL A   1      46.224  36.357  26.122  1.00  0.00    -0.237 OA
ATOM     83  O   UNL A   1      44.141  37.354  26.952  1.00  0.00    -0.744 OA
ENDBRANCH  77  80
ENDBRANCH  50  73
ENDBRANCH  24  25
ENDBRANCH  17  19
ENDBRANCH  16  17
ENDBRANCH   1  16
TORSDOF 15
ENDMDL
MODEL 3
REMARK VINA RESULT:     -11.4      6.406     11.957
REMARK SMILES C[C@@H](NC1=[NH+]CCC1)C(=O)OCCOC(=O)c1ccc(-c2c3nc(c(-c4cccc(S(=O)(=O)[O-])c4F)c4ccc([nH]4)c(-c4cccc(S(=O)(=O)[O-])c4F)c4nc(c(-c5cccc(S(=O)(=O)[O-])c5F)c5ccc2[nH]5)C=C4)C=C3)cc1
REMARK SMILES IDX 13 1 12 2 11 3 9 4 10 5 2 6 1 7 3 8 4 9 5 11 8 12 6 13 7 15
REMARK SMILES IDX 14 16 15 17 16 18 17 19 18 20 79 21 19 22 78 23 20 24 21 25
REMARK SMILES IDX 22 26 72 27 23 28 77 29 71 30 73 31 24 32 76 33 70 34 69 35
REMARK SMILES IDX 25 37 57 38 37 39 56 40 38 41 41 42 55 43 74 44 39 45 40 46
REMARK SMILES IDX 54 48 75 49 42 50 26 51 27 52 35 53 28 54 30 55 36 56 29 57
REMARK SMILES IDX 31 58 32 59 33 60 34 61 58 62 59 63 67 64 60 65 62 66 68 67
REMARK SMILES IDX 61 68 63 69 64 70 65 71 66 72 43 73 44 74 52 75 45 76 47 77
REMARK SMILES IDX 53 78 46 79 48 80 49 81 50 82 51 83
REMARK H PARENT 3 10 5 14 73 36 41 47
REMARK Flexibility Score: inf
ROOT
ATOM      1  C   UNL A   1      40.948  19.763  26.286  1.00  0.00     0.275 C 
ENDROOT
BRANCH   1   2
ATOM      2  C   UNL A   1      42.317  19.071  26.233  1.00  0.00     0.274 C 
BRANCH   2   3
ATOM      3  O   UNL A   1      42.948  19.148  24.940  1.00  0.00    -0.459 OA
BRANCH   3   4
ATOM      4  C   UNL A   1      44.256  18.768  24.898  1.00  0.00     0.350 C 
ATOM      5  O   UNL A   1      44.770  17.986  25.691  1.00  0.00    -0.247 OA
BRANCH   4   6
ATOM      6  C   UNL A   1      45.056  19.469  23.794  1.00  0.00     0.279 C 
ATOM      7  C   UNL A   1      44.941  18.711  22.470  1.00  0.00     0.071 C 
BRANCH   6   8
ATOM      8  N   UNL A   1      44.675  20.861  23.563  1.00  0.00    -0.265 N 
ATOM      9  C   UNL A   1      44.502  21.853  24.475  1.00  0.00     0.243 C 
ATOM     10  H   UNL A   1      44.525  21.113  22.622  1.00  0.00     0.305 HD
ATOM     11  N   UNL A   1      43.514  22.689  24.324  1.00  0.00    -0.279 N 
ATOM     12  C   UNL A   1      45.398  22.123  25.652  1.00  0.00     0.131 C 
ATOM     13  C   UNL A   1      43.564  23.570  25.507  1.00  0.00     0.234 C 
ATOM     14  H   UNL A   1      42.872  22.727  23.580  1.00  0.00     0.304 HD
ATOM     15  C   UNL A   1      44.390  22.816  26.533  1.00  0.00     0.058 C 
ENDBRANCH   6   8
ENDBRANCH   4   6
ENDBRANCH   3   4
ENDBRANCH   2   3
ENDBRANCH   1   2
BRANCH   1  16
ATOM     16  O   UNL A   1      41.037  21.173  26.010  1.00  0.00    -0.458 OA
BRANCH  16  17
ATOM     17  C   UNL A   1      39.886  21.858  26.206  1.00  0.00     0.338 C 
ATOM     18  O   UNL A   1      38.755  21.450  25.992  1.00  0.00    -0.246 OA
BRANCH  17  19
ATOM     19  C   UNL A   1      40.145  23.131  26.904  1.00  0.00     0.060 A 
ATOM     20  C   UNL A   1      39.577  24.286  26.354  1.00  0.00     0.016 A 
ATOM     21  C   UNL A   1      40.984  23.217  28.017  1.00  0.00     0.016 A 
ATOM     22  C   UNL A   1      39.863  25.535  26.889  1.00  0.00     0.010 A 
ATOM     23  C   UNL A   1      41.285  24.478  28.546  1.00  0.00     0.010 A 
ATOM     24  C   UNL A   1      40.751  25.641  27.964  1.00  0.00    -0.014 A 
BRANCH  24  25
ATOM     25  C   UNL A   1      41.221  26.989  28.358  1.00  0.00     0.031 A 
ATOM     26  C   UNL A   1      42.656  27.358  28.107  1.00  0.00     0.074 A 
ATOM     27  C   UNL A   1      40.364  27.889  28.871  1.00  0.00     0.049 A 
ATOM     28  N   UNL A   1      43.273  28.486  28.340  1.00  0.00    -0.248 NA
ATOM     29  C   UNL A   1      43.511  26.317  27.512  1.00  0.00     0.031 C 
ATOM     30  C   UNL A   1      38.943  27.651  29.127  1.00  0.00     0.029 A 
ATOM     31  N   UNL A   1      40.566  29.186  29.269  1.00  0.00    -0.354 N 
ATOM     32  C   UNL A   1      44.593  28.282  27.958  1.00  0.00     0.074 A 
ATOM     33  C   UNL A   1      44.689  26.921  27.479  1.00  0.00     0.031 C 
ATOM     34  C   UNL A   1      38.402  28.765  29.651  1.00  0.00     0.029 A 
ATOM     35  C   UNL A   1      39.441  29.784  29.787  1.00  0.00     0.049 A 
ATOM     36  H   UNL A   1      41.433  29.645  29.192  1.00  0.00     0.167 HD
ATOM     37  C   UNL A   1      45.628  29.152  27.992  1.00  0.00     0.034 A 
ATOM     38  C   UNL A   1      39.276  31.010  30.319  1.00  0.00     0.034 A 
ATOM     39  C   UNL A   1      45.518  30.515  28.436  1.00  0.00     0.049 A 
ATOM     40  C   UNL A   1      40.449  31.956  30.351  1.00  0.00     0.074 A 
ATOM     41  C   UNL A   1      46.498  31.491  28.471  1.00  0.00     0.029 A 
ATOM     42  N   UNL A   1      44.358  31.094  28.927  1.00  0.00    -0.354 N 
ATOM     43  N   UNL A   1      41.665  31.782  29.891  1.00  0.00    -0.248 NA
ATOM     44  C   UNL A   1      40.217  33.281  30.944  1.00  0.00     0.031 C 
ATOM     45  C   UNL A   1      45.935  32.656  29.004  1.00  0.00     0.029 A 
ATOM     46  C   UNL A   1      44.598  32.412  29.277  1.00  0.00     0.049 A 
ATOM     47  H   UNL A   1      43.492  30.636  29.014  1.00  0.00     0.167 HD
ATOM     48  C   UNL A   1      42.331  32.985  30.104  1.00  0.00     0.074 A 
ATOM     49  C   UNL A   1      41.376  33.885  30.717  1.00  0.00     0.031 C 
ATOM     50  C   UNL A   1      43.618  33.311  29.831  1.00  0.00     0.034 A 
BRANCH  37  51
ATOM     51  C   UNL A   1      46.970  28.656  27.525  1.00  0.00     0.023 A 
ATOM     52  C   UNL A   1      47.979  28.370  28.467  1.00  0.00     0.012 A 
ATOM     53  C   UNL A   1      47.220  28.439  26.157  1.00  0.00     0.148 A 
ATOM     54  C   UNL A   1      49.227  27.907  28.050  1.00  0.00     0.002 A 
ATOM     55  C   UNL A   1      48.451  27.939  25.752  1.00  0.00     0.091 A 
ATOM     56  F   UNL A   1      46.257  28.744  25.274  1.00  0.00    -0.205 F 
ATOM     57  C   UNL A   1      49.459  27.683  26.695  1.00  0.00     0.022 A 
BRANCH  55  58
ATOM     58  S   UNL A   1      48.818  27.551  24.037  1.00  0.00     0.127 S 
ATOM     59  O   UNL A   1      50.120  28.191  23.860  1.00  0.00    -0.237 OA
ATOM     60  O   UNL A   1      48.854  26.088  24.052  1.00  0.00    -0.237 OA
ATOM     61  O   UNL A   1      47.726  28.119  23.257  1.00  0.00    -0.744 OA
ENDBRANCH  55  58
ENDBRANCH  37  51
BRANCH  38  62
ATOM     62  C   UNL A   1      37.937  31.435  30.818  1.00  0.00     0.023 A 
ATOM     63  C   UNL A   1      37.581  31.175  32.156  1.00  0.00     0.012 A 
ATOM     64  C   UNL A   1      37.022  32.105  29.983  1.00  0.00     0.148 A 
ATOM     65  C   UNL A   1      36.328  31.548  32.644  1.00  0.00     0.002 A 
ATOM     66  C   UNL A   1      35.797  32.522  30.491  1.00  0.00     0.091 A 
ATOM     67  F   UNL A   1      37.371  32.325  28.707  1.00  0.00    -0.205 F 
ATOM     68  C   UNL A   1      35.441  32.229  31.816  1.00  0.00     0.022 A 
BRANCH  66  69
ATOM     69  S   UNL A   1      34.646  33.512  29.531  1.00  0.00     0.127 S 
ATOM     70  O   UNL A   1      35.538  34.478  28.897  1.00  0.00    -0.237 OA
ATOM     71  O   UNL A   1      34.071  32.515  28.626  1.00  0.00    -0.237 OA
ATOM     72  O   UNL A   1      33.700  34.059  30.496  1.00  0.00    -0.744 OA
ENDBRANCH  66  69
ENDBRANCH  38  62
BRANCH  50  73
ATOM     73  C   UNL A   1      44.064  34.714  30.151  1.00  0.00     0.023 A 
ATOM     74  C   UNL A   1      43.964  35.722  29.172  1.00  0.00     0.012 A 
ATOM     75  C   UNL A   1      44.514  35.048  31.444  1.00  0.00     0.148 A 
ATOM     76  C   UNL A   1      44.339  37.033  29.464  1.00  0.00     0.002 A 
ATOM     77  C   UNL A   1      44.838  36.366  31.741  1.00  0.00     0.091 A 
ATOM     78  F   UNL A   1      44.622  34.073  32.358  1.00  0.00    -0.205 F 
ATOM     79  C   UNL A   1      44.764  37.357  30.750  1.00  0.00     0.022 A 
BRANCH  77  80
ATOM     80  S   UNL A   1      45.298  36.884  33.399  1.00  0.00     0.127 S 
ATOM     81  O   UNL A   1      46.514  36.105  33.630  1.00  0.00    -0.237 OA
ATOM     82  O   UNL A   1      45.517  38.321  33.232  1.00  0.00    -0.237 OA
ATOM     83  O   UNL A   1      44.163  36.545  34.248  1.00  0.00    -0.744 OA
ENDBRANCH  77  80
ENDBRANCH  50  73
ENDBRANCH  24  25
ENDBRANCH  17  19
ENDBRANCH  16  17
ENDBRANCH   1  16
TORSDOF 15
ENDMDL
