MODEL 1
REMARK VINA RESULT:     -12.2      0.000      0.000
REMARK SMILES CC[NH+]1CCC2(CC1)OC[C@H](C(=O)OCCOC(=O)c1ccc(-c3c4nc(c(-c5cccc(S(=O)(=O)[O-])c5F)c5ccc([nH]5)c(-c5cccc(S(=O)(=O)[O-])c5F)c5nc(c(-c6cccc(S(=O)(=O)[O-])c6F)c6ccc3[nH]6)C=C5)C=C4)cc1)N2C(=O)c1ccccc1
REMARK SMILES IDX 16 1 15 2 14 3 12 4 13 5 11 6 3 7 4 8 8 9 5 11 7 12 6 13
REMARK SMILES IDX 9 14 83 15 10 16 2 17 1 18 84 19 85 20 86 21 87 22 91 23
REMARK SMILES IDX 88 24 90 25 89 26 17 27 18 28 19 29 20 30 21 31 82 32 22 33
REMARK SMILES IDX 81 34 23 35 24 36 25 37 75 38 26 39 80 40 74 41 76 42 27 43
REMARK SMILES IDX 79 44 73 45 72 46 28 48 60 49 40 50 59 51 41 52 44 53 58 54
REMARK SMILES IDX 77 55 42 56 43 57 57 59 78 60 45 61 29 62 30 63 38 64 31 65
REMARK SMILES IDX 33 66 39 67 32 68 34 69 35 70 36 71 37 72 61 73 62 74 70 75
REMARK SMILES IDX 63 76 65 77 71 78 64 79 66 80 67 81 68 82 69 83 46 84 47 85
REMARK SMILES IDX 55 86 48 87 50 88 56 89 49 90 51 91 52 92 53 93 54 94
REMARK H PARENT 3 10 76 47 44 58
REMARK Flexibility Score: inf
ROOT
ATOM      1  C   UNL A   1      31.786  29.600  26.185  1.00  0.00     0.275 C 
ENDROOT
BRANCH   1   2
ATOM      2  C   UNL A   1      31.696  28.341  27.055  1.00  0.00     0.274 C 
BRANCH   2   3
ATOM      3  O   UNL A   1      32.454  27.249  26.494  1.00  0.00    -0.460 OA
BRANCH   3   4
ATOM      4  C   UNL A   1      31.726  26.192  26.038  1.00  0.00     0.331 C 
ATOM      5  O   UNL A   1      31.102  25.429  26.770  1.00  0.00    -0.250 OA
BRANCH   4   6
ATOM      6  C   UNL A   1      31.733  26.077  24.503  1.00  0.00     0.224 C 
ATOM      7  N   UNL A   1      35.593  22.744  24.628  1.00  0.00    -0.335 N 
ATOM      8  C   UNL A   1      34.952  23.503  25.688  1.00  0.00     0.267 C 
ATOM      9  C   UNL A   1      35.147  22.949  23.257  1.00  0.00     0.267 C 
ATOM     10  H   UNL A   1      35.154  21.840  24.807  1.00  0.00     0.348 HD
ATOM     11  C   UNL A   1      34.620  24.919  25.299  1.00  0.00     0.120 C 
ATOM     12  C   UNL A   1      34.527  24.296  22.883  1.00  0.00     0.120 C 
ATOM     13  C   UNL A   1      33.797  25.012  24.012  1.00  0.00     0.155 C 
ATOM     14  O   UNL A   1      33.904  26.443  23.678  1.00  0.00    -0.352 OA
ATOM     15  N   UNL A   1      32.347  24.808  24.131  1.00  0.00    -0.293 N 
ATOM     16  C   UNL A   1      32.612  27.059  23.787  1.00  0.00     0.200 C 
BRANCH   7  17
ATOM     17  C   UNL A   1      37.008  22.461  24.802  1.00  0.00     0.258 C 
ATOM     18  C   UNL A   1      37.270  20.962  24.941  1.00  0.00     0.071 C 
ENDBRANCH   7  17
BRANCH  15  19
ATOM     19  C   UNL A   1      31.490  23.747  23.874  1.00  0.00     0.256 C 
ATOM     20  O   UNL A   1      30.375  23.922  23.379  1.00  0.00    -0.269 OA
BRANCH  19  21
ATOM     21  C   UNL A   1      31.834  22.346  24.130  1.00  0.00     0.040 A 
ATOM     22  C   UNL A   1      32.098  21.936  25.443  1.00  0.00     0.014 A 
ATOM     23  C   UNL A   1      32.099  21.484  23.065  1.00  0.00     0.014 A 
ATOM     24  C   UNL A   1      32.495  20.620  25.692  1.00  0.00     0.001 A 
ATOM     25  C   UNL A   1      32.472  20.162  23.318  1.00  0.00     0.001 A 
ATOM     26  C   UNL A   1      32.654  19.726  24.631  1.00  0.00     0.000 A 
ENDBRANCH  19  21
ENDBRANCH  15  19
ENDBRANCH   4   6
ENDBRANCH   3   4
ENDBRANCH   2   3
ENDBRANCH   1   2
BRANCH   1  27
ATOM     27  O   UNL A   1      33.123  30.127  26.134  1.00  0.00    -0.458 OA
BRANCH  27  28
ATOM     28  C   UNL A   1      33.366  31.157  26.973  1.00  0.00     0.338 C 
ATOM     29  O   UNL A   1      32.581  32.046  27.293  1.00  0.00    -0.246 OA
BRANCH  28  30
ATOM     30  C   UNL A   1      34.666  30.969  27.626  1.00  0.00     0.060 A 
ATOM     31  C   UNL A   1      34.971  29.687  28.073  1.00  0.00     0.016 A 
ATOM     32  C   UNL A   1      35.553  32.020  27.852  1.00  0.00     0.016 A 
ATOM     33  C   UNL A   1      36.152  29.427  28.750  1.00  0.00     0.010 A 
ATOM     34  C   UNL A   1      36.754  31.760  28.525  1.00  0.00     0.010 A 
ATOM     35  C   UNL A   1      37.057  30.461  28.976  1.00  0.00    -0.014 A 
BRANCH  35  36
ATOM     36  C   UNL A   1      38.314  30.174  29.700  1.00  0.00     0.031 A 
ATOM     37  C   UNL A   1      39.322  29.244  29.098  1.00  0.00     0.074 A 
ATOM     38  C   UNL A   1      38.545  30.766  30.887  1.00  0.00     0.049 A 
ATOM     39  N   UNL A   1      40.405  28.747  29.631  1.00  0.00    -0.248 NA
ATOM     40  C   UNL A   1      39.080  28.817  27.710  1.00  0.00     0.031 C 
ATOM     41  C   UNL A   1      37.664  31.745  31.527  1.00  0.00     0.029 A 
ATOM     42  N   UNL A   1      39.579  30.614  31.776  1.00  0.00    -0.354 N 
ATOM     43  C   UNL A   1      40.952  27.913  28.666  1.00  0.00     0.074 A 
ATOM     44  C   UNL A   1      40.086  27.977  27.507  1.00  0.00     0.031 C 
ATOM     45  C   UNL A   1      38.182  32.087  32.718  1.00  0.00     0.029 A 
ATOM     46  C   UNL A   1      39.392  31.307  32.949  1.00  0.00     0.049 A 
ATOM     47  H   UNL A   1      40.373  30.065  31.592  1.00  0.00     0.167 HD
ATOM     48  C   UNL A   1      42.077  27.167  28.743  1.00  0.00     0.034 A 
ATOM     49  C   UNL A   1      40.093  31.275  34.099  1.00  0.00     0.034 A 
ATOM     50  C   UNL A   1      42.947  27.145  29.889  1.00  0.00     0.049 A 
ATOM     51  C   UNL A   1      41.299  30.379  34.183  1.00  0.00     0.074 A 
ATOM     52  C   UNL A   1      44.125  26.442  30.061  1.00  0.00     0.029 A 
ATOM     53  N   UNL A   1      42.729  27.859  31.058  1.00  0.00    -0.354 N 
ATOM     54  N   UNL A   1      41.838  29.633  33.249  1.00  0.00    -0.248 NA
ATOM     55  C   UNL A   1      41.996  30.323  35.475  1.00  0.00     0.031 C 
ATOM     56  C   UNL A   1      44.607  26.713  31.347  1.00  0.00     0.029 A 
ATOM     57  C   UNL A   1      43.739  27.597  31.967  1.00  0.00     0.049 A 
ATOM     58  H   UNL A   1      41.967  28.461  31.218  1.00  0.00     0.167 HD
ATOM     59  C   UNL A   1      42.946  29.032  33.833  1.00  0.00     0.074 A 
ATOM     60  C   UNL A   1      43.017  29.524  35.194  1.00  0.00     0.031 C 
ATOM     61  C   UNL A   1      43.813  28.135  33.301  1.00  0.00     0.034 A 
BRANCH  48  62
ATOM     62  C   UNL A   1      42.440  26.320  27.554  1.00  0.00     0.023 A 
ATOM     63  C   UNL A   1      43.216  26.870  26.515  1.00  0.00     0.012 A 
ATOM     64  C   UNL A   1      42.059  24.966  27.493  1.00  0.00     0.148 A 
ATOM     65  C   UNL A   1      43.589  26.091  25.420  1.00  0.00     0.002 A 
ATOM     66  C   UNL A   1      42.465  24.185  26.416  1.00  0.00     0.091 A 
ATOM     67  F   UNL A   1      41.300  24.470  28.480  1.00  0.00    -0.205 F 
ATOM     68  C   UNL A   1      43.223  24.748  25.376  1.00  0.00     0.022 A 
BRANCH  66  69
ATOM     69  S   UNL A   1      42.096  22.431  26.298  1.00  0.00     0.127 S 
ATOM     70  O   UNL A   1      42.647  21.929  27.557  1.00  0.00    -0.237 OA
ATOM     71  O   UNL A   1      40.635  22.426  26.228  1.00  0.00    -0.237 OA
ATOM     72  O   UNL A   1      42.764  21.959  25.093  1.00  0.00    -0.744 OA
ENDBRANCH  66  69
ENDBRANCH  48  62
BRANCH  49  73
ATOM     73  C   UNL A   1      39.662  32.104  35.260  1.00  0.00     0.023 A 
ATOM     74  C   UNL A   1      40.022  33.463  35.313  1.00  0.00     0.012 A 
ATOM     75  C   UNL A   1      38.877  31.563  36.298  1.00  0.00     0.148 A 
ATOM     76  C   UNL A   1      39.628  34.263  36.386  1.00  0.00     0.002 A 
ATOM     77  C   UNL A   1      38.439  32.378  37.335  1.00  0.00     0.091 A 
ATOM     78  F   UNL A   1      38.565  30.259  36.247  1.00  0.00    -0.205 F 
ATOM     79  C   UNL A   1      38.828  33.724  37.390  1.00  0.00     0.022 A 
BRANCH  77  80
ATOM     80  S   UNL A   1      37.297  31.794  38.595  1.00  0.00     0.127 S 
ATOM     81  O   UNL A   1      38.081  31.968  39.815  1.00  0.00    -0.237 OA
ATOM     82  O   UNL A   1      36.176  32.724  38.446  1.00  0.00    -0.237 OA
ATOM     83  O   UNL A   1      36.983  30.419  38.228  1.00  0.00    -0.744 OA
ENDBRANCH  77  80
ENDBRANCH  49  73
BRANCH  61  84
ATOM     84  C   UNL A   1      44.919  27.631  34.188  1.00  0.00     0.023 A 
ATOM     85  C   UNL A   1      46.110  28.375  34.296  1.00  0.00     0.012 A 
ATOM     86  C   UNL A   1      44.744  26.480  34.980  1.00  0.00     0.148 A 
ATOM     87  C   UNL A   1      47.122  27.969  35.165  1.00  0.00     0.002 A 
ATOM     88  C   UNL A   1      45.738  26.106  35.876  1.00  0.00     0.091 A 
ATOM     89  F   UNL A   1      43.607  25.780  34.849  1.00  0.00    -0.205 F 
ATOM     90  C   UNL A   1      46.930  26.843  35.962  1.00  0.00     0.022 A 
BRANCH  88  91
ATOM     91  S   UNL A   1      45.548  24.725  37.010  1.00  0.00     0.127 S 
ATOM     92  O   UNL A   1      46.765  24.831  37.813  1.00  0.00    -0.237 OA
ATOM     93  O   UNL A   1      44.316  25.073  37.718  1.00  0.00    -0.237 OA
ATOM     94  O   UNL A   1      45.454  23.531  36.180  1.00  0.00    -0.744 OA
ENDBRANCH  88  91
ENDBRANCH  61  84
ENDBRANCH  35  36
ENDBRANCH  28  30
ENDBRANCH  27  28
ENDBRANCH   1  27
TORSDOF 17
ENDMDL
MODEL 2
REMARK VINA RESULT:     -12.2      5.135      9.834
REMARK SMILES CC[NH+]1CCC2(CC1)OC[C@H](C(=O)OCCOC(=O)c1ccc(-c3c4nc(c(-c5cccc(S(=O)(=O)[O-])c5F)c5ccc([nH]5)c(-c5cccc(S(=O)(=O)[O-])c5F)c5nc(c(-c6cccc(S(=O)(=O)[O-])c6F)c6ccc3[nH]6)C=C5)C=C4)cc1)N2C(=O)c1ccccc1
REMARK SMILES IDX 16 1 15 2 14 3 12 4 13 5 11 6 3 7 4 8 8 9 5 11 7 12 6 13
REMARK SMILES IDX 9 14 83 15 10 16 2 17 1 18 84 19 85 20 86 21 87 22 91 23
REMARK SMILES IDX 88 24 90 25 89 26 17 27 18 28 19 29 20 30 21 31 82 32 22 33
REMARK SMILES IDX 81 34 23 35 24 36 25 37 75 38 26 39 80 40 74 41 76 42 27 43
REMARK SMILES IDX 79 44 73 45 72 46 28 48 60 49 40 50 59 51 41 52 44 53 58 54
REMARK SMILES IDX 77 55 42 56 43 57 57 59 78 60 45 61 29 62 30 63 38 64 31 65
REMARK SMILES IDX 33 66 39 67 32 68 34 69 35 70 36 71 37 72 61 73 62 74 70 75
REMARK SMILES IDX 63 76 65 77 71 78 64 79 66 80 67 81 68 82 69 83 46 84 47 85
REMARK SMILES IDX 55 86 48 87 50 88 56 89 49 90 51 91 52 92 53 93 54 94
REMARK H PARENT 3 10 76 47 44 58
REMARK Flexibility Score: inf
ROOT
ATOM      1  C   UNL A   1      36.894  21.539  24.190  1.00  0.00     0.275 C 
ENDROOT
BRANCH   1   2
ATOM      2  C   UNL A   1      36.368  22.771  23.445  1.00  0.00     0.274 C 
BRANCH   2   3
ATOM      3  O   UNL A   1      35.422  23.514  24.241  1.00  0.00    -0.460 OA
BRANCH   3   4
ATOM      4  C   UNL A   1      34.270  23.877  23.612  1.00  0.00     0.331 C 
ATOM      5  O   UNL A   1      34.232  24.346  22.478  1.00  0.00    -0.250 OA
BRANCH   4   6
ATOM      6  C   UNL A   1      33.013  23.598  24.456  1.00  0.00     0.224 C 
ATOM      7  N   UNL A   1      32.548  28.534  25.654  1.00  0.00    -0.335 N 
ATOM      8  C   UNL A   1      33.578  27.824  24.918  1.00  0.00     0.267 C 
ATOM      9  C   UNL A   1      31.447  27.770  26.224  1.00  0.00     0.267 C 
ATOM     10  H   UNL A   1      32.060  28.952  24.861  1.00  0.00     0.348 HD
ATOM     11  C   UNL A   1      33.931  26.487  25.513  1.00  0.00     0.120 C 
ATOM     12  C   UNL A   1      31.682  26.302  26.582  1.00  0.00     0.120 C 
ATOM     13  C   UNL A   1      32.715  25.582  25.724  1.00  0.00     0.155 C 
ATOM     14  O   UNL A   1      33.260  24.529  26.601  1.00  0.00    -0.352 OA
ATOM     15  N   UNL A   1      32.235  24.827  24.560  1.00  0.00    -0.293 N 
ATOM     16  C   UNL A   1      33.264  23.276  25.900  1.00  0.00     0.200 C 
BRANCH   7  17
ATOM     17  C   UNL A   1      32.982  29.691  26.419  1.00  0.00     0.258 C 
ATOM     18  C   UNL A   1      31.877  30.740  26.531  1.00  0.00     0.071 C 
ENDBRANCH   7  17
BRANCH  15  19
ATOM     19  C   UNL A   1      31.190  24.985  23.661  1.00  0.00     0.256 C 
ATOM     20  O   UNL A   1      30.725  24.031  23.035  1.00  0.00    -0.269 OA
BRANCH  19  21
ATOM     21  C   UNL A   1      30.532  26.269  23.401  1.00  0.00     0.040 A 
ATOM     22  C   UNL A   1      29.209  26.454  23.820  1.00  0.00     0.014 A 
ATOM     23  C   UNL A   1      31.138  27.212  22.570  1.00  0.00     0.014 A 
ATOM     24  C   UNL A   1      28.546  27.647  23.518  1.00  0.00     0.001 A 
ATOM     25  C   UNL A   1      30.484  28.414  22.289  1.00  0.00     0.001 A 
ATOM     26  C   UNL A   1      29.196  28.637  22.777  1.00  0.00     0.000 A 
ENDBRANCH  19  21
ENDBRANCH  15  19
ENDBRANCH   4   6
ENDBRANCH   3   4
ENDBRANCH   2   3
ENDBRANCH   1   2
BRANCH   1  27
ATOM     27  O   UNL A   1      37.253  21.843  25.549  1.00  0.00    -0.458 OA
BRANCH  27  28
ATOM     28  C   UNL A   1      38.483  21.426  25.924  1.00  0.00     0.338 C 
ATOM     29  O   UNL A   1      38.983  20.325  25.710  1.00  0.00    -0.246 OA
BRANCH  28  30
ATOM     30  C   UNL A   1      39.244  22.554  26.471  1.00  0.00     0.060 A 
ATOM     31  C   UNL A   1      38.868  23.830  26.061  1.00  0.00     0.016 A 
ATOM     32  C   UNL A   1      40.335  22.383  27.320  1.00  0.00     0.016 A 
ATOM     33  C   UNL A   1      39.565  24.951  26.483  1.00  0.00     0.010 A 
ATOM     34  C   UNL A   1      41.036  23.514  27.758  1.00  0.00     0.010 A 
ATOM     35  C   UNL A   1      40.652  24.803  27.341  1.00  0.00    -0.014 A 
BRANCH  35  36
ATOM     36  C   UNL A   1      41.390  26.006  27.784  1.00  0.00     0.031 A 
ATOM     37  C   UNL A   1      40.685  27.056  28.585  1.00  0.00     0.074 A 
ATOM     38  C   UNL A   1      42.693  26.133  27.475  1.00  0.00     0.049 A 
ATOM     39  N   UNL A   1      41.103  28.241  28.938  1.00  0.00    -0.248 NA
ATOM     40  C   UNL A   1      39.328  26.729  29.054  1.00  0.00     0.031 C 
ATOM     41  C   UNL A   1      43.495  25.136  26.764  1.00  0.00     0.029 A 
ATOM     42  N   UNL A   1      43.568  27.166  27.700  1.00  0.00    -0.354 N 
ATOM     43  C   UNL A   1      40.049  28.823  29.630  1.00  0.00     0.074 A 
ATOM     44  C   UNL A   1      38.973  27.856  29.657  1.00  0.00     0.031 C 
ATOM     45  C   UNL A   1      44.736  25.615  26.587  1.00  0.00     0.029 A 
ATOM     46  C   UNL A   1      44.798  26.973  27.116  1.00  0.00     0.049 A 
ATOM     47  H   UNL A   1      43.339  27.965  28.226  1.00  0.00     0.167 HD
ATOM     48  C   UNL A   1      39.992  30.051  30.193  1.00  0.00     0.034 A 
ATOM     49  C   UNL A   1      45.839  27.817  26.980  1.00  0.00     0.034 A 
ATOM     50  C   UNL A   1      41.087  30.985  30.190  1.00  0.00     0.049 A 
ATOM     51  C   UNL A   1      45.721  29.204  27.551  1.00  0.00     0.074 A 
ATOM     52  C   UNL A   1      41.142  32.247  30.753  1.00  0.00     0.029 A 
ATOM     53  N   UNL A   1      42.317  30.756  29.591  1.00  0.00    -0.354 N 
ATOM     54  N   UNL A   1      44.742  29.728  28.248  1.00  0.00    -0.248 NA
ATOM     55  C   UNL A   1      46.852  30.114  27.323  1.00  0.00     0.031 C 
ATOM     56  C   UNL A   1      42.401  32.791  30.472  1.00  0.00     0.029 A 
ATOM     57  C   UNL A   1      43.133  31.862  29.751  1.00  0.00     0.049 A 
ATOM     58  H   UNL A   1      42.571  29.930  29.121  1.00  0.00     0.167 HD
ATOM     59  C   UNL A   1      45.142  31.022  28.556  1.00  0.00     0.074 A 
ATOM     60  C   UNL A   1      46.467  31.192  27.995  1.00  0.00     0.031 C 
ATOM     61  C   UNL A   1      44.467  31.991  29.222  1.00  0.00     0.034 A 
BRANCH  48  62
ATOM     62  C   UNL A   1      38.711  30.454  30.869  1.00  0.00     0.023 A 
ATOM     63  C   UNL A   1      38.535  30.197  32.243  1.00  0.00     0.012 A 
ATOM     64  C   UNL A   1      37.705  31.135  30.155  1.00  0.00     0.148 A 
ATOM     65  C   UNL A   1      37.366  30.593  32.893  1.00  0.00     0.002 A 
ATOM     66  C   UNL A   1      36.558  31.558  30.818  1.00  0.00     0.091 A 
ATOM     67  F   UNL A   1      37.883  31.346  28.844  1.00  0.00    -0.205 F 
ATOM     68  C   UNL A   1      36.384  31.281  32.184  1.00  0.00     0.022 A 
BRANCH  66  69
ATOM     69  S   UNL A   1      35.265  32.506  30.008  1.00  0.00     0.127 S 
ATOM     70  O   UNL A   1      34.301  32.678  31.094  1.00  0.00    -0.237 OA
ATOM     71  O   UNL A   1      35.973  33.726  29.621  1.00  0.00    -0.237 OA
ATOM     72  O   UNL A   1      34.808  31.690  28.891  1.00  0.00    -0.744 OA
ENDBRANCH  66  69
ENDBRANCH  48  62
BRANCH  49  73
ATOM     73  C   UNL A   1      47.069  27.377  26.262  1.00  0.00     0.023 A 
ATOM     74  C   UNL A   1      47.229  27.697  24.901  1.00  0.00     0.012 A 
ATOM     75  C   UNL A   1      48.092  26.667  26.924  1.00  0.00     0.148 A 
ATOM     76  C   UNL A   1      48.372  27.301  24.207  1.00  0.00     0.002 A 
ATOM     77  C   UNL A   1      49.254  26.325  26.241  1.00  0.00     0.091 A 
ATOM     78  F   UNL A   1      47.913  26.345  28.213  1.00  0.00    -0.205 F 
ATOM     79  C   UNL A   1      49.389  26.627  24.878  1.00  0.00     0.022 A 
BRANCH  77  80
ATOM     80  S   UNL A   1      50.663  25.575  27.066  1.00  0.00     0.127 S 
ATOM     81  O   UNL A   1      50.996  26.584  28.068  1.00  0.00    -0.237 OA
ATOM     82  O   UNL A   1      50.084  24.343  27.603  1.00  0.00    -0.237 OA
ATOM     83  O   UNL A   1      51.657  25.361  26.022  1.00  0.00    -0.744 OA
ENDBRANCH  77  80
ENDBRANCH  49  73
BRANCH  61  84
ATOM     84  C   UNL A   1      45.150  33.322  29.388  1.00  0.00     0.023 A 
ATOM     85  C   UNL A   1      45.935  33.556  30.533  1.00  0.00     0.012 A 
ATOM     86  C   UNL A   1      45.090  34.297  28.374  1.00  0.00     0.148 A 
ATOM     87  C   UNL A   1      46.636  34.752  30.678  1.00  0.00     0.002 A 
ATOM     88  C   UNL A   1      45.826  35.468  28.505  1.00  0.00     0.091 A 
ATOM     89  F   UNL A   1      44.324  34.057  27.300  1.00  0.00    -0.205 F 
ATOM     90  C   UNL A   1      46.591  35.701  29.660  1.00  0.00     0.022 A 
BRANCH  88  91
ATOM     91  S   UNL A   1      45.905  36.711  27.210  1.00  0.00     0.127 S 
ATOM     92  O   UNL A   1      44.530  37.209  27.191  1.00  0.00    -0.237 OA
ATOM     93  O   UNL A   1      46.888  37.654  27.744  1.00  0.00    -0.237 OA
ATOM     94  O   UNL A   1      46.329  36.011  26.004  1.00  0.00    -0.744 OA
ENDBRANCH  88  91
ENDBRANCH  61  84
ENDBRANCH  35  36
ENDBRANCH  28  30
ENDBRANCH  27  28
ENDBRANCH   1  27
TORSDOF 17
ENDMDL
MODEL 3
REMARK VINA RESULT:     -12.1      5.114      9.974
REMARK SMILES CC[NH+]1CCC2(CC1)OC[C@H](C(=O)OCCOC(=O)c1ccc(-c3c4nc(c(-c5cccc(S(=O)(=O)[O-])c5F)c5ccc([nH]5)c(-c5cccc(S(=O)(=O)[O-])c5F)c5nc(c(-c6cccc(S(=O)(=O)[O-])c6F)c6ccc3[nH]6)C=C5)C=C4)cc1)N2C(=O)c1ccccc1
REMARK SMILES IDX 16 1 15 2 14 3 12 4 13 5 11 6 3 7 4 8 8 9 5 11 7 12 6 13
REMARK SMILES IDX 9 14 83 15 10 16 2 17 1 18 84 19 85 20 86 21 87 22 91 23
REMARK SMILES IDX 88 24 90 25 89 26 17 27 18 28 19 29 20 30 21 31 82 32 22 33
REMARK SMILES IDX 81 34 23 35 24 36 25 37 75 38 26 39 80 40 74 41 76 42 27 43
REMARK SMILES IDX 79 44 73 45 72 46 28 48 60 49 40 50 59 51 41 52 44 53 58 54
REMARK SMILES IDX 77 55 42 56 43 57 57 59 78 60 45 61 29 62 30 63 38 64 31 65
REMARK SMILES IDX 33 66 39 67 32 68 34 69 35 70 36 71 37 72 61 73 62 74 70 75
REMARK SMILES IDX 63 76 65 77 71 78 64 79 66 80 67 81 68 82 69 83 46 84 47 85
REMARK SMILES IDX 55 86 48 87 50 88 56 89 49 90 51 91 52 92 53 93 54 94
REMARK H PARENT 3 10 76 47 44 58
REMARK Flexibility Score: inf
ROOT
ATOM      1  C   UNL A   1      36.056  21.425  25.773  1.00  0.00     0.275 C 
ENDROOT
BRANCH   1   2
ATOM      2  C   UNL A   1      35.059  22.585  25.873  1.00  0.00     0.274 C 
BRANCH   2   3
ATOM      3  O   UNL A   1      33.718  22.166  25.544  1.00  0.00    -0.460 OA
BRANCH   3   4
ATOM      4  C   UNL A   1      33.016  23.002  24.729  1.00  0.00     0.331 C 
ATOM      5  O   UNL A   1      33.439  23.418  23.655  1.00  0.00    -0.250 OA
BRANCH   4   6
ATOM      6  C   UNL A   1      31.618  23.339  25.277  1.00  0.00     0.224 C 
ATOM      7  N   UNL A   1      32.765  28.302  25.555  1.00  0.00    -0.335 N 
ATOM      8  C   UNL A   1      33.581  27.151  25.208  1.00  0.00     0.267 C 
ATOM      9  C   UNL A   1      31.381  28.080  25.953  1.00  0.00     0.267 C 
ATOM     10  H   UNL A   1      32.606  28.661  24.614  1.00  0.00     0.348 HD
ATOM     11  C   UNL A   1      33.318  25.945  26.069  1.00  0.00     0.120 C 
ATOM     12  C   UNL A   1      31.005  26.736  26.578  1.00  0.00     0.120 C 
ATOM     13  C   UNL A   1      31.841  25.548  26.116  1.00  0.00     0.155 C 
ATOM     14  O   UNL A   1      31.809  24.606  27.249  1.00  0.00    -0.352 OA
ATOM     15  N   UNL A   1      31.330  24.742  25.000  1.00  0.00    -0.293 N 
ATOM     16  C   UNL A   1      31.482  23.292  26.771  1.00  0.00     0.200 C 
BRANCH   7  17
ATOM     17  C   UNL A   1      33.448  29.402  26.215  1.00  0.00     0.258 C 
ATOM     18  C   UNL A   1      34.706  28.929  26.942  1.00  0.00     0.071 C 
ENDBRANCH   7  17
BRANCH  15  19
ATOM     19  C   UNL A   1      30.586  25.016  23.862  1.00  0.00     0.256 C 
ATOM     20  O   UNL A   1      30.226  24.123  23.093  1.00  0.00    -0.269 OA
BRANCH  19  21
ATOM     21  C   UNL A   1      30.136  26.361  23.492  1.00  0.00     0.040 A 
ATOM     22  C   UNL A   1      28.813  26.735  23.755  1.00  0.00     0.014 A 
ATOM     23  C   UNL A   1      30.948  27.180  22.706  1.00  0.00     0.014 A 
ATOM     24  C   UNL A   1      28.352  27.989  23.346  1.00  0.00     0.001 A 
ATOM     25  C   UNL A   1      30.494  28.443  22.319  1.00  0.00     0.001 A 
ATOM     26  C   UNL A   1      29.203  28.853  22.653  1.00  0.00     0.000 A 
ENDBRANCH  19  21
ENDBRANCH  15  19
ENDBRANCH   4   6
ENDBRANCH   3   4
ENDBRANCH   2   3
ENDBRANCH   1   2
BRANCH   1  27
ATOM     27  O   UNL A   1      37.297  21.830  25.170  1.00  0.00    -0.458 OA
BRANCH  27  28
ATOM     28  C   UNL A   1      38.409  21.367  25.781  1.00  0.00     0.338 C 
ATOM     29  O   UNL A   1      38.839  20.216  25.753  1.00  0.00    -0.246 OA
BRANCH  28  30
ATOM     30  C   UNL A   1      39.171  22.487  26.341  1.00  0.00     0.060 A 
ATOM     31  C   UNL A   1      38.813  23.767  25.926  1.00  0.00     0.016 A 
ATOM     32  C   UNL A   1      40.245  22.307  27.209  1.00  0.00     0.016 A 
ATOM     33  C   UNL A   1      39.513  24.882  26.360  1.00  0.00     0.010 A 
ATOM     34  C   UNL A   1      40.949  23.432  27.661  1.00  0.00     0.010 A 
ATOM     35  C   UNL A   1      40.583  24.724  27.237  1.00  0.00    -0.014 A 
BRANCH  35  36
ATOM     36  C   UNL A   1      41.324  25.920  27.694  1.00  0.00     0.031 A 
ATOM     37  C   UNL A   1      40.626  26.954  28.522  1.00  0.00     0.074 A 
ATOM     38  C   UNL A   1      42.624  26.056  27.374  1.00  0.00     0.049 A 
ATOM     39  N   UNL A   1      41.045  28.134  28.892  1.00  0.00    -0.248 NA
ATOM     40  C   UNL A   1      39.274  26.616  28.999  1.00  0.00     0.031 C 
ATOM     41  C   UNL A   1      43.419  25.072  26.636  1.00  0.00     0.029 A 
ATOM     42  N   UNL A   1      43.499  27.086  27.608  1.00  0.00    -0.354 N 
ATOM     43  C   UNL A   1      39.998  28.701  29.605  1.00  0.00     0.074 A 
ATOM     44  C   UNL A   1      38.923  27.731  29.626  1.00  0.00     0.031 C 
ATOM     45  C   UNL A   1      44.658  25.557  26.455  1.00  0.00     0.029 A 
ATOM     46  C   UNL A   1      44.723  26.905  27.008  1.00  0.00     0.049 A 
ATOM     47  H   UNL A   1      43.274  27.875  28.151  1.00  0.00     0.167 HD
ATOM     48  C   UNL A   1      39.945  29.918  30.191  1.00  0.00     0.034 A 
ATOM     49  C   UNL A   1      45.761  27.753  26.876  1.00  0.00     0.034 A 
ATOM     50  C   UNL A   1      41.038  30.854  30.192  1.00  0.00     0.049 A 
ATOM     51  C   UNL A   1      45.647  29.130  27.473  1.00  0.00     0.074 A 
ATOM     52  C   UNL A   1      41.097  32.106  30.777  1.00  0.00     0.029 A 
ATOM     53  N   UNL A   1      42.262  30.639  29.577  1.00  0.00    -0.354 N 
ATOM     54  N   UNL A   1      44.674  29.640  28.189  1.00  0.00    -0.248 NA
ATOM     55  C   UNL A   1      46.774  30.046  27.249  1.00  0.00     0.031 C 
ATOM     56  C   UNL A   1      42.352  32.658  30.494  1.00  0.00     0.029 A 
ATOM     57  C   UNL A   1      43.078  31.743  29.748  1.00  0.00     0.049 A 
ATOM     58  H   UNL A   1      42.512  29.822  29.089  1.00  0.00     0.167 HD
ATOM     59  C   UNL A   1      45.075  30.928  28.516  1.00  0.00     0.074 A 
ATOM     60  C   UNL A   1      46.394  31.111  27.944  1.00  0.00     0.031 C 
ATOM     61  C   UNL A   1      44.406  31.884  29.207  1.00  0.00     0.034 A 
BRANCH  48  62
ATOM     62  C   UNL A   1      38.671  30.307  30.887  1.00  0.00     0.023 A 
ATOM     63  C   UNL A   1      38.470  29.941  32.233  1.00  0.00     0.012 A 
ATOM     64  C   UNL A   1      37.696  31.080  30.225  1.00  0.00     0.148 A 
ATOM     65  C   UNL A   1      37.307  30.321  32.904  1.00  0.00     0.002 A 
ATOM     66  C   UNL A   1      36.557  31.485  30.912  1.00  0.00     0.091 A 
ATOM     67  F   UNL A   1      37.896  31.395  28.938  1.00  0.00    -0.205 F 
ATOM     68  C   UNL A   1      36.358  31.100  32.248  1.00  0.00     0.022 A 
BRANCH  66  69
ATOM     69  S   UNL A   1      35.306  32.542  30.174  1.00  0.00     0.127 S 
ATOM     70  O   UNL A   1      36.096  33.711  29.792  1.00  0.00    -0.237 OA
ATOM     71  O   UNL A   1      34.838  31.729  29.051  1.00  0.00    -0.237 OA
ATOM     72  O   UNL A   1      34.310  32.773  31.212  1.00  0.00    -0.744 OA
ENDBRANCH  66  69
ENDBRANCH  48  62
BRANCH  49  73
ATOM     73  C   UNL A   1      46.984  27.329  26.137  1.00  0.00     0.023 A 
ATOM     74  C   UNL A   1      47.929  26.506  26.777  1.00  0.00     0.012 A 
ATOM     75  C   UNL A   1      47.205  27.713  24.799  1.00  0.00     0.148 A 
ATOM     76  C   UNL A   1      49.081  26.091  26.108  1.00  0.00     0.002 A 
ATOM     77  C   UNL A   1      48.326  27.249  24.119  1.00  0.00     0.091 A 
ATOM     78  F   UNL A   1      46.310  28.520  24.212  1.00  0.00    -0.205 F 
ATOM     79  C   UNL A   1      49.273  26.451  24.777  1.00  0.00     0.022 A 
BRANCH  77  80
ATOM     80  S   UNL A   1      48.578  27.559  22.367  1.00  0.00     0.127 S 
ATOM     81  O   UNL A   1      49.829  28.312  22.372  1.00  0.00    -0.237 OA
ATOM     82  O   UNL A   1      48.679  26.202  21.828  1.00  0.00    -0.237 OA
ATOM     83  O   UNL A   1      47.395  28.288  21.926  1.00  0.00    -0.744 OA
ENDBRANCH  77  80
ENDBRANCH  49  73
BRANCH  61  84
ATOM     84  C   UNL A   1      45.088  33.213  29.390  1.00  0.00     0.023 A 
ATOM     85  C   UNL A   1      45.902  33.421  30.520  1.00  0.00     0.012 A 
ATOM     86  C   UNL A   1      44.999  34.214  28.403  1.00  0.00     0.148 A 
ATOM     87  C   UNL A   1      46.602  34.616  30.678  1.00  0.00     0.002 A 
ATOM     88  C   UNL A   1      45.734  35.384  28.545  1.00  0.00     0.091 A 
ATOM     89  F   UNL A   1      44.206  33.998  27.343  1.00  0.00    -0.205 F 
ATOM     90  C   UNL A   1      46.527  35.591  29.685  1.00  0.00     0.022 A 
BRANCH  88  91
ATOM     91  S   UNL A   1      45.775  36.660  27.280  1.00  0.00     0.127 S 
ATOM     92  O   UNL A   1      46.732  37.609  27.847  1.00  0.00    -0.237 OA
ATOM     93  O   UNL A   1      46.264  35.923  26.114  1.00  0.00    -0.237 OA
ATOM     94  O   UNL A   1      44.410  37.152  27.159  1.00  0.00    -0.744 OA
ENDBRANCH  88  91
ENDBRANCH  61  84
ENDBRANCH  35  36
ENDBRANCH  28  30
ENDBRANCH  27  28
ENDBRANCH   1  27
TORSDOF 17
ENDMDL
