MODEL 1
REMARK VINA RESULT:      -9.3      0.000      0.000
REMARK SMILES CS(=O)(=O)c1ccc(/C=C(/C(=O)OCCOC(=O)c2ccc(-c3c4nc(c(-c5cccc(S(=O)(=O)[O-])c5F)c5ccc([nH]5)c(-c5cccc(S(=O)(=O)[O-])c5F)c5nc(c(-c6cccc(S(=O)(=O)[O-])c6F)c6ccc3[nH]6)C=C5)C=C4)cc2)c2cccc(-c3ccc(S(C)(=O)=O)cc3)c2)cc1
REMARK SMILES IDX 14 1 13 2 11 3 12 4 10 5 9 6 8 7 5 8 6 9 99 10 7 11 98 12
REMARK SMILES IDX 2 13 1 14 3 15 4 16 82 17 83 18 97 19 84 20 86 21 85 22
REMARK SMILES IDX 87 23 88 24 96 25 89 26 95 27 90 28 91 29 92 30 93 31 94 32
REMARK SMILES IDX 15 33 16 34 17 35 18 36 19 37 20 38 81 39 21 40 80 41 22 42
REMARK SMILES IDX 23 43 24 44 74 45 25 46 79 47 73 48 75 49 26 50 78 51 72 52
REMARK SMILES IDX 71 53 27 55 59 56 39 57 58 58 40 59 43 60 57 61 76 62 41 63
REMARK SMILES IDX 42 64 56 66 77 67 44 68 28 69 29 70 37 71 30 72 32 73 38 74
REMARK SMILES IDX 31 75 33 76 34 77 35 78 36 79 60 80 61 81 69 82 62 83 64 84
REMARK SMILES IDX 70 85 63 86 65 87 66 88 67 89 68 90 45 91 46 92 54 93 47 94
REMARK SMILES IDX 49 95 55 96 48 97 50 98 51 99 52 100 53 101
REMARK H PARENT 75 54 43 65
REMARK Flexibility Score: inf
ROOT
ATOM      1  C   UNL A   1      35.015  33.664  32.607  1.00  0.00     0.275 C 
ENDROOT
BRANCH   1   2
ATOM      2  O   UNL A   1      34.809  32.410  31.911  1.00  0.00    -0.458 OA
BRANCH   2   3
ATOM      3  C   UNL A   1      35.035  32.432  30.569  1.00  0.00     0.338 C 
ATOM      4  O   UNL A   1      34.277  32.915  29.741  1.00  0.00    -0.246 OA
BRANCH   3   5
ATOM      5  C   UNL A   1      36.368  31.846  30.194  1.00  0.00     0.067 C 
ATOM      6  C   UNL A   1      36.488  30.559  29.789  1.00  0.00     0.024 C 
BRANCH   6   7
ATOM      7  C   UNL A   1      37.741  29.920  29.317  1.00  0.00    -0.025 A 
ATOM      8  C   UNL A   1      39.827  28.315  28.340  1.00  0.00     0.067 A 
ATOM      9  C   UNL A   1      39.198  29.213  27.490  1.00  0.00     0.021 A 
ATOM     10  C   UNL A   1      39.495  28.286  29.701  1.00  0.00     0.021 A 
ATOM     11  C   UNL A   1      38.204  30.048  28.000  1.00  0.00     0.009 A 
ATOM     12  C   UNL A   1      38.452  29.085  30.184  1.00  0.00     0.009 A 
BRANCH   8  13
ATOM     13  S   UNL A   1      41.019  27.149  27.734  1.00  0.00     0.175 S 
ATOM     14  C   UNL A   1      40.126  25.889  26.860  1.00  0.00     0.163 C 
ATOM     15  O   UNL A   1      41.615  26.526  28.901  1.00  0.00    -0.224 OA
ATOM     16  O   UNL A   1      41.837  27.869  26.776  1.00  0.00    -0.224 OA
ENDBRANCH   8  13
ENDBRANCH   6   7
BRANCH   5  17
ATOM     17  C   UNL A   1      37.554  32.729  30.337  1.00  0.00    -0.010 A 
ATOM     18  C   UNL A   1      37.825  33.573  29.251  1.00  0.00     0.009 A 
ATOM     19  C   UNL A   1      38.282  32.895  31.530  1.00  0.00     0.017 A 
ATOM     20  C   UNL A   1      38.867  34.488  29.297  1.00  0.00     0.001 A 
ATOM     21  C   UNL A   1      39.294  33.873  31.608  1.00  0.00    -0.018 A 
ATOM     22  C   UNL A   1      39.638  34.577  30.438  1.00  0.00     0.009 A 
BRANCH  21  23
ATOM     23  C   UNL A   1      39.879  34.354  32.871  1.00  0.00    -0.018 A 
ATOM     24  C   UNL A   1      38.983  34.711  33.905  1.00  0.00     0.010 A 
ATOM     25  C   UNL A   1      41.250  34.510  33.106  1.00  0.00     0.010 A 
ATOM     26  C   UNL A   1      39.417  35.258  35.102  1.00  0.00     0.021 A 
ATOM     27  C   UNL A   1      41.703  35.057  34.319  1.00  0.00     0.021 A 
ATOM     28  C   UNL A   1      40.779  35.448  35.295  1.00  0.00     0.067 A 
BRANCH  28  29
ATOM     29  S   UNL A   1      41.300  36.197  36.815  1.00  0.00     0.175 S 
ATOM     30  C   UNL A   1      41.770  34.810  37.821  1.00  0.00     0.163 C 
ATOM     31  O   UNL A   1      42.497  36.968  36.513  1.00  0.00    -0.224 OA
ATOM     32  O   UNL A   1      40.149  36.829  37.423  1.00  0.00    -0.224 OA
ENDBRANCH  28  29
ENDBRANCH  21  23
ENDBRANCH   5  17
ENDBRANCH   3   5
ENDBRANCH   2   3
ENDBRANCH   1   2
BRANCH   1  33
ATOM     33  C   UNL A   1      35.522  33.441  34.035  1.00  0.00     0.275 C 
BRANCH  33  34
ATOM     34  O   UNL A   1      36.343  32.259  34.086  1.00  0.00    -0.458 OA
BRANCH  34  35
ATOM     35  C   UNL A   1      37.197  32.166  35.135  1.00  0.00     0.338 C 
ATOM     36  O   UNL A   1      37.039  32.618  36.256  1.00  0.00    -0.246 OA
BRANCH  35  37
ATOM     37  C   UNL A   1      38.320  31.273  34.791  1.00  0.00     0.060 A 
ATOM     38  C   UNL A   1      39.527  31.539  35.403  1.00  0.00     0.016 A 
ATOM     39  C   UNL A   1      38.277  30.353  33.737  1.00  0.00     0.016 A 
ATOM     40  C   UNL A   1      40.696  31.025  34.860  1.00  0.00     0.010 A 
ATOM     41  C   UNL A   1      39.470  29.758  33.261  1.00  0.00     0.010 A 
ATOM     42  C   UNL A   1      40.720  30.144  33.771  1.00  0.00    -0.014 A 
BRANCH  42  43
ATOM     43  C   UNL A   1      42.064  29.756  33.208  1.00  0.00     0.031 A 
ATOM     44  C   UNL A   1      42.708  28.417  33.517  1.00  0.00     0.074 A 
ATOM     45  C   UNL A   1      42.647  30.511  32.245  1.00  0.00     0.049 A 
ATOM     46  N   UNL A   1      43.858  27.939  33.100  1.00  0.00    -0.248 NA
ATOM     47  C   UNL A   1      41.956  27.482  34.366  1.00  0.00     0.031 C 
ATOM     48  C   UNL A   1      42.119  31.774  31.722  1.00  0.00     0.029 A 
ATOM     49  N   UNL A   1      43.780  30.302  31.489  1.00  0.00    -0.354 N 
ATOM     50  C   UNL A   1      44.000  26.687  33.691  1.00  0.00     0.074 A 
ATOM     51  C   UNL A   1      42.797  26.460  34.464  1.00  0.00     0.031 C 
ATOM     52  C   UNL A   1      42.856  32.168  30.677  1.00  0.00     0.029 A 
ATOM     53  C   UNL A   1      44.014  31.295  30.562  1.00  0.00     0.049 A 
ATOM     54  H   UNL A   1      44.367  29.520  31.600  1.00  0.00     0.167 HD
ATOM     55  C   UNL A   1      45.032  25.808  33.611  1.00  0.00     0.034 A 
ATOM     56  C   UNL A   1      45.065  31.539  29.753  1.00  0.00     0.034 A 
ATOM     57  C   UNL A   1      46.222  25.991  32.815  1.00  0.00     0.049 A 
ATOM     58  C   UNL A   1      46.245  30.613  29.774  1.00  0.00     0.074 A 
ATOM     59  C   UNL A   1      47.331  25.164  32.724  1.00  0.00     0.029 A 
ATOM     60  N   UNL A   1      46.467  27.066  31.978  1.00  0.00    -0.354 N 
ATOM     61  N   UNL A   1      46.377  29.456  30.372  1.00  0.00    -0.248 NA
ATOM     62  C   UNL A   1      47.426  31.030  29.003  1.00  0.00     0.031 C 
ATOM     63  C   UNL A   1      48.261  25.759  31.863  1.00  0.00     0.029 A 
ATOM     64  C   UNL A   1      47.712  26.934  31.379  1.00  0.00     0.049 A 
ATOM     65  H   UNL A   1      45.847  27.816  31.829  1.00  0.00     0.167 HD
ATOM     66  C   UNL A   1      47.647  29.000  30.036  1.00  0.00     0.074 A 
ATOM     67  C   UNL A   1      48.223  29.982  29.144  1.00  0.00     0.031 C 
ATOM     68  C   UNL A   1      48.281  27.878  30.453  1.00  0.00     0.034 A 
BRANCH  55  69
ATOM     69  C   UNL A   1      44.957  24.569  34.469  1.00  0.00     0.023 A 
ATOM     70  C   UNL A   1      44.480  23.354  33.943  1.00  0.00     0.012 A 
ATOM     71  C   UNL A   1      45.417  24.612  35.801  1.00  0.00     0.148 A 
ATOM     72  C   UNL A   1      44.426  22.210  34.742  1.00  0.00     0.002 A 
ATOM     73  C   UNL A   1      45.403  23.461  36.576  1.00  0.00     0.091 A 
ATOM     74  F   UNL A   1      45.856  25.784  36.286  1.00  0.00    -0.205 F 
ATOM     75  C   UNL A   1      44.894  22.262  36.054  1.00  0.00     0.022 A 
BRANCH  73  76
ATOM     76  S   UNL A   1      46.056  23.415  38.249  1.00  0.00     0.127 S 
ATOM     77  O   UNL A   1      45.172  24.357  38.935  1.00  0.00    -0.237 OA
ATOM     78  O   UNL A   1      45.860  22.013  38.617  1.00  0.00    -0.237 OA
ATOM     79  O   UNL A   1      47.449  23.827  38.148  1.00  0.00    -0.744 OA
ENDBRANCH  73  76
ENDBRANCH  55  69
BRANCH  56  80
ATOM     80  C   UNL A   1      45.098  32.772  28.910  1.00  0.00     0.023 A 
ATOM     81  C   UNL A   1      45.565  33.985  29.450  1.00  0.00     0.012 A 
ATOM     82  C   UNL A   1      44.622  32.750  27.582  1.00  0.00     0.148 A 
ATOM     83  C   UNL A   1      45.522  35.159  28.695  1.00  0.00     0.002 A 
ATOM     84  C   UNL A   1      44.651  33.904  26.815  1.00  0.00     0.091 A 
ATOM     85  F   UNL A   1      44.150  31.593  27.096  1.00  0.00    -0.205 F 
ATOM     86  C   UNL A   1      45.076  35.117  27.376  1.00  0.00     0.022 A 
BRANCH  84  87
ATOM     87  S   UNL A   1      44.217  33.908  25.073  1.00  0.00     0.127 S 
ATOM     88  O   UNL A   1      45.384  34.553  24.479  1.00  0.00    -0.237 OA
ATOM     89  O   UNL A   1      44.091  32.477  24.795  1.00  0.00    -0.237 OA
ATOM     90  O   UNL A   1      42.967  34.650  24.979  1.00  0.00    -0.744 OA
ENDBRANCH  84  87
ENDBRANCH  56  80
BRANCH  68  91
ATOM     91  C   UNL A   1      49.667  27.619  29.911  1.00  0.00     0.023 A 
ATOM     92  C   UNL A   1      50.800  28.072  30.616  1.00  0.00     0.012 A 
ATOM     93  C   UNL A   1      49.846  26.906  28.709  1.00  0.00     0.148 A 
ATOM     94  C   UNL A   1      52.084  27.865  30.110  1.00  0.00     0.002 A 
ATOM     95  C   UNL A   1      51.131  26.655  28.239  1.00  0.00     0.091 A 
ATOM     96  F   UNL A   1      48.760  26.503  28.035  1.00  0.00    -0.205 F 
ATOM     97  C   UNL A   1      52.250  27.147  28.928  1.00  0.00     0.022 A 
BRANCH  95  98
ATOM     98  S   UNL A   1      51.440  25.661  26.775  1.00  0.00     0.127 S 
ATOM     99  O   UNL A   1      50.645  24.467  27.053  1.00  0.00    -0.237 OA
ATOM    100  O   UNL A   1      50.914  26.510  25.705  1.00  0.00    -0.237 OA
ATOM    101  O   UNL A   1      52.882  25.458  26.728  1.00  0.00    -0.744 OA
ENDBRANCH  95  98
ENDBRANCH  68  91
ENDBRANCH  42  43
ENDBRANCH  35  37
ENDBRANCH  34  35
ENDBRANCH  33  34
ENDBRANCH   1  33
TORSDOF 19
ENDMDL
MODEL 2
REMARK VINA RESULT:      -9.1      3.870     10.374
REMARK SMILES CS(=O)(=O)c1ccc(/C=C(/C(=O)OCCOC(=O)c2ccc(-c3c4nc(c(-c5cccc(S(=O)(=O)[O-])c5F)c5ccc([nH]5)c(-c5cccc(S(=O)(=O)[O-])c5F)c5nc(c(-c6cccc(S(=O)(=O)[O-])c6F)c6ccc3[nH]6)C=C5)C=C4)cc2)c2cccc(-c3ccc(S(C)(=O)=O)cc3)c2)cc1
REMARK SMILES IDX 14 1 13 2 11 3 12 4 10 5 9 6 8 7 5 8 6 9 99 10 7 11 98 12
REMARK SMILES IDX 2 13 1 14 3 15 4 16 82 17 83 18 97 19 84 20 86 21 85 22
REMARK SMILES IDX 87 23 88 24 96 25 89 26 95 27 90 28 91 29 92 30 93 31 94 32
REMARK SMILES IDX 15 33 16 34 17 35 18 36 19 37 20 38 81 39 21 40 80 41 22 42
REMARK SMILES IDX 23 43 24 44 74 45 25 46 79 47 73 48 75 49 26 50 78 51 72 52
REMARK SMILES IDX 71 53 27 55 59 56 39 57 58 58 40 59 43 60 57 61 76 62 41 63
REMARK SMILES IDX 42 64 56 66 77 67 44 68 28 69 29 70 37 71 30 72 32 73 38 74
REMARK SMILES IDX 31 75 33 76 34 77 35 78 36 79 60 80 61 81 69 82 62 83 64 84
REMARK SMILES IDX 70 85 63 86 65 87 66 88 67 89 68 90 45 91 46 92 54 93 47 94
REMARK SMILES IDX 49 95 55 96 48 97 50 98 51 99 52 100 53 101
REMARK H PARENT 75 54 43 65
REMARK Flexibility Score: inf
ROOT
ATOM      1  C   UNL A   1      50.039  26.902  24.523  1.00  0.00     0.275 C 
ENDROOT
BRANCH   1   2
ATOM      2  O   UNL A   1      49.155  25.777  24.753  1.00  0.00    -0.458 OA
BRANCH   2   3
ATOM      3  C   UNL A   1      47.836  25.997  24.504  1.00  0.00     0.338 C 
ATOM      4  O   UNL A   1      47.396  26.921  23.833  1.00  0.00    -0.246 OA
BRANCH   3   5
ATOM      5  C   UNL A   1      46.947  24.937  25.092  1.00  0.00     0.067 C 
ATOM      6  C   UNL A   1      46.561  23.857  24.372  1.00  0.00     0.024 C 
BRANCH   6   7
ATOM      7  C   UNL A   1      45.762  22.720  24.890  1.00  0.00    -0.025 A 
ATOM      8  C   UNL A   1      44.138  20.486  25.396  1.00  0.00     0.067 A 
ATOM      9  C   UNL A   1      45.515  20.330  25.324  1.00  0.00     0.021 A 
ATOM     10  C   UNL A   1      43.571  21.764  25.323  1.00  0.00     0.021 A 
ATOM     11  C   UNL A   1      46.316  21.455  25.133  1.00  0.00     0.009 A 
ATOM     12  C   UNL A   1      44.383  22.876  25.066  1.00  0.00     0.009 A 
BRANCH   8  13
ATOM     13  S   UNL A   1      43.056  19.086  25.527  1.00  0.00     0.175 S 
ATOM     14  C   UNL A   1      43.137  18.514  27.205  1.00  0.00     0.163 C 
ATOM     15  O   UNL A   1      43.625  18.047  24.689  1.00  0.00    -0.224 OA
ATOM     16  O   UNL A   1      41.715  19.586  25.286  1.00  0.00    -0.224 OA
ENDBRANCH   8  13
ENDBRANCH   6   7
BRANCH   5  17
ATOM     17  C   UNL A   1      46.472  25.155  26.482  1.00  0.00    -0.010 A 
ATOM     18  C   UNL A   1      47.420  24.952  27.494  1.00  0.00     0.009 A 
ATOM     19  C   UNL A   1      45.224  25.712  26.816  1.00  0.00     0.017 A 
ATOM     20  C   UNL A   1      47.110  25.188  28.825  1.00  0.00     0.001 A 
ATOM     21  C   UNL A   1      44.928  26.023  28.159  1.00  0.00    -0.018 A 
ATOM     22  C   UNL A   1      45.850  25.645  29.154  1.00  0.00     0.009 A 
BRANCH  21  23
ATOM     23  C   UNL A   1      43.818  26.897  28.578  1.00  0.00    -0.018 A 
ATOM     24  C   UNL A   1      43.135  26.551  29.767  1.00  0.00     0.010 A 
ATOM     25  C   UNL A   1      43.378  28.020  27.869  1.00  0.00     0.010 A 
ATOM     26  C   UNL A   1      42.022  27.249  30.208  1.00  0.00     0.021 A 
ATOM     27  C   UNL A   1      42.254  28.741  28.310  1.00  0.00     0.021 A 
ATOM     28  C   UNL A   1      41.574  28.331  29.463  1.00  0.00     0.067 A 
BRANCH  28  29
ATOM     29  S   UNL A   1      40.117  29.172  30.026  1.00  0.00     0.175 S 
ATOM     30  C   UNL A   1      38.879  28.693  28.844  1.00  0.00     0.163 C 
ATOM     31  O   UNL A   1      39.769  28.588  31.313  1.00  0.00    -0.224 OA
ATOM     32  O   UNL A   1      40.341  30.595  29.897  1.00  0.00    -0.224 OA
ENDBRANCH  28  29
ENDBRANCH  21  23
ENDBRANCH   5  17
ENDBRANCH   3   5
ENDBRANCH   2   3
ENDBRANCH   1   2
BRANCH   1  33
ATOM     33  C   UNL A   1      50.988  27.124  25.705  1.00  0.00     0.275 C 
BRANCH  33  34
ATOM     34  O   UNL A   1      50.300  26.872  26.944  1.00  0.00    -0.458 OA
BRANCH  34  35
ATOM     35  C   UNL A   1      50.521  27.757  27.946  1.00  0.00     0.338 C 
ATOM     36  O   UNL A   1      51.574  27.965  28.525  1.00  0.00    -0.246 OA
BRANCH  35  37
ATOM     37  C   UNL A   1      49.322  28.590  28.156  1.00  0.00     0.060 A 
ATOM     38  C   UNL A   1      49.298  29.355  29.303  1.00  0.00     0.016 A 
ATOM     39  C   UNL A   1      48.156  28.466  27.393  1.00  0.00     0.016 A 
ATOM     40  C   UNL A   1      48.088  29.845  29.772  1.00  0.00     0.010 A 
ATOM     41  C   UNL A   1      46.949  29.060  27.834  1.00  0.00     0.010 A 
ATOM     42  C   UNL A   1      46.877  29.704  29.080  1.00  0.00    -0.014 A 
BRANCH  42  43
ATOM     43  C   UNL A   1      45.618  30.180  29.760  1.00  0.00     0.031 A 
ATOM     44  C   UNL A   1      45.052  29.481  30.981  1.00  0.00     0.074 A 
ATOM     45  C   UNL A   1      45.064  31.370  29.420  1.00  0.00     0.049 A 
ATOM     46  N   UNL A   1      43.979  29.780  31.679  1.00  0.00    -0.248 NA
ATOM     47  C   UNL A   1      45.795  28.330  31.510  1.00  0.00     0.031 C 
ATOM     48  C   UNL A   1      45.539  32.252  28.350  1.00  0.00     0.029 A 
ATOM     49  N   UNL A   1      44.018  32.076  29.973  1.00  0.00    -0.354 N 
ATOM     50  C   UNL A   1      43.881  28.816  32.678  1.00  0.00     0.074 A 
ATOM     51  C   UNL A   1      45.028  27.945  32.522  1.00  0.00     0.031 C 
ATOM     52  C   UNL A   1      44.866  33.408  28.391  1.00  0.00     0.029 A 
ATOM     53  C   UNL A   1      43.790  33.291  29.364  1.00  0.00     0.049 A 
ATOM     54  H   UNL A   1      43.483  31.744  30.730  1.00  0.00     0.167 HD
ATOM     55  C   UNL A   1      42.927  28.657  33.632  1.00  0.00     0.034 A 
ATOM     56  C   UNL A   1      42.796  34.192  29.500  1.00  0.00     0.034 A 
ATOM     57  C   UNL A   1      41.798  29.533  33.834  1.00  0.00     0.049 A 
ATOM     58  C   UNL A   1      41.690  33.930  30.480  1.00  0.00     0.074 A 
ATOM     59  C   UNL A   1      40.766  29.406  34.750  1.00  0.00     0.029 A 
ATOM     60  N   UNL A   1      41.547  30.692  33.120  1.00  0.00    -0.354 N 
ATOM     61  N   UNL A   1      41.594  32.991  31.385  1.00  0.00    -0.248 NA
ATOM     62  C   UNL A   1      40.552  34.861  30.453  1.00  0.00     0.031 C 
ATOM     63  C   UNL A   1      39.870  30.466  34.562  1.00  0.00     0.029 A 
ATOM     64  C   UNL A   1      40.370  31.280  33.561  1.00  0.00     0.049 A 
ATOM     65  H   UNL A   1      42.119  31.047  32.402  1.00  0.00     0.167 HD
ATOM     66  C   UNL A   1      40.395  33.227  32.048  1.00  0.00     0.074 A 
ATOM     67  C   UNL A   1      39.825  34.425  31.471  1.00  0.00     0.031 C 
ATOM     68  C   UNL A   1      39.812  32.497  33.029  1.00  0.00     0.034 A 
BRANCH  55  69
ATOM     69  C   UNL A   1      43.021  27.434  34.510  1.00  0.00     0.023 A 
ATOM     70  C   UNL A   1      42.408  26.224  34.132  1.00  0.00     0.012 A 
ATOM     71  C   UNL A   1      43.773  27.485  35.702  1.00  0.00     0.148 A 
ATOM     72  C   UNL A   1      42.511  25.094  34.947  1.00  0.00     0.002 A 
ATOM     73  C   UNL A   1      43.908  26.346  36.485  1.00  0.00     0.091 A 
ATOM     74  F   UNL A   1      44.337  28.651  36.050  1.00  0.00    -0.205 F 
ATOM     75  C   UNL A   1      43.266  25.154  36.117  1.00  0.00     0.022 A 
BRANCH  73  76
ATOM     76  S   UNL A   1      44.924  26.308  37.966  1.00  0.00     0.127 S 
ATOM     77  O   UNL A   1      44.275  27.326  38.792  1.00  0.00    -0.237 OA
ATOM     78  O   UNL A   1      44.738  24.934  38.430  1.00  0.00    -0.237 OA
ATOM     79  O   UNL A   1      46.278  26.625  37.533  1.00  0.00    -0.744 OA
ENDBRANCH  73  76
ENDBRANCH  55  69
BRANCH  56  80
ATOM     80  C   UNL A   1      42.744  35.397  28.617  1.00  0.00     0.023 A 
ATOM     81  C   UNL A   1      42.220  35.297  27.315  1.00  0.00     0.012 A 
ATOM     82  C   UNL A   1      43.256  36.635  29.058  1.00  0.00     0.148 A 
ATOM     83  C   UNL A   1      42.243  36.397  26.456  1.00  0.00     0.002 A 
ATOM     84  C   UNL A   1      43.209  37.742  28.224  1.00  0.00     0.091 A 
ATOM     85  F   UNL A   1      43.782  36.704  30.289  1.00  0.00    -0.205 F 
ATOM     86  C   UNL A   1      42.726  37.622  26.913  1.00  0.00     0.022 A 
BRANCH  84  87
ATOM     87  S   UNL A   1      43.689  39.380  28.779  1.00  0.00     0.127 S 
ATOM     88  O   UNL A   1      42.418  39.916  29.257  1.00  0.00    -0.237 OA
ATOM     89  O   UNL A   1      44.662  39.066  29.825  1.00  0.00    -0.237 OA
ATOM     90  O   UNL A   1      44.256  40.042  27.611  1.00  0.00    -0.744 OA
ENDBRANCH  84  87
ENDBRANCH  56  80
BRANCH  68  91
ATOM     91  C   UNL A   1      38.501  32.999  33.585  1.00  0.00     0.023 A 
ATOM     92  C   UNL A   1      38.456  33.605  34.857  1.00  0.00     0.012 A 
ATOM     93  C   UNL A   1      37.313  32.886  32.837  1.00  0.00     0.148 A 
ATOM     94  C   UNL A   1      37.246  34.045  35.395  1.00  0.00     0.002 A 
ATOM     95  C   UNL A   1      36.119  33.377  33.356  1.00  0.00     0.091 A 
ATOM     96  F   UNL A   1      37.364  32.285  31.640  1.00  0.00    -0.205 F 
ATOM     97  C   UNL A   1      36.080  33.941  34.640  1.00  0.00     0.022 A 
BRANCH  95  98
ATOM     98  S   UNL A   1      34.588  33.367  32.415  1.00  0.00     0.127 S 
ATOM     99  O   UNL A   1      34.722  32.135  31.641  1.00  0.00    -0.237 OA
ATOM    100  O   UNL A   1      33.575  33.320  33.470  1.00  0.00    -0.237 OA
ATOM    101  O   UNL A   1      34.591  34.600  31.638  1.00  0.00    -0.744 OA
ENDBRANCH  95  98
ENDBRANCH  68  91
ENDBRANCH  42  43
ENDBRANCH  35  37
ENDBRANCH  34  35
ENDBRANCH  33  34
ENDBRANCH   1  33
TORSDOF 19
ENDMDL
MODEL 3
REMARK VINA RESULT:      -9.1      4.401      6.915
REMARK SMILES CS(=O)(=O)c1ccc(/C=C(/C(=O)OCCOC(=O)c2ccc(-c3c4nc(c(-c5cccc(S(=O)(=O)[O-])c5F)c5ccc([nH]5)c(-c5cccc(S(=O)(=O)[O-])c5F)c5nc(c(-c6cccc(S(=O)(=O)[O-])c6F)c6ccc3[nH]6)C=C5)C=C4)cc2)c2cccc(-c3ccc(S(C)(=O)=O)cc3)c2)cc1
REMARK SMILES IDX 14 1 13 2 11 3 12 4 10 5 9 6 8 7 5 8 6 9 99 10 7 11 98 12
REMARK SMILES IDX 2 13 1 14 3 15 4 16 82 17 83 18 97 19 84 20 86 21 85 22
REMARK SMILES IDX 87 23 88 24 96 25 89 26 95 27 90 28 91 29 92 30 93 31 94 32
REMARK SMILES IDX 15 33 16 34 17 35 18 36 19 37 20 38 81 39 21 40 80 41 22 42
REMARK SMILES IDX 23 43 24 44 74 45 25 46 79 47 73 48 75 49 26 50 78 51 72 52
REMARK SMILES IDX 71 53 27 55 59 56 39 57 58 58 40 59 43 60 57 61 76 62 41 63
REMARK SMILES IDX 42 64 56 66 77 67 44 68 28 69 29 70 37 71 30 72 32 73 38 74
REMARK SMILES IDX 31 75 33 76 34 77 35 78 36 79 60 80 61 81 69 82 62 83 64 84
REMARK SMILES IDX 70 85 63 86 65 87 66 88 67 89 68 90 45 91 46 92 54 93 47 94
REMARK SMILES IDX 49 95 55 96 48 97 50 98 51 99 52 100 53 101
REMARK H PARENT 75 54 43 65
REMARK Flexibility Score: inf
ROOT
ATOM      1  C   UNL A   1      34.008  34.680  29.913  1.00  0.00     0.275 C 
ENDROOT
BRANCH   1   2
ATOM      2  O   UNL A   1      33.727  33.382  29.335  1.00  0.00    -0.458 OA
BRANCH   2   3
ATOM      3  C   UNL A   1      34.460  33.050  28.237  1.00  0.00     0.338 C 
ATOM      4  O   UNL A   1      35.104  33.840  27.562  1.00  0.00    -0.246 OA
BRANCH   3   5
ATOM      5  C   UNL A   1      34.454  31.573  27.959  1.00  0.00     0.067 C 
ATOM      6  C   UNL A   1      33.406  30.970  27.348  1.00  0.00     0.024 C 
BRANCH   6   7
ATOM      7  C   UNL A   1      33.346  29.542  26.953  1.00  0.00    -0.025 A 
ATOM      8  C   UNL A   1      32.833  26.971  25.948  1.00  0.00     0.067 A 
ATOM      9  C   UNL A   1      33.773  27.777  25.321  1.00  0.00     0.021 A 
ATOM     10  C   UNL A   1      32.223  27.396  27.135  1.00  0.00     0.021 A 
ATOM     11  C   UNL A   1      34.064  29.028  25.864  1.00  0.00     0.009 A 
ATOM     12  C   UNL A   1      32.478  28.681  27.631  1.00  0.00     0.009 A 
BRANCH   8  13
ATOM     13  S   UNL A   1      32.336  25.417  25.249  1.00  0.00     0.175 S 
ATOM     14  C   UNL A   1      33.104  25.289  23.655  1.00  0.00     0.163 C 
ATOM     15  O   UNL A   1      30.904  25.503  25.034  1.00  0.00    -0.224 OA
ATOM     16  O   UNL A   1      32.900  24.390  26.106  1.00  0.00    -0.224 OA
ENDBRANCH   8  13
ENDBRANCH   6   7
BRANCH   5  17
ATOM     17  C   UNL A   1      35.629  30.796  28.430  1.00  0.00    -0.010 A 
ATOM     18  C   UNL A   1      36.470  30.288  27.430  1.00  0.00     0.009 A 
ATOM     19  C   UNL A   1      36.033  30.705  29.775  1.00  0.00     0.017 A 
ATOM     20  C   UNL A   1      37.633  29.603  27.751  1.00  0.00     0.001 A 
ATOM     21  C   UNL A   1      37.250  30.074  30.103  1.00  0.00    -0.018 A 
ATOM     22  C   UNL A   1      37.973  29.435  29.078  1.00  0.00     0.009 A 
BRANCH  21  23
ATOM     23  C   UNL A   1      37.923  30.209  31.407  1.00  0.00    -0.018 A 
ATOM     24  C   UNL A   1      39.326  30.035  31.433  1.00  0.00     0.010 A 
ATOM     25  C   UNL A   1      37.270  30.468  32.618  1.00  0.00     0.010 A 
ATOM     26  C   UNL A   1      40.050  30.053  32.614  1.00  0.00     0.021 A 
ATOM     27  C   UNL A   1      37.994  30.496  33.822  1.00  0.00     0.021 A 
ATOM     28  C   UNL A   1      39.375  30.264  33.809  1.00  0.00     0.067 A 
BRANCH  28  29
ATOM     29  S   UNL A   1      40.321  30.230  35.308  1.00  0.00     0.175 S 
ATOM     30  C   UNL A   1      40.864  31.913  35.494  1.00  0.00     0.163 C 
ATOM     31  O   UNL A   1      39.389  29.931  36.385  1.00  0.00    -0.224 OA
ATOM     32  O   UNL A   1      41.485  29.400  35.087  1.00  0.00    -0.224 OA
ENDBRANCH  28  29
ENDBRANCH  21  23
ENDBRANCH   5  17
ENDBRANCH   3   5
ENDBRANCH   2   3
ENDBRANCH   1   2
BRANCH   1  33
ATOM     33  C   UNL A   1      34.518  34.559  31.352  1.00  0.00     0.275 C 
BRANCH  33  34
ATOM     34  O   UNL A   1      35.726  33.777  31.382  1.00  0.00    -0.458 OA
BRANCH  34  35
ATOM     35  C   UNL A   1      36.793  34.340  31.999  1.00  0.00     0.338 C 
ATOM     36  O   UNL A   1      36.780  35.044  32.995  1.00  0.00    -0.246 OA
BRANCH  35  37
ATOM     37  C   UNL A   1      38.044  33.848  31.391  1.00  0.00     0.060 A 
ATOM     38  C   UNL A   1      39.130  33.724  32.233  1.00  0.00     0.016 A 
ATOM     39  C   UNL A   1      38.234  33.730  30.010  1.00  0.00     0.016 A 
ATOM     40  C   UNL A   1      40.407  33.656  31.695  1.00  0.00     0.010 A 
ATOM     41  C   UNL A   1      39.536  33.557  29.482  1.00  0.00     0.010 A 
ATOM     42  C   UNL A   1      40.663  33.591  30.319  1.00  0.00    -0.014 A 
BRANCH  42  43
ATOM     43  C   UNL A   1      42.101  33.639  29.867  1.00  0.00     0.031 A 
ATOM     44  C   UNL A   1      42.862  32.386  29.478  1.00  0.00     0.074 A 
ATOM     45  C   UNL A   1      42.696  34.828  29.602  1.00  0.00     0.049 A 
ATOM     46  N   UNL A   1      44.104  32.271  29.063  1.00  0.00    -0.248 NA
ATOM     47  C   UNL A   1      42.137  31.109  29.523  1.00  0.00     0.031 C 
ATOM     48  C   UNL A   1      42.083  36.145  29.794  1.00  0.00     0.029 A 
ATOM     49  N   UNL A   1      43.927  35.127  29.058  1.00  0.00    -0.354 N 
ATOM     50  C   UNL A   1      44.327  30.911  28.869  1.00  0.00     0.074 A 
ATOM     51  C   UNL A   1      43.078  30.243  29.172  1.00  0.00     0.031 C 
ATOM     52  C   UNL A   1      42.883  37.090  29.285  1.00  0.00     0.029 A 
ATOM     53  C   UNL A   1      44.144  36.477  28.897  1.00  0.00     0.049 A 
ATOM     54  H   UNL A   1      44.587  34.441  28.809  1.00  0.00     0.167 HD
ATOM     55  C   UNL A   1      45.461  30.270  28.484  1.00  0.00     0.034 A 
ATOM     56  C   UNL A   1      45.245  37.175  28.549  1.00  0.00     0.034 A 
ATOM     57  C   UNL A   1      46.704  30.914  28.136  1.00  0.00     0.049 A 
ATOM     58  C   UNL A   1      46.518  36.442  28.245  1.00  0.00     0.074 A 
ATOM     59  C   UNL A   1      47.909  30.325  27.784  1.00  0.00     0.029 A 
ATOM     60  N   UNL A   1      46.912  32.283  28.095  1.00  0.00    -0.354 N 
ATOM     61  N   UNL A   1      46.720  35.157  28.108  1.00  0.00    -0.248 NA
ATOM     62  C   UNL A   1      47.721  37.265  28.045  1.00  0.00     0.031 C 
ATOM     63  C   UNL A   1      48.854  31.336  27.570  1.00  0.00     0.029 A 
ATOM     64  C   UNL A   1      48.226  32.557  27.741  1.00  0.00     0.049 A 
ATOM     65  H   UNL A   1      46.228  32.963  28.290  1.00  0.00     0.167 HD
ATOM     66  C   UNL A   1      48.066  35.017  27.790  1.00  0.00     0.074 A 
ATOM     67  C   UNL A   1      48.619  36.351  27.708  1.00  0.00     0.031 C 
ATOM     68  C   UNL A   1      48.780  33.880  27.609  1.00  0.00     0.034 A 
BRANCH  55  69
ATOM     69  C   UNL A   1      45.438  28.762  28.479  1.00  0.00     0.023 A 
ATOM     70  C   UNL A   1      45.752  28.030  29.640  1.00  0.00     0.012 A 
ATOM     71  C   UNL A   1      45.049  28.072  27.311  1.00  0.00     0.148 A 
ATOM     72  C   UNL A   1      45.716  26.634  29.627  1.00  0.00     0.002 A 
ATOM     73  C   UNL A   1      44.972  26.686  27.319  1.00  0.00     0.091 A 
ATOM     74  F   UNL A   1      44.767  28.788  26.213  1.00  0.00    -0.205 F 
ATOM     75  C   UNL A   1      45.319  25.964  28.471  1.00  0.00     0.022 A 
BRANCH  73  76
ATOM     76  S   UNL A   1      44.398  25.743  25.902  1.00  0.00     0.127 S 
ATOM     77  O   UNL A   1      44.212  24.416  26.489  1.00  0.00    -0.237 OA
ATOM     78  O   UNL A   1      43.158  26.437  25.554  1.00  0.00    -0.237 OA
ATOM     79  O   UNL A   1      45.450  25.841  24.900  1.00  0.00    -0.744 OA
ENDBRANCH  73  76
ENDBRANCH  55  69
BRANCH  56  80
ATOM     80  C   UNL A   1      45.225  38.669  28.556  1.00  0.00     0.023 A 
ATOM     81  C   UNL A   1      45.624  39.375  29.707  1.00  0.00     0.012 A 
ATOM     82  C   UNL A   1      44.767  39.389  27.433  1.00  0.00     0.148 A 
ATOM     83  C   UNL A   1      45.530  40.767  29.750  1.00  0.00     0.002 A 
ATOM     84  C   UNL A   1      44.746  40.775  27.458  1.00  0.00     0.091 A 
ATOM     85  F   UNL A   1      44.360  38.699  26.358  1.00  0.00    -0.205 F 
ATOM     86  C   UNL A   1      45.103  41.468  28.624  1.00  0.00     0.022 A 
BRANCH  84  87
ATOM     87  S   UNL A   1      44.334  41.753  26.011  1.00  0.00     0.127 S 
ATOM     88  O   UNL A   1      44.673  43.101  26.458  1.00  0.00    -0.237 OA
ATOM     89  O   UNL A   1      45.235  41.190  25.005  1.00  0.00    -0.237 OA
ATOM     90  O   UNL A   1      42.921  41.507  25.757  1.00  0.00    -0.744 OA
ENDBRANCH  84  87
ENDBRANCH  56  80
BRANCH  68  91
ATOM     91  C   UNL A   1      50.240  34.023  27.252  1.00  0.00     0.023 A 
ATOM     92  C   UNL A   1      51.227  33.916  28.253  1.00  0.00     0.012 A 
ATOM     93  C   UNL A   1      50.636  34.245  25.918  1.00  0.00     0.148 A 
ATOM     94  C   UNL A   1      52.578  34.077  27.941  1.00  0.00     0.002 A 
ATOM     95  C   UNL A   1      51.987  34.349  25.606  1.00  0.00     0.091 A 
ATOM     96  F   UNL A   1      49.686  34.370  24.981  1.00  0.00    -0.205 F 
ATOM     97  C   UNL A   1      52.959  34.282  26.617  1.00  0.00     0.022 A 
BRANCH  95  98
ATOM     98  S   UNL A   1      52.571  34.522  23.916  1.00  0.00     0.127 S 
ATOM     99  O   UNL A   1      52.024  33.321  23.288  1.00  0.00    -0.237 OA
ATOM    100  O   UNL A   1      51.941  35.774  23.495  1.00  0.00    -0.237 OA
ATOM    101  O   UNL A   1      54.025  34.578  24.001  1.00  0.00    -0.744 OA
ENDBRANCH  95  98
ENDBRANCH  68  91
ENDBRANCH  42  43
ENDBRANCH  35  37
ENDBRANCH  34  35
ENDBRANCH  33  34
ENDBRANCH   1  33
TORSDOF 19
ENDMDL
