MODEL 1
REMARK VINA RESULT:     -13.3      0.000      0.000
REMARK SMILES O=C(OCCOC(=O)c1nnn(-c2cccc(C(F)(F)F)c2)c1[C@@H]1COc2ccccc2O1)c1ccc(-c2c3nc(c(-c4cccc(S(=O)(=O)[O-])c4F)c4ccc([nH]4)c(-c4cccc(S(=O)(=O)[O-])c4F)c4nc(c(-c5cccc(S(=O)(=O)[O-])c5F)c5ccc2[nH]5)C=C4)C=C3)cc1
REMARK SMILES IDX 4 1 3 2 2 3 1 4 34 5 35 6 96 7 36 8 95 9 37 10 38 11 39 12
REMARK SMILES IDX 89 13 40 14 94 15 88 16 90 17 41 18 93 19 87 20 86 21 42 23
REMARK SMILES IDX 74 24 54 25 73 26 55 27 58 28 72 29 91 30 56 31 57 32 71 34
REMARK SMILES IDX 92 35 59 36 43 37 44 38 52 39 45 40 47 41 53 42 46 43 48 44
REMARK SMILES IDX 49 45 50 46 51 47 75 48 76 49 84 50 77 51 79 52 85 53 78 54
REMARK SMILES IDX 80 55 81 56 82 57 83 58 60 59 61 60 69 61 62 62 64 63 70 64
REMARK SMILES IDX 63 65 65 66 66 67 67 68 68 69 5 70 6 71 7 72 8 73 9 74 10 75
REMARK SMILES IDX 23 76 11 77 12 78 24 79 25 80 33 81 26 82 32 83 27 84 31 85
REMARK SMILES IDX 28 86 30 87 29 88 13 89 14 90 22 91 15 92 17 93 16 94 18 95
REMARK SMILES IDX 19 96 20 97 21 98
REMARK H PARENT 90 22 58 33
REMARK Flexibility Score: inf
ROOT
ATOM      1  C   UNL A   1      32.981  30.555  27.230  1.00  0.00     0.275 C 
ENDROOT
BRANCH   1   2
ATOM      2  O   UNL A   1      34.115  31.445  27.240  1.00  0.00    -0.458 OA
BRANCH   2   3
ATOM      3  C   UNL A   1      34.731  31.693  28.417  1.00  0.00     0.338 C 
ATOM      4  O   UNL A   1      34.200  32.271  29.350  1.00  0.00    -0.246 OA
BRANCH   3   5
ATOM      5  C   UNL A   1      36.061  31.048  28.498  1.00  0.00     0.060 A 
ATOM      6  C   UNL A   1      36.241  29.695  28.189  1.00  0.00     0.016 A 
ATOM      7  C   UNL A   1      37.151  31.825  28.918  1.00  0.00     0.016 A 
ATOM      8  C   UNL A   1      37.483  29.109  28.371  1.00  0.00     0.010 A 
ATOM      9  C   UNL A   1      38.393  31.234  29.116  1.00  0.00     0.010 A 
ATOM     10  C   UNL A   1      38.544  29.870  28.873  1.00  0.00    -0.014 A 
BRANCH  10  11
ATOM     11  C   UNL A   1      39.831  29.203  29.010  1.00  0.00     0.031 A 
ATOM     12  C   UNL A   1      40.299  29.068  30.414  1.00  0.00     0.074 A 
ATOM     13  C   UNL A   1      40.541  28.704  27.980  1.00  0.00     0.049 A 
ATOM     14  N   UNL A   1      41.254  29.724  30.988  1.00  0.00    -0.248 NA
ATOM     15  C   UNL A   1      39.526  28.215  31.324  1.00  0.00     0.031 C 
ATOM     16  C   UNL A   1      40.103  28.503  26.598  1.00  0.00     0.029 A 
ATOM     17  N   UNL A   1      41.791  28.159  27.992  1.00  0.00    -0.354 N 
ATOM     18  C   UNL A   1      41.360  29.190  32.270  1.00  0.00     0.074 A 
ATOM     19  C   UNL A   1      40.167  28.413  32.477  1.00  0.00     0.031 C 
ATOM     20  C   UNL A   1      40.973  27.671  25.976  1.00  0.00     0.029 A 
ATOM     21  C   UNL A   1      42.091  27.402  26.864  1.00  0.00     0.049 A 
ATOM     22  H   UNL A   1      42.426  28.289  28.734  1.00  0.00     0.167 HD
ATOM     23  C   UNL A   1      42.536  29.239  32.959  1.00  0.00     0.034 A 
ATOM     24  C   UNL A   1      43.149  26.567  26.707  1.00  0.00     0.034 A 
ATOM     25  C   UNL A   1      43.449  30.189  32.370  1.00  0.00     0.049 A 
ATOM     26  C   UNL A   1      44.184  26.967  27.687  1.00  0.00     0.074 A 
ATOM     27  C   UNL A   1      43.414  31.539  32.086  1.00  0.00     0.029 A 
ATOM     28  N   UNL A   1      44.493  29.677  31.639  1.00  0.00    -0.354 N 
ATOM     29  N   UNL A   1      44.856  28.080  27.607  1.00  0.00    -0.248 NA
ATOM     30  C   UNL A   1      44.189  26.320  28.989  1.00  0.00     0.031 C 
ATOM     31  C   UNL A   1      44.102  31.667  30.844  1.00  0.00     0.029 A 
ATOM     32  C   UNL A   1      44.575  30.404  30.484  1.00  0.00     0.049 A 
ATOM     33  H   UNL A   1      45.075  28.927  31.898  1.00  0.00     0.167 HD
ATOM     34  C   UNL A   1      44.952  28.511  28.922  1.00  0.00     0.074 A 
ATOM     35  C   UNL A   1      44.630  27.338  29.732  1.00  0.00     0.031 C 
ATOM     36  C   UNL A   1      44.994  29.843  29.221  1.00  0.00     0.034 A 
BRANCH  23  37
ATOM     37  C   UNL A   1      43.038  28.180  33.919  1.00  0.00     0.023 A 
ATOM     38  C   UNL A   1      44.092  27.350  33.466  1.00  0.00     0.012 A 
ATOM     39  C   UNL A   1      42.359  27.763  35.085  1.00  0.00     0.148 A 
ATOM     40  C   UNL A   1      44.390  26.130  34.082  1.00  0.00     0.002 A 
ATOM     41  C   UNL A   1      42.709  26.587  35.741  1.00  0.00     0.091 A 
ATOM     42  F   UNL A   1      41.283  28.428  35.510  1.00  0.00    -0.205 F 
ATOM     43  C   UNL A   1      43.697  25.747  35.221  1.00  0.00     0.022 A 
BRANCH  41  44
ATOM     44  S   UNL A   1      41.887  26.066  37.252  1.00  0.00     0.127 S 
ATOM     45  O   UNL A   1      41.590  24.668  36.955  1.00  0.00    -0.237 OA
ATOM     46  O   UNL A   1      42.938  26.281  38.247  1.00  0.00    -0.237 OA
ATOM     47  O   UNL A   1      40.738  26.950  37.399  1.00  0.00    -0.744 OA
ENDBRANCH  41  44
ENDBRANCH  23  37
BRANCH  24  48
ATOM     48  C   UNL A   1      43.265  25.298  25.951  1.00  0.00     0.023 A 
ATOM     49  C   UNL A   1      44.362  25.098  25.086  1.00  0.00     0.012 A 
ATOM     50  C   UNL A   1      42.483  24.179  26.307  1.00  0.00     0.148 A 
ATOM     51  C   UNL A   1      44.694  23.818  24.625  1.00  0.00     0.002 A 
ATOM     52  C   UNL A   1      42.816  22.909  25.844  1.00  0.00     0.091 A 
ATOM     53  F   UNL A   1      41.478  24.345  27.175  1.00  0.00    -0.205 F 
ATOM     54  C   UNL A   1      43.929  22.723  25.014  1.00  0.00     0.022 A 
BRANCH  52  55
ATOM     55  S   UNL A   1      41.901  21.442  26.334  1.00  0.00     0.127 S 
ATOM     56  O   UNL A   1      42.545  20.401  25.532  1.00  0.00    -0.237 OA
ATOM     57  O   UNL A   1      42.182  21.375  27.765  1.00  0.00    -0.237 OA
ATOM     58  O   UNL A   1      40.513  21.701  25.973  1.00  0.00    -0.744 OA
ENDBRANCH  52  55
ENDBRANCH  24  48
BRANCH  36  59
ATOM     59  C   UNL A   1      45.243  30.820  28.102  1.00  0.00     0.023 A 
ATOM     60  C   UNL A   1      44.204  31.423  27.365  1.00  0.00     0.012 A 
ATOM     61  C   UNL A   1      46.563  31.256  27.897  1.00  0.00     0.148 A 
ATOM     62  C   UNL A   1      44.481  32.415  26.420  1.00  0.00     0.002 A 
ATOM     63  C   UNL A   1      46.828  32.278  26.997  1.00  0.00     0.091 A 
ATOM     64  F   UNL A   1      47.543  30.672  28.605  1.00  0.00    -0.205 F 
ATOM     65  C   UNL A   1      45.793  32.853  26.246  1.00  0.00     0.022 A 
BRANCH  63  66
ATOM     66  S   UNL A   1      48.478  32.963  26.838  1.00  0.00     0.127 S 
ATOM     67  O   UNL A   1      48.303  33.942  25.769  1.00  0.00    -0.237 OA
ATOM     68  O   UNL A   1      48.713  33.538  28.165  1.00  0.00    -0.237 OA
ATOM     69  O   UNL A   1      49.346  31.833  26.525  1.00  0.00    -0.744 OA
ENDBRANCH  63  66
ENDBRANCH  36  59
ENDBRANCH  10  11
ENDBRANCH   3   5
ENDBRANCH   2   3
ENDBRANCH   1   2
BRANCH   1  70
ATOM     70  C   UNL A   1      32.869  29.575  26.064  1.00  0.00     0.275 C 
BRANCH  70  71
ATOM     71  O   UNL A   1      31.810  28.633  26.299  1.00  0.00    -0.457 OA
BRANCH  71  72
ATOM     72  C   UNL A   1      31.225  28.095  25.182  1.00  0.00     0.361 C 
ATOM     73  O   UNL A   1      30.692  28.752  24.293  1.00  0.00    -0.244 OA
BRANCH  72  74
ATOM     74  C   UNL A   1      31.235  26.643  25.207  1.00  0.00     0.198 A 
ATOM     75  N   UNL A   1      30.098  25.901  25.371  1.00  0.00    -0.122 NA
ATOM     76  C   UNL A   1      32.326  25.792  25.074  1.00  0.00     0.123 A 
ATOM     77  N   UNL A   1      30.432  24.620  25.331  1.00  0.00    -0.061 NA
ATOM     78  N   UNL A   1      31.780  24.534  25.271  1.00  0.00    -0.213 N 
BRANCH  76  79
ATOM     79  C   UNL A   1      33.732  26.097  24.654  1.00  0.00     0.262 C 
ATOM     80  C   UNL A   1      33.953  25.860  23.157  1.00  0.00     0.281 C 
ATOM     81  O   UNL A   1      34.693  25.461  25.504  1.00  0.00    -0.477 OA
ATOM     82  O   UNL A   1      34.067  24.467  22.865  1.00  0.00    -0.485 OA
ATOM     83  C   UNL A   1      35.383  24.439  24.902  1.00  0.00     0.162 A 
ATOM     84  C   UNL A   1      35.042  23.915  23.653  1.00  0.00     0.161 A 
ATOM     85  C   UNL A   1      36.414  23.858  25.640  1.00  0.00     0.050 A 
ATOM     86  C   UNL A   1      35.653  22.756  23.184  1.00  0.00     0.050 A 
ATOM     87  C   UNL A   1      37.061  22.720  25.150  1.00  0.00     0.004 A 
ATOM     88  C   UNL A   1      36.663  22.157  23.936  1.00  0.00     0.004 A 
ENDBRANCH  76  79
BRANCH  78  89
ATOM     89  C   UNL A   1      32.395  23.383  25.793  1.00  0.00     0.067 A 
ATOM     90  C   UNL A   1      32.907  23.401  27.090  1.00  0.00     0.028 A 
ATOM     91  C   UNL A   1      32.480  22.236  24.993  1.00  0.00     0.041 A 
ATOM     92  C   UNL A   1      33.417  22.220  27.626  1.00  0.00     0.003 A 
ATOM     93  C   UNL A   1      33.043  21.063  25.512  1.00  0.00     0.058 A 
ATOM     94  C   UNL A   1      33.476  21.058  26.848  1.00  0.00     0.013 A 
BRANCH  93  95
ATOM     95  C   UNL A   1      33.140  19.823  24.665  1.00  0.00     0.416 C 
ATOM     96  F   UNL A   1      32.695  20.006  23.389  1.00  0.00    -0.166 F 
ATOM     97  F   UNL A   1      34.417  19.361  24.549  1.00  0.00    -0.166 F 
ATOM     98  F   UNL A   1      32.416  18.775  25.155  1.00  0.00    -0.166 F 
ENDBRANCH  93  95
ENDBRANCH  78  89
ENDBRANCH  72  74
ENDBRANCH  71  72
ENDBRANCH  70  71
ENDBRANCH   1  70
TORSDOF 17
ENDMDL
MODEL 2
REMARK VINA RESULT:     -13.3      1.298      1.679
REMARK SMILES O=C(OCCOC(=O)c1nnn(-c2cccc(C(F)(F)F)c2)c1[C@@H]1COc2ccccc2O1)c1ccc(-c2c3nc(c(-c4cccc(S(=O)(=O)[O-])c4F)c4ccc([nH]4)c(-c4cccc(S(=O)(=O)[O-])c4F)c4nc(c(-c5cccc(S(=O)(=O)[O-])c5F)c5ccc2[nH]5)C=C4)C=C3)cc1
REMARK SMILES IDX 4 1 3 2 2 3 1 4 34 5 35 6 96 7 36 8 95 9 37 10 38 11 39 12
REMARK SMILES IDX 89 13 40 14 94 15 88 16 90 17 41 18 93 19 87 20 86 21 42 23
REMARK SMILES IDX 74 24 54 25 73 26 55 27 58 28 72 29 91 30 56 31 57 32 71 34
REMARK SMILES IDX 92 35 59 36 43 37 44 38 52 39 45 40 47 41 53 42 46 43 48 44
REMARK SMILES IDX 49 45 50 46 51 47 75 48 76 49 84 50 77 51 79 52 85 53 78 54
REMARK SMILES IDX 80 55 81 56 82 57 83 58 60 59 61 60 69 61 62 62 64 63 70 64
REMARK SMILES IDX 63 65 65 66 66 67 67 68 68 69 5 70 6 71 7 72 8 73 9 74 10 75
REMARK SMILES IDX 23 76 11 77 12 78 24 79 25 80 33 81 26 82 32 83 27 84 31 85
REMARK SMILES IDX 28 86 30 87 29 88 13 89 14 90 22 91 15 92 17 93 16 94 18 95
REMARK SMILES IDX 19 96 20 97 21 98
REMARK H PARENT 90 22 58 33
REMARK Flexibility Score: inf
ROOT
ATOM      1  C   UNL A   1      32.684  30.734  26.662  1.00  0.00     0.275 C 
ENDROOT
BRANCH   1   2
ATOM      2  O   UNL A   1      33.456  30.931  27.862  1.00  0.00    -0.458 OA
BRANCH   2   3
ATOM      3  C   UNL A   1      34.505  31.782  27.822  1.00  0.00     0.338 C 
ATOM      4  O   UNL A   1      34.394  32.986  27.663  1.00  0.00    -0.246 OA
BRANCH   3   5
ATOM      5  C   UNL A   1      35.783  31.109  28.148  1.00  0.00     0.060 A 
ATOM      6  C   UNL A   1      35.911  29.716  28.105  1.00  0.00     0.016 A 
ATOM      7  C   UNL A   1      36.874  31.905  28.526  1.00  0.00     0.016 A 
ATOM      8  C   UNL A   1      37.096  29.123  28.510  1.00  0.00     0.010 A 
ATOM      9  C   UNL A   1      38.057  31.310  28.948  1.00  0.00     0.010 A 
ATOM     10  C   UNL A   1      38.150  29.920  28.969  1.00  0.00    -0.014 A 
BRANCH  10  11
ATOM     11  C   UNL A   1      39.379  29.238  29.350  1.00  0.00     0.031 A 
ATOM     12  C   UNL A   1      39.736  29.383  30.785  1.00  0.00     0.074 A 
ATOM     13  C   UNL A   1      40.127  28.497  28.509  1.00  0.00     0.049 A 
ATOM     14  N   UNL A   1      40.688  30.100  31.286  1.00  0.00    -0.248 NA
ATOM     15  C   UNL A   1      38.847  28.782  31.785  1.00  0.00     0.031 C 
ATOM     16  C   UNL A   1      39.778  28.026  27.168  1.00  0.00     0.029 A 
ATOM     17  N   UNL A   1      41.336  27.908  28.739  1.00  0.00    -0.354 N 
ATOM     18  C   UNL A   1      40.668  29.847  32.656  1.00  0.00     0.074 A 
ATOM     19  C   UNL A   1      39.415  29.190  32.921  1.00  0.00     0.031 C 
ATOM     20  C   UNL A   1      40.634  27.041  26.808  1.00  0.00     0.029 A 
ATOM     21  C   UNL A   1      41.667  26.915  27.822  1.00  0.00     0.049 A 
ATOM     22  H   UNL A   1      41.923  28.164  29.487  1.00  0.00     0.167 HD
ATOM     23  C   UNL A   1      41.792  29.987  33.415  1.00  0.00     0.034 A 
ATOM     24  C   UNL A   1      42.678  26.017  27.933  1.00  0.00     0.034 A 
ATOM     25  C   UNL A   1      42.804  30.745  32.719  1.00  0.00     0.049 A 
ATOM     26  C   UNL A   1      43.664  26.567  28.890  1.00  0.00     0.074 A 
ATOM     27  C   UNL A   1      42.875  32.003  32.157  1.00  0.00     0.029 A 
ATOM     28  N   UNL A   1      43.862  30.040  32.200  1.00  0.00    -0.354 N 
ATOM     29  N   UNL A   1      44.410  27.605  28.636  1.00  0.00    -0.248 NA
ATOM     30  C   UNL A   1      43.534  26.214  30.294  1.00  0.00     0.031 C 
ATOM     31  C   UNL A   1      43.656  31.831  30.977  1.00  0.00     0.029 A 
ATOM     32  C   UNL A   1      44.072  30.500  30.930  1.00  0.00     0.049 A 
ATOM     33  H   UNL A   1      44.375  29.336  32.658  1.00  0.00     0.167 HD
ATOM     34  C   UNL A   1      44.438  28.301  29.834  1.00  0.00     0.074 A 
ATOM     35  C   UNL A   1      43.986  27.344  30.842  1.00  0.00     0.031 C 
ATOM     36  C   UNL A   1      44.544  29.663  29.851  1.00  0.00     0.034 A 
BRANCH  23  37
ATOM     37  C   UNL A   1      42.156  29.134  34.613  1.00  0.00     0.023 A 
ATOM     38  C   UNL A   1      42.716  29.801  35.730  1.00  0.00     0.012 A 
ATOM     39  C   UNL A   1      42.262  27.726  34.597  1.00  0.00     0.148 A 
ATOM     40  C   UNL A   1      43.420  29.115  36.725  1.00  0.00     0.002 A 
ATOM     41  C   UNL A   1      42.897  27.039  35.628  1.00  0.00     0.091 A 
ATOM     42  F   UNL A   1      41.862  27.034  33.528  1.00  0.00    -0.205 F 
ATOM     43  C   UNL A   1      43.512  27.732  36.673  1.00  0.00     0.022 A 
BRANCH  41  44
ATOM     44  S   UNL A   1      42.998  25.245  35.647  1.00  0.00     0.127 S 
ATOM     45  O   UNL A   1      43.677  25.005  36.916  1.00  0.00    -0.237 OA
ATOM     46  O   UNL A   1      41.584  24.870  35.618  1.00  0.00    -0.237 OA
ATOM     47  O   UNL A   1      43.735  24.880  34.444  1.00  0.00    -0.744 OA
ENDBRANCH  41  44
ENDBRANCH  23  37
BRANCH  24  48
ATOM     48  C   UNL A   1      42.767  24.612  27.471  1.00  0.00     0.023 A 
ATOM     49  C   UNL A   1      41.638  23.771  27.572  1.00  0.00     0.012 A 
ATOM     50  C   UNL A   1      43.841  24.192  26.657  1.00  0.00     0.148 A 
ATOM     51  C   UNL A   1      41.566  22.571  26.854  1.00  0.00     0.002 A 
ATOM     52  C   UNL A   1      43.764  22.998  25.946  1.00  0.00     0.091 A 
ATOM     53  F   UNL A   1      44.890  25.010  26.504  1.00  0.00    -0.205 F 
ATOM     54  C   UNL A   1      42.622  22.191  26.032  1.00  0.00     0.022 A 
BRANCH  52  55
ATOM     55  S   UNL A   1      45.070  22.461  24.835  1.00  0.00     0.127 S 
ATOM     56  O   UNL A   1      45.209  23.619  23.949  1.00  0.00    -0.237 OA
ATOM     57  O   UNL A   1      46.184  22.257  25.755  1.00  0.00    -0.237 OA
ATOM     58  O   UNL A   1      44.565  21.262  24.178  1.00  0.00    -0.744 OA
ENDBRANCH  52  55
ENDBRANCH  24  48
BRANCH  36  59
ATOM     59  C   UNL A   1      44.935  30.366  28.578  1.00  0.00     0.023 A 
ATOM     60  C   UNL A   1      43.991  30.895  27.674  1.00  0.00     0.012 A 
ATOM     61  C   UNL A   1      46.298  30.633  28.370  1.00  0.00     0.148 A 
ATOM     62  C   UNL A   1      44.403  31.646  26.569  1.00  0.00     0.002 A 
ATOM     63  C   UNL A   1      46.700  31.423  27.303  1.00  0.00     0.091 A 
ATOM     64  F   UNL A   1      47.186  30.122  29.238  1.00  0.00    -0.205 F 
ATOM     65  C   UNL A   1      45.758  31.922  26.391  1.00  0.00     0.022 A 
BRANCH  63  66
ATOM     66  S   UNL A   1      48.414  31.914  27.111  1.00  0.00     0.127 S 
ATOM     67  O   UNL A   1      48.333  32.899  26.036  1.00  0.00    -0.237 OA
ATOM     68  O   UNL A   1      48.735  32.467  28.429  1.00  0.00    -0.237 OA
ATOM     69  O   UNL A   1      49.141  30.690  26.794  1.00  0.00    -0.744 OA
ENDBRANCH  63  66
ENDBRANCH  36  59
ENDBRANCH  10  11
ENDBRANCH   3   5
ENDBRANCH   2   3
ENDBRANCH   1   2
BRANCH   1  70
ATOM     70  C   UNL A   1      32.824  29.389  25.952  1.00  0.00     0.275 C 
BRANCH  70  71
ATOM     71  O   UNL A   1      31.630  28.606  26.117  1.00  0.00    -0.457 OA
BRANCH  71  72
ATOM     72  C   UNL A   1      31.144  28.003  24.985  1.00  0.00     0.361 C 
ATOM     73  O   UNL A   1      30.662  28.606  24.031  1.00  0.00    -0.244 OA
BRANCH  72  74
ATOM     74  C   UNL A   1      31.192  26.555  25.077  1.00  0.00     0.198 A 
ATOM     75  N   UNL A   1      30.071  25.790  25.248  1.00  0.00    -0.122 NA
ATOM     76  C   UNL A   1      32.307  25.728  25.006  1.00  0.00     0.123 A 
ATOM     77  N   UNL A   1      30.439  24.518  25.274  1.00  0.00    -0.061 NA
ATOM     78  N   UNL A   1      31.790  24.466  25.248  1.00  0.00    -0.213 N 
BRANCH  76  79
ATOM     79  C   UNL A   1      33.714  26.053  24.604  1.00  0.00     0.262 C 
ATOM     80  C   UNL A   1      33.962  25.801  23.113  1.00  0.00     0.281 C 
ATOM     81  O   UNL A   1      34.673  25.443  25.475  1.00  0.00    -0.477 OA
ATOM     82  O   UNL A   1      34.104  24.407  22.840  1.00  0.00    -0.485 OA
ATOM     83  C   UNL A   1      35.389  24.426  24.897  1.00  0.00     0.162 A 
ATOM     84  C   UNL A   1      35.076  23.881  23.648  1.00  0.00     0.161 A 
ATOM     85  C   UNL A   1      36.418  23.870  25.656  1.00  0.00     0.050 A 
ATOM     86  C   UNL A   1      35.714  22.728  23.202  1.00  0.00     0.050 A 
ATOM     87  C   UNL A   1      37.091  22.738  25.189  1.00  0.00     0.004 A 
ATOM     88  C   UNL A   1      36.721  22.155  23.976  1.00  0.00     0.004 A 
ENDBRANCH  76  79
BRANCH  78  89
ATOM     89  C   UNL A   1      32.423  23.357  25.835  1.00  0.00     0.067 A 
ATOM     90  C   UNL A   1      32.842  23.424  27.163  1.00  0.00     0.028 A 
ATOM     91  C   UNL A   1      32.618  22.201  25.067  1.00  0.00     0.041 A 
ATOM     92  C   UNL A   1      33.370  22.279  27.758  1.00  0.00     0.003 A 
ATOM     93  C   UNL A   1      33.200  21.068  25.648  1.00  0.00     0.058 A 
ATOM     94  C   UNL A   1      33.539  21.107  27.010  1.00  0.00     0.013 A 
BRANCH  93  95
ATOM     95  C   UNL A   1      33.416  19.819  24.836  1.00  0.00     0.416 C 
ATOM     96  F   UNL A   1      32.891  18.702  25.416  1.00  0.00    -0.166 F 
ATOM     97  F   UNL A   1      32.856  19.892  23.596  1.00  0.00    -0.166 F 
ATOM     98  F   UNL A   1      34.734  19.532  24.625  1.00  0.00    -0.166 F 
ENDBRANCH  93  95
ENDBRANCH  78  89
ENDBRANCH  72  74
ENDBRANCH  71  72
ENDBRANCH  70  71
ENDBRANCH   1  70
TORSDOF 17
ENDMDL
MODEL 3
REMARK VINA RESULT:     -13.2      3.213      8.690
REMARK SMILES O=C(OCCOC(=O)c1nnn(-c2cccc(C(F)(F)F)c2)c1[C@@H]1COc2ccccc2O1)c1ccc(-c2c3nc(c(-c4cccc(S(=O)(=O)[O-])c4F)c4ccc([nH]4)c(-c4cccc(S(=O)(=O)[O-])c4F)c4nc(c(-c5cccc(S(=O)(=O)[O-])c5F)c5ccc2[nH]5)C=C4)C=C3)cc1
REMARK SMILES IDX 4 1 3 2 2 3 1 4 34 5 35 6 96 7 36 8 95 9 37 10 38 11 39 12
REMARK SMILES IDX 89 13 40 14 94 15 88 16 90 17 41 18 93 19 87 20 86 21 42 23
REMARK SMILES IDX 74 24 54 25 73 26 55 27 58 28 72 29 91 30 56 31 57 32 71 34
REMARK SMILES IDX 92 35 59 36 43 37 44 38 52 39 45 40 47 41 53 42 46 43 48 44
REMARK SMILES IDX 49 45 50 46 51 47 75 48 76 49 84 50 77 51 79 52 85 53 78 54
REMARK SMILES IDX 80 55 81 56 82 57 83 58 60 59 61 60 69 61 62 62 64 63 70 64
REMARK SMILES IDX 63 65 65 66 66 67 67 68 68 69 5 70 6 71 7 72 8 73 9 74 10 75
REMARK SMILES IDX 23 76 11 77 12 78 24 79 25 80 33 81 26 82 32 83 27 84 31 85
REMARK SMILES IDX 28 86 30 87 29 88 13 89 14 90 22 91 15 92 17 93 16 94 18 95
REMARK SMILES IDX 19 96 20 97 21 98
REMARK H PARENT 90 22 58 33
REMARK Flexibility Score: inf
ROOT
ATOM      1  C   UNL A   1      37.231  20.913  25.383  1.00  0.00     0.275 C 
ENDROOT
BRANCH   1   2
ATOM      2  O   UNL A   1      38.361  21.806  25.322  1.00  0.00    -0.458 OA
BRANCH   2   3
ATOM      3  C   UNL A   1      39.312  21.709  26.278  1.00  0.00     0.338 C 
ATOM      4  O   UNL A   1      39.893  20.672  26.552  1.00  0.00    -0.246 OA
BRANCH   3   5
ATOM      5  C   UNL A   1      39.674  23.030  26.840  1.00  0.00     0.060 A 
ATOM      6  C   UNL A   1      38.902  24.170  26.594  1.00  0.00     0.016 A 
ATOM      7  C   UNL A   1      40.837  23.122  27.620  1.00  0.00     0.016 A 
ATOM      8  C   UNL A   1      39.329  25.403  27.060  1.00  0.00     0.010 A 
ATOM      9  C   UNL A   1      41.275  24.361  28.074  1.00  0.00     0.010 A 
ATOM     10  C   UNL A   1      40.535  25.499  27.762  1.00  0.00    -0.014 A 
BRANCH  10  11
ATOM     11  C   UNL A   1      40.913  26.818  28.253  1.00  0.00     0.031 A 
ATOM     12  C   UNL A   1      42.224  27.303  27.748  1.00  0.00     0.074 A 
ATOM     13  C   UNL A   1      40.145  27.576  29.059  1.00  0.00     0.049 A 
ATOM     14  N   UNL A   1      43.329  27.400  28.409  1.00  0.00    -0.248 NA
ATOM     15  C   UNL A   1      42.358  27.569  26.312  1.00  0.00     0.031 C 
ATOM     16  C   UNL A   1      38.738  27.378  29.412  1.00  0.00     0.029 A 
ATOM     17  N   UNL A   1      40.448  28.767  29.651  1.00  0.00    -0.354 N 
ATOM     18  C   UNL A   1      44.245  27.974  27.529  1.00  0.00     0.074 A 
ATOM     19  C   UNL A   1      43.653  27.878  26.222  1.00  0.00     0.031 C 
ATOM     20  C   UNL A   1      38.251  28.523  29.947  1.00  0.00     0.029 A 
ATOM     21  C   UNL A   1      39.339  29.473  30.106  1.00  0.00     0.049 A 
ATOM     22  H   UNL A   1      41.370  29.098  29.748  1.00  0.00     0.167 HD
ATOM     23  C   UNL A   1      45.308  28.694  27.989  1.00  0.00     0.034 A 
ATOM     24  C   UNL A   1      39.316  30.767  30.516  1.00  0.00     0.034 A 
ATOM     25  C   UNL A   1      45.535  28.456  29.394  1.00  0.00     0.049 A 
ATOM     26  C   UNL A   1      40.697  31.143  30.890  1.00  0.00     0.074 A 
ATOM     27  C   UNL A   1      45.789  27.347  30.174  1.00  0.00     0.029 A 
ATOM     28  N   UNL A   1      45.146  29.446  30.263  1.00  0.00    -0.354 N 
ATOM     29  N   UNL A   1      41.316  30.664  31.931  1.00  0.00    -0.248 NA
ATOM     30  C   UNL A   1      41.547  31.744  29.875  1.00  0.00     0.031 C 
ATOM     31  C   UNL A   1      45.071  27.579  31.383  1.00  0.00     0.029 A 
ATOM     32  C   UNL A   1      44.484  28.843  31.296  1.00  0.00     0.049 A 
ATOM     33  H   UNL A   1      45.313  30.411  30.161  1.00  0.00     0.167 HD
ATOM     34  C   UNL A   1      42.616  30.467  31.491  1.00  0.00     0.074 A 
ATOM     35  C   UNL A   1      42.726  31.256  30.265  1.00  0.00     0.031 C 
ATOM     36  C   UNL A   1      43.383  29.458  31.999  1.00  0.00     0.034 A 
BRANCH  23  37
ATOM     37  C   UNL A   1      45.915  29.901  27.303  1.00  0.00     0.023 A 
ATOM     38  C   UNL A   1      47.314  30.076  27.429  1.00  0.00     0.012 A 
ATOM     39  C   UNL A   1      45.179  31.004  26.816  1.00  0.00     0.148 A 
ATOM     40  C   UNL A   1      47.932  31.304  27.173  1.00  0.00     0.002 A 
ATOM     41  C   UNL A   1      45.808  32.202  26.489  1.00  0.00     0.091 A 
ATOM     42  F   UNL A   1      43.846  30.959  26.777  1.00  0.00    -0.205 F 
ATOM     43  C   UNL A   1      47.178  32.369  26.703  1.00  0.00     0.022 A 
BRANCH  41  44
ATOM     44  S   UNL A   1      44.895  33.598  25.823  1.00  0.00     0.127 S 
ATOM     45  O   UNL A   1      44.104  34.008  26.979  1.00  0.00    -0.237 OA
ATOM     46  O   UNL A   1      45.978  34.511  25.456  1.00  0.00    -0.237 OA
ATOM     47  O   UNL A   1      44.148  33.074  24.687  1.00  0.00    -0.744 OA
ENDBRANCH  41  44
ENDBRANCH  23  37
BRANCH  24  48
ATOM     48  C   UNL A   1      38.253  31.791  30.395  1.00  0.00     0.023 A 
ATOM     49  C   UNL A   1      37.718  32.097  29.126  1.00  0.00     0.012 A 
ATOM     50  C   UNL A   1      37.555  32.238  31.538  1.00  0.00     0.148 A 
ATOM     51  C   UNL A   1      36.507  32.788  29.000  1.00  0.00     0.002 A 
ATOM     52  C   UNL A   1      36.352  32.925  31.408  1.00  0.00     0.091 A 
ATOM     53  F   UNL A   1      38.020  31.901  32.748  1.00  0.00    -0.205 F 
ATOM     54  C   UNL A   1      35.818  33.191  30.140  1.00  0.00     0.022 A 
BRANCH  52  55
ATOM     55  S   UNL A   1      35.387  33.442  32.833  1.00  0.00     0.127 S 
ATOM     56  O   UNL A   1      35.746  34.857  32.944  1.00  0.00    -0.237 OA
ATOM     57  O   UNL A   1      34.022  33.190  32.380  1.00  0.00    -0.237 OA
ATOM     58  O   UNL A   1      35.847  32.619  33.944  1.00  0.00    -0.744 OA
ENDBRANCH  52  55
ENDBRANCH  24  48
BRANCH  36  59
ATOM     59  C   UNL A   1      42.912  28.761  33.248  1.00  0.00     0.023 A 
ATOM     60  C   UNL A   1      41.896  27.784  33.244  1.00  0.00     0.012 A 
ATOM     61  C   UNL A   1      43.627  28.992  34.436  1.00  0.00     0.148 A 
ATOM     62  C   UNL A   1      41.579  27.078  34.409  1.00  0.00     0.002 A 
ATOM     63  C   UNL A   1      43.346  28.252  35.575  1.00  0.00     0.091 A 
ATOM     64  F   UNL A   1      44.591  29.927  34.425  1.00  0.00    -0.205 F 
ATOM     65  C   UNL A   1      42.314  27.302  35.571  1.00  0.00     0.022 A 
BRANCH  63  66
ATOM     66  S   UNL A   1      44.352  28.413  37.051  1.00  0.00     0.127 S 
ATOM     67  O   UNL A   1      43.773  27.399  37.929  1.00  0.00    -0.237 OA
ATOM     68  O   UNL A   1      45.695  28.102  36.556  1.00  0.00    -0.237 OA
ATOM     69  O   UNL A   1      44.192  29.795  37.489  1.00  0.00    -0.744 OA
ENDBRANCH  63  66
ENDBRANCH  36  59
ENDBRANCH  10  11
ENDBRANCH   3   5
ENDBRANCH   2   3
ENDBRANCH   1   2
BRANCH   1  70
ATOM     70  C   UNL A   1      35.853  21.540  25.584  1.00  0.00     0.275 C 
BRANCH  70  71
ATOM     71  O   UNL A   1      35.224  21.789  24.315  1.00  0.00    -0.457 OA
BRANCH  71  72
ATOM     72  C   UNL A   1      33.865  21.615  24.274  1.00  0.00     0.361 C 
ATOM     73  O   UNL A   1      33.289  20.572  24.569  1.00  0.00    -0.244 OA
BRANCH  72  74
ATOM     74  C   UNL A   1      33.182  22.789  23.760  1.00  0.00     0.198 A 
ATOM     75  N   UNL A   1      32.532  22.796  22.556  1.00  0.00    -0.122 NA
ATOM     76  C   UNL A   1      33.060  24.039  24.355  1.00  0.00     0.123 A 
ATOM     77  N   UNL A   1      31.999  23.995  22.381  1.00  0.00    -0.061 NA
ATOM     78  N   UNL A   1      32.403  24.792  23.395  1.00  0.00    -0.213 N 
BRANCH  76  79
ATOM     79  C   UNL A   1      33.392  24.469  25.753  1.00  0.00     0.262 C 
ATOM     80  C   UNL A   1      32.187  24.361  26.692  1.00  0.00     0.281 C 
ATOM     81  O   UNL A   1      34.051  25.740  25.778  1.00  0.00    -0.477 OA
ATOM     82  O   UNL A   1      31.266  25.431  26.479  1.00  0.00    -0.485 OA
ATOM     83  C   UNL A   1      33.289  26.756  26.298  1.00  0.00     0.162 A 
ATOM     84  C   UNL A   1      31.927  26.626  26.579  1.00  0.00     0.161 A 
ATOM     85  C   UNL A   1      33.915  27.992  26.457  1.00  0.00     0.050 A 
ATOM     86  C   UNL A   1      31.167  27.742  26.918  1.00  0.00     0.050 A 
ATOM     87  C   UNL A   1      33.163  29.105  26.843  1.00  0.00     0.004 A 
ATOM     88  C   UNL A   1      31.787  28.983  27.048  1.00  0.00     0.004 A 
ENDBRANCH  76  79
BRANCH  78  89
ATOM     89  C   UNL A   1      32.482  26.176  23.162  1.00  0.00     0.067 A 
ATOM     90  C   UNL A   1      33.699  26.746  22.791  1.00  0.00     0.028 A 
ATOM     91  C   UNL A   1      31.327  26.956  23.308  1.00  0.00     0.041 A 
ATOM     92  C   UNL A   1      33.733  28.100  22.461  1.00  0.00     0.003 A 
ATOM     93  C   UNL A   1      31.372  28.328  23.030  1.00  0.00     0.058 A 
ATOM     94  C   UNL A   1      32.578  28.883  22.569  1.00  0.00     0.013 A 
BRANCH  93  95
ATOM     95  C   UNL A   1      30.140  29.179  23.181  1.00  0.00     0.416 C 
ATOM     96  F   UNL A   1      29.901  29.976  22.101  1.00  0.00    -0.166 F 
ATOM     97  F   UNL A   1      29.007  28.441  23.355  1.00  0.00    -0.166 F 
ATOM     98  F   UNL A   1      30.194  30.024  24.251  1.00  0.00    -0.166 F 
ENDBRANCH  93  95
ENDBRANCH  78  89
ENDBRANCH  72  74
ENDBRANCH  71  72
ENDBRANCH  70  71
ENDBRANCH   1  70
TORSDOF 17
ENDMDL
