MODEL 1
REMARK VINA RESULT:     -10.3      0.000      0.000
REMARK SMILES C[NH2+]C[C@H](C)C(=O)N1CCC[C@@H]1C(=O)OCCOC(=O)c1ccc(-c2c3nc(c(-c4cccc(S(=O)(=O)[O-])c4F)c4ccc([nH]4)c(-c4cccc(S(=O)(=O)[O-])c4F)c4nc(c(-c5cccc(S(=O)(=O)[O-])c5F)c5ccc2[nH]5)C=C4)C=C3)cc1
REMARK SMILES IDX 16 1 15 2 13 3 14 4 12 5 8 6 9 7 10 8 11 9 6 10 7 11 4 12
REMARK SMILES IDX 5 13 3 14 2 15 1 16 17 19 18 20 19 21 20 22 21 23 22 24
REMARK SMILES IDX 83 25 23 26 82 27 24 28 25 29 26 30 76 31 27 32 81 33 75 34
REMARK SMILES IDX 77 35 28 36 80 37 74 38 73 39 29 41 61 42 41 43 60 44 42 45
REMARK SMILES IDX 45 46 59 47 78 48 43 49 44 50 58 52 79 53 46 54 30 55 31 56
REMARK SMILES IDX 39 57 32 58 34 59 40 60 33 61 35 62 36 63 37 64 38 65 62 66
REMARK SMILES IDX 63 67 71 68 64 69 66 70 72 71 65 72 67 73 68 74 69 75 70 76
REMARK SMILES IDX 47 77 48 78 56 79 49 80 51 81 57 82 50 83 52 84 53 85 54 86
REMARK SMILES IDX 55 87
REMARK H PARENT 2 17 2 18 77 40 45 51
REMARK Flexibility Score: inf
ROOT
ATOM      1  C   UNL A   1      36.499  22.227  23.820  1.00  0.00     0.274 C 
ENDROOT
BRANCH   1   2
ATOM      2  O   UNL A   1      35.593  22.932  24.698  1.00  0.00    -0.461 OA
BRANCH   2   3
ATOM      3  C   UNL A   1      34.656  23.707  24.080  1.00  0.00     0.328 C 
ATOM      4  O   UNL A   1      34.712  24.010  22.894  1.00  0.00    -0.250 OA
BRANCH   3   5
ATOM      5  C   UNL A   1      33.581  24.256  25.044  1.00  0.00     0.195 C 
ATOM      6  N   UNL A   1      32.405  23.380  25.167  1.00  0.00    -0.328 N 
ATOM      7  C   UNL A   1      31.193  24.181  25.157  1.00  0.00     0.120 C 
ATOM      8  C   UNL A   1      31.562  25.395  24.329  1.00  0.00     0.024 C 
ATOM      9  C   UNL A   1      33.017  25.644  24.700  1.00  0.00     0.039 C 
BRANCH   6  10
ATOM     10  C   UNL A   1      32.544  22.135  25.748  1.00  0.00     0.231 C 
ATOM     11  O   UNL A   1      32.867  22.022  26.931  1.00  0.00    -0.274 OA
BRANCH  10  12
ATOM     12  C   UNL A   1      32.429  20.873  24.889  1.00  0.00     0.130 C 
ATOM     13  C   UNL A   1      32.340  21.096  23.387  1.00  0.00     0.024 C 
BRANCH  12  14
ATOM     14  C   UNL A   1      33.433  19.780  25.318  1.00  0.00     0.273 C 
BRANCH  14  15
ATOM     15  N   UNL A   1      32.956  18.804  26.312  1.00  0.00    -0.348 N 
ATOM     16  C   UNL A   1      32.653  17.521  25.683  1.00  0.00     0.330 C 
ATOM     17  H   UNL A   1      33.679  18.667  27.019  1.00  0.00     0.346 HD
ATOM     18  H   UNL A   1      32.104  19.166  26.741  1.00  0.00     0.346 HD
ENDBRANCH  14  15
ENDBRANCH  12  14
ENDBRANCH  10  12
ENDBRANCH   6  10
ENDBRANCH   3   5
ENDBRANCH   2   3
ENDBRANCH   1   2
BRANCH   1  19
ATOM     19  C   UNL A   1      37.229  21.093  24.544  1.00  0.00     0.275 C 
BRANCH  19  20
ATOM     20  O   UNL A   1      37.624  21.487  25.866  1.00  0.00    -0.458 OA
BRANCH  20  21
ATOM     21  C   UNL A   1      38.920  21.236  26.165  1.00  0.00     0.338 C 
ATOM     22  O   UNL A   1      39.551  20.221  25.922  1.00  0.00    -0.246 OA
BRANCH  21  23
ATOM     23  C   UNL A   1      39.546  22.460  26.680  1.00  0.00     0.060 A 
ATOM     24  C   UNL A   1      39.099  23.680  26.163  1.00  0.00     0.016 A 
ATOM     25  C   UNL A   1      40.590  22.414  27.604  1.00  0.00     0.016 A 
ATOM     26  C   UNL A   1      39.695  24.868  26.564  1.00  0.00     0.010 A 
ATOM     27  C   UNL A   1      41.200  23.606  27.995  1.00  0.00     0.010 A 
ATOM     28  C   UNL A   1      40.765  24.834  27.463  1.00  0.00    -0.014 A 
BRANCH  28  29
ATOM     29  C   UNL A   1      41.495  26.080  27.770  1.00  0.00     0.031 A 
ATOM     30  C   UNL A   1      40.810  27.144  28.576  1.00  0.00     0.074 A 
ATOM     31  C   UNL A   1      42.752  26.249  27.324  1.00  0.00     0.049 A 
ATOM     32  N   UNL A   1      41.226  28.342  28.887  1.00  0.00    -0.248 NA
ATOM     33  C   UNL A   1      39.473  26.815  29.099  1.00  0.00     0.031 C 
ATOM     34  C   UNL A   1      43.512  25.265  26.553  1.00  0.00     0.029 A 
ATOM     35  N   UNL A   1      43.599  27.321  27.434  1.00  0.00    -0.354 N 
ATOM     36  C   UNL A   1      40.189  28.927  29.601  1.00  0.00     0.074 A 
ATOM     37  C   UNL A   1      39.125  27.951  29.686  1.00  0.00     0.031 C 
ATOM     38  C   UNL A   1      44.703  25.792  26.228  1.00  0.00     0.029 A 
ATOM     39  C   UNL A   1      44.776  27.158  26.742  1.00  0.00     0.049 A 
ATOM     40  H   UNL A   1      43.387  28.128  27.956  1.00  0.00     0.167 HD
ATOM     41  C   UNL A   1      40.136  30.165  30.144  1.00  0.00     0.034 A 
ATOM     42  C   UNL A   1      45.782  28.027  26.525  1.00  0.00     0.034 A 
ATOM     43  C   UNL A   1      41.215  31.113  30.080  1.00  0.00     0.049 A 
ATOM     44  C   UNL A   1      45.695  29.399  27.137  1.00  0.00     0.074 A 
ATOM     45  C   UNL A   1      41.284  32.380  30.629  1.00  0.00     0.029 A 
ATOM     46  N   UNL A   1      42.416  30.896  29.419  1.00  0.00    -0.354 N 
ATOM     47  N   UNL A   1      44.751  29.909  27.892  1.00  0.00    -0.248 NA
ATOM     48  C   UNL A   1      46.824  30.308  26.894  1.00  0.00     0.031 C 
ATOM     49  C   UNL A   1      42.523  32.934  30.289  1.00  0.00     0.029 A 
ATOM     50  C   UNL A   1      43.232  32.006  29.541  1.00  0.00     0.049 A 
ATOM     51  H   UNL A   1      42.653  30.071  28.935  1.00  0.00     0.167 HD
ATOM     52  C   UNL A   1      45.179  31.187  28.232  1.00  0.00     0.074 A 
ATOM     53  C   UNL A   1      46.482  31.364  27.622  1.00  0.00     0.031 C 
ATOM     54  C   UNL A   1      44.546  32.136  28.965  1.00  0.00     0.034 A 
BRANCH  41  55
ATOM     55  C   UNL A   1      38.877  30.554  30.870  1.00  0.00     0.023 A 
ATOM     56  C   UNL A   1      38.765  30.302  32.252  1.00  0.00     0.012 A 
ATOM     57  C   UNL A   1      37.821  31.195  30.194  1.00  0.00     0.148 A 
ATOM     58  C   UNL A   1      37.608  30.658  32.945  1.00  0.00     0.002 A 
ATOM     59  C   UNL A   1      36.687  31.580  30.900  1.00  0.00     0.091 A 
ATOM     60  F   UNL A   1      37.935  31.398  28.874  1.00  0.00    -0.205 F 
ATOM     61  C   UNL A   1      36.575  31.305  32.272  1.00  0.00     0.022 A 
BRANCH  59  62
ATOM     62  S   UNL A   1      35.330  32.473  30.132  1.00  0.00     0.127 S 
ATOM     63  O   UNL A   1      35.993  33.702  29.699  1.00  0.00    -0.237 OA
ATOM     64  O   UNL A   1      34.945  31.574  29.042  1.00  0.00    -0.237 OA
ATOM     65  O   UNL A   1      34.320  32.634  31.168  1.00  0.00    -0.744 OA
ENDBRANCH  59  62
ENDBRANCH  41  55
BRANCH  42  66
ATOM     66  C   UNL A   1      46.962  27.609  25.718  1.00  0.00     0.023 A 
ATOM     67  C   UNL A   1      46.966  27.834  24.328  1.00  0.00     0.012 A 
ATOM     68  C   UNL A   1      48.094  27.029  26.324  1.00  0.00     0.148 A 
ATOM     69  C   UNL A   1      48.068  27.471  23.552  1.00  0.00     0.002 A 
ATOM     70  C   UNL A   1      49.209  26.717  25.553  1.00  0.00     0.091 A 
ATOM     71  F   UNL A   1      48.064  26.800  27.644  1.00  0.00    -0.205 F 
ATOM     72  C   UNL A   1      49.193  26.925  24.165  1.00  0.00     0.022 A 
BRANCH  70  73
ATOM     73  S   UNL A   1      50.742  26.126  26.281  1.00  0.00     0.127 S 
ATOM     74  O   UNL A   1      51.591  25.968  25.104  1.00  0.00    -0.237 OA
ATOM     75  O   UNL A   1      51.111  27.235  27.163  1.00  0.00    -0.237 OA
ATOM     76  O   UNL A   1      50.391  24.897  26.983  1.00  0.00    -0.744 OA
ENDBRANCH  70  73
ENDBRANCH  42  66
BRANCH  54  77
ATOM     77  C   UNL A   1      45.260  33.446  29.166  1.00  0.00     0.023 A 
ATOM     78  C   UNL A   1      46.102  33.613  30.283  1.00  0.00     0.012 A 
ATOM     79  C   UNL A   1      45.164  34.475  28.210  1.00  0.00     0.148 A 
ATOM     80  C   UNL A   1      46.816  34.797  30.460  1.00  0.00     0.002 A 
ATOM     81  C   UNL A   1      45.913  35.635  28.370  1.00  0.00     0.091 A 
ATOM     82  F   UNL A   1      44.341  34.304  27.164  1.00  0.00    -0.205 F 
ATOM     83  C   UNL A   1      46.732  35.801  29.498  1.00  0.00     0.022 A 
BRANCH  81  84
ATOM     84  S   UNL A   1      45.934  36.936  27.131  1.00  0.00     0.127 S 
ATOM     85  O   UNL A   1      46.820  37.921  27.748  1.00  0.00    -0.237 OA
ATOM     86  O   UNL A   1      46.498  36.252  25.966  1.00  0.00    -0.237 OA
ATOM     87  O   UNL A   1      44.547  37.352  26.970  1.00  0.00    -0.744 OA
ENDBRANCH  81  84
ENDBRANCH  54  77
ENDBRANCH  28  29
ENDBRANCH  21  23
ENDBRANCH  20  21
ENDBRANCH  19  20
ENDBRANCH   1  19
TORSDOF 18
ENDMDL
MODEL 2
REMARK VINA RESULT:     -10.1      5.843      8.884
REMARK SMILES C[NH2+]C[C@H](C)C(=O)N1CCC[C@@H]1C(=O)OCCOC(=O)c1ccc(-c2c3nc(c(-c4cccc(S(=O)(=O)[O-])c4F)c4ccc([nH]4)c(-c4cccc(S(=O)(=O)[O-])c4F)c4nc(c(-c5cccc(S(=O)(=O)[O-])c5F)c5ccc2[nH]5)C=C4)C=C3)cc1
REMARK SMILES IDX 16 1 15 2 13 3 14 4 12 5 8 6 9 7 10 8 11 9 6 10 7 11 4 12
REMARK SMILES IDX 5 13 3 14 2 15 1 16 17 19 18 20 19 21 20 22 21 23 22 24
REMARK SMILES IDX 83 25 23 26 82 27 24 28 25 29 26 30 76 31 27 32 81 33 75 34
REMARK SMILES IDX 77 35 28 36 80 37 74 38 73 39 29 41 61 42 41 43 60 44 42 45
REMARK SMILES IDX 45 46 59 47 78 48 43 49 44 50 58 52 79 53 46 54 30 55 31 56
REMARK SMILES IDX 39 57 32 58 34 59 40 60 33 61 35 62 36 63 37 64 38 65 62 66
REMARK SMILES IDX 63 67 71 68 64 69 66 70 72 71 65 72 67 73 68 74 69 75 70 76
REMARK SMILES IDX 47 77 48 78 56 79 49 80 51 81 57 82 50 83 52 84 53 85 54 86
REMARK SMILES IDX 55 87
REMARK H PARENT 2 17 2 18 77 40 45 51
REMARK Flexibility Score: inf
ROOT
ATOM      1  C   UNL A   1      31.534  31.624  26.752  1.00  0.00     0.274 C 
ENDROOT
BRANCH   1   2
ATOM      2  O   UNL A   1      31.775  30.650  25.711  1.00  0.00    -0.461 OA
BRANCH   2   3
ATOM      3  C   UNL A   1      32.029  29.380  26.139  1.00  0.00     0.328 C 
ATOM      4  O   UNL A   1      31.498  28.886  27.126  1.00  0.00    -0.250 OA
BRANCH   3   5
ATOM      5  C   UNL A   1      33.132  28.667  25.324  1.00  0.00     0.195 C 
ATOM      6  N   UNL A   1      32.603  27.775  24.280  1.00  0.00    -0.328 N 
ATOM      7  C   UNL A   1      33.360  26.536  24.263  1.00  0.00     0.120 C 
ATOM      8  C   UNL A   1      33.832  26.375  25.693  1.00  0.00     0.024 C 
ATOM      9  C   UNL A   1      34.112  27.804  26.134  1.00  0.00     0.039 C 
BRANCH   6  10
ATOM     10  C   UNL A   1      31.915  28.315  23.211  1.00  0.00     0.231 C 
ATOM     11  O   UNL A   1      32.438  29.164  22.487  1.00  0.00    -0.274 OA
BRANCH  10  12
ATOM     12  C   UNL A   1      30.441  27.964  22.994  1.00  0.00     0.130 C 
ATOM     13  C   UNL A   1      29.820  27.032  24.023  1.00  0.00     0.024 C 
BRANCH  12  14
ATOM     14  C   UNL A   1      29.587  29.206  22.654  1.00  0.00     0.273 C 
BRANCH  14  15
ATOM     15  N   UNL A   1      29.720  30.361  23.557  1.00  0.00    -0.348 N 
ATOM     16  C   UNL A   1      28.918  31.488  23.087  1.00  0.00     0.330 C 
ATOM     17  H   UNL A   1      29.404  30.093  24.491  1.00  0.00     0.346 HD
ATOM     18  H   UNL A   1      30.699  30.645  23.581  1.00  0.00     0.346 HD
ENDBRANCH  14  15
ENDBRANCH  12  14
ENDBRANCH  10  12
ENDBRANCH   6  10
ENDBRANCH   3   5
ENDBRANCH   2   3
ENDBRANCH   1   2
BRANCH   1  19
ATOM     19  C   UNL A   1      32.762  32.501  27.007  1.00  0.00     0.275 C 
BRANCH  19  20
ATOM     20  O   UNL A   1      32.473  33.543  27.951  1.00  0.00    -0.458 OA
BRANCH  20  21
ATOM     21  C   UNL A   1      33.523  34.347  28.241  1.00  0.00     0.338 C 
ATOM     22  O   UNL A   1      33.530  35.566  28.282  1.00  0.00    -0.246 OA
BRANCH  21  23
ATOM     23  C   UNL A   1      34.654  33.526  28.692  1.00  0.00     0.060 A 
ATOM     24  C   UNL A   1      34.363  32.394  29.460  1.00  0.00     0.016 A 
ATOM     25  C   UNL A   1      35.973  33.889  28.422  1.00  0.00     0.016 A 
ATOM     26  C   UNL A   1      35.393  31.614  29.968  1.00  0.00     0.010 A 
ATOM     27  C   UNL A   1      37.008  33.114  28.947  1.00  0.00     0.010 A 
ATOM     28  C   UNL A   1      36.720  31.985  29.735  1.00  0.00    -0.014 A 
BRANCH  28  29
ATOM     29  C   UNL A   1      37.809  31.243  30.402  1.00  0.00     0.031 A 
ATOM     30  C   UNL A   1      38.141  31.567  31.829  1.00  0.00     0.074 A 
ATOM     31  C   UNL A   1      38.488  30.299  29.728  1.00  0.00     0.049 A 
ATOM     32  N   UNL A   1      39.106  31.107  32.577  1.00  0.00    -0.248 NA
ATOM     33  C   UNL A   1      37.269  32.546  32.501  1.00  0.00     0.031 C 
ATOM     34  C   UNL A   1      38.226  29.896  28.347  1.00  0.00     0.029 A 
ATOM     35  N   UNL A   1      39.555  29.527  30.110  1.00  0.00    -0.354 N 
ATOM     36  C   UNL A   1      38.989  31.770  33.792  1.00  0.00     0.074 A 
ATOM     37  C   UNL A   1      37.854  32.659  33.685  1.00  0.00     0.031 C 
ATOM     38  C   UNL A   1      39.132  28.974  27.983  1.00  0.00     0.029 A 
ATOM     39  C   UNL A   1      40.052  28.746  29.095  1.00  0.00     0.049 A 
ATOM     40  H   UNL A   1      39.929  29.532  31.021  1.00  0.00     0.167 HD
ATOM     41  C   UNL A   1      39.756  31.638  34.899  1.00  0.00     0.034 A 
ATOM     42  C   UNL A   1      41.146  27.960  29.061  1.00  0.00     0.034 A 
ATOM     43  C   UNL A   1      40.862  30.724  35.001  1.00  0.00     0.049 A 
ATOM     44  C   UNL A   1      41.983  27.835  30.305  1.00  0.00     0.074 A 
ATOM     45  C   UNL A   1      41.681  30.481  36.088  1.00  0.00     0.029 A 
ATOM     46  N   UNL A   1      41.304  29.906  33.972  1.00  0.00    -0.354 N 
ATOM     47  N   UNL A   1      41.808  28.394  31.479  1.00  0.00    -0.248 NA
ATOM     48  C   UNL A   1      43.155  26.950  30.232  1.00  0.00     0.031 C 
ATOM     49  C   UNL A   1      42.629  29.523  35.711  1.00  0.00     0.029 A 
ATOM     50  C   UNL A   1      42.390  29.159  34.394  1.00  0.00     0.049 A 
ATOM     51  H   UNL A   1      40.904  29.862  33.073  1.00  0.00     0.167 HD
ATOM     52  C   UNL A   1      42.830  27.913  32.290  1.00  0.00     0.074 A 
ATOM     53  C   UNL A   1      43.606  26.996  31.479  1.00  0.00     0.031 C 
ATOM     54  C   UNL A   1      43.114  28.215  33.581  1.00  0.00     0.034 A 
BRANCH  41  55
ATOM     55  C   UNL A   1      39.411  32.489  36.090  1.00  0.00     0.023 A 
ATOM     56  C   UNL A   1      39.994  33.765  36.227  1.00  0.00     0.012 A 
ATOM     57  C   UNL A   1      38.489  32.042  37.056  1.00  0.00     0.148 A 
ATOM     58  C   UNL A   1      39.685  34.572  37.321  1.00  0.00     0.002 A 
ATOM     59  C   UNL A   1      38.158  32.867  38.125  1.00  0.00     0.091 A 
ATOM     60  F   UNL A   1      37.969  30.813  36.925  1.00  0.00    -0.205 F 
ATOM     61  C   UNL A   1      38.761  34.128  38.264  1.00  0.00     0.022 A 
BRANCH  59  62
ATOM     62  S   UNL A   1      36.933  32.407  39.356  1.00  0.00     0.127 S 
ATOM     63  O   UNL A   1      37.301  31.020  39.635  1.00  0.00    -0.237 OA
ATOM     64  O   UNL A   1      37.221  33.343  40.444  1.00  0.00    -0.237 OA
ATOM     65  O   UNL A   1      35.637  32.599  38.721  1.00  0.00    -0.744 OA
ENDBRANCH  59  62
ENDBRANCH  41  55
BRANCH  42  66
ATOM     66  C   UNL A   1      41.485  27.213  27.817  1.00  0.00     0.023 A 
ATOM     67  C   UNL A   1      42.000  27.911  26.708  1.00  0.00     0.012 A 
ATOM     68  C   UNL A   1      41.339  25.814  27.741  1.00  0.00     0.148 A 
ATOM     69  C   UNL A   1      42.345  27.233  25.539  1.00  0.00     0.002 A 
ATOM     70  C   UNL A   1      41.733  25.138  26.592  1.00  0.00     0.091 A 
ATOM     71  F   UNL A   1      40.825  25.168  28.798  1.00  0.00    -0.205 F 
ATOM     72  C   UNL A   1      42.224  25.847  25.484  1.00  0.00     0.022 A 
BRANCH  70  73
ATOM     73  S   UNL A   1      41.726  23.343  26.486  1.00  0.00     0.127 S 
ATOM     74  O   UNL A   1      42.403  23.116  25.213  1.00  0.00    -0.237 OA
ATOM     75  O   UNL A   1      42.497  22.963  27.670  1.00  0.00    -0.237 OA
ATOM     76  O   UNL A   1      40.322  22.956  26.538  1.00  0.00    -0.744 OA
ENDBRANCH  70  73
ENDBRANCH  42  66
BRANCH  54  77
ATOM     77  C   UNL A   1      44.302  27.536  34.205  1.00  0.00     0.023 A 
ATOM     78  C   UNL A   1      45.572  28.138  34.116  1.00  0.00     0.012 A 
ATOM     79  C   UNL A   1      44.149  26.349  34.947  1.00  0.00     0.148 A 
ATOM     80  C   UNL A   1      46.677  27.555  34.734  1.00  0.00     0.002 A 
ATOM     81  C   UNL A   1      45.246  25.797  35.598  1.00  0.00     0.091 A 
ATOM     82  F   UNL A   1      42.935  25.780  35.003  1.00  0.00    -0.205 F 
ATOM     83  C   UNL A   1      46.512  26.394  35.484  1.00  0.00     0.022 A 
BRANCH  81  84
ATOM     84  S   UNL A   1      45.100  24.356  36.660  1.00  0.00     0.127 S 
ATOM     85  O   UNL A   1      44.162  24.827  37.677  1.00  0.00    -0.237 OA
ATOM     86  O   UNL A   1      44.558  23.347  35.750  1.00  0.00    -0.237 OA
ATOM     87  O   UNL A   1      46.449  24.074  37.133  1.00  0.00    -0.744 OA
ENDBRANCH  81  84
ENDBRANCH  54  77
ENDBRANCH  28  29
ENDBRANCH  21  23
ENDBRANCH  20  21
ENDBRANCH  19  20
ENDBRANCH   1  19
TORSDOF 18
ENDMDL
MODEL 3
REMARK VINA RESULT:     -10.0      1.594      2.613
REMARK SMILES C[NH2+]C[C@H](C)C(=O)N1CCC[C@@H]1C(=O)OCCOC(=O)c1ccc(-c2c3nc(c(-c4cccc(S(=O)(=O)[O-])c4F)c4ccc([nH]4)c(-c4cccc(S(=O)(=O)[O-])c4F)c4nc(c(-c5cccc(S(=O)(=O)[O-])c5F)c5ccc2[nH]5)C=C4)C=C3)cc1
REMARK SMILES IDX 16 1 15 2 13 3 14 4 12 5 8 6 9 7 10 8 11 9 6 10 7 11 4 12
REMARK SMILES IDX 5 13 3 14 2 15 1 16 17 19 18 20 19 21 20 22 21 23 22 24
REMARK SMILES IDX 83 25 23 26 82 27 24 28 25 29 26 30 76 31 27 32 81 33 75 34
REMARK SMILES IDX 77 35 28 36 80 37 74 38 73 39 29 41 61 42 41 43 60 44 42 45
REMARK SMILES IDX 45 46 59 47 78 48 43 49 44 50 58 52 79 53 46 54 30 55 31 56
REMARK SMILES IDX 39 57 32 58 34 59 40 60 33 61 35 62 36 63 37 64 38 65 62 66
REMARK SMILES IDX 63 67 71 68 64 69 66 70 72 71 65 72 67 73 68 74 69 75 70 76
REMARK SMILES IDX 47 77 48 78 56 79 49 80 51 81 57 82 50 83 52 84 53 85 54 86
REMARK SMILES IDX 55 87
REMARK H PARENT 2 17 2 18 77 40 45 51
REMARK Flexibility Score: inf
ROOT
ATOM      1  C   UNL A   1      35.841  20.823  25.222  1.00  0.00     0.274 C 
ENDROOT
BRANCH   1   2
ATOM      2  O   UNL A   1      35.468  21.811  24.233  1.00  0.00    -0.461 OA
BRANCH   2   3
ATOM      3  C   UNL A   1      34.510  22.701  24.620  1.00  0.00     0.328 C 
ATOM      4  O   UNL A   1      34.724  23.617  25.406  1.00  0.00    -0.250 OA
BRANCH   3   5
ATOM      5  C   UNL A   1      33.107  22.375  24.060  1.00  0.00     0.195 C 
ATOM      6  N   UNL A   1      32.341  23.571  23.673  1.00  0.00    -0.328 N 
ATOM      7  C   UNL A   1      30.963  23.433  24.111  1.00  0.00     0.120 C 
ATOM      8  C   UNL A   1      31.054  22.551  25.340  1.00  0.00     0.024 C 
ATOM      9  C   UNL A   1      32.179  21.585  24.995  1.00  0.00     0.039 C 
BRANCH   6  10
ATOM     10  C   UNL A   1      32.778  24.345  22.616  1.00  0.00     0.231 C 
ATOM     11  O   UNL A   1      33.407  23.842  21.683  1.00  0.00    -0.274 OA
BRANCH  10  12
ATOM     12  C   UNL A   1      32.604  25.865  22.657  1.00  0.00     0.130 C 
ATOM     13  C   UNL A   1      31.517  26.434  21.758  1.00  0.00     0.024 C 
BRANCH  12  14
ATOM     14  C   UNL A   1      32.596  26.415  24.101  1.00  0.00     0.273 C 
BRANCH  14  15
ATOM     15  N   UNL A   1      33.900  26.497  24.779  1.00  0.00    -0.348 N 
ATOM     16  C   UNL A   1      33.786  27.209  26.049  1.00  0.00     0.330 C 
ATOM     17  H   UNL A   1      34.245  25.552  24.956  1.00  0.00     0.346 HD
ATOM     18  H   UNL A   1      34.549  27.005  24.178  1.00  0.00     0.346 HD
ENDBRANCH  14  15
ENDBRANCH  12  14
ENDBRANCH  10  12
ENDBRANCH   6  10
ENDBRANCH   3   5
ENDBRANCH   2   3
ENDBRANCH   1   2
BRANCH   1  19
ATOM     19  C   UNL A   1      37.276  20.332  25.025  1.00  0.00     0.275 C 
BRANCH  19  20
ATOM     20  O   UNL A   1      38.224  21.387  25.242  1.00  0.00    -0.458 OA
BRANCH  20  21
ATOM     21  C   UNL A   1      39.227  21.076  26.096  1.00  0.00     0.338 C 
ATOM     22  O   UNL A   1      39.715  19.976  26.292  1.00  0.00    -0.246 OA
BRANCH  21  23
ATOM     23  C   UNL A   1      39.797  22.311  26.649  1.00  0.00     0.060 A 
ATOM     24  C   UNL A   1      39.324  23.524  26.139  1.00  0.00     0.016 A 
ATOM     25  C   UNL A   1      40.815  22.284  27.601  1.00  0.00     0.016 A 
ATOM     26  C   UNL A   1      39.869  24.724  26.576  1.00  0.00     0.010 A 
ATOM     27  C   UNL A   1      41.374  23.489  28.029  1.00  0.00     0.010 A 
ATOM     28  C   UNL A   1      40.913  24.710  27.505  1.00  0.00    -0.014 A 
BRANCH  28  29
ATOM     29  C   UNL A   1      41.592  25.975  27.852  1.00  0.00     0.031 A 
ATOM     30  C   UNL A   1      40.830  27.026  28.603  1.00  0.00     0.074 A 
ATOM     31  C   UNL A   1      42.872  26.170  27.491  1.00  0.00     0.049 A 
ATOM     32  N   UNL A   1      41.196  28.235  28.933  1.00  0.00    -0.248 NA
ATOM     33  C   UNL A   1      39.468  26.668  29.036  1.00  0.00     0.031 C 
ATOM     34  C   UNL A   1      43.705  25.201  26.780  1.00  0.00     0.029 A 
ATOM     35  N   UNL A   1      43.685  27.262  27.652  1.00  0.00    -0.354 N 
ATOM     36  C   UNL A   1      40.099  28.800  29.572  1.00  0.00     0.074 A 
ATOM     37  C   UNL A   1      39.055  27.799  29.590  1.00  0.00     0.031 C 
ATOM     38  C   UNL A   1      44.903  25.754  26.534  1.00  0.00     0.029 A 
ATOM     39  C   UNL A   1      44.909  27.123  27.043  1.00  0.00     0.049 A 
ATOM     40  H   UNL A   1      43.419  28.066  28.153  1.00  0.00     0.167 HD
ATOM     41  C   UNL A   1      39.982  30.038  30.102  1.00  0.00     0.034 A 
ATOM     42  C   UNL A   1      45.907  28.014  26.889  1.00  0.00     0.034 A 
ATOM     43  C   UNL A   1      41.041  31.011  30.105  1.00  0.00     0.049 A 
ATOM     44  C   UNL A   1      45.748  29.387  27.485  1.00  0.00     0.074 A 
ATOM     45  C   UNL A   1      41.043  32.281  30.650  1.00  0.00     0.029 A 
ATOM     46  N   UNL A   1      42.288  30.818  29.529  1.00  0.00    -0.354 N 
ATOM     47  N   UNL A   1      44.743  29.878  28.170  1.00  0.00    -0.248 NA
ATOM     48  C   UNL A   1      46.870  30.321  27.313  1.00  0.00     0.031 C 
ATOM     49  C   UNL A   1      42.290  32.863  30.391  1.00  0.00     0.029 A 
ATOM     50  C   UNL A   1      43.068  31.948  29.698  1.00  0.00     0.049 A 
ATOM     51  H   UNL A   1      42.576  29.997  29.067  1.00  0.00     0.167 HD
ATOM     52  C   UNL A   1      45.118  31.168  28.530  1.00  0.00     0.074 A 
ATOM     53  C   UNL A   1      46.455  31.372  28.009  1.00  0.00     0.031 C 
ATOM     54  C   UNL A   1      44.415  32.106  29.213  1.00  0.00     0.034 A 
BRANCH  41  55
ATOM     55  C   UNL A   1      38.668  30.401  30.738  1.00  0.00     0.023 A 
ATOM     56  C   UNL A   1      38.428  30.059  32.085  1.00  0.00     0.012 A 
ATOM     57  C   UNL A   1      37.685  31.106  30.017  1.00  0.00     0.148 A 
ATOM     58  C   UNL A   1      37.218  30.390  32.695  1.00  0.00     0.002 A 
ATOM     59  C   UNL A   1      36.496  31.465  30.644  1.00  0.00     0.091 A 
ATOM     60  F   UNL A   1      37.920  31.396  28.729  1.00  0.00    -0.205 F 
ATOM     61  C   UNL A   1      36.258  31.100  31.979  1.00  0.00     0.022 A 
BRANCH  59  62
ATOM     62  S   UNL A   1      35.226  32.433  29.822  1.00  0.00     0.127 S 
ATOM     63  O   UNL A   1      34.756  31.497  28.801  1.00  0.00    -0.237 OA
ATOM     64  O   UNL A   1      34.274  32.679  30.906  1.00  0.00    -0.237 OA
ATOM     65  O   UNL A   1      35.894  33.626  29.321  1.00  0.00    -0.744 OA
ENDBRANCH  59  62
ENDBRANCH  41  55
BRANCH  42  66
ATOM     66  C   UNL A   1      47.149  27.620  26.166  1.00  0.00     0.023 A 
ATOM     67  C   UNL A   1      48.171  26.945  26.861  1.00  0.00     0.012 A 
ATOM     68  C   UNL A   1      47.306  27.873  24.789  1.00  0.00     0.148 A 
ATOM     69  C   UNL A   1      49.335  26.546  26.203  1.00  0.00     0.002 A 
ATOM     70  C   UNL A   1      48.445  27.427  24.128  1.00  0.00     0.091 A 
ATOM     71  F   UNL A   1      46.333  28.538  24.148  1.00  0.00    -0.205 F 
ATOM     72  C   UNL A   1      49.467  26.775  24.835  1.00  0.00     0.022 A 
BRANCH  70  73
ATOM     73  S   UNL A   1      48.638  27.573  22.347  1.00  0.00     0.127 S 
ATOM     74  O   UNL A   1      48.650  26.173  21.932  1.00  0.00    -0.237 OA
ATOM     75  O   UNL A   1      47.435  28.316  21.968  1.00  0.00    -0.237 OA
ATOM     76  O   UNL A   1      49.880  28.307  22.148  1.00  0.00    -0.744 OA
ENDBRANCH  70  73
ENDBRANCH  42  66
BRANCH  54  77
ATOM     77  C   UNL A   1      45.084  33.432  29.453  1.00  0.00     0.023 A 
ATOM     78  C   UNL A   1      45.881  33.609  30.600  1.00  0.00     0.012 A 
ATOM     79  C   UNL A   1      44.991  34.470  28.507  1.00  0.00     0.148 A 
ATOM     80  C   UNL A   1      46.555  34.811  30.816  1.00  0.00     0.002 A 
ATOM     81  C   UNL A   1      45.700  35.649  28.705  1.00  0.00     0.091 A 
ATOM     82  F   UNL A   1      44.210  34.289  27.431  1.00  0.00    -0.205 F 
ATOM     83  C   UNL A   1      46.474  35.824  29.863  1.00  0.00     0.022 A 
BRANCH  81  84
ATOM     84  S   UNL A   1      45.726  36.965  27.483  1.00  0.00     0.127 S 
ATOM     85  O   UNL A   1      46.238  36.269  26.304  1.00  0.00    -0.237 OA
ATOM     86  O   UNL A   1      44.316  37.347  27.402  1.00  0.00    -0.237 OA
ATOM     87  O   UNL A   1      46.596  37.997  28.031  1.00  0.00    -0.744 OA
ENDBRANCH  81  84
ENDBRANCH  54  77
ENDBRANCH  28  29
ENDBRANCH  21  23
ENDBRANCH  20  21
ENDBRANCH  19  20
ENDBRANCH   1  19
TORSDOF 18
ENDMDL
