MODEL 1
REMARK VINA RESULT:     -13.3      0.000      0.000
REMARK SMILES O=C(OCCOC(=O)c1ccc(-c2c3nc(c(-c4cccc(S(=O)(=O)[O-])c4F)c4ccc([nH]4)c(-c4cccc(S(=O)(=O)[O-])c4F)c4nc(c(-c5cccc(S(=O)(=O)[O-])c5F)c5ccc2[nH]5)C=C4)C=C3)cc1)c1ccc(NC(=O)[C@@H]2CC=CC[C@H]2C(=O)Nc2cccc([N+](=O)[O-])c2)cc1
REMARK SMILES IDX 4 1 3 2 2 3 1 4 72 5 73 6 98 7 74 8 97 9 75 10 76 11 77 12
REMARK SMILES IDX 78 14 79 15 80 16 84 17 81 18 83 19 82 20 85 21 86 22 87 23
REMARK SMILES IDX 88 25 89 26 96 27 90 28 92 29 91 30 93 31 94 32 95 33 5 34
REMARK SMILES IDX 6 35 7 36 8 37 9 38 10 39 71 40 11 41 70 42 12 43 13 44
REMARK SMILES IDX 14 45 64 46 15 47 69 48 63 49 65 50 16 51 68 52 62 53 61 54
REMARK SMILES IDX 17 56 49 57 29 58 48 59 30 60 33 61 47 62 66 63 31 64 32 65
REMARK SMILES IDX 46 67 67 68 34 69 18 70 19 71 27 72 20 73 22 74 28 75 21 76
REMARK SMILES IDX 23 77 24 78 25 79 26 80 50 81 51 82 59 83 52 84 54 85 60 86
REMARK SMILES IDX 53 87 55 88 56 89 57 90 58 91 35 92 36 93 44 94 37 95 39 96
REMARK SMILES IDX 45 97 38 98 40 99 41 100 42 101 43 102
REMARK H PARENT 76 13 87 24 65 55 33 66
REMARK Flexibility Score: inf
ROOT
ATOM      1  C   UNL A   1      31.678  30.669  25.801  1.00  0.00     0.275 C 
ENDROOT
BRANCH   1   2
ATOM      2  O   UNL A   1      31.357  29.563  26.680  1.00  0.00    -0.458 OA
BRANCH   2   3
ATOM      3  C   UNL A   1      32.149  28.491  26.959  1.00  0.00     0.338 C 
ATOM      4  O   UNL A   1      32.834  28.487  27.977  1.00  0.00    -0.246 OA
BRANCH   3   5
ATOM      5  C   UNL A   1      32.333  27.392  25.959  1.00  0.00     0.060 A 
ATOM      6  C   UNL A   1      33.366  27.390  25.044  1.00  0.00     0.018 A 
ATOM      7  C   UNL A   1      31.500  26.257  25.977  1.00  0.00     0.018 A 
ATOM      8  C   UNL A   1      33.610  26.314  24.218  1.00  0.00     0.027 A 
ATOM      9  C   UNL A   1      31.672  25.210  25.043  1.00  0.00     0.027 A 
ATOM     10  C   UNL A   1      32.701  25.285  24.114  1.00  0.00     0.041 A 
BRANCH  10  11
ATOM     11  N   UNL A   1      32.890  24.355  23.090  1.00  0.00    -0.326 N 
ATOM     12  C   UNL A   1      33.310  23.063  23.295  1.00  0.00     0.228 C 
ATOM     13  H   UNL A   1      32.712  24.643  22.165  1.00  0.00     0.169 HD
ATOM     14  O   UNL A   1      32.723  22.126  22.748  1.00  0.00    -0.274 OA
BRANCH  12  15
ATOM     15  C   UNL A   1      34.647  22.784  24.040  1.00  0.00     0.095 C 
ATOM     16  C   UNL A   1      36.021  23.027  23.409  1.00  0.00     0.041 C 
ATOM     17  C   UNL A   1      34.556  21.379  24.648  1.00  0.00     0.095 C 
ATOM     18  C   UNL A   1      37.163  22.671  24.310  1.00  0.00    -0.030 C 
ATOM     19  C   UNL A   1      35.824  20.849  25.348  1.00  0.00     0.041 C 
ATOM     20  C   UNL A   1      37.066  21.674  25.191  1.00  0.00    -0.030 C 
BRANCH  17  21
ATOM     21  C   UNL A   1      33.321  21.172  25.531  1.00  0.00     0.228 C 
ATOM     22  O   UNL A   1      32.865  22.141  26.144  1.00  0.00    -0.274 OA
ATOM     23  N   UNL A   1      32.609  20.003  25.598  1.00  0.00    -0.326 N 
ATOM     24  H   UNL A   1      31.890  19.985  26.270  1.00  0.00     0.169 HD
BRANCH  23  25
ATOM     25  C   UNL A   1      32.761  18.836  24.849  1.00  0.00     0.048 A 
ATOM     26  C   UNL A   1      32.511  18.887  23.478  1.00  0.00     0.026 A 
ATOM     27  C   UNL A   1      33.146  17.637  25.441  1.00  0.00     0.111 A 
ATOM     28  C   UNL A   1      32.793  17.781  22.672  1.00  0.00     0.009 A 
ATOM     29  C   UNL A   1      33.491  16.553  24.628  1.00  0.00     0.271 A 
ATOM     30  C   UNL A   1      33.317  16.619  23.241  1.00  0.00     0.086 A 
BRANCH  29  31
ATOM     31  N   UNL A   1      34.128  15.374  25.225  1.00  0.00     0.062 N 
ATOM     32  O   UNL A   1      33.394  14.427  25.543  1.00  0.00    -0.258 OA
ATOM     33  O   UNL A   1      35.363  15.368  25.324  1.00  0.00    -0.258 OA
ENDBRANCH  29  31
ENDBRANCH  23  25
ENDBRANCH  17  21
ENDBRANCH  12  15
ENDBRANCH  10  11
ENDBRANCH   3   5
ENDBRANCH   2   3
ENDBRANCH   1   2
BRANCH   1  34
ATOM     34  C   UNL A   1      31.928  31.974  26.599  1.00  0.00     0.275 C 
BRANCH  34  35
ATOM     35  O   UNL A   1      32.858  31.803  27.695  1.00  0.00    -0.458 OA
BRANCH  35  36
ATOM     36  C   UNL A   1      33.867  32.711  27.780  1.00  0.00     0.338 C 
ATOM     37  O   UNL A   1      33.751  33.916  27.609  1.00  0.00    -0.246 OA
BRANCH  36  38
ATOM     38  C   UNL A   1      35.102  32.071  28.324  1.00  0.00     0.060 A 
ATOM     39  C   UNL A   1      35.034  30.716  28.686  1.00  0.00     0.016 A 
ATOM     40  C   UNL A   1      36.332  32.732  28.404  1.00  0.00     0.016 A 
ATOM     41  C   UNL A   1      36.174  30.033  29.142  1.00  0.00     0.010 A 
ATOM     42  C   UNL A   1      37.479  32.035  28.827  1.00  0.00     0.010 A 
ATOM     43  C   UNL A   1      37.409  30.687  29.234  1.00  0.00    -0.014 A 
BRANCH  43  44
ATOM     44  C   UNL A   1      38.587  30.041  29.894  1.00  0.00     0.031 A 
ATOM     45  C   UNL A   1      38.986  30.510  31.272  1.00  0.00     0.074 A 
ATOM     46  C   UNL A   1      39.330  29.080  29.307  1.00  0.00     0.049 A 
ATOM     47  N   UNL A   1      39.997  30.141  32.017  1.00  0.00    -0.248 NA
ATOM     48  C   UNL A   1      38.131  31.536  31.889  1.00  0.00     0.031 C 
ATOM     49  C   UNL A   1      39.083  28.495  27.994  1.00  0.00     0.029 A 
ATOM     50  N   UNL A   1      40.478  28.448  29.738  1.00  0.00    -0.354 N 
ATOM     51  C   UNL A   1      39.920  30.914  33.169  1.00  0.00     0.074 A 
ATOM     52  C   UNL A   1      38.785  31.797  33.008  1.00  0.00     0.031 C 
ATOM     53  C   UNL A   1      40.076  27.636  27.698  1.00  0.00     0.029 A 
ATOM     54  C   UNL A   1      41.032  27.600  28.805  1.00  0.00     0.049 A 
ATOM     55  H   UNL A   1      40.865  28.589  30.631  1.00  0.00     0.167 HD
ATOM     56  C   UNL A   1      40.689  30.878  34.282  1.00  0.00     0.034 A 
ATOM     57  C   UNL A   1      42.176  26.881  28.830  1.00  0.00     0.034 A 
ATOM     58  C   UNL A   1      41.788  29.978  34.491  1.00  0.00     0.049 A 
ATOM     59  C   UNL A   1      43.041  26.876  30.070  1.00  0.00     0.074 A 
ATOM     60  C   UNL A   1      42.561  29.818  35.627  1.00  0.00     0.029 A 
ATOM     61  N   UNL A   1      42.280  29.096  33.544  1.00  0.00    -0.354 N 
ATOM     62  N   UNL A   1      42.851  27.487  31.213  1.00  0.00    -0.248 NA
ATOM     63  C   UNL A   1      44.253  26.038  30.040  1.00  0.00     0.031 C 
ATOM     64  C   UNL A   1      43.537  28.852  35.360  1.00  0.00     0.029 A 
ATOM     65  C   UNL A   1      43.356  28.399  34.063  1.00  0.00     0.049 A 
ATOM     66  H   UNL A   1      41.918  28.983  32.635  1.00  0.00     0.167 HD
ATOM     67  C   UNL A   1      43.882  27.067  32.051  1.00  0.00     0.074 A 
ATOM     68  C   UNL A   1      44.696  26.148  31.287  1.00  0.00     0.031 C 
ATOM     69  C   UNL A   1      44.126  27.421  33.338  1.00  0.00     0.034 A 
BRANCH  56  70
ATOM     70  C   UNL A   1      40.324  31.826  35.390  1.00  0.00     0.023 A 
ATOM     71  C   UNL A   1      41.080  33.003  35.572  1.00  0.00     0.012 A 
ATOM     72  C   UNL A   1      39.238  31.559  36.244  1.00  0.00     0.148 A 
ATOM     73  C   UNL A   1      40.791  33.875  36.619  1.00  0.00     0.002 A 
ATOM     74  C   UNL A   1      38.928  32.457  37.257  1.00  0.00     0.091 A 
ATOM     75  F   UNL A   1      38.549  30.422  36.072  1.00  0.00    -0.205 F 
ATOM     76  C   UNL A   1      39.710  33.607  37.455  1.00  0.00     0.022 A 
BRANCH  74  77
ATOM     77  S   UNL A   1      37.508  32.224  38.331  1.00  0.00     0.127 S 
ATOM     78  O   UNL A   1      37.383  30.768  38.345  1.00  0.00    -0.237 OA
ATOM     79  O   UNL A   1      37.969  32.808  39.592  1.00  0.00    -0.237 OA
ATOM     80  O   UNL A   1      36.415  32.949  37.698  1.00  0.00    -0.744 OA
ENDBRANCH  74  77
ENDBRANCH  56  70
BRANCH  57  81
ATOM     81  C   UNL A   1      42.557  26.039  27.658  1.00  0.00     0.023 A 
ATOM     82  C   UNL A   1      43.341  26.601  26.631  1.00  0.00     0.012 A 
ATOM     83  C   UNL A   1      42.143  24.698  27.550  1.00  0.00     0.148 A 
ATOM     84  C   UNL A   1      43.676  25.854  25.501  1.00  0.00     0.002 A 
ATOM     85  C   UNL A   1      42.513  23.947  26.438  1.00  0.00     0.091 A 
ATOM     86  F   UNL A   1      41.413  24.179  28.547  1.00  0.00    -0.205 F 
ATOM     87  C   UNL A   1      43.265  24.528  25.405  1.00  0.00     0.022 A 
BRANCH  85  88
ATOM     88  S   UNL A   1      42.101  22.210  26.251  1.00  0.00     0.127 S 
ATOM     89  O   UNL A   1      42.816  21.857  25.024  1.00  0.00    -0.237 OA
ATOM     90  O   UNL A   1      42.666  21.644  27.476  1.00  0.00    -0.237 OA
ATOM     91  O   UNL A   1      40.651  22.160  26.152  1.00  0.00    -0.744 OA
ENDBRANCH  85  88
ENDBRANCH  57  81
BRANCH  69  92
ATOM     92  C   UNL A   1      45.288  26.782  34.058  1.00  0.00     0.023 A 
ATOM     93  C   UNL A   1      46.575  27.340  33.948  1.00  0.00     0.012 A 
ATOM     94  C   UNL A   1      45.075  25.709  34.949  1.00  0.00     0.148 A 
ATOM     95  C   UNL A   1      47.635  26.831  34.701  1.00  0.00     0.002 A 
ATOM     96  C   UNL A   1      46.125  25.236  35.728  1.00  0.00     0.091 A 
ATOM     97  F   UNL A   1      43.845  25.179  35.028  1.00  0.00    -0.205 F 
ATOM     98  C   UNL A   1      47.408  25.792  35.600  1.00  0.00     0.022 A 
BRANCH  96  99
ATOM     99  S   UNL A   1      45.902  23.971  36.985  1.00  0.00     0.127 S 
ATOM    100  O   UNL A   1      45.544  22.806  36.178  1.00  0.00    -0.237 OA
ATOM    101  O   UNL A   1      47.231  23.902  37.597  1.00  0.00    -0.237 OA
ATOM    102  O   UNL A   1      44.855  24.463  37.871  1.00  0.00    -0.744 OA
ENDBRANCH  96  99
ENDBRANCH  69  92
ENDBRANCH  43  44
ENDBRANCH  36  38
ENDBRANCH  35  36
ENDBRANCH  34  35
ENDBRANCH   1  34
TORSDOF 19
ENDMDL
MODEL 2
REMARK VINA RESULT:     -13.0      1.101      7.238
REMARK SMILES O=C(OCCOC(=O)c1ccc(-c2c3nc(c(-c4cccc(S(=O)(=O)[O-])c4F)c4ccc([nH]4)c(-c4cccc(S(=O)(=O)[O-])c4F)c4nc(c(-c5cccc(S(=O)(=O)[O-])c5F)c5ccc2[nH]5)C=C4)C=C3)cc1)c1ccc(NC(=O)[C@@H]2CC=CC[C@H]2C(=O)Nc2cccc([N+](=O)[O-])c2)cc1
REMARK SMILES IDX 4 1 3 2 2 3 1 4 72 5 73 6 98 7 74 8 97 9 75 10 76 11 77 12
REMARK SMILES IDX 78 14 79 15 80 16 84 17 81 18 83 19 82 20 85 21 86 22 87 23
REMARK SMILES IDX 88 25 89 26 96 27 90 28 92 29 91 30 93 31 94 32 95 33 5 34
REMARK SMILES IDX 6 35 7 36 8 37 9 38 10 39 71 40 11 41 70 42 12 43 13 44
REMARK SMILES IDX 14 45 64 46 15 47 69 48 63 49 65 50 16 51 68 52 62 53 61 54
REMARK SMILES IDX 17 56 49 57 29 58 48 59 30 60 33 61 47 62 66 63 31 64 32 65
REMARK SMILES IDX 46 67 67 68 34 69 18 70 19 71 27 72 20 73 22 74 28 75 21 76
REMARK SMILES IDX 23 77 24 78 25 79 26 80 50 81 51 82 59 83 52 84 54 85 60 86
REMARK SMILES IDX 53 87 55 88 56 89 57 90 58 91 35 92 36 93 44 94 37 95 39 96
REMARK SMILES IDX 45 97 38 98 40 99 41 100 42 101 43 102
REMARK H PARENT 76 13 87 24 65 55 33 66
REMARK Flexibility Score: inf
ROOT
ATOM      1  C   UNL A   1      31.793  30.802  26.206  1.00  0.00     0.275 C 
ENDROOT
BRANCH   1   2
ATOM      2  O   UNL A   1      32.371  29.742  27.006  1.00  0.00    -0.458 OA
BRANCH   2   3
ATOM      3  C   UNL A   1      33.441  28.967  26.676  1.00  0.00     0.338 C 
ATOM      4  O   UNL A   1      34.566  29.289  27.044  1.00  0.00    -0.246 OA
BRANCH   3   5
ATOM      5  C   UNL A   1      33.292  27.820  25.723  1.00  0.00     0.060 A 
ATOM      6  C   UNL A   1      32.883  26.567  26.132  1.00  0.00     0.018 A 
ATOM      7  C   UNL A   1      33.479  28.007  24.340  1.00  0.00     0.018 A 
ATOM      8  C   UNL A   1      32.619  25.555  25.235  1.00  0.00     0.027 A 
ATOM      9  C   UNL A   1      33.332  26.934  23.433  1.00  0.00     0.027 A 
ATOM     10  C   UNL A   1      32.964  25.681  23.908  1.00  0.00     0.041 A 
BRANCH  10  11
ATOM     11  N   UNL A   1      32.892  24.540  23.109  1.00  0.00    -0.326 N 
ATOM     12  C   UNL A   1      33.180  23.271  23.553  1.00  0.00     0.228 C 
ATOM     13  H   UNL A   1      32.619  24.650  22.169  1.00  0.00     0.169 HD
ATOM     14  O   UNL A   1      32.413  22.338  23.304  1.00  0.00    -0.274 OA
BRANCH  12  15
ATOM     15  C   UNL A   1      34.567  22.961  24.185  1.00  0.00     0.095 C 
ATOM     16  C   UNL A   1      35.892  23.226  23.464  1.00  0.00     0.041 C 
ATOM     17  C   UNL A   1      34.515  21.533  24.742  1.00  0.00     0.095 C 
ATOM     18  C   UNL A   1      37.096  22.832  24.262  1.00  0.00    -0.030 C 
ATOM     19  C   UNL A   1      35.829  20.973  25.324  1.00  0.00     0.041 C 
ATOM     20  C   UNL A   1      37.060  21.801  25.108  1.00  0.00    -0.030 C 
BRANCH  17  21
ATOM     21  C   UNL A   1      33.348  21.293  25.706  1.00  0.00     0.228 C 
ATOM     22  O   UNL A   1      32.931  22.242  26.375  1.00  0.00    -0.274 OA
ATOM     23  N   UNL A   1      32.651  20.117  25.794  1.00  0.00    -0.326 N 
ATOM     24  H   UNL A   1      31.982  20.076  26.515  1.00  0.00     0.169 HD
BRANCH  23  25
ATOM     25  C   UNL A   1      32.756  18.971  25.005  1.00  0.00     0.048 A 
ATOM     26  C   UNL A   1      32.467  19.069  23.644  1.00  0.00     0.026 A 
ATOM     27  C   UNL A   1      33.133  17.747  25.549  1.00  0.00     0.111 A 
ATOM     28  C   UNL A   1      32.702  17.982  22.798  1.00  0.00     0.009 A 
ATOM     29  C   UNL A   1      33.431  16.682  24.694  1.00  0.00     0.271 A 
ATOM     30  C   UNL A   1      33.218  16.793  23.316  1.00  0.00     0.086 A 
BRANCH  29  31
ATOM     31  N   UNL A   1      34.060  15.472  25.236  1.00  0.00     0.062 N 
ATOM     32  O   UNL A   1      33.325  14.502  25.474  1.00  0.00    -0.258 OA
ATOM     33  O   UNL A   1      35.292  15.468  25.370  1.00  0.00    -0.258 OA
ENDBRANCH  29  31
ENDBRANCH  23  25
ENDBRANCH  17  21
ENDBRANCH  12  15
ENDBRANCH  10  11
ENDBRANCH   3   5
ENDBRANCH   2   3
ENDBRANCH   1   2
BRANCH   1  34
ATOM     34  C   UNL A   1      31.721  32.134  26.993  1.00  0.00     0.275 C 
BRANCH  34  35
ATOM     35  O   UNL A   1      32.895  32.962  26.821  1.00  0.00    -0.458 OA
BRANCH  35  36
ATOM     36  C   UNL A   1      33.253  33.734  27.882  1.00  0.00     0.338 C 
ATOM     37  O   UNL A   1      32.584  34.640  28.357  1.00  0.00    -0.246 OA
BRANCH  36  38
ATOM     38  C   UNL A   1      34.484  33.191  28.532  1.00  0.00     0.060 A 
ATOM     39  C   UNL A   1      34.370  31.995  29.257  1.00  0.00     0.016 A 
ATOM     40  C   UNL A   1      35.748  33.771  28.375  1.00  0.00     0.016 A 
ATOM     41  C   UNL A   1      35.499  31.393  29.838  1.00  0.00     0.010 A 
ATOM     42  C   UNL A   1      36.881  33.146  28.928  1.00  0.00     0.010 A 
ATOM     43  C   UNL A   1      36.768  31.969  29.695  1.00  0.00    -0.014 A 
BRANCH  43  44
ATOM     44  C   UNL A   1      37.948  31.456  30.460  1.00  0.00     0.031 A 
ATOM     45  C   UNL A   1      38.820  30.405  29.818  1.00  0.00     0.074 A 
ATOM     46  C   UNL A   1      38.254  31.862  31.709  1.00  0.00     0.049 A 
ATOM     47  N   UNL A   1      39.859  29.773  30.304  1.00  0.00    -0.248 NA
ATOM     48  C   UNL A   1      38.470  30.012  28.444  1.00  0.00     0.031 C 
ATOM     49  C   UNL A   1      37.538  32.876  32.475  1.00  0.00     0.029 A 
ATOM     50  N   UNL A   1      39.243  31.437  32.572  1.00  0.00    -0.354 N 
ATOM     51  C   UNL A   1      40.260  28.886  29.313  1.00  0.00     0.074 A 
ATOM     52  C   UNL A   1      39.332  29.036  28.213  1.00  0.00     0.031 C 
ATOM     53  C   UNL A   1      38.068  32.956  33.710  1.00  0.00     0.029 A 
ATOM     54  C   UNL A   1      39.170  32.002  33.826  1.00  0.00     0.049 A 
ATOM     55  H   UNL A   1      39.937  30.789  32.315  1.00  0.00     0.167 HD
ATOM     56  C   UNL A   1      41.323  28.048  29.288  1.00  0.00     0.034 A 
ATOM     57  C   UNL A   1      39.900  31.779  34.941  1.00  0.00     0.034 A 
ATOM     58  C   UNL A   1      42.289  27.916  30.341  1.00  0.00     0.049 A 
ATOM     59  C   UNL A   1      41.064  30.815  34.906  1.00  0.00     0.074 A 
ATOM     60  C   UNL A   1      43.442  27.154  30.356  1.00  0.00     0.029 A 
ATOM     61  N   UNL A   1      42.210  28.549  31.570  1.00  0.00    -0.354 N 
ATOM     62  N   UNL A   1      41.527  30.115  33.900  1.00  0.00    -0.248 NA
ATOM     63  C   UNL A   1      41.839  30.651  36.149  1.00  0.00     0.031 C 
ATOM     64  C   UNL A   1      44.054  27.309  31.604  1.00  0.00     0.029 A 
ATOM     65  C   UNL A   1      43.288  28.183  32.358  1.00  0.00     0.049 A 
ATOM     66  H   UNL A   1      41.493  29.166  31.844  1.00  0.00     0.167 HD
ATOM     67  C   UNL A   1      42.672  29.475  34.370  1.00  0.00     0.074 A 
ATOM     68  C   UNL A   1      42.835  29.868  35.752  1.00  0.00     0.031 C 
ATOM     69  C   UNL A   1      43.505  28.633  33.709  1.00  0.00     0.034 A 
BRANCH  56  70
ATOM     70  C   UNL A   1      41.515  27.233  28.038  1.00  0.00     0.023 A 
ATOM     71  C   UNL A   1      41.986  27.862  26.868  1.00  0.00     0.012 A 
ATOM     72  C   UNL A   1      41.235  25.855  28.023  1.00  0.00     0.148 A 
ATOM     73  C   UNL A   1      42.130  27.139  25.685  1.00  0.00     0.002 A 
ATOM     74  C   UNL A   1      41.423  25.132  26.851  1.00  0.00     0.091 A 
ATOM     75  F   UNL A   1      40.761  25.282  29.138  1.00  0.00    -0.205 F 
ATOM     76  C   UNL A   1      41.857  25.774  25.680  1.00  0.00     0.022 A 
BRANCH  74  77
ATOM     77  S   UNL A   1      41.167  23.357  26.779  1.00  0.00     0.127 S 
ATOM     78  O   UNL A   1      41.826  22.911  28.005  1.00  0.00    -0.237 OA
ATOM     79  O   UNL A   1      39.707  23.250  26.801  1.00  0.00    -0.237 OA
ATOM     80  O   UNL A   1      41.782  22.922  25.533  1.00  0.00    -0.744 OA
ENDBRANCH  74  77
ENDBRANCH  56  70
BRANCH  57  81
ATOM     81  C   UNL A   1      39.599  32.530  36.196  1.00  0.00     0.023 A 
ATOM     82  C   UNL A   1      40.328  33.699  36.492  1.00  0.00     0.012 A 
ATOM     83  C   UNL A   1      38.610  32.091  37.097  1.00  0.00     0.148 A 
ATOM     84  C   UNL A   1      40.102  34.398  37.678  1.00  0.00     0.002 A 
ATOM     85  C   UNL A   1      38.365  32.814  38.260  1.00  0.00     0.091 A 
ATOM     86  F   UNL A   1      37.918  30.986  36.787  1.00  0.00    -0.205 F 
ATOM     87  C   UNL A   1      39.120  33.958  38.561  1.00  0.00     0.022 A 
BRANCH  85  88
ATOM     88  S   UNL A   1      37.071  32.378  39.427  1.00  0.00     0.127 S 
ATOM     89  O   UNL A   1      37.433  31.007  39.786  1.00  0.00    -0.237 OA
ATOM     90  O   UNL A   1      37.287  33.367  40.482  1.00  0.00    -0.237 OA
ATOM     91  O   UNL A   1      35.822  32.511  38.693  1.00  0.00    -0.744 OA
ENDBRANCH  85  88
ENDBRANCH  57  81
BRANCH  69  92
ATOM     92  C   UNL A   1      44.722  28.104  34.426  1.00  0.00     0.023 A 
ATOM     93  C   UNL A   1      45.912  28.857  34.442  1.00  0.00     0.012 A 
ATOM     94  C   UNL A   1      44.643  26.923  35.194  1.00  0.00     0.148 A 
ATOM     95  C   UNL A   1      47.007  28.437  35.199  1.00  0.00     0.002 A 
ATOM     96  C   UNL A   1      45.723  26.534  35.981  1.00  0.00     0.091 A 
ATOM     97  F   UNL A   1      43.509  26.209  35.153  1.00  0.00    -0.205 F 
ATOM     98  C   UNL A   1      46.908  27.286  35.978  1.00  0.00     0.022 A 
BRANCH  96  99
ATOM     99  S   UNL A   1      45.649  25.124  37.094  1.00  0.00     0.127 S 
ATOM    100  O   UNL A   1      46.977  25.157  37.705  1.00  0.00    -0.237 OA
ATOM    101  O   UNL A   1      44.555  25.494  37.993  1.00  0.00    -0.237 OA
ATOM    102  O   UNL A   1      45.375  23.964  36.255  1.00  0.00    -0.744 OA
ENDBRANCH  96  99
ENDBRANCH  69  92
ENDBRANCH  43  44
ENDBRANCH  36  38
ENDBRANCH  35  36
ENDBRANCH  34  35
ENDBRANCH   1  34
TORSDOF 19
ENDMDL
MODEL 3
REMARK VINA RESULT:     -12.7      5.417      9.714
REMARK SMILES O=C(OCCOC(=O)c1ccc(-c2c3nc(c(-c4cccc(S(=O)(=O)[O-])c4F)c4ccc([nH]4)c(-c4cccc(S(=O)(=O)[O-])c4F)c4nc(c(-c5cccc(S(=O)(=O)[O-])c5F)c5ccc2[nH]5)C=C4)C=C3)cc1)c1ccc(NC(=O)[C@@H]2CC=CC[C@H]2C(=O)Nc2cccc([N+](=O)[O-])c2)cc1
REMARK SMILES IDX 4 1 3 2 2 3 1 4 72 5 73 6 98 7 74 8 97 9 75 10 76 11 77 12
REMARK SMILES IDX 78 14 79 15 80 16 84 17 81 18 83 19 82 20 85 21 86 22 87 23
REMARK SMILES IDX 88 25 89 26 96 27 90 28 92 29 91 30 93 31 94 32 95 33 5 34
REMARK SMILES IDX 6 35 7 36 8 37 9 38 10 39 71 40 11 41 70 42 12 43 13 44
REMARK SMILES IDX 14 45 64 46 15 47 69 48 63 49 65 50 16 51 68 52 62 53 61 54
REMARK SMILES IDX 17 56 49 57 29 58 48 59 30 60 33 61 47 62 66 63 31 64 32 65
REMARK SMILES IDX 46 67 67 68 34 69 18 70 19 71 27 72 20 73 22 74 28 75 21 76
REMARK SMILES IDX 23 77 24 78 25 79 26 80 50 81 51 82 59 83 52 84 54 85 60 86
REMARK SMILES IDX 53 87 55 88 56 89 57 90 58 91 35 92 36 93 44 94 37 95 39 96
REMARK SMILES IDX 45 97 38 98 40 99 41 100 42 101 43 102
REMARK H PARENT 76 13 87 24 65 55 33 66
REMARK Flexibility Score: inf
ROOT
ATOM      1  C   UNL A   1      37.796  20.478  24.999  1.00  0.00     0.275 C 
ENDROOT
BRANCH   1   2
ATOM      2  O   UNL A   1      36.854  21.553  25.237  1.00  0.00    -0.458 OA
BRANCH   2   3
ATOM      3  C   UNL A   1      36.262  22.337  24.295  1.00  0.00     0.338 C 
ATOM      4  O   UNL A   1      36.894  22.682  23.301  1.00  0.00    -0.246 OA
BRANCH   3   5
ATOM      5  C   UNL A   1      34.908  22.932  24.533  1.00  0.00     0.060 A 
ATOM      6  C   UNL A   1      34.483  23.327  25.786  1.00  0.00     0.018 A 
ATOM      7  C   UNL A   1      34.040  23.200  23.456  1.00  0.00     0.018 A 
ATOM      8  C   UNL A   1      33.294  23.995  25.978  1.00  0.00     0.027 A 
ATOM      9  C   UNL A   1      32.766  23.769  23.670  1.00  0.00     0.027 A 
ATOM     10  C   UNL A   1      32.373  24.103  24.960  1.00  0.00     0.041 A 
BRANCH  10  11
ATOM     11  N   UNL A   1      31.100  24.575  25.285  1.00  0.00    -0.326 N 
ATOM     12  C   UNL A   1      30.684  25.868  25.075  1.00  0.00     0.228 C 
ATOM     13  H   UNL A   1      30.463  23.943  25.690  1.00  0.00     0.169 HD
ATOM     14  O   UNL A   1      29.593  26.089  24.544  1.00  0.00    -0.274 OA
BRANCH  12  15
ATOM     15  C   UNL A   1      31.478  27.054  25.691  1.00  0.00     0.095 C 
ATOM     16  C   UNL A   1      31.424  27.412  27.179  1.00  0.00     0.041 C 
ATOM     17  C   UNL A   1      31.227  28.287  24.814  1.00  0.00     0.095 C 
ATOM     18  C   UNL A   1      32.258  28.604  27.537  1.00  0.00    -0.030 C 
ATOM     19  C   UNL A   1      31.837  29.616  25.304  1.00  0.00     0.041 C 
ATOM     20  C   UNL A   1      32.441  29.607  26.676  1.00  0.00    -0.030 C 
BRANCH  17  21
ATOM     21  C   UNL A   1      31.539  28.059  23.331  1.00  0.00     0.228 C 
ATOM     22  O   UNL A   1      32.441  27.271  23.033  1.00  0.00    -0.274 OA
ATOM     23  N   UNL A   1      30.806  28.583  22.300  1.00  0.00    -0.326 N 
ATOM     24  H   UNL A   1      31.171  28.424  21.399  1.00  0.00     0.169 HD
BRANCH  23  25
ATOM     25  C   UNL A   1      29.616  29.310  22.346  1.00  0.00     0.048 A 
ATOM     26  C   UNL A   1      28.463  28.672  22.806  1.00  0.00     0.026 A 
ATOM     27  C   UNL A   1      29.559  30.639  21.940  1.00  0.00     0.111 A 
ATOM     28  C   UNL A   1      27.290  29.404  23.006  1.00  0.00     0.009 A 
ATOM     29  C   UNL A   1      28.407  31.386  22.203  1.00  0.00     0.271 A 
ATOM     30  C   UNL A   1      27.267  30.773  22.737  1.00  0.00     0.086 A 
BRANCH  29  31
ATOM     31  N   UNL A   1      28.424  32.839  22.005  1.00  0.00     0.062 N 
ATOM     32  O   UNL A   1      27.684  33.306  21.125  1.00  0.00    -0.258 OA
ATOM     33  O   UNL A   1      29.129  33.521  22.762  1.00  0.00    -0.258 OA
ENDBRANCH  29  31
ENDBRANCH  23  25
ENDBRANCH  17  21
ENDBRANCH  12  15
ENDBRANCH  10  11
ENDBRANCH   3   5
ENDBRANCH   2   3
ENDBRANCH   1   2
BRANCH   1  34
ATOM     34  C   UNL A   1      39.104  20.680  25.804  1.00  0.00     0.275 C 
BRANCH  34  35
ATOM     35  O   UNL A   1      39.773  19.438  26.125  1.00  0.00    -0.458 OA
BRANCH  35  36
ATOM     36  C   UNL A   1      41.132  19.476  26.170  1.00  0.00     0.338 C 
ATOM     37  O   UNL A   1      41.878  18.574  25.818  1.00  0.00    -0.246 OA
BRANCH  36  38
ATOM     38  C   UNL A   1      41.605  20.851  26.510  1.00  0.00     0.060 A 
ATOM     39  C   UNL A   1      41.674  21.796  25.475  1.00  0.00     0.016 A 
ATOM     40  C   UNL A   1      41.894  21.257  27.818  1.00  0.00     0.016 A 
ATOM     41  C   UNL A   1      42.047  23.126  25.735  1.00  0.00     0.010 A 
ATOM     42  C   UNL A   1      42.232  22.597  28.079  1.00  0.00     0.010 A 
ATOM     43  C   UNL A   1      42.346  23.541  27.038  1.00  0.00    -0.014 A 
BRANCH  43  44
ATOM     44  C   UNL A   1      42.928  24.893  27.312  1.00  0.00     0.031 A 
ATOM     45  C   UNL A   1      42.067  25.921  28.005  1.00  0.00     0.074 A 
ATOM     46  C   UNL A   1      44.175  25.251  26.942  1.00  0.00     0.049 A 
ATOM     47  N   UNL A   1      42.331  27.169  28.298  1.00  0.00    -0.248 NA
ATOM     48  C   UNL A   1      40.725  25.480  28.419  1.00  0.00     0.031 C 
ATOM     49  C   UNL A   1      45.149  24.389  26.282  1.00  0.00     0.029 A 
ATOM     50  N   UNL A   1      44.825  26.464  27.043  1.00  0.00    -0.354 N 
ATOM     51  C   UNL A   1      41.180  27.669  28.893  1.00  0.00     0.074 A 
ATOM     52  C   UNL A   1      40.204  26.602  28.887  1.00  0.00     0.031 C 
ATOM     53  C   UNL A   1      46.247  25.108  25.984  1.00  0.00     0.029 A 
ATOM     54  C   UNL A   1      46.062  26.486  26.438  1.00  0.00     0.049 A 
ATOM     55  H   UNL A   1      44.441  27.242  27.507  1.00  0.00     0.167 HD
ATOM     56  C   UNL A   1      40.953  28.889  29.436  1.00  0.00     0.034 A 
ATOM     57  C   UNL A   1      46.944  27.494  26.263  1.00  0.00     0.034 A 
ATOM     58  C   UNL A   1      41.918  29.949  29.502  1.00  0.00     0.049 A 
ATOM     59  C   UNL A   1      46.662  28.859  26.848  1.00  0.00     0.074 A 
ATOM     60  C   UNL A   1      41.795  31.183  30.115  1.00  0.00     0.029 A 
ATOM     61  N   UNL A   1      43.177  29.910  28.929  1.00  0.00    -0.354 N 
ATOM     62  N   UNL A   1      45.636  29.258  27.558  1.00  0.00    -0.248 NA
ATOM     63  C   UNL A   1      47.687  29.900  26.650  1.00  0.00     0.031 C 
ATOM     64  C   UNL A   1      42.974  31.902  29.893  1.00  0.00     0.029 A 
ATOM     65  C   UNL A   1      43.837  31.105  29.160  1.00  0.00     0.049 A 
ATOM     66  H   UNL A   1      43.548  29.147  28.429  1.00  0.00     0.167 HD
ATOM     67  C   UNL A   1      45.915  30.570  27.937  1.00  0.00     0.074 A 
ATOM     68  C   UNL A   1      47.207  30.901  27.379  1.00  0.00     0.031 C 
ATOM     69  C   UNL A   1      45.159  31.417  28.678  1.00  0.00     0.034 A 
BRANCH  56  70
ATOM     70  C   UNL A   1      39.599  29.117  30.049  1.00  0.00     0.023 A 
ATOM     71  C   UNL A   1      39.332  28.621  31.341  1.00  0.00     0.012 A 
ATOM     72  C   UNL A   1      38.599  29.821  29.353  1.00  0.00     0.148 A 
ATOM     73  C   UNL A   1      38.071  28.780  31.913  1.00  0.00     0.002 A 
ATOM     74  C   UNL A   1      37.359  30.014  29.949  1.00  0.00     0.091 A 
ATOM     75  F   UNL A   1      38.864  30.261  28.115  1.00  0.00    -0.205 F 
ATOM     76  C   UNL A   1      37.089  29.484  31.221  1.00  0.00     0.022 A 
BRANCH  74  77
ATOM     77  S   UNL A   1      36.064  30.973  29.156  1.00  0.00     0.127 S 
ATOM     78  O   UNL A   1      35.368  29.948  28.382  1.00  0.00    -0.237 OA
ATOM     79  O   UNL A   1      35.311  31.488  30.301  1.00  0.00    -0.237 OA
ATOM     80  O   UNL A   1      36.753  31.996  28.382  1.00  0.00    -0.744 OA
ENDBRANCH  74  77
ENDBRANCH  56  70
BRANCH  57  81
ATOM     81  C   UNL A   1      48.230  27.248  25.545  1.00  0.00     0.023 A 
ATOM     82  C   UNL A   1      49.348  26.791  26.271  1.00  0.00     0.012 A 
ATOM     83  C   UNL A   1      48.355  27.473  24.161  1.00  0.00     0.148 A 
ATOM     84  C   UNL A   1      50.577  26.595  25.638  1.00  0.00     0.002 A 
ATOM     85  C   UNL A   1      49.573  27.240  23.530  1.00  0.00     0.091 A 
ATOM     86  F   UNL A   1      47.274  27.892  23.489  1.00  0.00    -0.205 F 
ATOM     87  C   UNL A   1      50.689  26.817  24.269  1.00  0.00     0.022 A 
BRANCH  85  88
ATOM     88  S   UNL A   1      49.806  27.421  21.759  1.00  0.00     0.127 S 
ATOM     89  O   UNL A   1      48.823  26.478  21.224  1.00  0.00    -0.237 OA
ATOM     90  O   UNL A   1      49.473  28.831  21.564  1.00  0.00    -0.237 OA
ATOM     91  O   UNL A   1      51.194  27.067  21.509  1.00  0.00    -0.744 OA
ENDBRANCH  85  88
ENDBRANCH  57  81
BRANCH  69  92
ATOM     92  C   UNL A   1      45.707  32.785  29.002  1.00  0.00     0.023 A 
ATOM     93  C   UNL A   1      46.545  32.960  30.119  1.00  0.00     0.012 A 
ATOM     94  C   UNL A   1      45.496  33.868  28.122  1.00  0.00     0.148 A 
ATOM     95  C   UNL A   1      47.154  34.192  30.363  1.00  0.00     0.002 A 
ATOM     96  C   UNL A   1      46.141  35.079  28.347  1.00  0.00     0.091 A 
ATOM     97  F   UNL A   1      44.680  33.688  27.072  1.00  0.00    -0.205 F 
ATOM     98  C   UNL A   1      46.965  35.245  29.471  1.00  0.00     0.022 A 
BRANCH  96  99
ATOM     99  S   UNL A   1      46.037  36.457  27.197  1.00  0.00     0.127 S 
ATOM    100  O   UNL A   1      46.870  37.461  27.857  1.00  0.00    -0.237 OA
ATOM    101  O   UNL A   1      46.616  35.891  25.978  1.00  0.00    -0.237 OA
ATOM    102  O   UNL A   1      44.621  36.789  27.095  1.00  0.00    -0.744 OA
ENDBRANCH  96  99
ENDBRANCH  69  92
ENDBRANCH  43  44
ENDBRANCH  36  38
ENDBRANCH  35  36
ENDBRANCH  34  35
ENDBRANCH   1  34
TORSDOF 19
ENDMDL
