MODEL 1
REMARK VINA RESULT:     -11.2      0.000      0.000
REMARK SMILES C[C@H](C(=O)NC1CCCC1)[N@@H+]1CCn2nc(CCC(=O)OCCOC(=O)c3ccc(-c4c5nc(c(-c6cccc(S(=O)(=O)[O-])c6F)c6ccc([nH]6)c(-c6cccc(S(=O)(=O)[O-])c6F)c6nc(c(-c7cccc(S(=O)(=O)[O-])c7F)c7ccc4[nH]7)C=C6)C=C5)cc3)cc2C1
REMARK SMILES IDX 22 1 21 2 19 3 20 4 18 5 17 6 16 7 11 8 12 9 92 10 13 12
REMARK SMILES IDX 91 13 14 14 90 15 15 16 2 17 1 18 3 19 4 20 5 21 6 23 7 24
REMARK SMILES IDX 10 25 8 26 9 27 23 28 24 29 25 30 26 31 27 32 28 33 89 34
REMARK SMILES IDX 29 35 88 36 30 37 31 38 32 39 82 40 33 41 87 42 81 43 83 44
REMARK SMILES IDX 34 45 86 46 80 47 79 48 35 50 67 51 47 52 66 53 48 54 51 55
REMARK SMILES IDX 65 56 84 57 49 58 50 59 64 61 85 62 52 63 36 64 37 65 45 66
REMARK SMILES IDX 38 67 40 68 46 69 39 70 41 71 42 72 43 73 44 74 68 75 69 76
REMARK SMILES IDX 77 77 70 78 72 79 78 80 71 81 73 82 74 83 75 84 76 85 53 86
REMARK SMILES IDX 54 87 62 88 55 89 57 90 63 91 56 92 58 93 59 94 60 95 61 96
REMARK H PARENT 11 11 5 22 83 49 51 60
REMARK Flexibility Score: inf
ROOT
ATOM      1  C   UNL A   1      34.188  34.345  28.265  1.00  0.00     0.274 C 
ENDROOT
BRANCH   1   2
ATOM      2  O   UNL A   1      34.310  35.778  28.231  1.00  0.00    -0.462 OA
BRANCH   2   3
ATOM      3  C   UNL A   1      33.427  36.505  28.957  1.00  0.00     0.306 C 
ATOM      4  O   UNL A   1      33.261  37.714  28.841  1.00  0.00    -0.252 OA
BRANCH   3   5
ATOM      5  C   UNL A   1      32.734  35.686  30.025  1.00  0.00     0.129 C 
BRANCH   5   6
ATOM      6  C   UNL A   1      33.107  36.018  31.470  1.00  0.00     0.070 C 
BRANCH   6   7
ATOM      7  C   UNL A   1      34.096  35.062  32.036  1.00  0.00     0.064 A 
ATOM      8  N   UNL A   1      36.882  32.452  34.236  1.00  0.00    -0.318 N 
ATOM      9  C   UNL A   1      36.632  31.468  33.158  1.00  0.00     0.287 C 
ATOM     10  C   UNL A   1      37.131  33.771  33.614  1.00  0.00     0.319 C 
ATOM     11  H   UNL A   1      36.051  32.447  34.828  1.00  0.00     0.349 HD
ATOM     12  C   UNL A   1      35.439  31.835  32.244  1.00  0.00     0.206 C 
ATOM     13  C   UNL A   1      35.907  34.182  32.918  1.00  0.00     0.093 A 
ATOM     14  N   UNL A   1      35.133  33.249  32.307  1.00  0.00    -0.258 N 
ATOM     15  C   UNL A   1      35.264  35.383  32.758  1.00  0.00     0.055 A 
ATOM     16  N   UNL A   1      33.995  33.744  31.823  1.00  0.00    -0.177 NA
BRANCH   8  17
ATOM     17  C   UNL A   1      38.007  32.126  35.132  1.00  0.00     0.271 C 
ATOM     18  C   UNL A   1      38.400  30.656  35.298  1.00  0.00     0.086 C 
BRANCH  17  19
ATOM     19  C   UNL A   1      37.807  32.749  36.537  1.00  0.00     0.278 C 
ATOM     20  O   UNL A   1      37.042  32.174  37.329  1.00  0.00    -0.268 OA
ATOM     21  N   UNL A   1      38.346  33.909  36.994  1.00  0.00    -0.348 N 
ATOM     22  H   UNL A   1      37.948  34.158  37.859  1.00  0.00     0.163 HD
BRANCH  21  23
ATOM     23  C   UNL A   1      39.343  34.903  36.581  1.00  0.00     0.082 C 
ATOM     24  C   UNL A   1      39.789  35.869  37.678  1.00  0.00     0.025 C 
ATOM     25  C   UNL A   1      40.593  34.454  35.832  1.00  0.00     0.025 C 
ATOM     26  C   UNL A   1      41.197  36.302  37.297  1.00  0.00     0.002 C 
ATOM     27  C   UNL A   1      41.775  35.149  36.495  1.00  0.00     0.002 C 
ENDBRANCH  21  23
ENDBRANCH  17  19
ENDBRANCH   8  17
ENDBRANCH   6   7
ENDBRANCH   5   6
ENDBRANCH   3   5
ENDBRANCH   2   3
ENDBRANCH   1   2
BRANCH   1  28
ATOM     28  C   UNL A   1      35.523  33.667  28.560  1.00  0.00     0.275 C 
BRANCH  28  29
ATOM     29  O   UNL A   1      35.808  32.678  27.570  1.00  0.00    -0.458 OA
BRANCH  29  30
ATOM     30  C   UNL A   1      35.513  31.421  27.953  1.00  0.00     0.338 C 
ATOM     31  O   UNL A   1      34.469  30.817  27.804  1.00  0.00    -0.246 OA
BRANCH  30  32
ATOM     32  C   UNL A   1      36.598  30.834  28.717  1.00  0.00     0.060 A 
ATOM     33  C   UNL A   1      37.554  31.698  29.270  1.00  0.00     0.016 A 
ATOM     34  C   UNL A   1      36.806  29.464  28.572  1.00  0.00     0.016 A 
ATOM     35  C   UNL A   1      38.798  31.194  29.578  1.00  0.00     0.010 A 
ATOM     36  C   UNL A   1      38.053  28.969  28.859  1.00  0.00     0.010 A 
ATOM     37  C   UNL A   1      39.048  29.849  29.301  1.00  0.00    -0.014 A 
BRANCH  37  38
ATOM     38  C   UNL A   1      40.383  29.331  29.515  1.00  0.00     0.031 A 
ATOM     39  C   UNL A   1      40.735  29.088  30.934  1.00  0.00     0.074 A 
ATOM     40  C   UNL A   1      41.116  28.891  28.474  1.00  0.00     0.049 A 
ATOM     41  N   UNL A   1      41.782  29.489  31.574  1.00  0.00    -0.248 NA
ATOM     42  C   UNL A   1      39.747  28.388  31.772  1.00  0.00     0.031 C 
ATOM     43  C   UNL A   1      40.686  28.804  27.073  1.00  0.00     0.029 A 
ATOM     44  N   UNL A   1      42.310  28.236  28.480  1.00  0.00    -0.354 N 
ATOM     45  C   UNL A   1      41.686  28.907  32.835  1.00  0.00     0.074 A 
ATOM     46  C   UNL A   1      40.349  28.393  32.958  1.00  0.00     0.031 C 
ATOM     47  C   UNL A   1      41.458  27.896  26.439  1.00  0.00     0.029 A 
ATOM     48  C   UNL A   1      42.485  27.435  27.356  1.00  0.00     0.049 A 
ATOM     49  H   UNL A   1      42.976  28.319  29.200  1.00  0.00     0.167 HD
ATOM     50  C   UNL A   1      42.781  28.668  33.602  1.00  0.00     0.034 A 
ATOM     51  C   UNL A   1      43.331  26.385  27.235  1.00  0.00     0.034 A 
ATOM     52  C   UNL A   1      43.927  29.417  33.165  1.00  0.00     0.049 A 
ATOM     53  C   UNL A   1      44.338  26.486  28.317  1.00  0.00     0.074 A 
ATOM     54  C   UNL A   1      44.207  30.756  32.988  1.00  0.00     0.029 A 
ATOM     55  N   UNL A   1      44.914  28.729  32.505  1.00  0.00    -0.354 N 
ATOM     56  N   UNL A   1      45.258  27.407  28.375  1.00  0.00    -0.248 NA
ATOM     57  C   UNL A   1      44.093  25.772  29.561  1.00  0.00     0.031 C 
ATOM     58  C   UNL A   1      45.079  30.807  31.863  1.00  0.00     0.029 A 
ATOM     59  C   UNL A   1      45.300  29.495  31.437  1.00  0.00     0.049 A 
ATOM     60  H   UNL A   1      45.276  27.848  32.752  1.00  0.00     0.167 HD
ATOM     61  C   UNL A   1      45.379  27.694  29.728  1.00  0.00     0.074 A 
ATOM     62  C   UNL A   1      44.752  26.565  30.409  1.00  0.00     0.031 C 
ATOM     63  C   UNL A   1      45.697  28.953  30.155  1.00  0.00     0.034 A 
BRANCH  50  64
ATOM     64  C   UNL A   1      42.907  27.499  34.543  1.00  0.00     0.023 A 
ATOM     65  C   UNL A   1      42.743  27.749  35.922  1.00  0.00     0.012 A 
ATOM     66  C   UNL A   1      43.431  26.238  34.174  1.00  0.00     0.148 A 
ATOM     67  C   UNL A   1      43.110  26.804  36.885  1.00  0.00     0.002 A 
ATOM     68  C   UNL A   1      43.706  25.269  35.131  1.00  0.00     0.091 A 
ATOM     69  F   UNL A   1      43.801  26.007  32.910  1.00  0.00    -0.205 F 
ATOM     70  C   UNL A   1      43.579  25.557  36.490  1.00  0.00     0.022 A 
BRANCH  68  71
ATOM     71  S   UNL A   1      44.234  23.622  34.646  1.00  0.00     0.127 S 
ATOM     72  O   UNL A   1      44.540  23.016  35.937  1.00  0.00    -0.237 OA
ATOM     73  O   UNL A   1      43.038  23.099  33.983  1.00  0.00    -0.237 OA
ATOM     74  O   UNL A   1      45.360  23.840  33.746  1.00  0.00    -0.744 OA
ENDBRANCH  68  71
ENDBRANCH  50  64
BRANCH  51  75
ATOM     75  C   UNL A   1      43.206  25.178  26.387  1.00  0.00     0.023 A 
ATOM     76  C   UNL A   1      44.089  24.999  25.306  1.00  0.00     0.012 A 
ATOM     77  C   UNL A   1      42.381  24.092  26.760  1.00  0.00     0.148 A 
ATOM     78  C   UNL A   1      44.161  23.777  24.627  1.00  0.00     0.002 A 
ATOM     79  C   UNL A   1      42.438  22.886  26.067  1.00  0.00     0.091 A 
ATOM     80  F   UNL A   1      41.609  24.203  27.849  1.00  0.00    -0.205 F 
ATOM     81  C   UNL A   1      43.337  22.721  25.007  1.00  0.00     0.022 A 
BRANCH  79  82
ATOM     82  S   UNL A   1      41.391  21.491  26.505  1.00  0.00     0.127 S 
ATOM     83  O   UNL A   1      40.061  21.969  26.120  1.00  0.00    -0.237 OA
ATOM     84  O   UNL A   1      41.928  20.429  25.660  1.00  0.00    -0.237 OA
ATOM     85  O   UNL A   1      41.562  21.310  27.942  1.00  0.00    -0.744 OA
ENDBRANCH  79  82
ENDBRANCH  51  75
BRANCH  63  86
ATOM     86  C   UNL A   1      46.194  29.950  29.136  1.00  0.00     0.023 A 
ATOM     87  C   UNL A   1      47.550  30.005  28.750  1.00  0.00     0.012 A 
ATOM     88  C   UNL A   1      45.260  30.722  28.422  1.00  0.00     0.148 A 
ATOM     89  C   UNL A   1      47.972  30.836  27.710  1.00  0.00     0.002 A 
ATOM     90  C   UNL A   1      45.676  31.510  27.354  1.00  0.00     0.091 A 
ATOM     91  F   UNL A   1      43.969  30.659  28.785  1.00  0.00    -0.205 F 
ATOM     92  C   UNL A   1      47.033  31.580  27.003  1.00  0.00     0.022 A 
BRANCH  90  93
ATOM     93  S   UNL A   1      44.487  32.373  26.321  1.00  0.00     0.127 S 
ATOM     94  O   UNL A   1      45.330  32.892  25.248  1.00  0.00    -0.237 OA
ATOM     95  O   UNL A   1      43.573  31.303  25.916  1.00  0.00    -0.237 OA
ATOM     96  O   UNL A   1      43.873  33.372  27.189  1.00  0.00    -0.744 OA
ENDBRANCH  90  93
ENDBRANCH  63  86
ENDBRANCH  37  38
ENDBRANCH  30  32
ENDBRANCH  29  30
ENDBRANCH  28  29
ENDBRANCH   1  28
TORSDOF 19
ENDMDL
MODEL 2
REMARK VINA RESULT:     -11.2      4.493      9.729
REMARK SMILES C[C@H](C(=O)NC1CCCC1)[N@@H+]1CCn2nc(CCC(=O)OCCOC(=O)c3ccc(-c4c5nc(c(-c6cccc(S(=O)(=O)[O-])c6F)c6ccc([nH]6)c(-c6cccc(S(=O)(=O)[O-])c6F)c6nc(c(-c7cccc(S(=O)(=O)[O-])c7F)c7ccc4[nH]7)C=C6)C=C5)cc3)cc2C1
REMARK SMILES IDX 22 1 21 2 19 3 20 4 18 5 17 6 16 7 11 8 12 9 92 10 13 12
REMARK SMILES IDX 91 13 14 14 90 15 15 16 2 17 1 18 3 19 4 20 5 21 6 23 7 24
REMARK SMILES IDX 10 25 8 26 9 27 23 28 24 29 25 30 26 31 27 32 28 33 89 34
REMARK SMILES IDX 29 35 88 36 30 37 31 38 32 39 82 40 33 41 87 42 81 43 83 44
REMARK SMILES IDX 34 45 86 46 80 47 79 48 35 50 67 51 47 52 66 53 48 54 51 55
REMARK SMILES IDX 65 56 84 57 49 58 50 59 64 61 85 62 52 63 36 64 37 65 45 66
REMARK SMILES IDX 38 67 40 68 46 69 39 70 41 71 42 72 43 73 44 74 68 75 69 76
REMARK SMILES IDX 77 77 70 78 72 79 78 80 71 81 73 82 74 83 75 84 76 85 53 86
REMARK SMILES IDX 54 87 62 88 55 89 57 90 63 91 56 92 58 93 59 94 60 95 61 96
REMARK H PARENT 11 11 5 22 83 49 51 60
REMARK Flexibility Score: inf
ROOT
ATOM      1  C   UNL A   1      33.287  30.808  26.909  1.00  0.00     0.274 C 
ENDROOT
BRANCH   1   2
ATOM      2  O   UNL A   1      33.597  29.551  26.281  1.00  0.00    -0.462 OA
BRANCH   2   3
ATOM      3  C   UNL A   1      32.861  29.183  25.205  1.00  0.00     0.306 C 
ATOM      4  O   UNL A   1      33.212  29.330  24.040  1.00  0.00    -0.252 OA
BRANCH   3   5
ATOM      5  C   UNL A   1      31.489  28.668  25.585  1.00  0.00     0.129 C 
BRANCH   5   6
ATOM      6  C   UNL A   1      31.449  27.654  26.728  1.00  0.00     0.070 C 
BRANCH   6   7
ATOM      7  C   UNL A   1      31.607  26.254  26.250  1.00  0.00     0.064 A 
ATOM      8  N   UNL A   1      32.650  22.192  24.896  1.00  0.00    -0.318 N 
ATOM      9  C   UNL A   1      31.350  21.788  25.480  1.00  0.00     0.287 C 
ATOM     10  C   UNL A   1      32.439  23.419  24.097  1.00  0.00     0.319 C 
ATOM     11  H   UNL A   1      33.284  22.339  25.682  1.00  0.00     0.349 HD
ATOM     12  C   UNL A   1      30.702  22.873  26.371  1.00  0.00     0.206 C 
ATOM     13  C   UNL A   1      32.014  24.487  25.007  1.00  0.00     0.093 A 
ATOM     14  N   UNL A   1      31.219  24.191  26.069  1.00  0.00    -0.258 N 
ATOM     15  C   UNL A   1      32.285  25.828  25.089  1.00  0.00     0.055 A 
ATOM     16  N   UNL A   1      31.013  25.230  26.876  1.00  0.00    -0.177 NA
BRANCH   8  17
ATOM     17  C   UNL A   1      33.300  21.175  24.050  1.00  0.00     0.271 C 
ATOM     18  C   UNL A   1      32.412  20.273  23.189  1.00  0.00     0.086 C 
BRANCH  17  19
ATOM     19  C   UNL A   1      34.260  20.284  24.878  1.00  0.00     0.278 C 
ATOM     20  O   UNL A   1      33.841  19.185  25.277  1.00  0.00    -0.268 OA
ATOM     21  N   UNL A   1      35.523  20.598  25.270  1.00  0.00    -0.348 N 
ATOM     22  H   UNL A   1      35.863  19.929  25.907  1.00  0.00     0.163 HD
BRANCH  21  23
ATOM     23  C   UNL A   1      36.529  21.638  25.028  1.00  0.00     0.082 C 
ATOM     24  C   UNL A   1      36.181  23.018  25.586  1.00  0.00     0.025 C 
ATOM     25  C   UNL A   1      37.992  21.368  25.358  1.00  0.00     0.025 C 
ATOM     26  C   UNL A   1      37.514  23.705  25.844  1.00  0.00     0.002 C 
ATOM     27  C   UNL A   1      38.503  22.585  26.118  1.00  0.00     0.002 C 
ENDBRANCH  21  23
ENDBRANCH  17  19
ENDBRANCH   8  17
ENDBRANCH   6   7
ENDBRANCH   5   6
ENDBRANCH   3   5
ENDBRANCH   2   3
ENDBRANCH   1   2
BRANCH   1  28
ATOM     28  C   UNL A   1      34.411  31.278  27.827  1.00  0.00     0.275 C 
BRANCH  28  29
ATOM     29  O   UNL A   1      35.528  30.392  27.740  1.00  0.00    -0.458 OA
BRANCH  29  30
ATOM     30  C   UNL A   1      36.230  30.285  28.884  1.00  0.00     0.338 C 
ATOM     31  O   UNL A   1      36.086  30.912  29.914  1.00  0.00    -0.246 OA
BRANCH  30  32
ATOM     32  C   UNL A   1      37.335  29.355  28.739  1.00  0.00     0.060 A 
ATOM     33  C   UNL A   1      37.699  28.589  29.856  1.00  0.00     0.016 A 
ATOM     34  C   UNL A   1      38.161  29.521  27.629  1.00  0.00     0.016 A 
ATOM     35  C   UNL A   1      38.976  28.072  29.911  1.00  0.00     0.010 A 
ATOM     36  C   UNL A   1      39.437  29.024  27.697  1.00  0.00     0.010 A 
ATOM     37  C   UNL A   1      39.846  28.358  28.859  1.00  0.00    -0.014 A 
BRANCH  37  38
ATOM     38  C   UNL A   1      41.222  27.916  28.954  1.00  0.00     0.031 A 
ATOM     39  C   UNL A   1      41.497  26.603  28.327  1.00  0.00     0.074 A 
ATOM     40  C   UNL A   1      42.181  28.767  29.367  1.00  0.00     0.049 A 
ATOM     41  N   UNL A   1      42.099  25.584  28.844  1.00  0.00    -0.248 NA
ATOM     42  C   UNL A   1      40.947  26.359  26.982  1.00  0.00     0.031 C 
ATOM     43  C   UNL A   1      42.013  30.189  29.690  1.00  0.00     0.029 A 
ATOM     44  N   UNL A   1      43.533  28.598  29.377  1.00  0.00    -0.354 N 
ATOM     45  C   UNL A   1      42.193  24.652  27.814  1.00  0.00     0.074 A 
ATOM     46  C   UNL A   1      41.326  25.104  26.760  1.00  0.00     0.031 C 
ATOM     47  C   UNL A   1      43.210  30.803  29.580  1.00  0.00     0.029 A 
ATOM     48  C   UNL A   1      44.223  29.803  29.289  1.00  0.00     0.049 A 
ATOM     49  H   UNL A   1      43.974  27.720  29.439  1.00  0.00     0.167 HD
ATOM     50  C   UNL A   1      43.160  23.699  27.792  1.00  0.00     0.034 A 
ATOM     51  C   UNL A   1      45.503  29.974  28.885  1.00  0.00     0.034 A 
ATOM     52  C   UNL A   1      43.775  23.517  29.078  1.00  0.00     0.049 A 
ATOM     53  C   UNL A   1      46.183  28.660  28.962  1.00  0.00     0.074 A 
ATOM     54  C   UNL A   1      43.320  23.184  30.338  1.00  0.00     0.029 A 
ATOM     55  N   UNL A   1      45.039  24.022  29.249  1.00  0.00    -0.354 N 
ATOM     56  N   UNL A   1      46.464  28.048  30.078  1.00  0.00    -0.248 NA
ATOM     57  C   UNL A   1      46.223  27.828  27.769  1.00  0.00     0.031 C 
ATOM     58  C   UNL A   1      44.147  23.919  31.236  1.00  0.00     0.029 A 
ATOM     59  C   UNL A   1      45.072  24.635  30.473  1.00  0.00     0.049 A 
ATOM     60  H   UNL A   1      45.785  23.957  28.610  1.00  0.00     0.167 HD
ATOM     61  C   UNL A   1      46.272  26.702  29.795  1.00  0.00     0.074 A 
ATOM     62  C   UNL A   1      46.269  26.621  28.337  1.00  0.00     0.031 C 
ATOM     63  C   UNL A   1      45.828  25.837  30.755  1.00  0.00     0.034 A 
BRANCH  50  64
ATOM     64  C   UNL A   1      43.786  23.167  26.531  1.00  0.00     0.023 A 
ATOM     65  C   UNL A   1      44.177  24.103  25.550  1.00  0.00     0.012 A 
ATOM     66  C   UNL A   1      43.769  21.805  26.151  1.00  0.00     0.148 A 
ATOM     67  C   UNL A   1      44.505  23.706  24.250  1.00  0.00     0.002 A 
ATOM     68  C   UNL A   1      44.185  21.408  24.886  1.00  0.00     0.091 A 
ATOM     69  F   UNL A   1      43.220  20.888  26.956  1.00  0.00    -0.205 F 
ATOM     70  C   UNL A   1      44.524  22.356  23.920  1.00  0.00     0.022 A 
BRANCH  68  71
ATOM     71  S   UNL A   1      44.298  19.667  24.460  1.00  0.00     0.127 S 
ATOM     72  O   UNL A   1      45.401  19.226  25.305  1.00  0.00    -0.237 OA
ATOM     73  O   UNL A   1      42.978  19.168  24.850  1.00  0.00    -0.237 OA
ATOM     74  O   UNL A   1      44.533  19.649  23.020  1.00  0.00    -0.744 OA
ENDBRANCH  68  71
ENDBRANCH  50  64
BRANCH  51  75
ATOM     75  C   UNL A   1      46.126  31.145  28.227  1.00  0.00     0.023 A 
ATOM     76  C   UNL A   1      47.514  31.346  28.345  1.00  0.00     0.012 A 
ATOM     77  C   UNL A   1      45.414  31.940  27.299  1.00  0.00     0.148 A 
ATOM     78  C   UNL A   1      48.175  32.296  27.557  1.00  0.00     0.002 A 
ATOM     79  C   UNL A   1      46.071  32.899  26.534  1.00  0.00     0.091 A 
ATOM     80  F   UNL A   1      44.113  31.695  27.094  1.00  0.00    -0.205 F 
ATOM     81  C   UNL A   1      47.455  33.072  26.652  1.00  0.00     0.022 A 
BRANCH  79  82
ATOM     82  S   UNL A   1      45.193  33.937  25.358  1.00  0.00     0.127 S 
ATOM     83  O   UNL A   1      46.288  34.653  24.699  1.00  0.00    -0.237 OA
ATOM     84  O   UNL A   1      44.518  32.949  24.523  1.00  0.00    -0.237 OA
ATOM     85  O   UNL A   1      44.327  34.792  26.162  1.00  0.00    -0.744 OA
ENDBRANCH  79  82
ENDBRANCH  51  75
BRANCH  63  86
ATOM     86  C   UNL A   1      45.827  26.303  32.192  1.00  0.00     0.023 A 
ATOM     87  C   UNL A   1      46.980  26.221  33.000  1.00  0.00     0.012 A 
ATOM     88  C   UNL A   1      44.707  26.996  32.685  1.00  0.00     0.148 A 
ATOM     89  C   UNL A   1      47.005  26.779  34.280  1.00  0.00     0.002 A 
ATOM     90  C   UNL A   1      44.753  27.594  33.940  1.00  0.00     0.091 A 
ATOM     91  F   UNL A   1      43.615  27.081  31.908  1.00  0.00    -0.205 F 
ATOM     92  C   UNL A   1      45.895  27.477  34.746  1.00  0.00     0.022 A 
BRANCH  90  93
ATOM     93  S   UNL A   1      43.404  28.626  34.524  1.00  0.00     0.127 S 
ATOM     94  O   UNL A   1      43.297  29.625  33.464  1.00  0.00    -0.237 OA
ATOM     95  O   UNL A   1      42.284  27.686  34.592  1.00  0.00    -0.237 OA
ATOM     96  O   UNL A   1      43.833  29.124  35.826  1.00  0.00    -0.744 OA
ENDBRANCH  90  93
ENDBRANCH  63  86
ENDBRANCH  37  38
ENDBRANCH  30  32
ENDBRANCH  29  30
ENDBRANCH  28  29
ENDBRANCH   1  28
TORSDOF 19
ENDMDL
MODEL 3
REMARK VINA RESULT:     -11.0      4.724     12.108
REMARK SMILES C[C@H](C(=O)NC1CCCC1)[N@@H+]1CCn2nc(CCC(=O)OCCOC(=O)c3ccc(-c4c5nc(c(-c6cccc(S(=O)(=O)[O-])c6F)c6ccc([nH]6)c(-c6cccc(S(=O)(=O)[O-])c6F)c6nc(c(-c7cccc(S(=O)(=O)[O-])c7F)c7ccc4[nH]7)C=C6)C=C5)cc3)cc2C1
REMARK SMILES IDX 22 1 21 2 19 3 20 4 18 5 17 6 16 7 11 8 12 9 92 10 13 12
REMARK SMILES IDX 91 13 14 14 90 15 15 16 2 17 1 18 3 19 4 20 5 21 6 23 7 24
REMARK SMILES IDX 10 25 8 26 9 27 23 28 24 29 25 30 26 31 27 32 28 33 89 34
REMARK SMILES IDX 29 35 88 36 30 37 31 38 32 39 82 40 33 41 87 42 81 43 83 44
REMARK SMILES IDX 34 45 86 46 80 47 79 48 35 50 67 51 47 52 66 53 48 54 51 55
REMARK SMILES IDX 65 56 84 57 49 58 50 59 64 61 85 62 52 63 36 64 37 65 45 66
REMARK SMILES IDX 38 67 40 68 46 69 39 70 41 71 42 72 43 73 44 74 68 75 69 76
REMARK SMILES IDX 77 77 70 78 72 79 78 80 71 81 73 82 74 83 75 84 76 85 53 86
REMARK SMILES IDX 54 87 62 88 55 89 57 90 63 91 56 92 58 93 59 94 60 95 61 96
REMARK H PARENT 11 11 5 22 83 49 51 60
REMARK Flexibility Score: inf
ROOT
ATOM      1  C   UNL A   1      43.672  18.994  25.525  1.00  0.00     0.274 C 
ENDROOT
BRANCH   1   2
ATOM      2  O   UNL A   1      42.289  19.363  25.380  1.00  0.00    -0.462 OA
BRANCH   2   3
ATOM      3  C   UNL A   1      41.696  20.013  26.411  1.00  0.00     0.306 C 
ATOM      4  O   UNL A   1      41.458  19.511  27.503  1.00  0.00    -0.252 OA
BRANCH   3   5
ATOM      5  C   UNL A   1      41.244  21.409  26.037  1.00  0.00     0.129 C 
BRANCH   5   6
ATOM      6  C   UNL A   1      40.236  22.061  26.983  1.00  0.00     0.070 C 
BRANCH   6   7
ATOM      7  C   UNL A   1      38.895  22.221  26.361  1.00  0.00     0.064 A 
ATOM      8  N   UNL A   1      34.768  22.215  24.816  1.00  0.00    -0.318 N 
ATOM      9  C   UNL A   1      34.912  23.688  24.751  1.00  0.00     0.287 C 
ATOM     10  C   UNL A   1      35.984  21.603  24.237  1.00  0.00     0.319 C 
ATOM     11  H   UNL A   1      34.642  21.983  25.801  1.00  0.00     0.349 HD
ATOM     12  C   UNL A   1      36.158  24.226  25.494  1.00  0.00     0.206 C 
ATOM     13  C   UNL A   1      37.124  21.971  25.082  1.00  0.00     0.093 A 
ATOM     14  N   UNL A   1      37.162  23.197  25.667  1.00  0.00    -0.258 N 
ATOM     15  C   UNL A   1      38.244  21.305  25.508  1.00  0.00     0.055 A 
ATOM     16  N   UNL A   1      38.188  23.350  26.501  1.00  0.00    -0.177 NA
BRANCH   8  17
ATOM     17  C   UNL A   1      33.584  21.671  24.127  1.00  0.00     0.271 C 
ATOM     18  C   UNL A   1      32.852  22.567  23.124  1.00  0.00     0.086 C 
BRANCH  17  19
ATOM     19  C   UNL A   1      32.552  21.111  25.138  1.00  0.00     0.278 C 
ATOM     20  O   UNL A   1      31.966  21.914  25.883  1.00  0.00    -0.268 OA
ATOM     21  N   UNL A   1      32.245  19.803  25.344  1.00  0.00    -0.348 N 
ATOM     22  H   UNL A   1      31.673  19.703  26.138  1.00  0.00     0.163 HD
BRANCH  21  23
ATOM     23  C   UNL A   1      32.514  18.496  24.734  1.00  0.00     0.082 C 
ATOM     24  C   UNL A   1      32.453  18.468  23.207  1.00  0.00     0.025 C 
ATOM     25  C   UNL A   1      33.746  17.704  25.156  1.00  0.00     0.025 C 
ATOM     26  C   UNL A   1      33.371  17.333  22.779  1.00  0.00     0.002 C 
ATOM     27  C   UNL A   1      34.415  17.218  23.876  1.00  0.00     0.002 C 
ENDBRANCH  21  23
ENDBRANCH  17  19
ENDBRANCH   8  17
ENDBRANCH   6   7
ENDBRANCH   5   6
ENDBRANCH   3   5
ENDBRANCH   2   3
ENDBRANCH   1   2
BRANCH   1  28
ATOM     28  C   UNL A   1      44.551  19.654  24.467  1.00  0.00     0.275 C 
BRANCH  28  29
ATOM     29  O   UNL A   1      45.051  20.903  24.945  1.00  0.00    -0.458 OA
BRANCH  29  30
ATOM     30  C   UNL A   1      44.518  21.976  24.330  1.00  0.00     0.338 C 
ATOM     31  O   UNL A   1      44.531  22.243  23.145  1.00  0.00    -0.246 OA
BRANCH  30  32
ATOM     32  C   UNL A   1      43.976  22.919  25.290  1.00  0.00     0.060 A 
ATOM     33  C   UNL A   1      43.293  24.040  24.796  1.00  0.00     0.016 A 
ATOM     34  C   UNL A   1      44.448  22.833  26.598  1.00  0.00     0.016 A 
ATOM     35  C   UNL A   1      43.184  25.153  25.601  1.00  0.00     0.010 A 
ATOM     36  C   UNL A   1      44.357  23.949  27.390  1.00  0.00     0.010 A 
ATOM     37  C   UNL A   1      43.780  25.111  26.862  1.00  0.00    -0.014 A 
BRANCH  37  38
ATOM     38  C   UNL A   1      43.770  26.309  27.676  1.00  0.00     0.031 A 
ATOM     39  C   UNL A   1      44.904  27.232  27.436  1.00  0.00     0.074 A 
ATOM     40  C   UNL A   1      42.679  26.631  28.397  1.00  0.00     0.049 A 
ATOM     41  N   UNL A   1      45.702  27.756  28.306  1.00  0.00    -0.248 NA
ATOM     42  C   UNL A   1      45.251  27.537  26.038  1.00  0.00     0.031 C 
ATOM     43  C   UNL A   1      41.396  25.916  28.414  1.00  0.00     0.029 A 
ATOM     44  N   UNL A   1      42.415  27.772  29.092  1.00  0.00    -0.354 N 
ATOM     45  C   UNL A   1      46.513  28.625  27.582  1.00  0.00     0.074 A 
ATOM     46  C   UNL A   1      46.313  28.323  26.190  1.00  0.00     0.031 C 
ATOM     47  C   UNL A   1      40.433  26.765  28.831  1.00  0.00     0.029 A 
ATOM     48  C   UNL A   1      41.051  28.025  29.205  1.00  0.00     0.049 A 
ATOM     49  H   UNL A   1      43.111  28.354  29.473  1.00  0.00     0.167 HD
ATOM     50  C   UNL A   1      47.112  29.698  28.159  1.00  0.00     0.034 A 
ATOM     51  C   UNL A   1      40.470  29.219  29.465  1.00  0.00     0.034 A 
ATOM     52  C   UNL A   1      47.145  29.599  29.592  1.00  0.00     0.049 A 
ATOM     53  C   UNL A   1      41.505  30.115  30.031  1.00  0.00     0.074 A 
ATOM     54  C   UNL A   1      47.655  28.690  30.495  1.00  0.00     0.029 A 
ATOM     55  N   UNL A   1      46.275  30.392  30.298  1.00  0.00    -0.354 N 
ATOM     56  N   UNL A   1      42.043  29.957  31.208  1.00  0.00    -0.248 NA
ATOM     57  C   UNL A   1      42.232  30.994  29.128  1.00  0.00     0.031 C 
ATOM     58  C   UNL A   1      46.736  28.692  31.584  1.00  0.00     0.029 A 
ATOM     59  C   UNL A   1      45.734  29.620  31.291  1.00  0.00     0.049 A 
ATOM     60  H   UNL A   1      46.076  31.340  30.122  1.00  0.00     0.167 HD
ATOM     61  C   UNL A   1      43.369  30.336  31.038  1.00  0.00     0.074 A 
ATOM     62  C   UNL A   1      43.386  31.095  29.791  1.00  0.00     0.031 C 
ATOM     63  C   UNL A   1      44.368  29.742  31.756  1.00  0.00     0.034 A 
BRANCH  50  64
ATOM     64  C   UNL A   1      47.367  31.000  27.447  1.00  0.00     0.023 A 
ATOM     65  C   UNL A   1      48.678  31.522  27.489  1.00  0.00     0.012 A 
ATOM     66  C   UNL A   1      46.348  31.856  26.969  1.00  0.00     0.148 A 
ATOM     67  C   UNL A   1      48.953  32.838  27.106  1.00  0.00     0.002 A 
ATOM     68  C   UNL A   1      46.642  33.131  26.502  1.00  0.00     0.091 A 
ATOM     69  F   UNL A   1      45.063  31.504  27.090  1.00  0.00    -0.205 F 
ATOM     70  C   UNL A   1      47.938  33.640  26.598  1.00  0.00     0.022 A 
BRANCH  68  71
ATOM     71  S   UNL A   1      45.366  34.158  25.765  1.00  0.00     0.127 S 
ATOM     72  O   UNL A   1      44.425  34.299  26.870  1.00  0.00    -0.237 OA
ATOM     73  O   UNL A   1      46.108  35.373  25.423  1.00  0.00    -0.237 OA
ATOM     74  O   UNL A   1      44.903  33.404  24.606  1.00  0.00    -0.744 OA
ENDBRANCH  68  71
ENDBRANCH  50  64
BRANCH  51  75
ATOM     75  C   UNL A   1      39.136  29.717  29.058  1.00  0.00     0.023 A 
ATOM     76  C   UNL A   1      38.527  29.195  27.903  1.00  0.00     0.012 A 
ATOM     77  C   UNL A   1      38.357  30.531  29.912  1.00  0.00     0.148 A 
ATOM     78  C   UNL A   1      37.183  29.461  27.612  1.00  0.00     0.002 A 
ATOM     79  C   UNL A   1      37.028  30.813  29.608  1.00  0.00     0.091 A 
ATOM     80  F   UNL A   1      38.883  30.954  31.069  1.00  0.00    -0.205 F 
ATOM     81  C   UNL A   1      36.434  30.268  28.464  1.00  0.00     0.022 A 
BRANCH  79  82
ATOM     82  S   UNL A   1      36.015  31.858  30.664  1.00  0.00     0.127 S 
ATOM     83  O   UNL A   1      34.776  31.971  29.890  1.00  0.00    -0.237 OA
ATOM     84  O   UNL A   1      35.907  31.054  31.877  1.00  0.00    -0.237 OA
ATOM     85  O   UNL A   1      36.748  33.112  30.792  1.00  0.00    -0.744 OA
ENDBRANCH  79  82
ENDBRANCH  51  75
BRANCH  63  86
ATOM     86  C   UNL A   1      43.987  28.878  32.934  1.00  0.00     0.023 A 
ATOM     87  C   UNL A   1      43.711  27.501  32.787  1.00  0.00     0.012 A 
ATOM     88  C   UNL A   1      44.079  29.410  34.232  1.00  0.00     0.148 A 
ATOM     89  C   UNL A   1      43.493  26.686  33.900  1.00  0.00     0.002 A 
ATOM     90  C   UNL A   1      43.912  28.585  35.339  1.00  0.00     0.091 A 
ATOM     91  F   UNL A   1      44.352  30.718  34.368  1.00  0.00    -0.205 F 
ATOM     92  C   UNL A   1      43.605  27.225  35.178  1.00  0.00     0.022 A 
BRANCH  90  93
ATOM     93  S   UNL A   1      44.190  29.200  37.003  1.00  0.00     0.127 S 
ATOM     94  O   UNL A   1      43.035  30.070  37.208  1.00  0.00    -0.237 OA
ATOM     95  O   UNL A   1      44.182  27.975  37.806  1.00  0.00    -0.237 OA
ATOM     96  O   UNL A   1      45.487  29.864  36.959  1.00  0.00    -0.744 OA
ENDBRANCH  90  93
ENDBRANCH  63  86
ENDBRANCH  37  38
ENDBRANCH  30  32
ENDBRANCH  29  30
ENDBRANCH  28  29
ENDBRANCH   1  28
TORSDOF 19
ENDMDL
