MODEL 1
REMARK VINA RESULT:     -13.2      0.000      0.000
REMARK SMILES O=C(Nc1ccccc1C(=O)OCCOC(=O)c1ccc(-c2c3nc(c(-c4cccc(S(=O)(=O)[O-])c4F)c4ccc([nH]4)c(-c4cccc(S(=O)(=O)[O-])c4F)c4nc(c(-c5cccc(S(=O)(=O)[O-])c5F)c5ccc2[nH]5)C=C4)C=C3)cc1)c1ccc(N2C(=O)[C@H]3CC=CC[C@H]3C2=O)cc1
REMARK SMILES IDX 13 1 12 2 10 3 11 4 9 5 4 6 5 7 6 8 8 9 7 10 3 11 1 12 2 13
REMARK SMILES IDX 81 15 82 16 97 17 83 18 96 19 84 20 85 21 86 22 94 23 87 24
REMARK SMILES IDX 88 25 93 26 95 27 89 28 92 29 90 30 91 31 14 32 15 33 16 34
REMARK SMILES IDX 17 35 18 36 19 37 80 38 20 39 79 40 21 41 22 42 23 43 73 44
REMARK SMILES IDX 24 45 78 46 72 47 74 48 25 49 77 50 71 51 70 52 26 54 58 55
REMARK SMILES IDX 38 56 57 57 39 58 42 59 56 60 75 61 40 62 41 63 55 65 76 66
REMARK SMILES IDX 43 67 27 68 28 69 36 70 29 71 31 72 37 73 30 74 32 75 33 76
REMARK SMILES IDX 34 77 35 78 59 79 60 80 68 81 61 82 63 83 69 84 62 85 64 86
REMARK SMILES IDX 65 87 66 88 67 89 44 90 45 91 53 92 46 93 48 94 54 95 47 96
REMARK SMILES IDX 49 97 50 98 51 99 52 100
REMARK H PARENT 3 14 74 53 42 64
REMARK Flexibility Score: inf
ROOT
ATOM      1  C   UNL A   1      32.112  30.295  25.742  1.00  0.00     0.275 C 
ENDROOT
BRANCH   1   2
ATOM      2  O   UNL A   1      33.138  29.315  26.022  1.00  0.00    -0.458 OA
BRANCH   2   3
ATOM      3  C   UNL A   1      33.220  28.296  25.129  1.00  0.00     0.340 C 
ATOM      4  O   UNL A   1      34.144  28.099  24.361  1.00  0.00    -0.246 OA
BRANCH   3   5
ATOM      5  C   UNL A   1      32.030  27.417  25.142  1.00  0.00     0.083 A 
ATOM      6  C   UNL A   1      31.523  26.767  24.007  1.00  0.00     0.056 A 
ATOM      7  C   UNL A   1      30.358  25.991  24.140  1.00  0.00     0.027 A 
ATOM      8  C   UNL A   1      29.778  25.759  25.392  1.00  0.00     0.002 A 
ATOM      9  C   UNL A   1      31.424  27.184  26.391  1.00  0.00     0.018 A 
ATOM     10  C   UNL A   1      30.322  26.345  26.524  1.00  0.00     0.001 A 
BRANCH   6  11
ATOM     11  N   UNL A   1      32.104  26.773  22.720  1.00  0.00    -0.321 N 
ATOM     12  O   UNL A   1      33.648  26.289  21.137  1.00  0.00    -0.269 OA
ATOM     13  C   UNL A   1      33.059  25.947  22.160  1.00  0.00     0.255 C 
ATOM     14  H   UNL A   1      31.773  27.483  22.122  1.00  0.00     0.170 HD
BRANCH  13  15
ATOM     15  C   UNL A   1      33.314  24.594  22.722  1.00  0.00     0.040 A 
ATOM     16  C   UNL A   1      32.847  23.442  22.087  1.00  0.00     0.016 A 
ATOM     17  C   UNL A   1      33.989  24.484  23.940  1.00  0.00     0.016 A 
ATOM     18  C   UNL A   1      32.955  22.202  22.722  1.00  0.00     0.027 A 
ATOM     19  C   UNL A   1      34.060  23.246  24.590  1.00  0.00     0.027 A 
ATOM     20  C   UNL A   1      33.534  22.089  23.993  1.00  0.00     0.052 A 
BRANCH  20  21
ATOM     21  N   UNL A   1      33.628  20.831  24.639  1.00  0.00    -0.250 N 
ATOM     22  C   UNL A   1      32.547  20.177  25.178  1.00  0.00     0.238 C 
ATOM     23  C   UNL A   1      34.786  20.097  24.747  1.00  0.00     0.238 C 
ATOM     24  O   UNL A   1      31.392  20.577  25.284  1.00  0.00    -0.274 OA
ATOM     25  C   UNL A   1      32.944  18.764  25.517  1.00  0.00     0.096 C 
ATOM     26  C   UNL A   1      34.470  18.769  25.398  1.00  0.00     0.096 C 
ATOM     27  O   UNL A   1      35.920  20.425  24.415  1.00  0.00    -0.274 OA
ATOM     28  C   UNL A   1      32.211  17.814  24.554  1.00  0.00     0.041 C 
ATOM     29  C   UNL A   1      35.052  17.643  24.541  1.00  0.00     0.041 C 
ATOM     30  C   UNL A   1      32.947  17.597  23.262  1.00  0.00    -0.030 C 
ATOM     31  C   UNL A   1      34.283  17.496  23.258  1.00  0.00    -0.030 C 
ENDBRANCH  20  21
ENDBRANCH  13  15
ENDBRANCH   6  11
ENDBRANCH   3   5
ENDBRANCH   2   3
ENDBRANCH   1   2
BRANCH   1  32
ATOM     32  C   UNL A   1      32.016  31.404  26.789  1.00  0.00     0.275 C 
BRANCH  32  33
ATOM     33  O   UNL A   1      33.025  31.262  27.802  1.00  0.00    -0.458 OA
BRANCH  33  34
ATOM     34  C   UNL A   1      33.873  32.308  27.876  1.00  0.00     0.338 C 
ATOM     35  O   UNL A   1      33.584  33.496  27.887  1.00  0.00    -0.246 OA
BRANCH  34  36
ATOM     36  C   UNL A   1      35.254  31.856  28.050  1.00  0.00     0.060 A 
ATOM     37  C   UNL A   1      35.451  30.517  28.364  1.00  0.00     0.016 A 
ATOM     38  C   UNL A   1      36.293  32.768  28.187  1.00  0.00     0.016 A 
ATOM     39  C   UNL A   1      36.607  30.101  28.990  1.00  0.00     0.010 A 
ATOM     40  C   UNL A   1      37.518  32.319  28.689  1.00  0.00     0.010 A 
ATOM     41  C   UNL A   1      37.660  30.997  29.153  1.00  0.00    -0.014 A 
BRANCH  41  42
ATOM     42  C   UNL A   1      38.879  30.553  29.864  1.00  0.00     0.031 A 
ATOM     43  C   UNL A   1      39.779  29.544  29.213  1.00  0.00     0.074 A 
ATOM     44  C   UNL A   1      39.173  31.063  31.075  1.00  0.00     0.049 A 
ATOM     45  N   UNL A   1      40.750  28.848  29.739  1.00  0.00    -0.248 NA
ATOM     46  C   UNL A   1      39.540  29.263  27.786  1.00  0.00     0.031 C 
ATOM     47  C   UNL A   1      38.397  32.094  31.773  1.00  0.00     0.029 A 
ATOM     48  N   UNL A   1      40.189  30.769  31.946  1.00  0.00    -0.354 N 
ATOM     49  C   UNL A   1      41.176  27.983  28.738  1.00  0.00     0.074 A 
ATOM     50  C   UNL A   1      40.366  28.250  27.570  1.00  0.00     0.031 C 
ATOM     51  C   UNL A   1      38.962  32.344  32.961  1.00  0.00     0.029 A 
ATOM     52  C   UNL A   1      40.065  31.415  33.154  1.00  0.00     0.049 A 
ATOM     53  H   UNL A   1      40.930  30.158  31.730  1.00  0.00     0.167 HD
ATOM     54  C   UNL A   1      42.154  27.049  28.799  1.00  0.00     0.034 A 
ATOM     55  C   UNL A   1      40.715  31.224  34.316  1.00  0.00     0.034 A 
ATOM     56  C   UNL A   1      42.975  26.844  29.963  1.00  0.00     0.049 A 
ATOM     57  C   UNL A   1      41.780  30.170  34.368  1.00  0.00     0.074 A 
ATOM     58  C   UNL A   1      44.014  25.951  30.138  1.00  0.00     0.029 A 
ATOM     59  N   UNL A   1      42.846  27.549  31.152  1.00  0.00    -0.354 N 
ATOM     60  N   UNL A   1      42.188  29.365  33.415  1.00  0.00    -0.248 NA
ATOM     61  C   UNL A   1      42.485  30.004  35.643  1.00  0.00     0.031 C 
ATOM     62  C   UNL A   1      44.495  26.094  31.444  1.00  0.00     0.029 A 
ATOM     63  C   UNL A   1      43.784  27.108  32.069  1.00  0.00     0.049 A 
ATOM     64  H   UNL A   1      42.185  28.259  31.319  1.00  0.00     0.167 HD
ATOM     65  C   UNL A   1      43.218  28.615  33.966  1.00  0.00     0.074 A 
ATOM     66  C   UNL A   1      43.385  29.082  35.330  1.00  0.00     0.031 C 
ATOM     67  C   UNL A   1      43.952  27.624  33.404  1.00  0.00     0.034 A 
BRANCH  54  68
ATOM     68  C   UNL A   1      42.376  26.183  27.587  1.00  0.00     0.023 A 
ATOM     69  C   UNL A   1      43.072  26.688  26.470  1.00  0.00     0.012 A 
ATOM     70  C   UNL A   1      41.913  24.851  27.565  1.00  0.00     0.148 A 
ATOM     71  C   UNL A   1      43.266  25.897  25.336  1.00  0.00     0.002 A 
ATOM     72  C   UNL A   1      42.155  24.055  26.453  1.00  0.00     0.091 A 
ATOM     73  F   UNL A   1      41.233  24.394  28.626  1.00  0.00    -0.205 F 
ATOM     74  C   UNL A   1      42.818  24.580  25.332  1.00  0.00     0.022 A 
BRANCH  72  75
ATOM     75  S   UNL A   1      41.690  22.321  26.382  1.00  0.00     0.127 S 
ATOM     76  O   UNL A   1      42.417  21.868  25.197  1.00  0.00    -0.237 OA
ATOM     77  O   UNL A   1      42.215  21.811  27.649  1.00  0.00    -0.237 OA
ATOM     78  O   UNL A   1      40.239  22.296  26.271  1.00  0.00    -0.744 OA
ENDBRANCH  72  75
ENDBRANCH  54  68
BRANCH  55  79
ATOM     79  C   UNL A   1      40.348  32.035  35.511  1.00  0.00     0.023 A 
ATOM     80  C   UNL A   1      41.056  33.217  35.795  1.00  0.00     0.012 A 
ATOM     81  C   UNL A   1      39.260  31.672  36.332  1.00  0.00     0.148 A 
ATOM     82  C   UNL A   1      40.704  34.009  36.889  1.00  0.00     0.002 A 
ATOM     83  C   UNL A   1      38.873  32.500  37.378  1.00  0.00     0.091 A 
ATOM     84  F   UNL A   1      38.602  30.538  36.051  1.00  0.00    -0.205 F 
ATOM     85  C   UNL A   1      39.607  33.658  37.671  1.00  0.00     0.022 A 
BRANCH  83  86
ATOM     86  S   UNL A   1      37.379  32.214  38.333  1.00  0.00     0.127 S 
ATOM     87  O   UNL A   1      37.218  30.767  38.214  1.00  0.00    -0.237 OA
ATOM     88  O   UNL A   1      37.777  32.684  39.662  1.00  0.00    -0.237 OA
ATOM     89  O   UNL A   1      36.343  33.019  37.701  1.00  0.00    -0.744 OA
ENDBRANCH  83  86
ENDBRANCH  55  79
BRANCH  67  90
ATOM     90  C   UNL A   1      45.039  27.016  34.247  1.00  0.00     0.023 A 
ATOM     91  C   UNL A   1      46.295  27.646  34.342  1.00  0.00     0.012 A 
ATOM     92  C   UNL A   1      44.786  25.849  34.994  1.00  0.00     0.148 A 
ATOM     93  C   UNL A   1      47.298  27.101  35.141  1.00  0.00     0.002 A 
ATOM     94  C   UNL A   1      45.771  25.344  35.832  1.00  0.00     0.091 A 
ATOM     95  F   UNL A   1      43.589  25.258  34.872  1.00  0.00    -0.205 F 
ATOM     96  C   UNL A   1      47.033  25.959  35.894  1.00  0.00     0.022 A 
BRANCH  94  97
ATOM     97  S   UNL A   1      45.486  23.941  36.913  1.00  0.00     0.127 S 
ATOM     98  O   UNL A   1      46.846  23.601  37.325  1.00  0.00    -0.237 OA
ATOM     99  O   UNL A   1      44.656  24.528  37.966  1.00  0.00    -0.237 OA
ATOM    100  O   UNL A   1      44.810  22.936  36.101  1.00  0.00    -0.744 OA
ENDBRANCH  94  97
ENDBRANCH  67  90
ENDBRANCH  41  42
ENDBRANCH  34  36
ENDBRANCH  33  34
ENDBRANCH  32  33
ENDBRANCH   1  32
TORSDOF 17
ENDMDL
MODEL 2
REMARK VINA RESULT:     -13.1      4.861      8.488
REMARK SMILES O=C(Nc1ccccc1C(=O)OCCOC(=O)c1ccc(-c2c3nc(c(-c4cccc(S(=O)(=O)[O-])c4F)c4ccc([nH]4)c(-c4cccc(S(=O)(=O)[O-])c4F)c4nc(c(-c5cccc(S(=O)(=O)[O-])c5F)c5ccc2[nH]5)C=C4)C=C3)cc1)c1ccc(N2C(=O)[C@H]3CC=CC[C@H]3C2=O)cc1
REMARK SMILES IDX 13 1 12 2 10 3 11 4 9 5 4 6 5 7 6 8 8 9 7 10 3 11 1 12 2 13
REMARK SMILES IDX 81 15 82 16 97 17 83 18 96 19 84 20 85 21 86 22 94 23 87 24
REMARK SMILES IDX 88 25 93 26 95 27 89 28 92 29 90 30 91 31 14 32 15 33 16 34
REMARK SMILES IDX 17 35 18 36 19 37 80 38 20 39 79 40 21 41 22 42 23 43 73 44
REMARK SMILES IDX 24 45 78 46 72 47 74 48 25 49 77 50 71 51 70 52 26 54 58 55
REMARK SMILES IDX 38 56 57 57 39 58 42 59 56 60 75 61 40 62 41 63 55 65 76 66
REMARK SMILES IDX 43 67 27 68 28 69 36 70 29 71 31 72 37 73 30 74 32 75 33 76
REMARK SMILES IDX 34 77 35 78 59 79 60 80 68 81 61 82 63 83 69 84 62 85 64 86
REMARK SMILES IDX 65 87 66 88 67 89 44 90 45 91 53 92 46 93 48 94 54 95 47 96
REMARK SMILES IDX 49 97 50 98 51 99 52 100
REMARK H PARENT 3 14 74 53 42 64
REMARK Flexibility Score: inf
ROOT
ATOM      1  C   UNL A   1      36.246  20.968  25.340  1.00  0.00     0.275 C 
ENDROOT
BRANCH   1   2
ATOM      2  O   UNL A   1      36.262  22.385  25.051  1.00  0.00    -0.458 OA
BRANCH   2   3
ATOM      3  C   UNL A   1      35.110  23.044  25.333  1.00  0.00     0.340 C 
ATOM      4  O   UNL A   1      34.879  23.664  26.354  1.00  0.00    -0.246 OA
BRANCH   3   5
ATOM      5  C   UNL A   1      34.095  22.920  24.263  1.00  0.00     0.083 A 
ATOM      6  C   UNL A   1      32.726  22.727  24.500  1.00  0.00     0.056 A 
ATOM      7  C   UNL A   1      31.866  22.581  23.397  1.00  0.00     0.027 A 
ATOM      8  C   UNL A   1      32.329  22.748  22.087  1.00  0.00     0.002 A 
ATOM      9  C   UNL A   1      34.545  23.069  22.938  1.00  0.00     0.018 A 
ATOM     10  C   UNL A   1      33.671  23.008  21.857  1.00  0.00     0.001 A 
BRANCH   6  11
ATOM     11  N   UNL A   1      32.097  22.713  25.765  1.00  0.00    -0.321 N 
ATOM     12  O   UNL A   1      31.388  23.560  27.741  1.00  0.00    -0.269 OA
ATOM     13  C   UNL A   1      31.633  23.750  26.551  1.00  0.00     0.255 C 
ATOM     14  H   UNL A   1      31.967  21.815  26.150  1.00  0.00     0.170 HD
BRANCH  13  15
ATOM     15  C   UNL A   1      31.326  25.076  25.952  1.00  0.00     0.040 A 
ATOM     16  C   UNL A   1      30.021  25.437  25.613  1.00  0.00     0.016 A 
ATOM     17  C   UNL A   1      32.378  25.952  25.675  1.00  0.00     0.016 A 
ATOM     18  C   UNL A   1      29.784  26.615  24.901  1.00  0.00     0.027 A 
ATOM     19  C   UNL A   1      32.141  27.112  24.928  1.00  0.00     0.027 A 
ATOM     20  C   UNL A   1      30.841  27.454  24.522  1.00  0.00     0.052 A 
BRANCH  20  21
ATOM     21  N   UNL A   1      30.598  28.641  23.786  1.00  0.00    -0.250 N 
ATOM     22  C   UNL A   1      30.307  28.651  22.444  1.00  0.00     0.238 C 
ATOM     23  C   UNL A   1      30.563  29.902  24.335  1.00  0.00     0.238 C 
ATOM     24  O   UNL A   1      30.302  27.708  21.660  1.00  0.00    -0.274 OA
ATOM     25  C   UNL A   1      29.825  30.024  22.054  1.00  0.00     0.096 C 
ATOM     26  C   UNL A   1      30.167  30.895  23.265  1.00  0.00     0.096 C 
ATOM     27  O   UNL A   1      30.828  30.230  25.485  1.00  0.00    -0.274 OA
ATOM     28  C   UNL A   1      28.329  29.929  21.710  1.00  0.00     0.041 C 
ATOM     29  C   UNL A   1      29.012  31.753  23.786  1.00  0.00     0.041 C 
ATOM     30  C   UNL A   1      27.436  30.074  22.911  1.00  0.00    -0.030 C 
ATOM     31  C   UNL A   1      27.746  30.947  23.878  1.00  0.00    -0.030 C 
ENDBRANCH  20  21
ENDBRANCH  13  15
ENDBRANCH   6  11
ENDBRANCH   3   5
ENDBRANCH   2   3
ENDBRANCH   1   2
BRANCH   1  32
ATOM     32  C   UNL A   1      37.564  20.260  25.029  1.00  0.00     0.275 C 
BRANCH  32  33
ATOM     33  O   UNL A   1      38.675  21.170  25.073  1.00  0.00    -0.458 OA
BRANCH  33  34
ATOM     34  C   UNL A   1      39.476  20.999  26.144  1.00  0.00     0.338 C 
ATOM     35  O   UNL A   1      40.019  19.965  26.506  1.00  0.00    -0.246 OA
BRANCH  34  36
ATOM     36  C   UNL A   1      39.730  22.273  26.820  1.00  0.00     0.060 A 
ATOM     37  C   UNL A   1      39.051  23.390  26.350  1.00  0.00     0.016 A 
ATOM     38  C   UNL A   1      40.805  22.420  27.688  1.00  0.00     0.016 A 
ATOM     39  C   UNL A   1      39.539  24.660  26.577  1.00  0.00     0.010 A 
ATOM     40  C   UNL A   1      41.214  23.710  28.036  1.00  0.00     0.010 A 
ATOM     41  C   UNL A   1      40.623  24.836  27.431  1.00  0.00    -0.014 A 
BRANCH  41  42
ATOM     42  C   UNL A   1      41.166  26.198  27.635  1.00  0.00     0.031 A 
ATOM     43  C   UNL A   1      42.544  26.519  27.135  1.00  0.00     0.074 A 
ATOM     44  C   UNL A   1      40.418  27.132  28.252  1.00  0.00     0.049 A 
ATOM     45  N   UNL A   1      43.298  27.548  27.407  1.00  0.00    -0.248 NA
ATOM     46  C   UNL A   1      43.166  25.538  26.227  1.00  0.00     0.031 C 
ATOM     47  C   UNL A   1      39.042  26.944  28.724  1.00  0.00     0.029 A 
ATOM     48  N   UNL A   1      40.716  28.420  28.611  1.00  0.00    -0.354 N 
ATOM     49  C   UNL A   1      44.514  27.298  26.783  1.00  0.00     0.074 A 
ATOM     50  C   UNL A   1      44.393  26.025  26.108  1.00  0.00     0.031 C 
ATOM     51  C   UNL A   1      38.617  28.070  29.310  1.00  0.00     0.029 A 
ATOM     52  C   UNL A   1      39.723  29.014  29.356  1.00  0.00     0.049 A 
ATOM     53  H   UNL A   1      41.554  28.874  28.363  1.00  0.00     0.167 HD
ATOM     54  C   UNL A   1      45.628  28.066  26.782  1.00  0.00     0.034 A 
ATOM     55  C   UNL A   1      39.730  30.156  30.066  1.00  0.00     0.034 A 
ATOM     56  C   UNL A   1      45.698  29.353  27.423  1.00  0.00     0.049 A 
ATOM     57  C   UNL A   1      40.982  30.981  30.069  1.00  0.00     0.074 A 
ATOM     58  C   UNL A   1      46.758  30.237  27.469  1.00  0.00     0.029 A 
ATOM     59  N   UNL A   1      44.657  29.937  28.131  1.00  0.00    -0.354 N 
ATOM     60  N   UNL A   1      42.124  30.747  29.466  1.00  0.00    -0.248 NA
ATOM     61  C   UNL A   1      40.948  32.232  30.834  1.00  0.00     0.031 C 
ATOM     62  C   UNL A   1      46.369  31.344  28.230  1.00  0.00     0.029 A 
ATOM     63  C   UNL A   1      45.050  31.170  28.623  1.00  0.00     0.049 A 
ATOM     64  H   UNL A   1      43.768  29.535  28.264  1.00  0.00     0.167 HD
ATOM     65  C   UNL A   1      42.936  31.834  29.754  1.00  0.00     0.074 A 
ATOM     66  C   UNL A   1      42.144  32.738  30.567  1.00  0.00     0.031 C 
ATOM     67  C   UNL A   1      44.222  32.064  29.392  1.00  0.00     0.034 A 
BRANCH  54  68
ATOM     68  C   UNL A   1      46.850  27.533  26.081  1.00  0.00     0.023 A 
ATOM     69  C   UNL A   1      47.026  27.745  24.699  1.00  0.00     0.012 A 
ATOM     70  C   UNL A   1      47.842  26.838  26.803  1.00  0.00     0.148 A 
ATOM     71  C   UNL A   1      48.147  27.238  24.039  1.00  0.00     0.002 A 
ATOM     72  C   UNL A   1      48.979  26.381  26.149  1.00  0.00     0.091 A 
ATOM     73  F   UNL A   1      47.648  26.625  28.112  1.00  0.00    -0.205 F 
ATOM     74  C   UNL A   1      49.127  26.566  24.764  1.00  0.00     0.022 A 
BRANCH  72  75
ATOM     75  S   UNL A   1      50.336  25.577  27.009  1.00  0.00     0.127 S 
ATOM     76  O   UNL A   1      49.707  24.337  27.460  1.00  0.00    -0.237 OA
ATOM     77  O   UNL A   1      51.319  25.406  25.938  1.00  0.00    -0.237 OA
ATOM     78  O   UNL A   1      50.742  26.491  28.067  1.00  0.00    -0.744 OA
ENDBRANCH  72  75
ENDBRANCH  54  68
BRANCH  55  79
ATOM     79  C   UNL A   1      38.521  30.553  30.842  1.00  0.00     0.023 A 
ATOM     80  C   UNL A   1      38.451  30.262  32.217  1.00  0.00     0.012 A 
ATOM     81  C   UNL A   1      37.469  31.271  30.237  1.00  0.00     0.148 A 
ATOM     82  C   UNL A   1      37.343  30.656  32.969  1.00  0.00     0.002 A 
ATOM     83  C   UNL A   1      36.403  31.718  31.004  1.00  0.00     0.091 A 
ATOM     84  F   UNL A   1      37.551  31.531  28.924  1.00  0.00    -0.205 F 
ATOM     85  C   UNL A   1      36.327  31.394  32.367  1.00  0.00     0.022 A 
BRANCH  83  86
ATOM     86  S   UNL A   1      35.135  32.811  30.352  1.00  0.00     0.127 S 
ATOM     87  O   UNL A   1      34.278  33.006  31.519  1.00  0.00    -0.237 OA
ATOM     88  O   UNL A   1      35.921  33.983  29.961  1.00  0.00    -0.237 OA
ATOM     89  O   UNL A   1      34.530  32.098  29.236  1.00  0.00    -0.744 OA
ENDBRANCH  83  86
ENDBRANCH  55  79
BRANCH  67  90
ATOM     90  C   UNL A   1      44.833  33.367  29.828  1.00  0.00     0.023 A 
ATOM     91  C   UNL A   1      45.534  33.446  31.047  1.00  0.00     0.012 A 
ATOM     92  C   UNL A   1      44.761  34.497  28.991  1.00  0.00     0.148 A 
ATOM     93  C   UNL A   1      46.124  34.645  31.444  1.00  0.00     0.002 A 
ATOM     94  C   UNL A   1      45.398  35.672  29.367  1.00  0.00     0.091 A 
ATOM     95  F   UNL A   1      44.071  34.401  27.845  1.00  0.00    -0.205 F 
ATOM     96  C   UNL A   1      46.066  35.752  30.600  1.00  0.00     0.022 A 
BRANCH  94  97
ATOM     97  S   UNL A   1      45.464  37.113  28.300  1.00  0.00     0.127 S 
ATOM     98  O   UNL A   1      46.094  36.566  27.099  1.00  0.00    -0.237 OA
ATOM     99  O   UNL A   1      44.048  37.449  28.149  1.00  0.00    -0.237 OA
ATOM    100  O   UNL A   1      46.249  38.110  29.016  1.00  0.00    -0.744 OA
ENDBRANCH  94  97
ENDBRANCH  67  90
ENDBRANCH  41  42
ENDBRANCH  34  36
ENDBRANCH  33  34
ENDBRANCH  32  33
ENDBRANCH   1  32
TORSDOF 17
ENDMDL
MODEL 3
REMARK VINA RESULT:     -12.1      9.741     15.248
REMARK SMILES O=C(Nc1ccccc1C(=O)OCCOC(=O)c1ccc(-c2c3nc(c(-c4cccc(S(=O)(=O)[O-])c4F)c4ccc([nH]4)c(-c4cccc(S(=O)(=O)[O-])c4F)c4nc(c(-c5cccc(S(=O)(=O)[O-])c5F)c5ccc2[nH]5)C=C4)C=C3)cc1)c1ccc(N2C(=O)[C@H]3CC=CC[C@H]3C2=O)cc1
REMARK SMILES IDX 13 1 12 2 10 3 11 4 9 5 4 6 5 7 6 8 8 9 7 10 3 11 1 12 2 13
REMARK SMILES IDX 81 15 82 16 97 17 83 18 96 19 84 20 85 21 86 22 94 23 87 24
REMARK SMILES IDX 88 25 93 26 95 27 89 28 92 29 90 30 91 31 14 32 15 33 16 34
REMARK SMILES IDX 17 35 18 36 19 37 80 38 20 39 79 40 21 41 22 42 23 43 73 44
REMARK SMILES IDX 24 45 78 46 72 47 74 48 25 49 77 50 71 51 70 52 26 54 58 55
REMARK SMILES IDX 38 56 57 57 39 58 42 59 56 60 75 61 40 62 41 63 55 65 76 66
REMARK SMILES IDX 43 67 27 68 28 69 36 70 29 71 31 72 37 73 30 74 32 75 33 76
REMARK SMILES IDX 34 77 35 78 59 79 60 80 68 81 61 82 63 83 69 84 62 85 64 86
REMARK SMILES IDX 65 87 66 88 67 89 44 90 45 91 53 92 46 93 48 94 54 95 47 96
REMARK SMILES IDX 49 97 50 98 51 99 52 100
REMARK H PARENT 3 14 74 53 42 64
REMARK Flexibility Score: inf
ROOT
ATOM      1  C   UNL A   1      47.068  39.394  25.806  1.00  0.00     0.275 C 
ENDROOT
BRANCH   1   2
ATOM      2  O   UNL A   1      46.022  40.013  25.022  1.00  0.00    -0.458 OA
BRANCH   2   3
ATOM      3  C   UNL A   1      46.436  40.995  24.182  1.00  0.00     0.340 C 
ATOM      4  O   UNL A   1      46.940  40.826  23.087  1.00  0.00    -0.246 OA
BRANCH   3   5
ATOM      5  C   UNL A   1      46.245  42.353  24.739  1.00  0.00     0.083 A 
ATOM      6  C   UNL A   1      45.039  42.813  25.286  1.00  0.00     0.056 A 
ATOM      7  C   UNL A   1      44.972  44.141  25.745  1.00  0.00     0.027 A 
ATOM      8  C   UNL A   1      46.107  44.958  25.777  1.00  0.00     0.002 A 
ATOM      9  C   UNL A   1      47.374  43.194  24.765  1.00  0.00     0.018 A 
ATOM     10  C   UNL A   1      47.316  44.477  25.300  1.00  0.00     0.001 A 
BRANCH   6  11
ATOM     11  N   UNL A   1      43.868  42.046  25.475  1.00  0.00    -0.321 N 
ATOM     12  O   UNL A   1      41.675  41.522  25.279  1.00  0.00    -0.269 OA
ATOM     13  C   UNL A   1      42.672  42.044  24.785  1.00  0.00     0.255 C 
ATOM     14  H   UNL A   1      43.912  41.406  26.223  1.00  0.00     0.170 HD
BRANCH  13  15
ATOM     15  C   UNL A   1      42.597  42.576  23.398  1.00  0.00     0.040 A 
ATOM     16  C   UNL A   1      42.131  41.792  22.342  1.00  0.00     0.016 A 
ATOM     17  C   UNL A   1      43.055  43.871  23.146  1.00  0.00     0.016 A 
ATOM     18  C   UNL A   1      42.229  42.259  21.029  1.00  0.00     0.027 A 
ATOM     19  C   UNL A   1      43.188  44.320  21.827  1.00  0.00     0.027 A 
ATOM     20  C   UNL A   1      42.786  43.515  20.749  1.00  0.00     0.052 A 
BRANCH  20  21
ATOM     21  N   UNL A   1      42.896  43.978  19.413  1.00  0.00    -0.250 N 
ATOM     22  C   UNL A   1      41.851  44.537  18.720  1.00  0.00     0.238 C 
ATOM     23  C   UNL A   1      44.063  43.979  18.685  1.00  0.00     0.238 C 
ATOM     24  O   UNL A   1      40.679  44.643  19.066  1.00  0.00    -0.274 OA
ATOM     25  C   UNL A   1      42.379  45.175  17.461  1.00  0.00     0.096 C 
ATOM     26  C   UNL A   1      43.813  44.648  17.352  1.00  0.00     0.096 C 
ATOM     27  O   UNL A   1      45.149  43.506  19.001  1.00  0.00    -0.274 OA
ATOM     28  C   UNL A   1      42.246  46.701  17.602  1.00  0.00     0.041 C 
ATOM     29  C   UNL A   1      44.877  45.724  17.127  1.00  0.00     0.041 C 
ATOM     30  C   UNL A   1      43.422  47.337  18.289  1.00  0.00    -0.030 C 
ATOM     31  C   UNL A   1      44.662  46.891  18.051  1.00  0.00    -0.030 C 
ENDBRANCH  20  21
ENDBRANCH  13  15
ENDBRANCH   6  11
ENDBRANCH   3   5
ENDBRANCH   2   3
ENDBRANCH   1   2
BRANCH   1  32
ATOM     32  C   UNL A   1      46.780  37.941  26.182  1.00  0.00     0.275 C 
BRANCH  32  33
ATOM     33  O   UNL A   1      46.882  37.733  27.600  1.00  0.00    -0.458 OA
BRANCH  33  34
ATOM     34  C   UNL A   1      45.772  37.206  28.153  1.00  0.00     0.338 C 
ATOM     35  O   UNL A   1      44.806  37.811  28.596  1.00  0.00    -0.246 OA
BRANCH  34  36
ATOM     36  C   UNL A   1      45.789  35.743  28.082  1.00  0.00     0.060 A 
ATOM     37  C   UNL A   1      45.220  35.154  26.960  1.00  0.00     0.016 A 
ATOM     38  C   UNL A   1      46.090  34.977  29.201  1.00  0.00     0.016 A 
ATOM     39  C   UNL A   1      44.770  33.851  26.999  1.00  0.00     0.010 A 
ATOM     40  C   UNL A   1      45.764  33.617  29.189  1.00  0.00     0.010 A 
ATOM     41  C   UNL A   1      45.044  33.063  28.113  1.00  0.00    -0.014 A 
BRANCH  41  42
ATOM     42  C   UNL A   1      44.520  31.680  28.163  1.00  0.00     0.031 A 
ATOM     43  C   UNL A   1      45.300  30.578  27.507  1.00  0.00     0.074 A 
ATOM     44  C   UNL A   1      43.363  31.424  28.802  1.00  0.00     0.049 A 
ATOM     45  N   UNL A   1      44.924  29.361  27.225  1.00  0.00    -0.248 NA
ATOM     46  C   UNL A   1      46.678  30.896  27.091  1.00  0.00     0.031 C 
ATOM     47  C   UNL A   1      42.555  32.412  29.525  1.00  0.00     0.029 A 
ATOM     48  N   UNL A   1      42.650  30.260  28.927  1.00  0.00    -0.354 N 
ATOM     49  C   UNL A   1      45.980  28.797  26.519  1.00  0.00     0.074 A 
ATOM     50  C   UNL A   1      47.016  29.801  26.426  1.00  0.00     0.031 C 
ATOM     51  C   UNL A   1      41.461  31.815  30.015  1.00  0.00     0.029 A 
ATOM     52  C   UNL A   1      41.434  30.439  29.546  1.00  0.00     0.049 A 
ATOM     53  H   UNL A   1      42.974  29.387  28.608  1.00  0.00     0.167 HD
ATOM     54  C   UNL A   1      46.066  27.552  25.995  1.00  0.00     0.034 A 
ATOM     55  C   UNL A   1      40.380  29.610  29.653  1.00  0.00     0.034 A 
ATOM     56  C   UNL A   1      45.035  26.559  26.149  1.00  0.00     0.049 A 
ATOM     57  C   UNL A   1      40.489  28.243  29.046  1.00  0.00     0.074 A 
ATOM     58  C   UNL A   1      45.017  25.257  25.690  1.00  0.00     0.029 A 
ATOM     59  N   UNL A   1      43.837  26.766  26.819  1.00  0.00    -0.354 N 
ATOM     60  N   UNL A   1      41.494  27.710  28.392  1.00  0.00    -0.248 NA
ATOM     61  C   UNL A   1      39.331  27.357  29.201  1.00  0.00     0.031 C 
ATOM     62  C   UNL A   1      43.795  24.684  26.057  1.00  0.00     0.029 A 
ATOM     63  C   UNL A   1      43.068  25.616  26.783  1.00  0.00     0.049 A 
ATOM     64  H   UNL A   1      43.573  27.607  27.257  1.00  0.00     0.167 HD
ATOM     65  C   UNL A   1      41.103  26.416  28.082  1.00  0.00     0.074 A 
ATOM     66  C   UNL A   1      39.776  26.240  28.643  1.00  0.00     0.031 C 
ATOM     67  C   UNL A   1      41.769  25.461  27.388  1.00  0.00     0.034 A 
BRANCH  54  68
ATOM     68  C   UNL A   1      47.301  27.204  25.206  1.00  0.00     0.023 A 
ATOM     69  C   UNL A   1      48.335  26.451  25.798  1.00  0.00     0.012 A 
ATOM     70  C   UNL A   1      47.427  27.607  23.861  1.00  0.00     0.148 A 
ATOM     71  C   UNL A   1      49.490  26.141  25.079  1.00  0.00     0.002 A 
ATOM     72  C   UNL A   1      48.557  27.251  23.136  1.00  0.00     0.091 A 
ATOM     73  F   UNL A   1      46.446  28.343  23.320  1.00  0.00    -0.205 F 
ATOM     74  C   UNL A   1      49.597  26.531  23.747  1.00  0.00     0.022 A 
BRANCH  72  75
ATOM     75  S   UNL A   1      48.753  27.635  21.392  1.00  0.00     0.127 S 
ATOM     76  O   UNL A   1      49.376  28.957  21.449  1.00  0.00    -0.237 OA
ATOM     77  O   UNL A   1      49.640  26.563  20.940  1.00  0.00    -0.237 OA
ATOM     78  O   UNL A   1      47.415  27.600  20.818  1.00  0.00    -0.744 OA
ENDBRANCH  72  75
ENDBRANCH  54  68
BRANCH  55  79
ATOM     79  C   UNL A   1      39.141  30.074  30.337  1.00  0.00     0.023 A 
ATOM     80  C   UNL A   1      39.059  30.017  31.741  1.00  0.00     0.012 A 
ATOM     81  C   UNL A   1      38.069  30.629  29.608  1.00  0.00     0.148 A 
ATOM     82  C   UNL A   1      37.921  30.480  32.404  1.00  0.00     0.002 A 
ATOM     83  C   UNL A   1      36.970  31.149  30.278  1.00  0.00     0.091 A 
ATOM     84  F   UNL A   1      38.163  30.667  28.271  1.00  0.00    -0.205 F 
ATOM     85  C   UNL A   1      36.884  31.057  31.675  1.00  0.00     0.022 A 
BRANCH  83  86
ATOM     86  S   UNL A   1      35.666  32.055  29.437  1.00  0.00     0.127 S 
ATOM     87  O   UNL A   1      36.402  33.184  28.872  1.00  0.00    -0.237 OA
ATOM     88  O   UNL A   1      35.199  31.070  28.459  1.00  0.00    -0.237 OA
ATOM     89  O   UNL A   1      34.689  32.389  30.463  1.00  0.00    -0.744 OA
ENDBRANCH  83  86
ENDBRANCH  55  79
BRANCH  67  90
ATOM     90  C   UNL A   1      41.096  24.124  27.244  1.00  0.00     0.023 A 
ATOM     91  C   UNL A   1      41.646  22.986  27.867  1.00  0.00     0.012 A 
ATOM     92  C   UNL A   1      39.882  24.015  26.540  1.00  0.00     0.148 A 
ATOM     93  C   UNL A   1      41.013  21.749  27.758  1.00  0.00     0.002 A 
ATOM     94  C   UNL A   1      39.229  22.791  26.483  1.00  0.00     0.091 A 
ATOM     95  F   UNL A   1      39.390  25.109  25.940  1.00  0.00    -0.205 F 
ATOM     96  C   UNL A   1      39.801  21.654  27.078  1.00  0.00     0.022 A 
BRANCH  94  97
ATOM     97  S   UNL A   1      37.617  22.597  25.719  1.00  0.00     0.127 S 
ATOM     98  O   UNL A   1      37.885  23.022  24.346  1.00  0.00    -0.237 OA
ATOM     99  O   UNL A   1      37.371  21.163  25.879  1.00  0.00    -0.237 OA
ATOM    100  O   UNL A   1      36.708  23.454  26.471  1.00  0.00    -0.744 OA
ENDBRANCH  94  97
ENDBRANCH  67  90
ENDBRANCH  41  42
ENDBRANCH  34  36
ENDBRANCH  33  34
ENDBRANCH  32  33
ENDBRANCH   1  32
TORSDOF 17
ENDMDL
