MODEL 1
REMARK VINA RESULT:     -12.7      0.000      0.000
REMARK SMILES Cc1cc(C)c2c(c1)C=C(C(=O)OCCOC(=O)c1ccc(-c3c4nc(c(-c5cccc(S(=O)(=O)[O-])c5F)c5ccc([nH]5)c(-c5cccc(S(=O)(=O)[O-])c5F)c5nc(c(-c6cccc(S(=O)(=O)[O-])c6F)c6ccc3[nH]6)C=C5)C=C4)cc1)[C@@H](C(F)(F)F)O2
REMARK SMILES IDX 15 1 14 2 13 3 11 4 12 5 10 6 1 7 2 8 3 9 8 10 4 11 7 12
REMARK SMILES IDX 5 13 6 14 9 15 87 16 82 17 83 18 84 19 85 20 86 21 16 22
REMARK SMILES IDX 17 23 18 24 19 25 20 26 81 27 21 28 80 29 22 30 23 31 24 32
REMARK SMILES IDX 74 33 25 34 79 35 73 36 75 37 26 38 78 39 72 40 71 41 27 43
REMARK SMILES IDX 59 44 39 45 58 46 40 47 43 48 57 49 76 50 41 51 42 52 56 54
REMARK SMILES IDX 77 55 44 56 28 57 29 58 37 59 30 60 32 61 38 62 31 63 33 64
REMARK SMILES IDX 34 65 35 66 36 67 60 68 61 69 69 70 62 71 64 72 70 73 63 74
REMARK SMILES IDX 65 75 66 76 67 77 68 78 45 79 46 80 54 81 47 82 49 83 55 84
REMARK SMILES IDX 48 85 50 86 51 87 52 88 53 89
REMARK H PARENT 75 42 43 53
REMARK Flexibility Score: inf
ROOT
ATOM      1  C   UNL A   1      36.724  20.213  24.962  1.00  0.00     0.275 C 
ENDROOT
BRANCH   1   2
ATOM      2  C   UNL A   1      35.291  20.723  25.121  1.00  0.00     0.275 C 
BRANCH   2   3
ATOM      3  O   UNL A   1      35.203  22.134  24.827  1.00  0.00    -0.459 OA
BRANCH   3   4
ATOM      4  C   UNL A   1      33.981  22.686  25.003  1.00  0.00     0.338 C 
ATOM      5  O   UNL A   1      32.961  22.104  25.342  1.00  0.00    -0.246 OA
BRANCH   4   6
ATOM      6  C   UNL A   1      34.013  24.132  24.720  1.00  0.00     0.087 C 
ATOM      7  C   UNL A   1      32.539  29.536  27.272  1.00  0.00     0.044 C 
ATOM      8  C   UNL A   1      33.007  28.608  26.187  1.00  0.00    -0.050 A 
ATOM      9  C   UNL A   1      33.143  29.062  24.870  1.00  0.00     0.010 A 
ATOM     10  C   UNL A   1      33.247  27.261  26.464  1.00  0.00     0.015 A 
ATOM     11  C   UNL A   1      33.532  28.190  23.838  1.00  0.00    -0.008 A 
ATOM     12  C   UNL A   1      33.617  26.381  25.439  1.00  0.00     0.018 A 
ATOM     13  C   UNL A   1      33.664  28.702  22.433  1.00  0.00     0.048 C 
ATOM     14  C   UNL A   1      33.765  26.839  24.130  1.00  0.00     0.130 A 
ATOM     15  C   UNL A   1      33.792  24.974  25.733  1.00  0.00     0.027 C 
ATOM     16  O   UNL A   1      34.143  26.022  23.097  1.00  0.00    -0.475 OA
ATOM     17  C   UNL A   1      34.123  24.580  23.296  1.00  0.00     0.316 C 
BRANCH  17  18
ATOM     18  C   UNL A   1      33.013  23.968  22.426  1.00  0.00     0.430 C 
ATOM     19  F   UNL A   1      32.889  24.632  21.250  1.00  0.00    -0.167 F 
ATOM     20  F   UNL A   1      33.287  22.680  22.105  1.00  0.00    -0.167 F 
ATOM     21  F   UNL A   1      31.806  23.989  23.032  1.00  0.00    -0.167 F 
ENDBRANCH  17  18
ENDBRANCH   4   6
ENDBRANCH   3   4
ENDBRANCH   2   3
ENDBRANCH   1   2
BRANCH   1  22
ATOM     22  O   UNL A   1      37.659  21.298  25.091  1.00  0.00    -0.458 OA
BRANCH  22  23
ATOM     23  C   UNL A   1      38.790  21.003  25.770  1.00  0.00     0.338 C 
ATOM     24  O   UNL A   1      39.392  19.944  25.778  1.00  0.00    -0.246 OA
BRANCH  23  25
ATOM     25  C   UNL A   1      39.288  22.201  26.461  1.00  0.00     0.060 A 
ATOM     26  C   UNL A   1      38.704  23.424  26.159  1.00  0.00     0.016 A 
ATOM     27  C   UNL A   1      40.444  22.153  27.234  1.00  0.00     0.016 A 
ATOM     28  C   UNL A   1      39.372  24.605  26.459  1.00  0.00     0.010 A 
ATOM     29  C   UNL A   1      41.019  23.349  27.685  1.00  0.00     0.010 A 
ATOM     30  C   UNL A   1      40.530  24.594  27.248  1.00  0.00    -0.014 A 
BRANCH  30  31
ATOM     31  C   UNL A   1      41.221  25.879  27.574  1.00  0.00     0.031 A 
ATOM     32  C   UNL A   1      40.541  26.924  28.429  1.00  0.00     0.074 A 
ATOM     33  C   UNL A   1      42.479  26.099  27.133  1.00  0.00     0.049 A 
ATOM     34  N   UNL A   1      40.948  28.130  28.734  1.00  0.00    -0.248 NA
ATOM     35  C   UNL A   1      39.229  26.581  29.006  1.00  0.00     0.031 C 
ATOM     36  C   UNL A   1      43.261  25.173  26.309  1.00  0.00     0.029 A 
ATOM     37  N   UNL A   1      43.333  27.158  27.324  1.00  0.00    -0.354 N 
ATOM     38  C   UNL A   1      39.919  28.708  29.472  1.00  0.00     0.074 A 
ATOM     39  C   UNL A   1      38.862  27.727  29.561  1.00  0.00     0.031 C 
ATOM     40  C   UNL A   1      44.491  25.669  26.124  1.00  0.00     0.029 A 
ATOM     41  C   UNL A   1      44.560  26.996  26.719  1.00  0.00     0.049 A 
ATOM     42  H   UNL A   1      43.091  27.959  27.843  1.00  0.00     0.167 HD
ATOM     43  C   UNL A   1      39.869  29.935  30.044  1.00  0.00     0.034 A 
ATOM     44  C   UNL A   1      45.616  27.829  26.618  1.00  0.00     0.034 A 
ATOM     45  C   UNL A   1      40.957  30.876  30.024  1.00  0.00     0.049 A 
ATOM     46  C   UNL A   1      45.524  29.190  27.245  1.00  0.00     0.074 A 
ATOM     47  C   UNL A   1      41.017  32.126  30.613  1.00  0.00     0.029 A 
ATOM     48  N   UNL A   1      42.175  30.668  29.397  1.00  0.00    -0.354 N 
ATOM     49  N   UNL A   1      44.563  29.694  27.981  1.00  0.00    -0.248 NA
ATOM     50  C   UNL A   1      46.659  30.101  27.033  1.00  0.00     0.031 C 
ATOM     51  C   UNL A   1      42.264  32.685  30.320  1.00  0.00     0.029 A 
ATOM     52  C   UNL A   1      42.990  31.772  29.572  1.00  0.00     0.049 A 
ATOM     53  H   UNL A   1      42.424  29.855  28.901  1.00  0.00     0.167 HD
ATOM     54  C   UNL A   1      44.980  30.972  28.329  1.00  0.00     0.074 A 
ATOM     55  C   UNL A   1      46.297  31.155  27.752  1.00  0.00     0.031 C 
ATOM     56  C   UNL A   1      44.319  31.918  29.038  1.00  0.00     0.034 A 
BRANCH  43  57
ATOM     57  C   UNL A   1      38.616  30.329  30.788  1.00  0.00     0.023 A 
ATOM     58  C   UNL A   1      38.511  30.065  32.168  1.00  0.00     0.012 A 
ATOM     59  C   UNL A   1      37.588  31.047  30.143  1.00  0.00     0.148 A 
ATOM     60  C   UNL A   1      37.394  30.485  32.889  1.00  0.00     0.002 A 
ATOM     61  C   UNL A   1      36.500  31.505  30.878  1.00  0.00     0.091 A 
ATOM     62  F   UNL A   1      37.700  31.279  28.827  1.00  0.00    -0.205 F 
ATOM     63  C   UNL A   1      36.396  31.214  32.248  1.00  0.00     0.022 A 
BRANCH  61  64
ATOM     64  S   UNL A   1      35.204  32.528  30.169  1.00  0.00     0.127 S 
ATOM     65  O   UNL A   1      34.290  32.674  31.302  1.00  0.00    -0.237 OA
ATOM     66  O   UNL A   1      35.935  33.745  29.816  1.00  0.00    -0.237 OA
ATOM     67  O   UNL A   1      34.673  31.783  29.038  1.00  0.00    -0.744 OA
ENDBRANCH  61  64
ENDBRANCH  43  57
BRANCH  44  68
ATOM     68  C   UNL A   1      46.853  27.383  25.910  1.00  0.00     0.023 A 
ATOM     69  C   UNL A   1      47.754  26.524  26.570  1.00  0.00     0.012 A 
ATOM     70  C   UNL A   1      47.119  27.757  24.577  1.00  0.00     0.148 A 
ATOM     71  C   UNL A   1      48.900  26.060  25.922  1.00  0.00     0.002 A 
ATOM     72  C   UNL A   1      48.226  27.239  23.916  1.00  0.00     0.091 A 
ATOM     73  F   UNL A   1      46.264  28.592  23.969  1.00  0.00    -0.205 F 
ATOM     74  C   UNL A   1      49.129  26.404  24.592  1.00  0.00     0.022 A 
BRANCH  72  75
ATOM     75  S   UNL A   1      48.517  27.506  22.163  1.00  0.00     0.127 S 
ATOM     76  O   UNL A   1      49.738  28.309  22.182  1.00  0.00    -0.237 OA
ATOM     77  O   UNL A   1      48.687  26.137  21.673  1.00  0.00    -0.237 OA
ATOM     78  O   UNL A   1      47.326  28.179  21.664  1.00  0.00    -0.744 OA
ENDBRANCH  72  75
ENDBRANCH  44  68
BRANCH  56  79
ATOM     79  C   UNL A   1      44.994  33.248  29.247  1.00  0.00     0.023 A 
ATOM     80  C   UNL A   1      45.864  33.415  30.342  1.00  0.00     0.012 A 
ATOM     81  C   UNL A   1      44.883  34.271  28.284  1.00  0.00     0.148 A 
ATOM     82  C   UNL A   1      46.609  34.585  30.480  1.00  0.00     0.002 A 
ATOM     83  C   UNL A   1      45.668  35.411  28.401  1.00  0.00     0.091 A 
ATOM     84  F   UNL A   1      44.039  34.092  27.258  1.00  0.00    -0.205 F 
ATOM     85  C   UNL A   1      46.525  35.574  29.502  1.00  0.00     0.022 A 
BRANCH  83  86
ATOM     86  S   UNL A   1      45.715  36.690  27.140  1.00  0.00     0.127 S 
ATOM     87  O   UNL A   1      46.279  35.965  26.003  1.00  0.00    -0.237 OA
ATOM     88  O   UNL A   1      44.302  37.039  27.003  1.00  0.00    -0.237 OA
ATOM     89  O   UNL A   1      46.558  37.753  27.672  1.00  0.00    -0.744 OA
ENDBRANCH  83  86
ENDBRANCH  56  79
ENDBRANCH  30  31
ENDBRANCH  23  25
ENDBRANCH  22  23
ENDBRANCH   1  22
TORSDOF 15
ENDMDL
MODEL 2
REMARK VINA RESULT:     -12.6      1.557      1.917
REMARK SMILES Cc1cc(C)c2c(c1)C=C(C(=O)OCCOC(=O)c1ccc(-c3c4nc(c(-c5cccc(S(=O)(=O)[O-])c5F)c5ccc([nH]5)c(-c5cccc(S(=O)(=O)[O-])c5F)c5nc(c(-c6cccc(S(=O)(=O)[O-])c6F)c6ccc3[nH]6)C=C5)C=C4)cc1)[C@@H](C(F)(F)F)O2
REMARK SMILES IDX 15 1 14 2 13 3 11 4 12 5 10 6 1 7 2 8 3 9 8 10 4 11 7 12
REMARK SMILES IDX 5 13 6 14 9 15 87 16 82 17 83 18 84 19 85 20 86 21 16 22
REMARK SMILES IDX 17 23 18 24 19 25 20 26 81 27 21 28 80 29 22 30 23 31 24 32
REMARK SMILES IDX 74 33 25 34 79 35 73 36 75 37 26 38 78 39 72 40 71 41 27 43
REMARK SMILES IDX 59 44 39 45 58 46 40 47 43 48 57 49 76 50 41 51 42 52 56 54
REMARK SMILES IDX 77 55 44 56 28 57 29 58 37 59 30 60 32 61 38 62 31 63 33 64
REMARK SMILES IDX 34 65 35 66 36 67 60 68 61 69 69 70 62 71 64 72 70 73 63 74
REMARK SMILES IDX 65 75 66 76 67 77 68 78 45 79 46 80 54 81 47 82 49 83 55 84
REMARK SMILES IDX 48 85 50 86 51 87 52 88 53 89
REMARK H PARENT 75 42 43 53
REMARK Flexibility Score: inf
ROOT
ATOM      1  C   UNL A   1      36.579  20.442  24.991  1.00  0.00     0.275 C 
ENDROOT
BRANCH   1   2
ATOM      2  C   UNL A   1      35.275  21.240  24.971  1.00  0.00     0.275 C 
BRANCH   2   3
ATOM      3  O   UNL A   1      35.532  22.659  24.884  1.00  0.00    -0.459 OA
BRANCH   3   4
ATOM      4  C   UNL A   1      35.283  23.220  23.678  1.00  0.00     0.338 C 
ATOM      5  O   UNL A   1      35.797  22.913  22.613  1.00  0.00    -0.246 OA
BRANCH   4   6
ATOM      6  C   UNL A   1      34.283  24.295  23.798  1.00  0.00     0.087 C 
ATOM      7  C   UNL A   1      32.680  28.943  27.501  1.00  0.00     0.044 C 
ATOM      8  C   UNL A   1      32.547  28.001  26.339  1.00  0.00    -0.050 A 
ATOM      9  C   UNL A   1      31.355  27.935  25.607  1.00  0.00     0.010 A 
ATOM     10  C   UNL A   1      33.586  27.127  26.016  1.00  0.00     0.015 A 
ATOM     11  C   UNL A   1      31.203  27.020  24.549  1.00  0.00    -0.008 A 
ATOM     12  C   UNL A   1      33.437  26.200  24.976  1.00  0.00     0.018 A 
ATOM     13  C   UNL A   1      29.912  26.967  23.785  1.00  0.00     0.048 C 
ATOM     14  C   UNL A   1      32.253  26.146  24.239  1.00  0.00     0.130 A 
ATOM     15  C   UNL A   1      34.498  25.254  24.702  1.00  0.00     0.027 C 
ATOM     16  O   UNL A   1      32.066  25.271  23.201  1.00  0.00    -0.475 OA
ATOM     17  C   UNL A   1      33.005  24.173  23.027  1.00  0.00     0.316 C 
BRANCH  17  18
ATOM     18  C   UNL A   1      32.289  22.846  23.331  1.00  0.00     0.430 C 
ATOM     19  F   UNL A   1      32.857  21.816  22.657  1.00  0.00    -0.167 F 
ATOM     20  F   UNL A   1      32.371  22.528  24.646  1.00  0.00    -0.167 F 
ATOM     21  F   UNL A   1      30.980  22.874  23.000  1.00  0.00    -0.167 F 
ENDBRANCH  17  18
ENDBRANCH   4   6
ENDBRANCH   3   4
ENDBRANCH   2   3
ENDBRANCH   1   2
BRANCH   1  22
ATOM     22  O   UNL A   1      37.710  21.328  24.940  1.00  0.00    -0.458 OA
BRANCH  22  23
ATOM     23  C   UNL A   1      38.744  20.985  25.739  1.00  0.00     0.338 C 
ATOM     24  O   UNL A   1      39.266  19.888  25.843  1.00  0.00    -0.246 OA
BRANCH  23  25
ATOM     25  C   UNL A   1      39.256  22.173  26.438  1.00  0.00     0.060 A 
ATOM     26  C   UNL A   1      38.673  23.401  26.157  1.00  0.00     0.016 A 
ATOM     27  C   UNL A   1      40.420  22.110  27.197  1.00  0.00     0.016 A 
ATOM     28  C   UNL A   1      39.350  24.576  26.463  1.00  0.00     0.010 A 
ATOM     29  C   UNL A   1      41.005  23.299  27.655  1.00  0.00     0.010 A 
ATOM     30  C   UNL A   1      40.517  24.551  27.238  1.00  0.00    -0.014 A 
BRANCH  30  31
ATOM     31  C   UNL A   1      41.216  25.829  27.571  1.00  0.00     0.031 A 
ATOM     32  C   UNL A   1      40.537  26.882  28.417  1.00  0.00     0.074 A 
ATOM     33  C   UNL A   1      42.482  26.036  27.144  1.00  0.00     0.049 A 
ATOM     34  N   UNL A   1      40.952  28.084  28.725  1.00  0.00    -0.248 NA
ATOM     35  C   UNL A   1      39.215  26.553  28.979  1.00  0.00     0.031 C 
ATOM     36  C   UNL A   1      43.264  25.101  26.331  1.00  0.00     0.029 A 
ATOM     37  N   UNL A   1      43.344  27.087  27.344  1.00  0.00    -0.354 N 
ATOM     38  C   UNL A   1      39.921  28.674  29.450  1.00  0.00     0.074 A 
ATOM     39  C   UNL A   1      38.853  27.704  29.527  1.00  0.00     0.031 C 
ATOM     40  C   UNL A   1      44.502  25.584  26.160  1.00  0.00     0.029 A 
ATOM     41  C   UNL A   1      44.577  26.911  26.754  1.00  0.00     0.049 A 
ATOM     42  H   UNL A   1      43.104  27.891  27.860  1.00  0.00     0.167 HD
ATOM     43  C   UNL A   1      39.877  29.902  30.020  1.00  0.00     0.034 A 
ATOM     44  C   UNL A   1      45.643  27.733  26.665  1.00  0.00     0.034 A 
ATOM     45  C   UNL A   1      40.975  30.832  30.012  1.00  0.00     0.049 A 
ATOM     46  C   UNL A   1      45.557  29.096  27.290  1.00  0.00     0.074 A 
ATOM     47  C   UNL A   1      41.040  32.082  30.600  1.00  0.00     0.029 A 
ATOM     48  N   UNL A   1      42.198  30.611  29.400  1.00  0.00    -0.354 N 
ATOM     49  N   UNL A   1      44.593  29.611  28.013  1.00  0.00    -0.248 NA
ATOM     50  C   UNL A   1      46.704  29.995  27.090  1.00  0.00     0.031 C 
ATOM     51  C   UNL A   1      42.296  32.628  30.321  1.00  0.00     0.029 A 
ATOM     52  C   UNL A   1      43.022  31.707  29.584  1.00  0.00     0.049 A 
ATOM     53  H   UNL A   1      42.445  29.794  28.908  1.00  0.00     0.167 HD
ATOM     54  C   UNL A   1      45.018  30.885  28.365  1.00  0.00     0.074 A 
ATOM     55  C   UNL A   1      46.344  31.053  27.804  1.00  0.00     0.031 C 
ATOM     56  C   UNL A   1      44.359  31.839  29.065  1.00  0.00     0.034 A 
BRANCH  43  57
ATOM     57  C   UNL A   1      38.619  30.310  30.748  1.00  0.00     0.023 A 
ATOM     58  C   UNL A   1      38.499  30.057  32.130  1.00  0.00     0.012 A 
ATOM     59  C   UNL A   1      37.602  31.030  30.088  1.00  0.00     0.148 A 
ATOM     60  C   UNL A   1      37.377  30.489  32.836  1.00  0.00     0.002 A 
ATOM     61  C   UNL A   1      36.510  31.501  30.808  1.00  0.00     0.091 A 
ATOM     62  F   UNL A   1      37.729  31.251  28.772  1.00  0.00    -0.205 F 
ATOM     63  C   UNL A   1      36.390  31.220  32.179  1.00  0.00     0.022 A 
BRANCH  61  64
ATOM     64  S   UNL A   1      35.229  32.527  30.079  1.00  0.00     0.127 S 
ATOM     65  O   UNL A   1      35.998  33.689  29.634  1.00  0.00    -0.237 OA
ATOM     66  O   UNL A   1      34.733  31.675  28.999  1.00  0.00    -0.237 OA
ATOM     67  O   UNL A   1      34.268  32.791  31.141  1.00  0.00    -0.744 OA
ENDBRANCH  61  64
ENDBRANCH  43  57
BRANCH  44  68
ATOM     68  C   UNL A   1      46.884  27.274  25.972  1.00  0.00     0.023 A 
ATOM     69  C   UNL A   1      47.062  27.574  24.608  1.00  0.00     0.012 A 
ATOM     70  C   UNL A   1      47.908  26.594  26.661  1.00  0.00     0.148 A 
ATOM     71  C   UNL A   1      48.227  27.193  23.941  1.00  0.00     0.002 A 
ATOM     72  C   UNL A   1      49.093  26.275  26.008  1.00  0.00     0.091 A 
ATOM     73  F   UNL A   1      47.714  26.295  27.954  1.00  0.00    -0.205 F 
ATOM     74  C   UNL A   1      49.248  26.557  24.643  1.00  0.00     0.022 A 
BRANCH  72  75
ATOM     75  S   UNL A   1      50.516  25.593  26.868  1.00  0.00     0.127 S 
ATOM     76  O   UNL A   1      50.852  26.673  27.793  1.00  0.00    -0.237 OA
ATOM     77  O   UNL A   1      49.946  24.399  27.496  1.00  0.00    -0.237 OA
ATOM     78  O   UNL A   1      51.505  25.315  25.836  1.00  0.00    -0.744 OA
ENDBRANCH  72  75
ENDBRANCH  44  68
BRANCH  56  79
ATOM     79  C   UNL A   1      45.045  33.162  29.280  1.00  0.00     0.023 A 
ATOM     80  C   UNL A   1      45.866  33.336  30.411  1.00  0.00     0.012 A 
ATOM     81  C   UNL A   1      44.994  34.168  28.295  1.00  0.00     0.148 A 
ATOM     82  C   UNL A   1      46.623  34.497  30.563  1.00  0.00     0.002 A 
ATOM     83  C   UNL A   1      45.791  35.298  28.427  1.00  0.00     0.091 A 
ATOM     84  F   UNL A   1      44.196  33.982  27.234  1.00  0.00    -0.205 F 
ATOM     85  C   UNL A   1      46.599  35.468  29.564  1.00  0.00     0.022 A 
BRANCH  83  86
ATOM     86  S   UNL A   1      45.917  36.551  27.146  1.00  0.00     0.127 S 
ATOM     87  O   UNL A   1      44.568  37.116  27.149  1.00  0.00    -0.237 OA
ATOM     88  O   UNL A   1      46.951  37.435  27.682  1.00  0.00    -0.237 OA
ATOM     89  O   UNL A   1      46.288  35.847  25.926  1.00  0.00    -0.744 OA
ENDBRANCH  83  86
ENDBRANCH  56  79
ENDBRANCH  30  31
ENDBRANCH  23  25
ENDBRANCH  22  23
ENDBRANCH   1  22
TORSDOF 15
ENDMDL
MODEL 3
REMARK VINA RESULT:     -12.5      5.155     10.100
REMARK SMILES Cc1cc(C)c2c(c1)C=C(C(=O)OCCOC(=O)c1ccc(-c3c4nc(c(-c5cccc(S(=O)(=O)[O-])c5F)c5ccc([nH]5)c(-c5cccc(S(=O)(=O)[O-])c5F)c5nc(c(-c6cccc(S(=O)(=O)[O-])c6F)c6ccc3[nH]6)C=C5)C=C4)cc1)[C@@H](C(F)(F)F)O2
REMARK SMILES IDX 15 1 14 2 13 3 11 4 12 5 10 6 1 7 2 8 3 9 8 10 4 11 7 12
REMARK SMILES IDX 5 13 6 14 9 15 87 16 82 17 83 18 84 19 85 20 86 21 16 22
REMARK SMILES IDX 17 23 18 24 19 25 20 26 81 27 21 28 80 29 22 30 23 31 24 32
REMARK SMILES IDX 74 33 25 34 79 35 73 36 75 37 26 38 78 39 72 40 71 41 27 43
REMARK SMILES IDX 59 44 39 45 58 46 40 47 43 48 57 49 76 50 41 51 42 52 56 54
REMARK SMILES IDX 77 55 44 56 28 57 29 58 37 59 30 60 32 61 38 62 31 63 33 64
REMARK SMILES IDX 34 65 35 66 36 67 60 68 61 69 69 70 62 71 64 72 70 73 63 74
REMARK SMILES IDX 65 75 66 76 67 77 68 78 45 79 46 80 54 81 47 82 49 83 55 84
REMARK SMILES IDX 48 85 50 86 51 87 52 88 53 89
REMARK H PARENT 75 42 43 53
REMARK Flexibility Score: inf
ROOT
ATOM      1  C   UNL A   1      31.451  30.506  25.674  1.00  0.00     0.275 C 
ENDROOT
BRANCH   1   2
ATOM      2  C   UNL A   1      31.361  29.124  25.027  1.00  0.00     0.275 C 
BRANCH   2   3
ATOM      3  O   UNL A   1      32.299  28.203  25.628  1.00  0.00    -0.459 OA
BRANCH   3   4
ATOM      4  C   UNL A   1      31.750  27.256  26.422  1.00  0.00     0.338 C 
ATOM      5  O   UNL A   1      30.984  27.443  27.356  1.00  0.00    -0.246 OA
BRANCH   4   6
ATOM      6  C   UNL A   1      32.204  25.912  26.025  1.00  0.00     0.087 C 
ATOM      7  C   UNL A   1      37.334  22.835  24.573  1.00  0.00     0.044 C 
ATOM      8  C   UNL A   1      35.857  23.040  24.753  1.00  0.00    -0.050 A 
ATOM      9  C   UNL A   1      34.939  22.112  24.245  1.00  0.00     0.010 A 
ATOM     10  C   UNL A   1      35.374  24.196  25.369  1.00  0.00     0.015 A 
ATOM     11  C   UNL A   1      33.554  22.321  24.364  1.00  0.00    -0.008 A 
ATOM     12  C   UNL A   1      33.996  24.421  25.476  1.00  0.00     0.018 A 
ATOM     13  C   UNL A   1      32.593  21.312  23.804  1.00  0.00     0.048 C 
ATOM     14  C   UNL A   1      33.084  23.489  24.981  1.00  0.00     0.130 A 
ATOM     15  C   UNL A   1      33.515  25.659  26.054  1.00  0.00     0.027 C 
ATOM     16  O   UNL A   1      31.728  23.654  25.077  1.00  0.00    -0.475 OA
ATOM     17  C   UNL A   1      31.202  24.958  25.451  1.00  0.00     0.316 C 
BRANCH  17  18
ATOM     18  C   UNL A   1      30.469  25.569  24.246  1.00  0.00     0.430 C 
ATOM     19  F   UNL A   1      29.895  24.608  23.481  1.00  0.00    -0.167 F 
ATOM     20  F   UNL A   1      29.462  26.388  24.640  1.00  0.00    -0.167 F 
ATOM     21  F   UNL A   1      31.288  26.287  23.448  1.00  0.00    -0.167 F 
ENDBRANCH  17  18
ENDBRANCH   4   6
ENDBRANCH   3   4
ENDBRANCH   2   3
ENDBRANCH   1   2
BRANCH   1  22
ATOM     22  O   UNL A   1      32.228  30.444  26.882  1.00  0.00    -0.458 OA
BRANCH  22  23
ATOM     23  C   UNL A   1      32.898  31.575  27.192  1.00  0.00     0.338 C 
ATOM     24  O   UNL A   1      32.456  32.711  27.227  1.00  0.00    -0.246 OA
BRANCH  23  25
ATOM     25  C   UNL A   1      34.275  31.251  27.595  1.00  0.00     0.060 A 
ATOM     26  C   UNL A   1      34.611  29.915  27.763  1.00  0.00     0.016 A 
ATOM     27  C   UNL A   1      35.156  32.248  28.000  1.00  0.00     0.016 A 
ATOM     28  C   UNL A   1      35.733  29.570  28.507  1.00  0.00     0.010 A 
ATOM     29  C   UNL A   1      36.373  31.888  28.595  1.00  0.00     0.010 A 
ATOM     30  C   UNL A   1      36.649  30.547  28.918  1.00  0.00    -0.014 A 
BRANCH  30  31
ATOM     31  C   UNL A   1      37.859  30.150  29.701  1.00  0.00     0.031 A 
ATOM     32  C   UNL A   1      38.918  29.264  29.087  1.00  0.00     0.074 A 
ATOM     33  C   UNL A   1      38.030  30.614  30.959  1.00  0.00     0.049 A 
ATOM     34  N   UNL A   1      39.981  28.743  29.645  1.00  0.00    -0.248 NA
ATOM     35  C   UNL A   1      38.760  28.900  27.667  1.00  0.00     0.031 C 
ATOM     36  C   UNL A   1      37.095  31.487  31.673  1.00  0.00     0.029 A 
ATOM     37  N   UNL A   1      39.054  30.434  31.858  1.00  0.00    -0.354 N 
ATOM     38  C   UNL A   1      40.574  27.941  28.673  1.00  0.00     0.074 A 
ATOM     39  C   UNL A   1      39.747  28.032  27.492  1.00  0.00     0.031 C 
ATOM     40  C   UNL A   1      37.614  31.820  32.863  1.00  0.00     0.029 A 
ATOM     41  C   UNL A   1      38.866  31.102  33.050  1.00  0.00     0.049 A 
ATOM     42  H   UNL A   1      39.846  29.881  31.670  1.00  0.00     0.167 HD
ATOM     43  C   UNL A   1      41.714  27.215  28.750  1.00  0.00     0.034 A 
ATOM     44  C   UNL A   1      39.596  31.113  34.183  1.00  0.00     0.034 A 
ATOM     45  C   UNL A   1      42.578  27.195  29.900  1.00  0.00     0.049 A 
ATOM     46  C   UNL A   1      40.846  30.282  34.246  1.00  0.00     0.074 A 
ATOM     47  C   UNL A   1      43.778  26.524  30.056  1.00  0.00     0.029 A 
ATOM     48  N   UNL A   1      42.345  27.882  31.080  1.00  0.00    -0.354 N 
ATOM     49  N   UNL A   1      41.412  29.575  33.298  1.00  0.00    -0.248 NA
ATOM     50  C   UNL A   1      41.561  30.249  35.530  1.00  0.00     0.031 C 
ATOM     51  C   UNL A   1      44.258  26.786  31.342  1.00  0.00     0.029 A 
ATOM     52  C   UNL A   1      43.372  27.641  31.977  1.00  0.00     0.049 A 
ATOM     53  H   UNL A   1      41.565  28.456  31.256  1.00  0.00     0.167 HD
ATOM     54  C   UNL A   1      42.553  29.023  33.865  1.00  0.00     0.074 A 
ATOM     55  C   UNL A   1      42.618  29.505  35.230  1.00  0.00     0.031 C 
ATOM     56  C   UNL A   1      43.450  28.171  33.313  1.00  0.00     0.034 A 
BRANCH  43  57
ATOM     57  C   UNL A   1      42.135  26.412  27.543  1.00  0.00     0.023 A 
ATOM     58  C   UNL A   1      42.948  27.006  26.557  1.00  0.00     0.012 A 
ATOM     59  C   UNL A   1      41.810  25.043  27.437  1.00  0.00     0.148 A 
ATOM     60  C   UNL A   1      43.407  26.261  25.471  1.00  0.00     0.002 A 
ATOM     61  C   UNL A   1      42.312  24.295  26.378  1.00  0.00     0.091 A 
ATOM     62  F   UNL A   1      41.027  24.498  28.379  1.00  0.00    -0.205 F 
ATOM     63  C   UNL A   1      43.100  24.905  25.388  1.00  0.00     0.022 A 
BRANCH  61  64
ATOM     64  S   UNL A   1      42.051  22.524  26.224  1.00  0.00     0.127 S 
ATOM     65  O   UNL A   1      42.652  22.028  27.462  1.00  0.00    -0.237 OA
ATOM     66  O   UNL A   1      40.592  22.434  26.176  1.00  0.00    -0.237 OA
ATOM     67  O   UNL A   1      42.730  22.120  25.001  1.00  0.00    -0.744 OA
ENDBRANCH  61  64
ENDBRANCH  43  57
BRANCH  44  68
ATOM     68  C   UNL A   1      39.167  31.956  35.339  1.00  0.00     0.023 A 
ATOM     69  C   UNL A   1      38.326  31.400  36.323  1.00  0.00     0.012 A 
ATOM     70  C   UNL A   1      39.624  33.279  35.501  1.00  0.00     0.148 A 
ATOM     71  C   UNL A   1      37.938  32.149  37.435  1.00  0.00     0.002 A 
ATOM     72  C   UNL A   1      39.288  33.997  36.643  1.00  0.00     0.091 A 
ATOM     73  F   UNL A   1      40.406  33.802  34.546  1.00  0.00    -0.205 F 
ATOM     74  C   UNL A   1      38.430  33.440  37.603  1.00  0.00     0.022 A 
BRANCH  72  75
ATOM     75  S   UNL A   1      39.995  35.607  37.014  1.00  0.00     0.127 S 
ATOM     76  O   UNL A   1      39.346  35.933  38.282  1.00  0.00    -0.237 OA
ATOM     77  O   UNL A   1      41.422  35.294  37.114  1.00  0.00    -0.237 OA
ATOM     78  O   UNL A   1      39.645  36.461  35.888  1.00  0.00    -0.744 OA
ENDBRANCH  72  75
ENDBRANCH  44  68
BRANCH  56  79
ATOM     79  C   UNL A   1      44.594  27.694  34.168  1.00  0.00     0.023 A 
ATOM     80  C   UNL A   1      45.778  28.455  34.223  1.00  0.00     0.012 A 
ATOM     81  C   UNL A   1      44.440  26.584  35.022  1.00  0.00     0.148 A 
ATOM     82  C   UNL A   1      46.797  28.114  35.111  1.00  0.00     0.002 A 
ATOM     83  C   UNL A   1      45.437  26.282  35.941  1.00  0.00     0.091 A 
ATOM     84  F   UNL A   1      43.308  25.869  34.942  1.00  0.00    -0.205 F 
ATOM     85  C   UNL A   1      46.619  27.040  35.982  1.00  0.00     0.022 A 
BRANCH  83  86
ATOM     86  S   UNL A   1      45.258  24.991  37.178  1.00  0.00     0.127 S 
ATOM     87  O   UNL A   1      46.324  25.331  38.119  1.00  0.00    -0.237 OA
ATOM     88  O   UNL A   1      43.904  25.229  37.676  1.00  0.00    -0.237 OA
ATOM     89  O   UNL A   1      45.437  23.728  36.474  1.00  0.00    -0.744 OA
ENDBRANCH  83  86
ENDBRANCH  56  79
ENDBRANCH  30  31
ENDBRANCH  23  25
ENDBRANCH  22  23
ENDBRANCH   1  22
TORSDOF 15
ENDMDL
