MODEL 1
REMARK VINA RESULT:     -12.7      0.000      0.000
REMARK SMILES Cc1cc(Cl)ccc1Oc1cc(C)c(N)c(C(=O)OCCOC(=O)c2ccc(-c3c4nc(c(-c5cccc(S(=O)(=O)[O-])c5F)c5ccc([nH]5)c(-c5cccc(S(=O)(=O)[O-])c5F)c5nc(c(-c6cccc(S(=O)(=O)[O-])c6F)c6ccc3[nH]6)C=C5)C=C4)cc2)c1
REMARK SMILES IDX 21 1 20 2 19 3 17 4 18 5 16 6 10 7 11 8 88 9 12 10 13 11
REMARK SMILES IDX 14 12 9 13 8 14 1 15 2 16 3 17 4 18 7 19 5 20 6 21 15 22
REMARK SMILES IDX 22 25 23 26 24 27 25 28 26 29 87 30 27 31 86 32 28 33 29 34
REMARK SMILES IDX 30 35 80 36 31 37 85 38 79 39 81 40 32 41 84 42 78 43 77 44
REMARK SMILES IDX 33 46 65 47 45 48 64 49 46 50 49 51 63 52 82 53 47 54 48 55
REMARK SMILES IDX 62 57 83 58 50 59 34 60 35 61 43 62 36 63 38 64 44 65 37 66
REMARK SMILES IDX 39 67 40 68 41 69 42 70 66 71 67 72 75 73 68 74 70 75 76 76
REMARK SMILES IDX 69 77 71 78 72 79 73 80 74 81 51 82 52 83 60 84 53 85 55 86
REMARK SMILES IDX 61 87 54 88 56 89 57 90 58 91 59 92
REMARK H PARENT 15 23 15 24 81 45 49 56
REMARK Flexibility Score: inf
ROOT
ATOM      1  C   UNL A   1      32.108  30.077  25.541  1.00  0.00     0.275 C 
ENDROOT
BRANCH   1   2
ATOM      2  C   UNL A   1      33.121  29.109  24.929  1.00  0.00     0.275 C 
BRANCH   2   3
ATOM      3  O   UNL A   1      33.378  29.421  23.541  1.00  0.00    -0.458 OA
BRANCH   3   4
ATOM      4  C   UNL A   1      33.196  28.393  22.670  1.00  0.00     0.340 C 
ATOM      5  O   UNL A   1      34.009  27.994  21.855  1.00  0.00    -0.246 OA
BRANCH   4   6
ATOM      6  C   UNL A   1      31.829  27.826  22.782  1.00  0.00     0.086 A 
ATOM      7  C   UNL A   1      30.368  26.032  23.391  1.00  0.00     0.128 A 
ATOM      8  C   UNL A   1      29.281  26.904  23.462  1.00  0.00     0.052 A 
ATOM      9  C   UNL A   1      31.660  26.502  23.173  1.00  0.00     0.065 A 
ATOM     10  C   UNL A   1      29.429  28.216  23.016  1.00  0.00    -0.024 A 
ATOM     11  C   UNL A   1      28.221  29.102  22.874  1.00  0.00     0.047 C 
ATOM     12  C   UNL A   1      30.697  28.643  22.580  1.00  0.00     0.049 A 
BRANCH   7  13
ATOM     13  O   UNL A   1      30.210  24.683  23.515  1.00  0.00    -0.457 OA
BRANCH  13  14
ATOM     14  C   UNL A   1      30.990  23.977  24.416  1.00  0.00     0.130 A 
ATOM     15  C   UNL A   1      32.362  22.387  22.861  1.00  0.00     0.048 C 
ATOM     16  C   UNL A   1      31.953  22.968  24.190  1.00  0.00    -0.007 A 
ATOM     17  C   UNL A   1      32.603  22.401  25.309  1.00  0.00     0.027 A 
ATOM     18  C   UNL A   1      32.364  22.864  26.599  1.00  0.00     0.041 A 
ATOM     19  C   UNL A   1      30.773  24.434  25.729  1.00  0.00     0.049 A 
ATOM     20  Cl  UNL A   1      33.208  22.171  27.928  1.00  0.00    -0.084 Cl
ATOM     21  C   UNL A   1      31.458  23.890  26.814  1.00  0.00     0.024 A 
ENDBRANCH  13  14
ENDBRANCH   7  13
BRANCH  12  22
ATOM     22  N   UNL A   1      30.764  29.751  21.745  1.00  0.00    -0.398 N 
ATOM     23  H   UNL A   1      31.088  29.652  20.821  1.00  0.00     0.156 HD
ATOM     24  H   UNL A   1      30.487  30.635  22.079  1.00  0.00     0.156 HD
ENDBRANCH  12  22
ENDBRANCH   4   6
ENDBRANCH   3   4
ENDBRANCH   2   3
ENDBRANCH   1   2
BRANCH   1  25
ATOM     25  O   UNL A   1      32.388  30.286  26.936  1.00  0.00    -0.458 OA
BRANCH  25  26
ATOM     26  C   UNL A   1      33.020  31.442  27.232  1.00  0.00     0.338 C 
ATOM     27  O   UNL A   1      32.528  32.559  27.310  1.00  0.00    -0.246 OA
BRANCH  26  28
ATOM     28  C   UNL A   1      34.426  31.191  27.576  1.00  0.00     0.060 A 
ATOM     29  C   UNL A   1      34.774  29.911  27.977  1.00  0.00     0.016 A 
ATOM     30  C   UNL A   1      35.318  32.245  27.770  1.00  0.00     0.016 A 
ATOM     31  C   UNL A   1      35.915  29.729  28.751  1.00  0.00     0.010 A 
ATOM     32  C   UNL A   1      36.561  32.006  28.376  1.00  0.00     0.010 A 
ATOM     33  C   UNL A   1      36.865  30.747  28.919  1.00  0.00    -0.014 A 
BRANCH  33  34
ATOM     34  C   UNL A   1      38.161  30.455  29.612  1.00  0.00     0.031 A 
ATOM     35  C   UNL A   1      39.215  29.569  28.988  1.00  0.00     0.074 A 
ATOM     36  C   UNL A   1      38.391  30.983  30.836  1.00  0.00     0.049 A 
ATOM     37  N   UNL A   1      40.268  29.023  29.545  1.00  0.00    -0.248 NA
ATOM     38  C   UNL A   1      39.070  29.241  27.559  1.00  0.00     0.031 C 
ATOM     39  C   UNL A   1      37.480  31.877  31.560  1.00  0.00     0.029 A 
ATOM     40  N   UNL A   1      39.453  30.846  31.699  1.00  0.00    -0.354 N 
ATOM     41  C   UNL A   1      40.852  28.217  28.572  1.00  0.00     0.074 A 
ATOM     42  C   UNL A   1      40.058  28.373  27.373  1.00  0.00     0.031 C 
ATOM     43  C   UNL A   1      38.040  32.259  32.710  1.00  0.00     0.029 A 
ATOM     44  C   UNL A   1      39.259  31.494  32.900  1.00  0.00     0.049 A 
ATOM     45  H   UNL A   1      40.268  30.338  31.482  1.00  0.00     0.167 HD
ATOM     46  C   UNL A   1      41.942  27.417  28.679  1.00  0.00     0.034 A 
ATOM     47  C   UNL A   1      39.909  31.413  34.075  1.00  0.00     0.034 A 
ATOM     48  C   UNL A   1      42.760  27.325  29.863  1.00  0.00     0.049 A 
ATOM     49  C   UNL A   1      41.075  30.484  34.183  1.00  0.00     0.074 A 
ATOM     50  C   UNL A   1      43.910  26.581  30.059  1.00  0.00     0.029 A 
ATOM     51  N   UNL A   1      42.512  27.995  31.053  1.00  0.00    -0.354 N 
ATOM     52  N   UNL A   1      41.621  29.742  33.252  1.00  0.00    -0.248 NA
ATOM     53  C   UNL A   1      41.709  30.372  35.501  1.00  0.00     0.031 C 
ATOM     54  C   UNL A   1      44.336  26.772  31.379  1.00  0.00     0.029 A 
ATOM     55  C   UNL A   1      43.472  27.661  31.994  1.00  0.00     0.049 A 
ATOM     56  H   UNL A   1      41.765  28.616  31.205  1.00  0.00     0.167 HD
ATOM     57  C   UNL A   1      42.668  29.075  33.868  1.00  0.00     0.074 A 
ATOM     58  C   UNL A   1      42.703  29.533  35.244  1.00  0.00     0.031 C 
ATOM     59  C   UNL A   1      43.509  28.149  33.350  1.00  0.00     0.034 A 
BRANCH  46  60
ATOM     60  C   UNL A   1      42.323  26.556  27.496  1.00  0.00     0.023 A 
ATOM     61  C   UNL A   1      43.131  27.076  26.466  1.00  0.00     0.012 A 
ATOM     62  C   UNL A   1      41.944  25.197  27.452  1.00  0.00     0.148 A 
ATOM     63  C   UNL A   1      43.529  26.268  25.398  1.00  0.00     0.002 A 
ATOM     64  C   UNL A   1      42.378  24.388  26.408  1.00  0.00     0.091 A 
ATOM     65  F   UNL A   1      41.164  24.720  28.433  1.00  0.00    -0.205 F 
ATOM     66  C   UNL A   1      43.162  24.924  25.374  1.00  0.00     0.022 A 
BRANCH  64  67
ATOM     67  S   UNL A   1      42.023  22.628  26.326  1.00  0.00     0.127 S 
ATOM     68  O   UNL A   1      42.645  22.144  27.559  1.00  0.00    -0.237 OA
ATOM     69  O   UNL A   1      40.560  22.609  26.335  1.00  0.00    -0.237 OA
ATOM     70  O   UNL A   1      42.630  22.150  25.092  1.00  0.00    -0.744 OA
ENDBRANCH  64  67
ENDBRANCH  46  60
BRANCH  47  71
ATOM     71  C   UNL A   1      39.408  32.186  35.249  1.00  0.00     0.023 A 
ATOM     72  C   UNL A   1      38.605  31.548  36.210  1.00  0.00     0.012 A 
ATOM     73  C   UNL A   1      39.796  33.527  35.457  1.00  0.00     0.148 A 
ATOM     74  C   UNL A   1      38.189  32.235  37.352  1.00  0.00     0.002 A 
ATOM     75  C   UNL A   1      39.442  34.179  36.630  1.00  0.00     0.091 A 
ATOM     76  F   UNL A   1      40.545  34.126  34.519  1.00  0.00    -0.205 F 
ATOM     77  C   UNL A   1      38.623  33.540  37.572  1.00  0.00     0.022 A 
BRANCH  75  78
ATOM     78  S   UNL A   1      40.100  35.793  37.067  1.00  0.00     0.127 S 
ATOM     79  O   UNL A   1      39.430  36.055  38.338  1.00  0.00    -0.237 OA
ATOM     80  O   UNL A   1      41.533  35.520  37.169  1.00  0.00    -0.237 OA
ATOM     81  O   UNL A   1      39.737  36.675  35.965  1.00  0.00    -0.744 OA
ENDBRANCH  75  78
ENDBRANCH  47  71
BRANCH  59  82
ATOM     82  C   UNL A   1      44.551  27.582  34.274  1.00  0.00     0.023 A 
ATOM     83  C   UNL A   1      45.758  28.281  34.475  1.00  0.00     0.012 A 
ATOM     84  C   UNL A   1      44.314  26.386  34.975  1.00  0.00     0.148 A 
ATOM     85  C   UNL A   1      46.728  27.781  35.340  1.00  0.00     0.002 A 
ATOM     86  C   UNL A   1      45.263  25.919  35.874  1.00  0.00     0.091 A 
ATOM     87  F   UNL A   1      43.167  25.730  34.751  1.00  0.00    -0.205 F 
ATOM     88  C   UNL A   1      46.476  26.608  36.048  1.00  0.00     0.022 A 
BRANCH  86  89
ATOM     89  S   UNL A   1      44.994  24.468  36.896  1.00  0.00     0.127 S 
ATOM     90  O   UNL A   1      46.310  24.287  37.508  1.00  0.00    -0.237 OA
ATOM     91  O   UNL A   1      43.952  24.928  37.814  1.00  0.00    -0.237 OA
ATOM     92  O   UNL A   1      44.580  23.406  35.990  1.00  0.00    -0.744 OA
ENDBRANCH  86  89
ENDBRANCH  59  82
ENDBRANCH  33  34
ENDBRANCH  26  28
ENDBRANCH  25  26
ENDBRANCH   1  25
TORSDOF 17
ENDMDL
MODEL 2
REMARK VINA RESULT:     -12.6      1.310      1.580
REMARK SMILES Cc1cc(Cl)ccc1Oc1cc(C)c(N)c(C(=O)OCCOC(=O)c2ccc(-c3c4nc(c(-c5cccc(S(=O)(=O)[O-])c5F)c5ccc([nH]5)c(-c5cccc(S(=O)(=O)[O-])c5F)c5nc(c(-c6cccc(S(=O)(=O)[O-])c6F)c6ccc3[nH]6)C=C5)C=C4)cc2)c1
REMARK SMILES IDX 21 1 20 2 19 3 17 4 18 5 16 6 10 7 11 8 88 9 12 10 13 11
REMARK SMILES IDX 14 12 9 13 8 14 1 15 2 16 3 17 4 18 7 19 5 20 6 21 15 22
REMARK SMILES IDX 22 25 23 26 24 27 25 28 26 29 87 30 27 31 86 32 28 33 29 34
REMARK SMILES IDX 30 35 80 36 31 37 85 38 79 39 81 40 32 41 84 42 78 43 77 44
REMARK SMILES IDX 33 46 65 47 45 48 64 49 46 50 49 51 63 52 82 53 47 54 48 55
REMARK SMILES IDX 62 57 83 58 50 59 34 60 35 61 43 62 36 63 38 64 44 65 37 66
REMARK SMILES IDX 39 67 40 68 41 69 42 70 66 71 67 72 75 73 68 74 70 75 76 76
REMARK SMILES IDX 69 77 71 78 72 79 73 80 74 81 51 82 52 83 60 84 53 85 55 86
REMARK SMILES IDX 61 87 54 88 56 89 57 90 58 91 59 92
REMARK H PARENT 15 23 15 24 81 45 49 56
REMARK Flexibility Score: inf
ROOT
ATOM      1  C   UNL A   1      32.404  30.251  26.039  1.00  0.00     0.275 C 
ENDROOT
BRANCH   1   2
ATOM      2  C   UNL A   1      33.242  29.265  25.225  1.00  0.00     0.275 C 
BRANCH   2   3
ATOM      3  O   UNL A   1      33.232  29.598  23.818  1.00  0.00    -0.458 OA
BRANCH   3   4
ATOM      4  C   UNL A   1      33.133  28.539  22.971  1.00  0.00     0.340 C 
ATOM      5  O   UNL A   1      34.014  28.125  22.239  1.00  0.00    -0.246 OA
BRANCH   4   6
ATOM      6  C   UNL A   1      31.767  27.958  22.990  1.00  0.00     0.086 A 
ATOM      7  C   UNL A   1      30.281  26.165  23.538  1.00  0.00     0.128 A 
ATOM      8  C   UNL A   1      29.183  27.024  23.493  1.00  0.00     0.052 A 
ATOM      9  C   UNL A   1      31.582  26.645  23.409  1.00  0.00     0.065 A 
ATOM     10  C   UNL A   1      29.352  28.323  23.018  1.00  0.00    -0.024 A 
ATOM     11  C   UNL A   1      28.150  29.188  22.751  1.00  0.00     0.047 C 
ATOM     12  C   UNL A   1      30.647  28.753  22.672  1.00  0.00     0.049 A 
BRANCH   7  13
ATOM     13  O   UNL A   1      30.128  24.818  23.693  1.00  0.00    -0.457 OA
BRANCH  13  14
ATOM     14  C   UNL A   1      31.009  24.111  24.495  1.00  0.00     0.130 A 
ATOM     15  C   UNL A   1      32.662  23.076  22.756  1.00  0.00     0.048 C 
ATOM     16  C   UNL A   1      32.138  23.338  24.145  1.00  0.00    -0.007 A 
ATOM     17  C   UNL A   1      32.863  22.705  25.180  1.00  0.00     0.027 A 
ATOM     18  C   UNL A   1      32.529  22.889  26.517  1.00  0.00     0.041 A 
ATOM     19  C   UNL A   1      30.696  24.289  25.855  1.00  0.00     0.049 A 
ATOM     20  Cl  UNL A   1      33.464  22.132  27.746  1.00  0.00    -0.084 Cl
ATOM     21  C   UNL A   1      31.452  23.691  26.862  1.00  0.00     0.024 A 
ENDBRANCH  13  14
ENDBRANCH   7  13
BRANCH  12  22
ATOM     22  N   UNL A   1      30.769  29.835  21.810  1.00  0.00    -0.398 N 
ATOM     23  H   UNL A   1      30.165  29.919  21.037  1.00  0.00     0.156 HD
ATOM     24  H   UNL A   1      31.460  30.517  21.973  1.00  0.00     0.156 HD
ENDBRANCH  12  22
ENDBRANCH   4   6
ENDBRANCH   3   4
ENDBRANCH   2   3
ENDBRANCH   1   2
BRANCH   1  25
ATOM     25  O   UNL A   1      32.934  30.389  27.368  1.00  0.00    -0.458 OA
BRANCH  25  26
ATOM     26  C   UNL A   1      33.668  31.501  27.586  1.00  0.00     0.338 C 
ATOM     27  O   UNL A   1      33.267  32.654  27.658  1.00  0.00    -0.246 OA
BRANCH  26  28
ATOM     28  C   UNL A   1      35.071  31.152  27.850  1.00  0.00     0.060 A 
ATOM     29  C   UNL A   1      35.354  29.847  28.219  1.00  0.00     0.016 A 
ATOM     30  C   UNL A   1      36.041  32.143  28.005  1.00  0.00     0.016 A 
ATOM     31  C   UNL A   1      36.520  29.579  28.927  1.00  0.00     0.010 A 
ATOM     32  C   UNL A   1      37.296  31.813  28.540  1.00  0.00     0.010 A 
ATOM     33  C   UNL A   1      37.544  30.530  29.053  1.00  0.00    -0.014 A 
BRANCH  33  34
ATOM     34  C   UNL A   1      38.853  30.144  29.671  1.00  0.00     0.031 A 
ATOM     35  C   UNL A   1      39.783  29.151  29.010  1.00  0.00     0.074 A 
ATOM     36  C   UNL A   1      39.209  30.683  30.859  1.00  0.00     0.049 A 
ATOM     37  N   UNL A   1      40.819  28.530  29.516  1.00  0.00    -0.248 NA
ATOM     38  C   UNL A   1      39.515  28.798  27.605  1.00  0.00     0.031 C 
ATOM     39  C   UNL A   1      38.429  31.673  31.610  1.00  0.00     0.029 A 
ATOM     40  N   UNL A   1      40.311  30.476  31.657  1.00  0.00    -0.354 N 
ATOM     41  C   UNL A   1      41.266  27.649  28.535  1.00  0.00     0.074 A 
ATOM     42  C   UNL A   1      40.410  27.842  27.385  1.00  0.00     0.031 C 
ATOM     43  C   UNL A   1      39.095  32.035  32.709  1.00  0.00     0.029 A 
ATOM     44  C   UNL A   1      40.253  31.171  32.846  1.00  0.00     0.049 A 
ATOM     45  H   UNL A   1      41.062  29.892  31.404  1.00  0.00     0.167 HD
ATOM     46  C   UNL A   1      42.287  26.759  28.598  1.00  0.00     0.034 A 
ATOM     47  C   UNL A   1      40.971  31.065  33.979  1.00  0.00     0.034 A 
ATOM     48  C   UNL A   1      43.171  26.628  29.730  1.00  0.00     0.049 A 
ATOM     49  C   UNL A   1      42.057  30.040  34.042  1.00  0.00     0.074 A 
ATOM     50  C   UNL A   1      44.263  25.791  29.877  1.00  0.00     0.029 A 
ATOM     51  N   UNL A   1      43.062  27.349  30.910  1.00  0.00    -0.354 N 
ATOM     52  N   UNL A   1      42.473  29.228  33.103  1.00  0.00    -0.248 NA
ATOM     53  C   UNL A   1      42.766  29.909  35.320  1.00  0.00     0.031 C 
ATOM     54  C   UNL A   1      44.791  25.979  31.159  1.00  0.00     0.029 A 
ATOM     55  C   UNL A   1      44.049  26.958  31.799  1.00  0.00     0.049 A 
ATOM     56  H   UNL A   1      42.383  28.038  31.089  1.00  0.00     0.167 HD
ATOM     57  C   UNL A   1      43.498  28.488  33.673  1.00  0.00     0.074 A 
ATOM     58  C   UNL A   1      43.664  28.978  35.028  1.00  0.00     0.031 C 
ATOM     59  C   UNL A   1      44.219  27.476  33.133  1.00  0.00     0.034 A 
BRANCH  46  60
ATOM     60  C   UNL A   1      42.512  25.836  27.422  1.00  0.00     0.023 A 
ATOM     61  C   UNL A   1      43.299  26.250  26.330  1.00  0.00     0.012 A 
ATOM     62  C   UNL A   1      42.007  24.518  27.443  1.00  0.00     0.148 A 
ATOM     63  C   UNL A   1      43.554  25.381  25.266  1.00  0.00     0.002 A 
ATOM     64  C   UNL A   1      42.299  23.645  26.401  1.00  0.00     0.091 A 
ATOM     65  F   UNL A   1      41.248  24.142  28.483  1.00  0.00    -0.205 F 
ATOM     66  C   UNL A   1      43.063  24.078  25.306  1.00  0.00     0.022 A 
BRANCH  64  67
ATOM     67  S   UNL A   1      41.777  21.924  26.397  1.00  0.00     0.127 S 
ATOM     68  O   UNL A   1      42.547  21.386  25.275  1.00  0.00    -0.237 OA
ATOM     69  O   UNL A   1      42.220  21.466  27.713  1.00  0.00    -0.237 OA
ATOM     70  O   UNL A   1      40.333  21.941  26.211  1.00  0.00    -0.744 OA
ENDBRANCH  64  67
ENDBRANCH  46  60
BRANCH  47  71
ATOM     71  C   UNL A   1      40.619  31.911  35.156  1.00  0.00     0.023 A 
ATOM     72  C   UNL A   1      41.328  33.101  35.395  1.00  0.00     0.012 A 
ATOM     73  C   UNL A   1      39.528  31.582  35.989  1.00  0.00     0.148 A 
ATOM     74  C   UNL A   1      40.964  33.943  36.447  1.00  0.00     0.002 A 
ATOM     75  C   UNL A   1      39.124  32.460  36.986  1.00  0.00     0.091 A 
ATOM     76  F   UNL A   1      38.876  30.433  35.759  1.00  0.00    -0.205 F 
ATOM     77  C   UNL A   1      39.853  33.633  37.228  1.00  0.00     0.022 A 
BRANCH  75  78
ATOM     78  S   UNL A   1      37.608  32.220  37.919  1.00  0.00     0.127 S 
ATOM     79  O   UNL A   1      37.916  32.905  39.171  1.00  0.00    -0.237 OA
ATOM     80  O   UNL A   1      36.621  32.894  37.074  1.00  0.00    -0.237 OA
ATOM     81  O   UNL A   1      37.428  30.778  38.011  1.00  0.00    -0.744 OA
ENDBRANCH  75  78
ENDBRANCH  47  71
BRANCH  59  82
ATOM     82  C   UNL A   1      45.267  26.846  34.006  1.00  0.00     0.023 A 
ATOM     83  C   UNL A   1      46.577  27.367  34.011  1.00  0.00     0.012 A 
ATOM     84  C   UNL A   1      44.944  25.771  34.854  1.00  0.00     0.148 A 
ATOM     85  C   UNL A   1      47.557  26.807  34.826  1.00  0.00     0.002 A 
ATOM     86  C   UNL A   1      45.912  25.250  35.701  1.00  0.00     0.091 A 
ATOM     87  F   UNL A   1      43.697  25.281  34.816  1.00  0.00    -0.205 F 
ATOM     88  C   UNL A   1      47.222  25.757  35.679  1.00  0.00     0.022 A 
BRANCH  86  89
ATOM     89  S   UNL A   1      45.556  23.959  36.896  1.00  0.00     0.127 S 
ATOM     90  O   UNL A   1      46.870  23.741  37.499  1.00  0.00    -0.237 OA
ATOM     91  O   UNL A   1      44.583  24.611  37.772  1.00  0.00    -0.237 OA
ATOM     92  O   UNL A   1      45.030  22.835  36.134  1.00  0.00    -0.744 OA
ENDBRANCH  86  89
ENDBRANCH  59  82
ENDBRANCH  33  34
ENDBRANCH  26  28
ENDBRANCH  25  26
ENDBRANCH   1  25
TORSDOF 17
ENDMDL
MODEL 3
REMARK VINA RESULT:     -12.4      2.014      2.693
REMARK SMILES Cc1cc(Cl)ccc1Oc1cc(C)c(N)c(C(=O)OCCOC(=O)c2ccc(-c3c4nc(c(-c5cccc(S(=O)(=O)[O-])c5F)c5ccc([nH]5)c(-c5cccc(S(=O)(=O)[O-])c5F)c5nc(c(-c6cccc(S(=O)(=O)[O-])c6F)c6ccc3[nH]6)C=C5)C=C4)cc2)c1
REMARK SMILES IDX 21 1 20 2 19 3 17 4 18 5 16 6 10 7 11 8 88 9 12 10 13 11
REMARK SMILES IDX 14 12 9 13 8 14 1 15 2 16 3 17 4 18 7 19 5 20 6 21 15 22
REMARK SMILES IDX 22 25 23 26 24 27 25 28 26 29 87 30 27 31 86 32 28 33 29 34
REMARK SMILES IDX 30 35 80 36 31 37 85 38 79 39 81 40 32 41 84 42 78 43 77 44
REMARK SMILES IDX 33 46 65 47 45 48 64 49 46 50 49 51 63 52 82 53 47 54 48 55
REMARK SMILES IDX 62 57 83 58 50 59 34 60 35 61 43 62 36 63 38 64 44 65 37 66
REMARK SMILES IDX 39 67 40 68 41 69 42 70 66 71 67 72 75 73 68 74 70 75 76 76
REMARK SMILES IDX 69 77 71 78 72 79 73 80 74 81 51 82 52 83 60 84 53 85 55 86
REMARK SMILES IDX 61 87 54 88 56 89 57 90 58 91 59 92
REMARK H PARENT 15 23 15 24 81 45 49 56
REMARK Flexibility Score: inf
ROOT
ATOM      1  C   UNL A   1      31.816  30.378  26.433  1.00  0.00     0.275 C 
ENDROOT
BRANCH   1   2
ATOM      2  C   UNL A   1      32.161  29.635  25.143  1.00  0.00     0.275 C 
BRANCH   2   3
ATOM      3  O   UNL A   1      31.077  28.778  24.720  1.00  0.00    -0.458 OA
BRANCH   3   4
ATOM      4  C   UNL A   1      31.167  27.483  25.126  1.00  0.00     0.340 C 
ATOM      5  O   UNL A   1      30.530  26.972  26.028  1.00  0.00    -0.246 OA
BRANCH   4   6
ATOM      6  C   UNL A   1      32.208  26.749  24.362  1.00  0.00     0.086 A 
ATOM      7  C   UNL A   1      34.136  25.334  24.313  1.00  0.00     0.128 A 
ATOM      8  C   UNL A   1      33.875  24.976  22.991  1.00  0.00     0.052 A 
ATOM      9  C   UNL A   1      33.246  26.119  25.041  1.00  0.00     0.065 A 
ATOM     10  C   UNL A   1      32.875  25.646  22.288  1.00  0.00    -0.024 A 
ATOM     11  C   UNL A   1      32.728  25.434  20.806  1.00  0.00     0.047 C 
ATOM     12  C   UNL A   1      32.105  26.611  22.963  1.00  0.00     0.049 A 
BRANCH   7  13
ATOM     13  O   UNL A   1      35.282  24.946  24.946  1.00  0.00    -0.457 OA
BRANCH  13  14
ATOM     14  C   UNL A   1      35.576  23.598  25.074  1.00  0.00     0.130 A 
ATOM     15  C   UNL A   1      33.692  22.752  26.675  1.00  0.00     0.048 C 
ATOM     16  C   UNL A   1      34.914  22.589  25.809  1.00  0.00    -0.007 A 
ATOM     17  C   UNL A   1      35.443  21.279  25.773  1.00  0.00     0.027 A 
ATOM     18  C   UNL A   1      36.543  20.962  24.983  1.00  0.00     0.041 A 
ATOM     19  C   UNL A   1      36.680  23.251  24.275  1.00  0.00     0.049 A 
ATOM     20  Cl  UNL A   1      37.128  19.345  24.938  1.00  0.00    -0.084 Cl
ATOM     21  C   UNL A   1      37.159  21.942  24.221  1.00  0.00     0.024 A 
ENDBRANCH  13  14
ENDBRANCH   7  13
BRANCH  12  22
ATOM     22  N   UNL A   1      31.443  27.567  22.204  1.00  0.00    -0.398 N 
ATOM     23  H   UNL A   1      31.049  27.321  21.337  1.00  0.00     0.156 HD
ATOM     24  H   UNL A   1      31.368  28.492  22.535  1.00  0.00     0.156 HD
ENDBRANCH  12  22
ENDBRANCH   4   6
ENDBRANCH   3   4
ENDBRANCH   2   3
ENDBRANCH   1   2
BRANCH   1  25
ATOM     25  O   UNL A   1      32.895  30.280  27.378  1.00  0.00    -0.458 OA
BRANCH  25  26
ATOM     26  C   UNL A   1      33.628  31.403  27.537  1.00  0.00     0.338 C 
ATOM     27  O   UNL A   1      33.224  32.557  27.556  1.00  0.00    -0.246 OA
BRANCH  26  28
ATOM     28  C   UNL A   1      35.033  31.072  27.809  1.00  0.00     0.060 A 
ATOM     29  C   UNL A   1      35.330  29.768  28.172  1.00  0.00     0.016 A 
ATOM     30  C   UNL A   1      35.989  32.074  27.977  1.00  0.00     0.016 A 
ATOM     31  C   UNL A   1      36.496  29.511  28.886  1.00  0.00     0.010 A 
ATOM     32  C   UNL A   1      37.245  31.758  28.518  1.00  0.00     0.010 A 
ATOM     33  C   UNL A   1      37.506  30.475  29.025  1.00  0.00    -0.014 A 
BRANCH  33  34
ATOM     34  C   UNL A   1      38.816  30.101  29.650  1.00  0.00     0.031 A 
ATOM     35  C   UNL A   1      39.757  29.116  28.996  1.00  0.00     0.074 A 
ATOM     36  C   UNL A   1      39.162  30.647  30.838  1.00  0.00     0.049 A 
ATOM     37  N   UNL A   1      40.797  28.505  29.508  1.00  0.00    -0.248 NA
ATOM     38  C   UNL A   1      39.499  28.757  27.590  1.00  0.00     0.031 C 
ATOM     39  C   UNL A   1      38.370  31.633  31.583  1.00  0.00     0.029 A 
ATOM     40  N   UNL A   1      40.262  30.452  31.641  1.00  0.00    -0.354 N 
ATOM     41  C   UNL A   1      41.255  27.626  28.531  1.00  0.00     0.074 A 
ATOM     42  C   UNL A   1      40.403  27.807  27.377  1.00  0.00     0.031 C 
ATOM     43  C   UNL A   1      39.028  32.004  32.684  1.00  0.00     0.029 A 
ATOM     44  C   UNL A   1      40.193  31.150  32.828  1.00  0.00     0.049 A 
ATOM     45  H   UNL A   1      41.019  29.874  31.393  1.00  0.00     0.167 HD
ATOM     46  C   UNL A   1      42.284  26.745  28.601  1.00  0.00     0.034 A 
ATOM     47  C   UNL A   1      40.907  31.054  33.964  1.00  0.00     0.034 A 
ATOM     48  C   UNL A   1      43.164  26.625  29.738  1.00  0.00     0.049 A 
ATOM     49  C   UNL A   1      42.002  30.039  34.035  1.00  0.00     0.074 A 
ATOM     50  C   UNL A   1      44.264  25.798  29.891  1.00  0.00     0.029 A 
ATOM     51  N   UNL A   1      43.044  27.348  30.915  1.00  0.00    -0.354 N 
ATOM     52  N   UNL A   1      42.429  29.227  33.100  1.00  0.00    -0.248 NA
ATOM     53  C   UNL A   1      42.706  29.917  35.316  1.00  0.00     0.031 C 
ATOM     54  C   UNL A   1      44.784  25.994  31.175  1.00  0.00     0.029 A 
ATOM     55  C   UNL A   1      44.031  26.968  31.809  1.00  0.00     0.049 A 
ATOM     56  H   UNL A   1      42.358  28.031  31.089  1.00  0.00     0.167 HD
ATOM     57  C   UNL A   1      43.457  28.498  33.676  1.00  0.00     0.074 A 
ATOM     58  C   UNL A   1      43.613  28.993  35.031  1.00  0.00     0.031 C 
ATOM     59  C   UNL A   1      44.191  27.492  33.142  1.00  0.00     0.034 A 
BRANCH  46  60
ATOM     60  C   UNL A   1      42.523  25.821  27.429  1.00  0.00     0.023 A 
ATOM     61  C   UNL A   1      43.321  26.234  26.345  1.00  0.00     0.012 A 
ATOM     62  C   UNL A   1      42.018  24.502  27.446  1.00  0.00     0.148 A 
ATOM     63  C   UNL A   1      43.588  25.364  25.285  1.00  0.00     0.002 A 
ATOM     64  C   UNL A   1      42.322  23.628  26.408  1.00  0.00     0.091 A 
ATOM     65  F   UNL A   1      41.249  24.127  28.478  1.00  0.00    -0.205 F 
ATOM     66  C   UNL A   1      43.097  24.061  25.321  1.00  0.00     0.022 A 
BRANCH  64  67
ATOM     67  S   UNL A   1      41.802  21.907  26.400  1.00  0.00     0.127 S 
ATOM     68  O   UNL A   1      40.373  22.033  26.113  1.00  0.00    -0.237 OA
ATOM     69  O   UNL A   1      42.595  21.352  25.303  1.00  0.00    -0.237 OA
ATOM     70  O   UNL A   1      42.130  21.380  27.717  1.00  0.00    -0.744 OA
ENDBRANCH  64  67
ENDBRANCH  46  60
BRANCH  47  71
ATOM     71  C   UNL A   1      40.541  31.900  35.137  1.00  0.00     0.023 A 
ATOM     72  C   UNL A   1      41.148  33.157  35.304  1.00  0.00     0.012 A 
ATOM     73  C   UNL A   1      39.534  31.497  36.040  1.00  0.00     0.148 A 
ATOM     74  C   UNL A   1      40.765  33.994  36.353  1.00  0.00     0.002 A 
ATOM     75  C   UNL A   1      39.106  32.365  37.036  1.00  0.00     0.091 A 
ATOM     76  F   UNL A   1      38.982  30.286  35.879  1.00  0.00    -0.205 F 
ATOM     77  C   UNL A   1      39.733  33.607  37.206  1.00  0.00     0.022 A 
BRANCH  75  78
ATOM     78  S   UNL A   1      37.672  32.015  38.061  1.00  0.00     0.127 S 
ATOM     79  O   UNL A   1      36.722  33.023  37.600  1.00  0.00    -0.237 OA
ATOM     80  O   UNL A   1      37.350  30.641  37.675  1.00  0.00    -0.237 OA
ATOM     81  O   UNL A   1      38.130  32.157  39.437  1.00  0.00    -0.744 OA
ENDBRANCH  75  78
ENDBRANCH  47  71
BRANCH  59  82
ATOM     82  C   UNL A   1      45.240  26.873  34.021  1.00  0.00     0.023 A 
ATOM     83  C   UNL A   1      46.549  27.395  34.018  1.00  0.00     0.012 A 
ATOM     84  C   UNL A   1      44.919  25.808  34.883  1.00  0.00     0.148 A 
ATOM     85  C   UNL A   1      47.532  26.846  34.839  1.00  0.00     0.002 A 
ATOM     86  C   UNL A   1      45.889  25.299  35.735  1.00  0.00     0.091 A 
ATOM     87  F   UNL A   1      43.672  25.317  34.853  1.00  0.00    -0.205 F 
ATOM     88  C   UNL A   1      47.198  25.807  35.705  1.00  0.00     0.022 A 
BRANCH  86  89
ATOM     89  S   UNL A   1      45.536  24.022  36.947  1.00  0.00     0.127 S 
ATOM     90  O   UNL A   1      45.064  22.929  36.099  1.00  0.00    -0.237 OA
ATOM     91  O   UNL A   1      46.849  23.802  37.552  1.00  0.00    -0.237 OA
ATOM     92  O   UNL A   1      44.538  24.584  37.847  1.00  0.00    -0.744 OA
ENDBRANCH  86  89
ENDBRANCH  59  82
ENDBRANCH  33  34
ENDBRANCH  26  28
ENDBRANCH  25  26
ENDBRANCH   1  25
TORSDOF 17
ENDMDL
