MODEL 1
REMARK VINA RESULT:     -11.8      0.000      0.000
REMARK SMILES O=C(Cn1cc(/C=C(/Cl)c2nnc(C(=O)Nc3ccc(Cl)cc3)s2)nn1)OCCOC(=O)c1ccc(-c2c3nc(c(-c4cccc(S(=O)(=O)[O-])c4F)c4ccc([nH]4)c(-c4cccc(S(=O)(=O)[O-])c4F)c4nc(c(-c5cccc(S(=O)(=O)[O-])c5F)c5ccc2[nH]5)C=C4)C=C3)cc1
REMARK SMILES IDX 28 1 27 2 2 3 1 4 3 5 4 6 5 7 26 8 6 9 25 10 7 11 8 12 9 13
REMARK SMILES IDX 10 14 11 15 24 16 12 17 13 18 14 19 15 20 16 21 17 23 18 24
REMARK SMILES IDX 23 25 19 26 22 27 20 28 21 29 29 30 30 31 31 32 32 33 33 34
REMARK SMILES IDX 34 35 95 36 35 37 94 38 36 39 37 40 38 41 88 42 39 43 93 44
REMARK SMILES IDX 87 45 89 46 40 47 92 48 86 49 85 50 41 52 73 53 53 54 72 55
REMARK SMILES IDX 54 56 57 57 71 58 90 59 55 60 56 61 70 63 91 64 58 65 42 66
REMARK SMILES IDX 43 67 51 68 44 69 46 70 52 71 45 72 47 73 48 74 49 75 50 76
REMARK SMILES IDX 74 77 75 78 83 79 76 80 78 81 84 82 77 83 79 84 80 85 81 86
REMARK SMILES IDX 82 87 59 88 60 89 68 90 61 91 63 92 69 93 62 94 64 95 65 96
REMARK SMILES IDX 66 97 67 98
REMARK H PARENT 16 22 89 51 57 62
REMARK Flexibility Score: inf
ROOT
ATOM      1  C   UNL A   1      37.760  19.935  25.219  1.00  0.00     0.274 C 
ENDROOT
BRANCH   1   2
ATOM      2  O   UNL A   1      37.793  21.157  24.458  1.00  0.00    -0.461 OA
BRANCH   2   3
ATOM      3  C   UNL A   1      37.121  22.298  24.767  1.00  0.00     0.327 C 
ATOM      4  O   UNL A   1      36.975  23.165  23.906  1.00  0.00    -0.250 OA
BRANCH   3   5
ATOM      5  C   UNL A   1      36.614  22.510  26.174  1.00  0.00     0.268 C 
BRANCH   5   6
ATOM      6  N   UNL A   1      35.180  22.406  26.319  1.00  0.00    -0.241 N 
ATOM      7  C   UNL A   1      34.320  23.383  26.751  1.00  0.00     0.139 A 
ATOM      8  N   UNL A   1      34.540  21.245  26.127  1.00  0.00    -0.066 NA
ATOM      9  C   UNL A   1      33.091  22.773  26.687  1.00  0.00     0.107 A 
ATOM     10  N   UNL A   1      33.250  21.475  26.294  1.00  0.00    -0.131 NA
BRANCH   9  11
ATOM     11  C   UNL A   1      31.805  23.331  26.955  1.00  0.00     0.055 C 
ATOM     12  C   UNL A   1      31.058  24.069  26.109  1.00  0.00     0.081 C 
ATOM     13  Cl  UNL A   1      29.503  24.654  26.591  1.00  0.00    -0.081 Cl
BRANCH  12  14
ATOM     14  C   UNL A   1      31.431  24.255  24.751  1.00  0.00     0.159 A 
ATOM     15  N   UNL A   1      30.762  24.006  23.640  1.00  0.00    -0.137 NA
ATOM     16  S   UNL A   1      32.933  25.015  24.418  1.00  0.00    -0.086 S 
ATOM     17  N   UNL A   1      31.284  24.707  22.553  1.00  0.00    -0.133 NA
ATOM     18  C   UNL A   1      32.319  25.461  22.892  1.00  0.00     0.206 A 
BRANCH  18  19
ATOM     19  C   UNL A   1      32.841  26.508  22.005  1.00  0.00     0.286 C 
ATOM     20  O   UNL A   1      33.311  26.242  20.889  1.00  0.00    -0.266 OA
ATOM     21  N   UNL A   1      32.706  27.884  22.238  1.00  0.00    -0.320 N 
ATOM     22  H   UNL A   1      32.960  28.452  21.474  1.00  0.00     0.170 HD
BRANCH  21  23
ATOM     23  C   UNL A   1      32.273  28.590  23.366  1.00  0.00     0.041 A 
ATOM     24  C   UNL A   1      30.964  29.039  23.512  1.00  0.00     0.027 A 
ATOM     25  C   UNL A   1      33.190  28.846  24.381  1.00  0.00     0.027 A 
ATOM     26  C   UNL A   1      30.652  29.977  24.500  1.00  0.00     0.022 A 
ATOM     27  C   UNL A   1      32.879  29.769  25.386  1.00  0.00     0.022 A 
ATOM     28  C   UNL A   1      31.632  30.383  25.397  1.00  0.00     0.041 A 
ATOM     29  Cl  UNL A   1      31.323  31.670  26.490  1.00  0.00    -0.084 Cl
ENDBRANCH  21  23
ENDBRANCH  18  19
ENDBRANCH  12  14
ENDBRANCH   9  11
ENDBRANCH   5   6
ENDBRANCH   3   5
ENDBRANCH   2   3
ENDBRANCH   1   2
BRANCH   1  30
ATOM     30  C   UNL A   1      39.130  19.291  25.395  1.00  0.00     0.275 C 
BRANCH  30  31
ATOM     31  O   UNL A   1      40.017  20.247  25.956  1.00  0.00    -0.458 OA
BRANCH  31  32
ATOM     32  C   UNL A   1      41.319  19.866  25.995  1.00  0.00     0.338 C 
ATOM     33  O   UNL A   1      41.787  18.810  25.674  1.00  0.00    -0.246 OA
BRANCH  32  34
ATOM     34  C   UNL A   1      42.071  21.004  26.537  1.00  0.00     0.060 A 
ATOM     35  C   UNL A   1      42.342  20.945  27.900  1.00  0.00     0.016 A 
ATOM     36  C   UNL A   1      42.274  22.161  25.766  1.00  0.00     0.016 A 
ATOM     37  C   UNL A   1      42.547  22.134  28.548  1.00  0.00     0.010 A 
ATOM     38  C   UNL A   1      42.482  23.348  26.414  1.00  0.00     0.010 A 
ATOM     39  C   UNL A   1      42.498  23.317  27.801  1.00  0.00    -0.014 A 
BRANCH  39  40
ATOM     40  C   UNL A   1      42.463  24.548  28.544  1.00  0.00     0.031 A 
ATOM     41  C   UNL A   1      41.277  25.359  28.231  1.00  0.00     0.074 A 
ATOM     42  C   UNL A   1      43.434  24.865  29.417  1.00  0.00     0.049 A 
ATOM     43  N   UNL A   1      41.233  26.444  27.534  1.00  0.00    -0.248 NA
ATOM     44  C   UNL A   1      39.965  24.773  28.536  1.00  0.00     0.031 C 
ATOM     45  C   UNL A   1      44.475  23.995  29.974  1.00  0.00     0.029 A 
ATOM     46  N   UNL A   1      43.600  26.024  30.098  1.00  0.00    -0.354 N 
ATOM     47  C   UNL A   1      39.893  26.811  27.539  1.00  0.00     0.074 A 
ATOM     48  C   UNL A   1      39.153  25.645  27.940  1.00  0.00     0.031 C 
ATOM     49  C   UNL A   1      44.982  24.578  31.085  1.00  0.00     0.029 A 
ATOM     50  C   UNL A   1      44.398  25.900  31.227  1.00  0.00     0.049 A 
ATOM     51  H   UNL A   1      43.193  26.876  29.818  1.00  0.00     0.167 HD
ATOM     52  C   UNL A   1      39.536  28.121  27.521  1.00  0.00     0.034 A 
ATOM     53  C   UNL A   1      44.461  26.789  32.247  1.00  0.00     0.034 A 
ATOM     54  C   UNL A   1      40.612  28.955  27.045  1.00  0.00     0.049 A 
ATOM     55  C   UNL A   1      43.940  28.083  31.739  1.00  0.00     0.074 A 
ATOM     56  C   UNL A   1      41.359  29.011  25.885  1.00  0.00     0.029 A 
ATOM     57  N   UNL A   1      41.323  29.658  27.989  1.00  0.00    -0.354 N 
ATOM     58  N   UNL A   1      44.541  28.791  30.823  1.00  0.00    -0.248 NA
ATOM     59  C   UNL A   1      42.525  28.371  31.920  1.00  0.00     0.031 C 
ATOM     60  C   UNL A   1      42.677  29.349  26.308  1.00  0.00     0.029 A 
ATOM     61  C   UNL A   1      42.654  29.532  27.693  1.00  0.00     0.049 A 
ATOM     62  H   UNL A   1      40.943  30.162  28.743  1.00  0.00     0.167 HD
ATOM     63  C   UNL A   1      43.512  29.274  30.022  1.00  0.00     0.074 A 
ATOM     64  C   UNL A   1      42.297  29.079  30.810  1.00  0.00     0.031 C 
ATOM     65  C   UNL A   1      43.704  29.506  28.689  1.00  0.00     0.034 A 
BRANCH  52  66
ATOM     66  C   UNL A   1      38.380  28.683  28.317  1.00  0.00     0.023 A 
ATOM     67  C   UNL A   1      37.379  29.367  27.596  1.00  0.00     0.012 A 
ATOM     68  C   UNL A   1      38.362  28.825  29.725  1.00  0.00     0.148 A 
ATOM     69  C   UNL A   1      36.456  30.200  28.237  1.00  0.00     0.002 A 
ATOM     70  C   UNL A   1      37.394  29.586  30.364  1.00  0.00     0.091 A 
ATOM     71  F   UNL A   1      39.361  28.346  30.470  1.00  0.00    -0.205 F 
ATOM     72  C   UNL A   1      36.458  30.306  29.622  1.00  0.00     0.022 A 
BRANCH  70  73
ATOM     73  S   UNL A   1      37.340  29.709  32.156  1.00  0.00     0.127 S 
ATOM     74  O   UNL A   1      36.116  30.477  32.358  1.00  0.00    -0.237 OA
ATOM     75  O   UNL A   1      37.268  28.302  32.551  1.00  0.00    -0.237 OA
ATOM     76  O   UNL A   1      38.583  30.369  32.539  1.00  0.00    -0.744 OA
ENDBRANCH  70  73
ENDBRANCH  52  66
BRANCH  53  77
ATOM     77  C   UNL A   1      44.630  26.516  33.692  1.00  0.00     0.023 A 
ATOM     78  C   UNL A   1      45.885  26.720  34.297  1.00  0.00     0.012 A 
ATOM     79  C   UNL A   1      43.510  26.313  34.530  1.00  0.00     0.148 A 
ATOM     80  C   UNL A   1      46.016  26.749  35.691  1.00  0.00     0.002 A 
ATOM     81  C   UNL A   1      43.646  26.328  35.914  1.00  0.00     0.091 A 
ATOM     82  F   UNL A   1      42.297  26.199  33.973  1.00  0.00    -0.205 F 
ATOM     83  C   UNL A   1      44.897  26.559  36.498  1.00  0.00     0.022 A 
BRANCH  81  84
ATOM     84  S   UNL A   1      42.242  26.105  37.015  1.00  0.00     0.127 S 
ATOM     85  O   UNL A   1      42.860  26.265  38.330  1.00  0.00    -0.237 OA
ATOM     86  O   UNL A   1      41.364  27.200  36.612  1.00  0.00    -0.237 OA
ATOM     87  O   UNL A   1      41.739  24.762  36.751  1.00  0.00    -0.744 OA
ENDBRANCH  81  84
ENDBRANCH  53  77
BRANCH  65  88
ATOM     88  C   UNL A   1      45.118  29.469  28.160  1.00  0.00     0.023 A 
ATOM     89  C   UNL A   1      45.984  30.578  28.252  1.00  0.00     0.012 A 
ATOM     90  C   UNL A   1      45.638  28.236  27.732  1.00  0.00     0.148 A 
ATOM     91  C   UNL A   1      47.334  30.465  27.906  1.00  0.00     0.002 A 
ATOM     92  C   UNL A   1      46.989  28.115  27.434  1.00  0.00     0.091 A 
ATOM     93  F   UNL A   1      44.802  27.188  27.656  1.00  0.00    -0.205 F 
ATOM     94  C   UNL A   1      47.839  29.229  27.511  1.00  0.00     0.022 A 
BRANCH  92  95
ATOM     95  S   UNL A   1      47.726  26.524  27.050  1.00  0.00     0.127 S 
ATOM     96  O   UNL A   1      49.112  26.891  26.767  1.00  0.00    -0.237 OA
ATOM     97  O   UNL A   1      47.532  25.778  28.295  1.00  0.00    -0.237 OA
ATOM     98  O   UNL A   1      46.971  25.998  25.919  1.00  0.00    -0.744 OA
ENDBRANCH  92  95
ENDBRANCH  65  88
ENDBRANCH  39  40
ENDBRANCH  32  34
ENDBRANCH  31  32
ENDBRANCH  30  31
ENDBRANCH   1  30
TORSDOF 19
ENDMDL
MODEL 2
REMARK VINA RESULT:     -11.7      3.065      8.116
REMARK SMILES O=C(Cn1cc(/C=C(/Cl)c2nnc(C(=O)Nc3ccc(Cl)cc3)s2)nn1)OCCOC(=O)c1ccc(-c2c3nc(c(-c4cccc(S(=O)(=O)[O-])c4F)c4ccc([nH]4)c(-c4cccc(S(=O)(=O)[O-])c4F)c4nc(c(-c5cccc(S(=O)(=O)[O-])c5F)c5ccc2[nH]5)C=C4)C=C3)cc1
REMARK SMILES IDX 28 1 27 2 2 3 1 4 3 5 4 6 5 7 26 8 6 9 25 10 7 11 8 12 9 13
REMARK SMILES IDX 10 14 11 15 24 16 12 17 13 18 14 19 15 20 16 21 17 23 18 24
REMARK SMILES IDX 23 25 19 26 22 27 20 28 21 29 29 30 30 31 31 32 32 33 33 34
REMARK SMILES IDX 34 35 95 36 35 37 94 38 36 39 37 40 38 41 88 42 39 43 93 44
REMARK SMILES IDX 87 45 89 46 40 47 92 48 86 49 85 50 41 52 73 53 53 54 72 55
REMARK SMILES IDX 54 56 57 57 71 58 90 59 55 60 56 61 70 63 91 64 58 65 42 66
REMARK SMILES IDX 43 67 51 68 44 69 46 70 52 71 45 72 47 73 48 74 49 75 50 76
REMARK SMILES IDX 74 77 75 78 83 79 76 80 78 81 84 82 77 83 79 84 80 85 81 86
REMARK SMILES IDX 82 87 59 88 60 89 68 90 61 91 63 92 69 93 62 94 64 95 65 96
REMARK SMILES IDX 66 97 67 98
REMARK H PARENT 16 22 89 51 57 62
REMARK Flexibility Score: inf
ROOT
ATOM      1  C   UNL A   1      33.890  31.996  27.987  1.00  0.00     0.274 C 
ENDROOT
BRANCH   1   2
ATOM      2  O   UNL A   1      33.811  30.791  27.203  1.00  0.00    -0.461 OA
BRANCH   2   3
ATOM      3  C   UNL A   1      32.680  30.075  26.966  1.00  0.00     0.327 C 
ATOM      4  O   UNL A   1      32.439  29.081  27.651  1.00  0.00    -0.250 OA
BRANCH   3   5
ATOM      5  C   UNL A   1      31.765  30.475  25.833  1.00  0.00     0.268 C 
BRANCH   5   6
ATOM      6  N   UNL A   1      31.707  29.528  24.743  1.00  0.00    -0.241 N 
ATOM      7  C   UNL A   1      32.732  28.753  24.264  1.00  0.00     0.139 A 
ATOM      8  N   UNL A   1      30.603  29.391  23.995  1.00  0.00    -0.066 NA
ATOM      9  C   UNL A   1      32.141  28.037  23.252  1.00  0.00     0.107 A 
ATOM     10  N   UNL A   1      30.843  28.435  23.114  1.00  0.00    -0.131 NA
BRANCH   9  11
ATOM     11  C   UNL A   1      32.711  27.016  22.435  1.00  0.00     0.055 C 
ATOM     12  C   UNL A   1      32.611  25.684  22.628  1.00  0.00     0.081 C 
ATOM     13  Cl  UNL A   1      33.350  24.578  21.522  1.00  0.00    -0.081 Cl
BRANCH  12  14
ATOM     14  C   UNL A   1      31.768  25.136  23.631  1.00  0.00     0.159 A 
ATOM     15  N   UNL A   1      30.636  24.465  23.522  1.00  0.00    -0.137 NA
ATOM     16  S   UNL A   1      32.285  25.227  25.265  1.00  0.00    -0.086 S 
ATOM     17  N   UNL A   1      30.348  23.745  24.682  1.00  0.00    -0.133 NA
ATOM     18  C   UNL A   1      31.279  23.897  25.612  1.00  0.00     0.206 A 
BRANCH  18  19
ATOM     19  C   UNL A   1      31.356  23.017  26.785  1.00  0.00     0.286 C 
ATOM     20  O   UNL A   1      30.463  22.996  27.644  1.00  0.00    -0.266 OA
ATOM     21  N   UNL A   1      32.322  22.016  26.961  1.00  0.00    -0.320 N 
ATOM     22  H   UNL A   1      32.141  21.406  27.713  1.00  0.00     0.170 HD
BRANCH  21  23
ATOM     23  C   UNL A   1      33.496  21.733  26.255  1.00  0.00     0.041 A 
ATOM     24  C   UNL A   1      33.548  20.788  25.235  1.00  0.00     0.027 A 
ATOM     25  C   UNL A   1      34.655  22.429  26.586  1.00  0.00     0.027 A 
ATOM     26  C   UNL A   1      34.782  20.333  24.763  1.00  0.00     0.022 A 
ATOM     27  C   UNL A   1      35.893  21.993  26.103  1.00  0.00     0.022 A 
ATOM     28  C   UNL A   1      35.954  20.900  25.247  1.00  0.00     0.041 A 
ATOM     29  Cl  UNL A   1      37.477  20.227  24.827  1.00  0.00    -0.084 Cl
ENDBRANCH  21  23
ENDBRANCH  18  19
ENDBRANCH  12  14
ENDBRANCH   9  11
ENDBRANCH   5   6
ENDBRANCH   3   5
ENDBRANCH   2   3
ENDBRANCH   1   2
BRANCH   1  30
ATOM     30  C   UNL A   1      35.267  32.649  27.962  1.00  0.00     0.275 C 
BRANCH  30  31
ATOM     31  O   UNL A   1      35.633  32.998  29.288  1.00  0.00    -0.458 OA
BRANCH  31  32
ATOM     32  C   UNL A   1      35.991  31.953  30.077  1.00  0.00     0.338 C 
ATOM     33  O   UNL A   1      35.452  31.567  31.076  1.00  0.00    -0.246 OA
BRANCH  32  34
ATOM     34  C   UNL A   1      37.205  31.379  29.485  1.00  0.00     0.060 A 
ATOM     35  C   UNL A   1      37.096  30.058  29.062  1.00  0.00     0.016 A 
ATOM     36  C   UNL A   1      38.435  32.054  29.575  1.00  0.00     0.016 A 
ATOM     37  C   UNL A   1      38.249  29.323  29.003  1.00  0.00     0.010 A 
ATOM     38  C   UNL A   1      39.587  31.319  29.511  1.00  0.00     0.010 A 
ATOM     39  C   UNL A   1      39.456  29.948  29.341  1.00  0.00    -0.014 A 
BRANCH  39  40
ATOM     40  C   UNL A   1      40.599  29.094  29.514  1.00  0.00     0.031 A 
ATOM     41  C   UNL A   1      40.862  28.785  30.927  1.00  0.00     0.074 A 
ATOM     42  C   UNL A   1      41.308  28.654  28.460  1.00  0.00     0.049 A 
ATOM     43  N   UNL A   1      41.813  29.249  31.665  1.00  0.00    -0.248 NA
ATOM     44  C   UNL A   1      39.816  28.059  31.659  1.00  0.00     0.031 C 
ATOM     45  C   UNL A   1      40.944  28.692  27.039  1.00  0.00     0.029 A 
ATOM     46  N   UNL A   1      42.464  27.947  28.466  1.00  0.00    -0.354 N 
ATOM     47  C   UNL A   1      41.619  28.651  32.904  1.00  0.00     0.074 A 
ATOM     48  C   UNL A   1      40.272  28.149  32.908  1.00  0.00     0.031 C 
ATOM     49  C   UNL A   1      41.722  27.813  26.367  1.00  0.00     0.029 A 
ATOM     50  C   UNL A   1      42.709  27.267  27.282  1.00  0.00     0.049 A 
ATOM     51  H   UNL A   1      43.073  27.918  29.239  1.00  0.00     0.167 HD
ATOM     52  C   UNL A   1      42.679  28.343  33.696  1.00  0.00     0.034 A 
ATOM     53  C   UNL A   1      43.589  26.249  27.127  1.00  0.00     0.034 A 
ATOM     54  C   UNL A   1      43.852  29.095  33.323  1.00  0.00     0.049 A 
ATOM     55  C   UNL A   1      44.550  26.319  28.257  1.00  0.00     0.074 A 
ATOM     56  C   UNL A   1      44.155  30.438  33.223  1.00  0.00     0.029 A 
ATOM     57  N   UNL A   1      44.814  28.433  32.598  1.00  0.00    -0.354 N 
ATOM     58  N   UNL A   1      45.402  27.293  28.415  1.00  0.00    -0.248 NA
ATOM     59  C   UNL A   1      44.260  25.542  29.452  1.00  0.00     0.031 C 
ATOM     60  C   UNL A   1      45.003  30.543  32.083  1.00  0.00     0.029 A 
ATOM     61  C   UNL A   1      45.215  29.256  31.580  1.00  0.00     0.049 A 
ATOM     62  H   UNL A   1      45.155  27.528  32.779  1.00  0.00     0.167 HD
ATOM     63  C   UNL A   1      45.407  27.534  29.785  1.00  0.00     0.074 A 
ATOM     64  C   UNL A   1      44.777  26.356  30.378  1.00  0.00     0.031 C 
ATOM     65  C   UNL A   1      45.645  28.785  30.281  1.00  0.00     0.034 A 
BRANCH  52  66
ATOM     66  C   UNL A   1      42.767  27.078  34.519  1.00  0.00     0.023 A 
ATOM     67  C   UNL A   1      42.455  27.185  35.891  1.00  0.00     0.012 A 
ATOM     68  C   UNL A   1      43.397  25.883  34.099  1.00  0.00     0.148 A 
ATOM     69  C   UNL A   1      42.813  26.186  36.802  1.00  0.00     0.002 A 
ATOM     70  C   UNL A   1      43.676  24.859  34.993  1.00  0.00     0.091 A 
ATOM     71  F   UNL A   1      43.869  25.763  32.856  1.00  0.00    -0.205 F 
ATOM     72  C   UNL A   1      43.419  25.019  36.354  1.00  0.00     0.022 A 
BRANCH  70  73
ATOM     73  S   UNL A   1      44.418  23.318  34.439  1.00  0.00     0.127 S 
ATOM     74  O   UNL A   1      43.462  22.882  33.427  1.00  0.00    -0.237 OA
ATOM     75  O   UNL A   1      45.709  23.776  33.923  1.00  0.00    -0.237 OA
ATOM     76  O   UNL A   1      44.520  22.484  35.631  1.00  0.00    -0.744 OA
ENDBRANCH  70  73
ENDBRANCH  52  66
BRANCH  53  77
ATOM     77  C   UNL A   1      43.460  25.048  26.270  1.00  0.00     0.023 A 
ATOM     78  C   UNL A   1      44.370  24.845  25.216  1.00  0.00     0.012 A 
ATOM     79  C   UNL A   1      42.621  23.974  26.644  1.00  0.00     0.148 A 
ATOM     80  C   UNL A   1      44.461  23.604  24.572  1.00  0.00     0.002 A 
ATOM     81  C   UNL A   1      42.704  22.747  25.994  1.00  0.00     0.091 A 
ATOM     82  F   UNL A   1      41.807  24.123  27.698  1.00  0.00    -0.205 F 
ATOM     83  C   UNL A   1      43.633  22.555  24.965  1.00  0.00     0.022 A 
BRANCH  81  84
ATOM     84  S   UNL A   1      41.676  21.347  26.458  1.00  0.00     0.127 S 
ATOM     85  O   UNL A   1      40.333  21.850  26.173  1.00  0.00    -0.237 OA
ATOM     86  O   UNL A   1      42.149  20.309  25.547  1.00  0.00    -0.237 OA
ATOM     87  O   UNL A   1      41.938  21.114  27.874  1.00  0.00    -0.744 OA
ENDBRANCH  81  84
ENDBRANCH  53  77
BRANCH  65  88
ATOM     88  C   UNL A   1      46.150  29.841  29.328  1.00  0.00     0.023 A 
ATOM     89  C   UNL A   1      47.522  29.995  29.035  1.00  0.00     0.012 A 
ATOM     90  C   UNL A   1      45.212  30.565  28.575  1.00  0.00     0.148 A 
ATOM     91  C   UNL A   1      47.947  30.867  28.028  1.00  0.00     0.002 A 
ATOM     92  C   UNL A   1      45.634  31.394  27.544  1.00  0.00     0.091 A 
ATOM     93  F   UNL A   1      43.910  30.403  28.861  1.00  0.00    -0.205 F 
ATOM     94  C   UNL A   1      47.002  31.555  27.272  1.00  0.00     0.022 A 
BRANCH  92  95
ATOM     95  S   UNL A   1      44.463  32.203  26.450  1.00  0.00     0.127 S 
ATOM     96  O   UNL A   1      43.937  33.267  27.301  1.00  0.00    -0.237 OA
ATOM     97  O   UNL A   1      45.320  32.660  25.354  1.00  0.00    -0.237 OA
ATOM     98  O   UNL A   1      43.504  31.175  26.063  1.00  0.00    -0.744 OA
ENDBRANCH  92  95
ENDBRANCH  65  88
ENDBRANCH  39  40
ENDBRANCH  32  34
ENDBRANCH  31  32
ENDBRANCH  30  31
ENDBRANCH   1  30
TORSDOF 19
ENDMDL
MODEL 3
REMARK VINA RESULT:     -11.6      4.407      9.372
REMARK SMILES O=C(Cn1cc(/C=C(/Cl)c2nnc(C(=O)Nc3ccc(Cl)cc3)s2)nn1)OCCOC(=O)c1ccc(-c2c3nc(c(-c4cccc(S(=O)(=O)[O-])c4F)c4ccc([nH]4)c(-c4cccc(S(=O)(=O)[O-])c4F)c4nc(c(-c5cccc(S(=O)(=O)[O-])c5F)c5ccc2[nH]5)C=C4)C=C3)cc1
REMARK SMILES IDX 28 1 27 2 2 3 1 4 3 5 4 6 5 7 26 8 6 9 25 10 7 11 8 12 9 13
REMARK SMILES IDX 10 14 11 15 24 16 12 17 13 18 14 19 15 20 16 21 17 23 18 24
REMARK SMILES IDX 23 25 19 26 22 27 20 28 21 29 29 30 30 31 31 32 32 33 33 34
REMARK SMILES IDX 34 35 95 36 35 37 94 38 36 39 37 40 38 41 88 42 39 43 93 44
REMARK SMILES IDX 87 45 89 46 40 47 92 48 86 49 85 50 41 52 73 53 53 54 72 55
REMARK SMILES IDX 54 56 57 57 71 58 90 59 55 60 56 61 70 63 91 64 58 65 42 66
REMARK SMILES IDX 43 67 51 68 44 69 46 70 52 71 45 72 47 73 48 74 49 75 50 76
REMARK SMILES IDX 74 77 75 78 83 79 76 80 78 81 84 82 77 83 79 84 80 85 81 86
REMARK SMILES IDX 82 87 59 88 60 89 68 90 61 91 63 92 69 93 62 94 64 95 65 96
REMARK SMILES IDX 66 97 67 98
REMARK H PARENT 16 22 89 51 57 62
REMARK Flexibility Score: inf
ROOT
ATOM      1  C   UNL A   1      32.677  30.000  26.236  1.00  0.00     0.274 C 
ENDROOT
BRANCH   1   2
ATOM      2  O   UNL A   1      31.404  30.345  25.657  1.00  0.00    -0.461 OA
BRANCH   2   3
ATOM      3  C   UNL A   1      30.917  29.871  24.480  1.00  0.00     0.327 C 
ATOM      4  O   UNL A   1      29.912  30.386  23.990  1.00  0.00    -0.250 OA
BRANCH   3   5
ATOM      5  C   UNL A   1      31.581  28.687  23.818  1.00  0.00     0.268 C 
BRANCH   5   6
ATOM      6  N   UNL A   1      31.016  27.404  24.173  1.00  0.00    -0.241 N 
ATOM      7  C   UNL A   1      30.892  26.874  25.431  1.00  0.00     0.139 A 
ATOM      8  N   UNL A   1      30.634  26.526  23.235  1.00  0.00    -0.066 NA
ATOM      9  C   UNL A   1      30.287  25.662  25.206  1.00  0.00     0.107 A 
ATOM     10  N   UNL A   1      30.131  25.477  23.862  1.00  0.00    -0.131 NA
BRANCH   9  11
ATOM     11  C   UNL A   1      29.848  24.696  26.159  1.00  0.00     0.055 C 
ATOM     12  C   UNL A   1      30.326  23.444  26.312  1.00  0.00     0.081 C 
ATOM     13  Cl  UNL A   1      29.690  22.403  27.539  1.00  0.00    -0.081 Cl
BRANCH  12  14
ATOM     14  C   UNL A   1      31.468  22.988  25.599  1.00  0.00     0.159 A 
ATOM     15  N   UNL A   1      31.642  21.900  24.872  1.00  0.00    -0.137 NA
ATOM     16  S   UNL A   1      32.847  24.006  25.539  1.00  0.00    -0.086 S 
ATOM     17  N   UNL A   1      32.730  22.024  24.008  1.00  0.00    -0.133 NA
ATOM     18  C   UNL A   1      33.325  23.203  24.115  1.00  0.00     0.206 A 
BRANCH  18  19
ATOM     19  C   UNL A   1      34.289  23.680  23.115  1.00  0.00     0.286 C 
ATOM     20  O   UNL A   1      33.922  24.249  22.077  1.00  0.00    -0.266 OA
ATOM     21  N   UNL A   1      35.678  23.704  23.303  1.00  0.00    -0.320 N 
ATOM     22  H   UNL A   1      36.172  24.204  22.613  1.00  0.00     0.170 HD
BRANCH  21  23
ATOM     23  C   UNL A   1      36.484  23.143  24.300  1.00  0.00     0.041 A 
ATOM     24  C   UNL A   1      36.948  23.876  25.388  1.00  0.00     0.027 A 
ATOM     25  C   UNL A   1      36.828  21.799  24.198  1.00  0.00     0.027 A 
ATOM     26  C   UNL A   1      37.972  23.365  26.191  1.00  0.00     0.022 A 
ATOM     27  C   UNL A   1      37.838  21.273  25.010  1.00  0.00     0.022 A 
ATOM     28  C   UNL A   1      38.454  22.083  25.956  1.00  0.00     0.041 A 
ATOM     29  Cl  UNL A   1      39.836  21.512  26.801  1.00  0.00    -0.084 Cl
ENDBRANCH  21  23
ENDBRANCH  18  19
ENDBRANCH  12  14
ENDBRANCH   9  11
ENDBRANCH   5   6
ENDBRANCH   3   5
ENDBRANCH   2   3
ENDBRANCH   1   2
BRANCH   1  30
ATOM     30  C   UNL A   1      33.409  31.189  26.847  1.00  0.00     0.275 C 
BRANCH  30  31
ATOM     31  O   UNL A   1      32.534  31.857  27.742  1.00  0.00    -0.458 OA
BRANCH  31  32
ATOM     32  C   UNL A   1      32.762  33.188  27.880  1.00  0.00     0.338 C 
ATOM     33  O   UNL A   1      32.074  34.095  27.504  1.00  0.00    -0.246 OA
BRANCH  32  34
ATOM     34  C   UNL A   1      34.049  33.321  28.572  1.00  0.00     0.060 A 
ATOM     35  C   UNL A   1      35.046  33.978  27.858  1.00  0.00     0.016 A 
ATOM     36  C   UNL A   1      34.299  32.616  29.763  1.00  0.00     0.016 A 
ATOM     37  C   UNL A   1      36.343  33.688  28.184  1.00  0.00     0.010 A 
ATOM     38  C   UNL A   1      35.596  32.330  30.090  1.00  0.00     0.010 A 
ATOM     39  C   UNL A   1      36.582  32.780  29.223  1.00  0.00    -0.014 A 
BRANCH  39  40
ATOM     40  C   UNL A   1      37.932  32.308  29.369  1.00  0.00     0.031 A 
ATOM     41  C   UNL A   1      38.068  30.881  29.038  1.00  0.00     0.074 A 
ATOM     42  C   UNL A   1      38.920  33.128  29.766  1.00  0.00     0.049 A 
ATOM     43  N   UNL A   1      38.242  29.901  29.858  1.00  0.00    -0.248 NA
ATOM     44  C   UNL A   1      37.745  30.480  27.663  1.00  0.00     0.031 C 
ATOM     45  C   UNL A   1      38.910  34.593  29.839  1.00  0.00     0.029 A 
ATOM     46  N   UNL A   1      40.204  32.811  30.058  1.00  0.00    -0.354 N 
ATOM     47  C   UNL A   1      38.309  28.774  29.049  1.00  0.00     0.074 A 
ATOM     48  C   UNL A   1      37.757  29.153  27.776  1.00  0.00     0.031 C 
ATOM     49  C   UNL A   1      40.188  35.035  29.896  1.00  0.00     0.029 A 
ATOM     50  C   UNL A   1      41.075  33.889  29.996  1.00  0.00     0.049 A 
ATOM     51  H   UNL A   1      40.493  31.899  30.292  1.00  0.00     0.167 HD
ATOM     52  C   UNL A   1      39.097  27.722  29.391  1.00  0.00     0.034 A 
ATOM     53  C   UNL A   1      42.424  33.807  29.916  1.00  0.00     0.034 A 
ATOM     54  C   UNL A   1      39.423  27.743  30.796  1.00  0.00     0.049 A 
ATOM     55  C   UNL A   1      42.814  32.454  30.386  1.00  0.00     0.074 A 
ATOM     56  C   UNL A   1      38.687  27.735  31.965  1.00  0.00     0.029 A 
ATOM     57  N   UNL A   1      40.679  28.180  31.141  1.00  0.00    -0.354 N 
ATOM     58  N   UNL A   1      42.665  32.050  31.617  1.00  0.00    -0.248 NA
ATOM     59  C   UNL A   1      42.951  31.397  29.395  1.00  0.00     0.031 C 
ATOM     60  C   UNL A   1      39.396  28.592  32.855  1.00  0.00     0.029 A 
ATOM     61  C   UNL A   1      40.551  29.035  32.204  1.00  0.00     0.049 A 
ATOM     62  H   UNL A   1      41.522  27.925  30.702  1.00  0.00     0.167 HD
ATOM     63  C   UNL A   1      42.242  30.730  31.503  1.00  0.00     0.074 A 
ATOM     64  C   UNL A   1      42.548  30.353  30.125  1.00  0.00     0.031 C 
ATOM     65  C   UNL A   1      41.418  30.169  32.438  1.00  0.00     0.034 A 
BRANCH  52  66
ATOM     66  C   UNL A   1      39.907  26.926  28.394  1.00  0.00     0.023 A 
ATOM     67  C   UNL A   1      39.893  25.522  28.534  1.00  0.00     0.012 A 
ATOM     68  C   UNL A   1      40.885  27.471  27.527  1.00  0.00     0.148 A 
ATOM     69  C   UNL A   1      40.842  24.714  27.900  1.00  0.00     0.002 A 
ATOM     70  C   UNL A   1      41.772  26.659  26.835  1.00  0.00     0.091 A 
ATOM     71  F   UNL A   1      41.074  28.790  27.459  1.00  0.00    -0.205 F 
ATOM     72  C   UNL A   1      41.779  25.280  27.045  1.00  0.00     0.022 A 
BRANCH  70  73
ATOM     73  S   UNL A   1      42.968  27.354  25.688  1.00  0.00     0.127 S 
ATOM     74  O   UNL A   1      43.860  28.069  26.596  1.00  0.00    -0.237 OA
ATOM     75  O   UNL A   1      43.533  26.151  25.077  1.00  0.00    -0.237 OA
ATOM     76  O   UNL A   1      42.192  28.178  24.768  1.00  0.00    -0.744 OA
ENDBRANCH  70  73
ENDBRANCH  52  66
BRANCH  53  77
ATOM     77  C   UNL A   1      43.354  34.683  29.166  1.00  0.00     0.023 A 
ATOM     78  C   UNL A   1      43.670  34.379  27.829  1.00  0.00     0.012 A 
ATOM     79  C   UNL A   1      43.720  35.953  29.667  1.00  0.00     0.148 A 
ATOM     80  C   UNL A   1      44.306  35.318  27.008  1.00  0.00     0.002 A 
ATOM     81  C   UNL A   1      44.364  36.879  28.853  1.00  0.00     0.091 A 
ATOM     82  F   UNL A   1      43.354  36.289  30.911  1.00  0.00    -0.205 F 
ATOM     83  C   UNL A   1      44.647  36.569  27.517  1.00  0.00     0.022 A 
BRANCH  81  84
ATOM     84  S   UNL A   1      44.820  38.515  29.442  1.00  0.00     0.127 S 
ATOM     85  O   UNL A   1      45.509  39.074  28.279  1.00  0.00    -0.237 OA
ATOM     86  O   UNL A   1      43.516  39.108  29.726  1.00  0.00    -0.237 OA
ATOM     87  O   UNL A   1      45.681  38.297  30.598  1.00  0.00    -0.744 OA
ENDBRANCH  81  84
ENDBRANCH  53  77
BRANCH  65  88
ATOM     88  C   UNL A   1      41.183  30.929  33.722  1.00  0.00     0.023 A 
ATOM     89  C   UNL A   1      42.062  30.838  34.821  1.00  0.00     0.012 A 
ATOM     90  C   UNL A   1      40.160  31.890  33.750  1.00  0.00     0.148 A 
ATOM     91  C   UNL A   1      41.912  31.675  35.931  1.00  0.00     0.002 A 
ATOM     92  C   UNL A   1      40.042  32.752  34.833  1.00  0.00     0.091 A 
ATOM     93  F   UNL A   1      39.335  31.968  32.694  1.00  0.00    -0.205 F 
ATOM     94  C   UNL A   1      40.910  32.642  35.930  1.00  0.00     0.022 A 
BRANCH  92  95
ATOM     95  S   UNL A   1      38.860  34.103  34.833  1.00  0.00     0.127 S 
ATOM     96  O   UNL A   1      39.247  34.846  36.030  1.00  0.00    -0.237 OA
ATOM     97  O   UNL A   1      39.157  34.780  33.569  1.00  0.00    -0.237 OA
ATOM     98  O   UNL A   1      37.543  33.480  34.877  1.00  0.00    -0.744 OA
ENDBRANCH  92  95
ENDBRANCH  65  88
ENDBRANCH  39  40
ENDBRANCH  32  34
ENDBRANCH  31  32
ENDBRANCH  30  31
ENDBRANCH   1  30
TORSDOF 19
ENDMDL
