MODEL 1
REMARK VINA RESULT:     -11.8      0.000      0.000
REMARK SMILES O=C(CC1CC[NH+](C[C@@H]2Cc3ccccc32)CC1)OCCOC(=O)c1ccc(-c2c3nc(c(-c4cccc(S(=O)(=O)[O-])c4F)c4ccc([nH]4)c(-c4cccc(S(=O)(=O)[O-])c4F)c4nc(c(-c5cccc(S(=O)(=O)[O-])c5F)c5ccc2[nH]5)C=C4)C=C3)cc1
REMARK SMILES IDX 20 1 19 2 2 3 1 4 3 5 4 6 5 7 18 8 6 9 17 10 7 11 8 13 9 14
REMARK SMILES IDX 10 15 16 16 11 17 15 18 12 19 14 20 13 21 21 22 22 23 23 24
REMARK SMILES IDX 24 25 25 26 26 27 87 28 27 29 86 30 28 31 29 32 30 33 80 34
REMARK SMILES IDX 31 35 85 36 79 37 81 38 32 39 84 40 78 41 77 42 33 44 65 45
REMARK SMILES IDX 45 46 64 47 46 48 49 49 63 50 82 51 47 52 48 53 62 55 83 56
REMARK SMILES IDX 50 57 34 58 35 59 43 60 36 61 38 62 44 63 37 64 39 65 40 66
REMARK SMILES IDX 41 67 42 68 66 69 67 70 75 71 68 72 70 73 76 74 69 75 71 76
REMARK SMILES IDX 72 77 73 78 74 79 51 80 52 81 60 82 53 83 55 84 61 85 54 86
REMARK SMILES IDX 56 87 57 88 58 89 59 90
REMARK H PARENT 7 12 81 43 49 54
REMARK Flexibility Score: inf
ROOT
ATOM      1  C   UNL A   1      31.882  30.000  25.446  1.00  0.00     0.274 C 
ENDROOT
BRANCH   1   2
ATOM      2  O   UNL A   1      33.114  29.605  24.865  1.00  0.00    -0.462 OA
BRANCH   2   3
ATOM      3  C   UNL A   1      32.996  28.438  24.159  1.00  0.00     0.306 C 
ATOM      4  O   UNL A   1      33.657  27.443  24.438  1.00  0.00    -0.252 OA
BRANCH   3   5
ATOM      5  C   UNL A   1      32.098  28.510  22.926  1.00  0.00     0.126 C 
BRANCH   5   6
ATOM      6  C   UNL A   1      31.096  27.353  22.611  1.00  0.00     0.011 C 
ATOM      7  C   UNL A   1      30.221  26.898  23.802  1.00  0.00     0.066 C 
ATOM      8  C   UNL A   1      31.635  26.158  21.823  1.00  0.00     0.066 C 
ATOM      9  C   UNL A   1      30.480  25.480  24.370  1.00  0.00     0.262 C 
ATOM     10  C   UNL A   1      32.016  24.887  22.612  1.00  0.00     0.262 C 
ATOM     11  N   UNL A   1      31.804  24.910  24.070  1.00  0.00    -0.334 N 
ATOM     12  H   UNL A   1      32.515  25.512  24.486  1.00  0.00     0.348 HD
BRANCH  11  13
ATOM     13  C   UNL A   1      31.999  23.568  24.695  1.00  0.00     0.270 C 
BRANCH  13  14
ATOM     14  C   UNL A   1      32.850  22.470  23.979  1.00  0.00     0.079 C 
ATOM     15  C   UNL A   1      33.109  21.078  24.685  1.00  0.00     0.050 C 
ATOM     16  C   UNL A   1      34.354  22.568  23.875  1.00  0.00    -0.036 A 
ATOM     17  C   UNL A   1      34.572  21.368  24.513  1.00  0.00    -0.043 A 
ATOM     18  C   UNL A   1      35.407  23.346  23.453  1.00  0.00     0.004 A 
ATOM     19  C   UNL A   1      35.840  20.921  24.840  1.00  0.00     0.004 A 
ATOM     20  C   UNL A   1      36.701  22.942  23.805  1.00  0.00     0.000 A 
ATOM     21  C   UNL A   1      36.916  21.747  24.514  1.00  0.00     0.000 A 
ENDBRANCH  13  14
ENDBRANCH  11  13
ENDBRANCH   5   6
ENDBRANCH   3   5
ENDBRANCH   2   3
ENDBRANCH   1   2
BRANCH   1  22
ATOM     22  C   UNL A   1      31.831  31.056  26.536  1.00  0.00     0.275 C 
BRANCH  22  23
ATOM     23  O   UNL A   1      32.840  30.820  27.485  1.00  0.00    -0.458 OA
BRANCH  23  24
ATOM     24  C   UNL A   1      33.576  31.941  27.633  1.00  0.00     0.338 C 
ATOM     25  O   UNL A   1      33.195  33.090  27.745  1.00  0.00    -0.246 OA
BRANCH  24  26
ATOM     26  C   UNL A   1      34.908  31.456  27.956  1.00  0.00     0.060 A 
ATOM     27  C   UNL A   1      35.055  30.076  28.087  1.00  0.00     0.016 A 
ATOM     28  C   UNL A   1      35.972  32.356  28.087  1.00  0.00     0.016 A 
ATOM     29  C   UNL A   1      36.264  29.594  28.522  1.00  0.00     0.010 A 
ATOM     30  C   UNL A   1      37.191  31.871  28.501  1.00  0.00     0.010 A 
ATOM     31  C   UNL A   1      37.287  30.509  28.805  1.00  0.00    -0.014 A 
BRANCH  31  32
ATOM     32  C   UNL A   1      38.362  30.050  29.674  1.00  0.00     0.031 A 
ATOM     33  C   UNL A   1      39.336  29.066  29.107  1.00  0.00     0.074 A 
ATOM     34  C   UNL A   1      38.465  30.607  30.885  1.00  0.00     0.049 A 
ATOM     35  N   UNL A   1      40.413  28.577  29.650  1.00  0.00    -0.248 NA
ATOM     36  C   UNL A   1      39.068  28.560  27.744  1.00  0.00     0.031 C 
ATOM     37  C   UNL A   1      37.522  31.577  31.448  1.00  0.00     0.029 A 
ATOM     38  N   UNL A   1      39.408  30.440  31.848  1.00  0.00    -0.354 N 
ATOM     39  C   UNL A   1      40.941  27.703  28.708  1.00  0.00     0.074 A 
ATOM     40  C   UNL A   1      40.055  27.696  27.570  1.00  0.00     0.031 C 
ATOM     41  C   UNL A   1      37.935  31.912  32.679  1.00  0.00     0.029 A 
ATOM     42  C   UNL A   1      39.147  31.162  32.983  1.00  0.00     0.049 A 
ATOM     43  H   UNL A   1      40.196  29.860  31.743  1.00  0.00     0.167 HD
ATOM     44  C   UNL A   1      42.086  26.991  28.792  1.00  0.00     0.034 A 
ATOM     45  C   UNL A   1      39.824  31.179  34.143  1.00  0.00     0.034 A 
ATOM     46  C   UNL A   1      42.933  27.039  29.951  1.00  0.00     0.049 A 
ATOM     47  C   UNL A   1      41.086  30.372  34.209  1.00  0.00     0.074 A 
ATOM     48  C   UNL A   1      44.120  26.375  30.185  1.00  0.00     0.029 A 
ATOM     49  N   UNL A   1      42.663  27.801  31.082  1.00  0.00    -0.354 N 
ATOM     50  N   UNL A   1      41.624  29.601  33.290  1.00  0.00    -0.248 NA
ATOM     51  C   UNL A   1      41.860  30.468  35.448  1.00  0.00     0.031 C 
ATOM     52  C   UNL A   1      44.552  26.714  31.472  1.00  0.00     0.029 A 
ATOM     53  C   UNL A   1      43.657  27.621  32.024  1.00  0.00     0.049 A 
ATOM     54  H   UNL A   1      41.878  28.384  31.195  1.00  0.00     0.167 HD
ATOM     55  C   UNL A   1      42.813  29.136  33.828  1.00  0.00     0.074 A 
ATOM     56  C   UNL A   1      42.930  29.747  35.142  1.00  0.00     0.031 C 
ATOM     57  C   UNL A   1      43.723  28.272  33.308  1.00  0.00     0.034 A 
BRANCH  44  58
ATOM     58  C   UNL A   1      42.467  26.132  27.617  1.00  0.00     0.023 A 
ATOM     59  C   UNL A   1      43.263  26.666  26.580  1.00  0.00     0.012 A 
ATOM     60  C   UNL A   1      42.056  24.788  27.543  1.00  0.00     0.148 A 
ATOM     61  C   UNL A   1      43.618  25.887  25.479  1.00  0.00     0.002 A 
ATOM     62  C   UNL A   1      42.450  24.003  26.465  1.00  0.00     0.091 A 
ATOM     63  F   UNL A   1      41.272  24.306  28.518  1.00  0.00    -0.205 F 
ATOM     64  C   UNL A   1      43.221  24.553  25.427  1.00  0.00     0.022 A 
BRANCH  62  65
ATOM     65  S   UNL A   1      42.050  22.257  26.335  1.00  0.00     0.127 S 
ATOM     66  O   UNL A   1      40.595  22.296  26.200  1.00  0.00    -0.237 OA
ATOM     67  O   UNL A   1      42.766  21.870  25.119  1.00  0.00    -0.237 OA
ATOM     68  O   UNL A   1      42.542  21.637  27.557  1.00  0.00    -0.744 OA
ENDBRANCH  62  65
ENDBRANCH  44  58
BRANCH  45  69
ATOM     69  C   UNL A   1      39.317  31.993  35.276  1.00  0.00     0.023 A 
ATOM     70  C   UNL A   1      38.443  31.429  36.220  1.00  0.00     0.012 A 
ATOM     71  C   UNL A   1      39.757  33.321  35.451  1.00  0.00     0.148 A 
ATOM     72  C   UNL A   1      37.985  32.184  37.301  1.00  0.00     0.002 A 
ATOM     73  C   UNL A   1      39.346  34.047  36.559  1.00  0.00     0.091 A 
ATOM     74  F   UNL A   1      40.588  33.841  34.536  1.00  0.00    -0.205 F 
ATOM     75  C   UNL A   1      38.444  33.488  37.477  1.00  0.00     0.022 A 
BRANCH  73  76
ATOM     76  S   UNL A   1      40.006  35.676  36.931  1.00  0.00     0.127 S 
ATOM     77  O   UNL A   1      41.439  35.406  37.010  1.00  0.00    -0.237 OA
ATOM     78  O   UNL A   1      39.588  36.448  35.761  1.00  0.00    -0.237 OA
ATOM     79  O   UNL A   1      39.366  36.084  38.175  1.00  0.00    -0.744 OA
ENDBRANCH  73  76
ENDBRANCH  45  69
BRANCH  57  80
ATOM     80  C   UNL A   1      44.914  27.966  34.171  1.00  0.00     0.023 A 
ATOM     81  C   UNL A   1      46.057  28.787  34.105  1.00  0.00     0.012 A 
ATOM     82  C   UNL A   1      44.885  26.881  35.066  1.00  0.00     0.148 A 
ATOM     83  C   UNL A   1      47.179  28.495  34.876  1.00  0.00     0.002 A 
ATOM     84  C   UNL A   1      45.982  26.634  35.876  1.00  0.00     0.091 A 
ATOM     85  F   UNL A   1      43.791  26.105  35.099  1.00  0.00    -0.205 F 
ATOM     86  C   UNL A   1      47.137  27.426  35.767  1.00  0.00     0.022 A 
BRANCH  84  87
ATOM     87  S   UNL A   1      45.976  25.347  37.127  1.00  0.00     0.127 S 
ATOM     88  O   UNL A   1      44.792  25.699  37.909  1.00  0.00    -0.237 OA
ATOM     89  O   UNL A   1      45.839  24.133  36.321  1.00  0.00    -0.237 OA
ATOM     90  O   UNL A   1      47.248  25.464  37.827  1.00  0.00    -0.744 OA
ENDBRANCH  84  87
ENDBRANCH  57  80
ENDBRANCH  31  32
ENDBRANCH  24  26
ENDBRANCH  23  24
ENDBRANCH  22  23
ENDBRANCH   1  22
TORSDOF 17
ENDMDL
MODEL 2
REMARK VINA RESULT:     -11.8      4.704     10.106
REMARK SMILES O=C(CC1CC[NH+](C[C@@H]2Cc3ccccc32)CC1)OCCOC(=O)c1ccc(-c2c3nc(c(-c4cccc(S(=O)(=O)[O-])c4F)c4ccc([nH]4)c(-c4cccc(S(=O)(=O)[O-])c4F)c4nc(c(-c5cccc(S(=O)(=O)[O-])c5F)c5ccc2[nH]5)C=C4)C=C3)cc1
REMARK SMILES IDX 20 1 19 2 2 3 1 4 3 5 4 6 5 7 18 8 6 9 17 10 7 11 8 13 9 14
REMARK SMILES IDX 10 15 16 16 11 17 15 18 12 19 14 20 13 21 21 22 22 23 23 24
REMARK SMILES IDX 24 25 25 26 26 27 87 28 27 29 86 30 28 31 29 32 30 33 80 34
REMARK SMILES IDX 31 35 85 36 79 37 81 38 32 39 84 40 78 41 77 42 33 44 65 45
REMARK SMILES IDX 45 46 64 47 46 48 49 49 63 50 82 51 47 52 48 53 62 55 83 56
REMARK SMILES IDX 50 57 34 58 35 59 43 60 36 61 38 62 44 63 37 64 39 65 40 66
REMARK SMILES IDX 41 67 42 68 66 69 67 70 75 71 68 72 70 73 76 74 69 75 71 76
REMARK SMILES IDX 72 77 73 78 74 79 51 80 52 81 60 82 53 83 55 84 61 85 54 86
REMARK SMILES IDX 56 87 57 88 58 89 59 90
REMARK H PARENT 7 12 81 43 49 54
REMARK Flexibility Score: inf
ROOT
ATOM      1  C   UNL A   1      36.088  21.073  25.282  1.00  0.00     0.274 C 
ENDROOT
BRANCH   1   2
ATOM      2  O   UNL A   1      34.980  20.259  24.933  1.00  0.00    -0.462 OA
BRANCH   2   3
ATOM      3  C   UNL A   1      33.865  21.004  24.659  1.00  0.00     0.306 C 
ATOM      4  O   UNL A   1      33.819  21.776  23.707  1.00  0.00    -0.252 OA
BRANCH   3   5
ATOM      5  C   UNL A   1      32.748  20.911  25.698  1.00  0.00     0.126 C 
BRANCH   5   6
ATOM      6  C   UNL A   1      32.191  22.204  26.374  1.00  0.00     0.011 C 
ATOM      7  C   UNL A   1      30.869  22.742  25.777  1.00  0.00     0.066 C 
ATOM      8  C   UNL A   1      33.184  23.335  26.644  1.00  0.00     0.066 C 
ATOM      9  C   UNL A   1      30.932  24.093  25.022  1.00  0.00     0.262 C 
ATOM     10  C   UNL A   1      33.217  24.518  25.652  1.00  0.00     0.262 C 
ATOM     11  N   UNL A   1      32.264  24.482  24.530  1.00  0.00    -0.334 N 
ATOM     12  H   UNL A   1      32.580  23.777  23.865  1.00  0.00     0.348 HD
BRANCH  11  13
ATOM     13  C   UNL A   1      32.235  25.766  23.767  1.00  0.00     0.270 C 
BRANCH  13  14
ATOM     14  C   UNL A   1      31.262  26.917  24.179  1.00  0.00     0.079 C 
ATOM     15  C   UNL A   1      31.393  28.346  23.511  1.00  0.00     0.050 C 
ATOM     16  C   UNL A   1      31.401  27.646  25.495  1.00  0.00    -0.036 A 
ATOM     17  C   UNL A   1      31.540  28.882  24.906  1.00  0.00    -0.043 A 
ATOM     18  C   UNL A   1      31.457  27.503  26.862  1.00  0.00     0.004 A 
ATOM     19  C   UNL A   1      31.826  30.023  25.634  1.00  0.00     0.004 A 
ATOM     20  C   UNL A   1      31.787  28.631  27.624  1.00  0.00     0.000 A 
ATOM     21  C   UNL A   1      31.991  29.880  27.012  1.00  0.00     0.000 A 
ENDBRANCH  13  14
ENDBRANCH  11  13
ENDBRANCH   5   6
ENDBRANCH   3   5
ENDBRANCH   2   3
ENDBRANCH   1   2
BRANCH   1  22
ATOM     22  C   UNL A   1      37.506  20.660  24.933  1.00  0.00     0.275 C 
BRANCH  22  23
ATOM     23  O   UNL A   1      38.390  21.728  25.160  1.00  0.00    -0.458 OA
BRANCH  23  24
ATOM     24  C   UNL A   1      39.298  21.359  26.088  1.00  0.00     0.338 C 
ATOM     25  O   UNL A   1      39.886  20.301  26.196  1.00  0.00    -0.246 OA
BRANCH  24  26
ATOM     26  C   UNL A   1      39.667  22.603  26.744  1.00  0.00     0.060 A 
ATOM     27  C   UNL A   1      38.926  23.733  26.402  1.00  0.00     0.016 A 
ATOM     28  C   UNL A   1      40.696  22.619  27.693  1.00  0.00     0.016 A 
ATOM     29  C   UNL A   1      39.331  24.946  26.899  1.00  0.00     0.010 A 
ATOM     30  C   UNL A   1      41.089  23.833  28.209  1.00  0.00     0.010 A 
ATOM     31  C   UNL A   1      40.461  24.986  27.727  1.00  0.00    -0.014 A 
BRANCH  31  32
ATOM     32  C   UNL A   1      41.136  26.270  27.863  1.00  0.00     0.031 A 
ATOM     33  C   UNL A   1      40.406  27.360  28.583  1.00  0.00     0.074 A 
ATOM     34  C   UNL A   1      42.395  26.363  27.423  1.00  0.00     0.049 A 
ATOM     35  N   UNL A   1      40.823  28.552  28.900  1.00  0.00    -0.248 NA
ATOM     36  C   UNL A   1      39.018  27.077  29.006  1.00  0.00     0.031 C 
ATOM     37  C   UNL A   1      43.122  25.301  26.723  1.00  0.00     0.029 A 
ATOM     38  N   UNL A   1      43.277  27.392  27.504  1.00  0.00    -0.354 N 
ATOM     39  C   UNL A   1      39.754  29.161  29.544  1.00  0.00     0.074 A 
ATOM     40  C   UNL A   1      38.654  28.229  29.547  1.00  0.00     0.031 C 
ATOM     41  C   UNL A   1      44.352  25.746  26.427  1.00  0.00     0.029 A 
ATOM     42  C   UNL A   1      44.474  27.120  26.894  1.00  0.00     0.049 A 
ATOM     43  H   UNL A   1      43.079  28.245  27.954  1.00  0.00     0.167 HD
ATOM     44  C   UNL A   1      39.719  30.390  30.103  1.00  0.00     0.034 A 
ATOM     45  C   UNL A   1      45.534  27.927  26.727  1.00  0.00     0.034 A 
ATOM     46  C   UNL A   1      40.848  31.277  30.072  1.00  0.00     0.049 A 
ATOM     47  C   UNL A   1      45.462  29.289  27.352  1.00  0.00     0.074 A 
ATOM     48  C   UNL A   1      40.964  32.550  30.592  1.00  0.00     0.029 A 
ATOM     49  N   UNL A   1      42.063  30.971  29.471  1.00  0.00    -0.354 N 
ATOM     50  N   UNL A   1      44.476  29.838  28.025  1.00  0.00    -0.248 NA
ATOM     51  C   UNL A   1      46.658  30.126  27.237  1.00  0.00     0.031 C 
ATOM     52  C   UNL A   1      42.242  33.025  30.277  1.00  0.00     0.029 A 
ATOM     53  C   UNL A   1      42.937  32.032  29.600  1.00  0.00     0.049 A 
ATOM     54  H   UNL A   1      42.271  30.120  29.021  1.00  0.00     0.167 HD
ATOM     55  C   UNL A   1      44.937  31.079  28.435  1.00  0.00     0.074 A 
ATOM     56  C   UNL A   1      46.309  31.178  27.964  1.00  0.00     0.031 C 
ATOM     57  C   UNL A   1      44.297  32.061  29.121  1.00  0.00     0.034 A 
BRANCH  44  58
ATOM     58  C   UNL A   1      38.444  30.819  30.779  1.00  0.00     0.023 A 
ATOM     59  C   UNL A   1      38.239  30.531  32.146  1.00  0.00     0.012 A 
ATOM     60  C   UNL A   1      37.453  31.522  30.070  1.00  0.00     0.148 A 
ATOM     61  C   UNL A   1      37.060  30.912  32.787  1.00  0.00     0.002 A 
ATOM     62  C   UNL A   1      36.299  31.939  30.725  1.00  0.00     0.091 A 
ATOM     63  F   UNL A   1      37.647  31.756  28.765  1.00  0.00    -0.205 F 
ATOM     64  C   UNL A   1      36.096  31.625  32.079  1.00  0.00     0.022 A 
BRANCH  62  65
ATOM     65  S   UNL A   1      35.026  32.920  29.923  1.00  0.00     0.127 S 
ATOM     66  O   UNL A   1      35.798  34.059  29.427  1.00  0.00    -0.237 OA
ATOM     67  O   UNL A   1      34.548  32.008  28.885  1.00  0.00    -0.237 OA
ATOM     68  O   UNL A   1      34.050  33.237  30.956  1.00  0.00    -0.744 OA
ENDBRANCH  62  65
ENDBRANCH  44  58
BRANCH  45  69
ATOM     69  C   UNL A   1      46.713  27.441  25.967  1.00  0.00     0.023 A 
ATOM     70  C   UNL A   1      46.828  27.704  24.592  1.00  0.00     0.012 A 
ATOM     71  C   UNL A   1      47.757  26.764  26.630  1.00  0.00     0.148 A 
ATOM     72  C   UNL A   1      47.948  27.270  23.880  1.00  0.00     0.002 A 
ATOM     73  C   UNL A   1      48.894  26.389  25.930  1.00  0.00     0.091 A 
ATOM     74  F   UNL A   1      47.625  26.520  27.942  1.00  0.00    -0.205 F 
ATOM     75  C   UNL A   1      48.985  26.623  24.550  1.00  0.00     0.022 A 
BRANCH  73  76
ATOM     76  S   UNL A   1      50.329  25.684  26.748  1.00  0.00     0.127 S 
ATOM     77  O   UNL A   1      50.654  26.719  27.725  1.00  0.00    -0.237 OA
ATOM     78  O   UNL A   1      49.782  24.451  27.315  1.00  0.00    -0.237 OA
ATOM     79  O   UNL A   1      51.315  25.470  25.696  1.00  0.00    -0.744 OA
ENDBRANCH  73  76
ENDBRANCH  45  69
BRANCH  57  80
ATOM     80  C   UNL A   1      45.094  33.304  29.398  1.00  0.00     0.023 A 
ATOM     81  C   UNL A   1      45.872  33.391  30.569  1.00  0.00     0.012 A 
ATOM     82  C   UNL A   1      45.091  34.370  28.480  1.00  0.00     0.148 A 
ATOM     83  C   UNL A   1      46.589  34.549  30.853  1.00  0.00     0.002 A 
ATOM     84  C   UNL A   1      45.859  35.496  28.740  1.00  0.00     0.091 A 
ATOM     85  F   UNL A   1      44.331  34.270  27.380  1.00  0.00    -0.205 F 
ATOM     86  C   UNL A   1      46.591  35.596  29.934  1.00  0.00     0.022 A 
BRANCH  84  87
ATOM     87  S   UNL A   1      46.005  36.844  27.564  1.00  0.00     0.127 S 
ATOM     88  O   UNL A   1      46.515  36.152  26.382  1.00  0.00    -0.237 OA
ATOM     89  O   UNL A   1      44.622  37.308  27.453  1.00  0.00    -0.237 OA
ATOM     90  O   UNL A   1      46.916  37.805  28.170  1.00  0.00    -0.744 OA
ENDBRANCH  84  87
ENDBRANCH  57  80
ENDBRANCH  31  32
ENDBRANCH  24  26
ENDBRANCH  23  24
ENDBRANCH  22  23
ENDBRANCH   1  22
TORSDOF 17
ENDMDL
MODEL 3
REMARK VINA RESULT:     -11.8      0.821      7.990
REMARK SMILES O=C(CC1CC[NH+](C[C@@H]2Cc3ccccc32)CC1)OCCOC(=O)c1ccc(-c2c3nc(c(-c4cccc(S(=O)(=O)[O-])c4F)c4ccc([nH]4)c(-c4cccc(S(=O)(=O)[O-])c4F)c4nc(c(-c5cccc(S(=O)(=O)[O-])c5F)c5ccc2[nH]5)C=C4)C=C3)cc1
REMARK SMILES IDX 20 1 19 2 2 3 1 4 3 5 4 6 5 7 18 8 6 9 17 10 7 11 8 13 9 14
REMARK SMILES IDX 10 15 16 16 11 17 15 18 12 19 14 20 13 21 21 22 22 23 23 24
REMARK SMILES IDX 24 25 25 26 26 27 87 28 27 29 86 30 28 31 29 32 30 33 80 34
REMARK SMILES IDX 31 35 85 36 79 37 81 38 32 39 84 40 78 41 77 42 33 44 65 45
REMARK SMILES IDX 45 46 64 47 46 48 49 49 63 50 82 51 47 52 48 53 62 55 83 56
REMARK SMILES IDX 50 57 34 58 35 59 43 60 36 61 38 62 44 63 37 64 39 65 40 66
REMARK SMILES IDX 41 67 42 68 66 69 67 70 75 71 68 72 70 73 76 74 69 75 71 76
REMARK SMILES IDX 72 77 73 78 74 79 51 80 52 81 60 82 53 83 55 84 61 85 54 86
REMARK SMILES IDX 56 87 57 88 58 89 59 90
REMARK H PARENT 7 12 81 43 49 54
REMARK Flexibility Score: inf
ROOT
ATOM      1  C   UNL A   1      31.792  29.900  25.797  1.00  0.00     0.274 C 
ENDROOT
BRANCH   1   2
ATOM      2  O   UNL A   1      32.387  28.674  26.192  1.00  0.00    -0.462 OA
BRANCH   2   3
ATOM      3  C   UNL A   1      32.457  27.782  25.157  1.00  0.00     0.306 C 
ATOM      4  O   UNL A   1      33.489  27.172  24.896  1.00  0.00    -0.252 OA
BRANCH   3   5
ATOM      5  C   UNL A   1      31.214  27.711  24.272  1.00  0.00     0.126 C 
BRANCH   5   6
ATOM      6  C   UNL A   1      30.300  26.444  24.297  1.00  0.00     0.011 C 
ATOM      7  C   UNL A   1      29.926  25.930  25.706  1.00  0.00     0.066 C 
ATOM      8  C   UNL A   1      30.676  25.293  23.362  1.00  0.00     0.066 C 
ATOM      9  C   UNL A   1      30.515  24.564  26.141  1.00  0.00     0.262 C 
ATOM     10  C   UNL A   1      31.437  24.093  23.967  1.00  0.00     0.262 C 
ATOM     11  N   UNL A   1      31.720  24.133  25.412  1.00  0.00    -0.334 N 
ATOM     12  H   UNL A   1      32.457  24.819  25.574  1.00  0.00     0.348 HD
BRANCH  11  13
ATOM     13  C   UNL A   1      32.260  22.838  25.922  1.00  0.00     0.270 C 
BRANCH  13  14
ATOM     14  C   UNL A   1      33.031  21.865  24.973  1.00  0.00     0.079 C 
ATOM     15  C   UNL A   1      33.626  20.511  25.535  1.00  0.00     0.050 C 
ATOM     16  C   UNL A   1      34.437  22.155  24.505  1.00  0.00    -0.036 A 
ATOM     17  C   UNL A   1      34.953  20.987  25.018  1.00  0.00    -0.043 A 
ATOM     18  C   UNL A   1      35.248  23.066  23.868  1.00  0.00     0.004 A 
ATOM     19  C   UNL A   1      36.307  20.704  25.003  1.00  0.00     0.004 A 
ATOM     20  C   UNL A   1      36.628  22.828  23.871  1.00  0.00     0.000 A 
ATOM     21  C   UNL A   1      37.157  21.664  24.455  1.00  0.00     0.000 A 
ENDBRANCH  13  14
ENDBRANCH  11  13
ENDBRANCH   5   6
ENDBRANCH   3   5
ENDBRANCH   2   3
ENDBRANCH   1   2
BRANCH   1  22
ATOM     22  C   UNL A   1      31.976  31.163  26.619  1.00  0.00     0.275 C 
BRANCH  22  23
ATOM     23  O   UNL A   1      32.936  30.951  27.623  1.00  0.00    -0.458 OA
BRANCH  23  24
ATOM     24  C   UNL A   1      33.655  32.081  27.790  1.00  0.00     0.338 C 
ATOM     25  O   UNL A   1      33.257  33.209  28.001  1.00  0.00    -0.246 OA
BRANCH  24  26
ATOM     26  C   UNL A   1      35.017  31.613  27.987  1.00  0.00     0.060 A 
ATOM     27  C   UNL A   1      35.203  30.232  28.040  1.00  0.00     0.016 A 
ATOM     28  C   UNL A   1      36.070  32.532  28.079  1.00  0.00     0.016 A 
ATOM     29  C   UNL A   1      36.450  29.760  28.358  1.00  0.00     0.010 A 
ATOM     30  C   UNL A   1      37.326  32.057  28.376  1.00  0.00     0.010 A 
ATOM     31  C   UNL A   1      37.473  30.685  28.605  1.00  0.00    -0.014 A 
BRANCH  31  32
ATOM     32  C   UNL A   1      38.622  30.212  29.368  1.00  0.00     0.031 A 
ATOM     33  C   UNL A   1      38.749  30.679  30.784  1.00  0.00     0.074 A 
ATOM     34  C   UNL A   1      39.431  29.321  28.787  1.00  0.00     0.049 A 
ATOM     35  N   UNL A   1      39.628  30.336  31.681  1.00  0.00    -0.248 NA
ATOM     36  C   UNL A   1      37.756  31.664  31.262  1.00  0.00     0.031 C 
ATOM     37  C   UNL A   1      39.312  28.852  27.404  1.00  0.00     0.029 A 
ATOM     38  N   UNL A   1      40.503  28.655  29.289  1.00  0.00    -0.354 N 
ATOM     39  C   UNL A   1      39.305  31.066  32.818  1.00  0.00     0.074 A 
ATOM     40  C   UNL A   1      38.172  31.899  32.496  1.00  0.00     0.031 C 
ATOM     41  C   UNL A   1      40.294  27.971  27.164  1.00  0.00     0.029 A 
ATOM     42  C   UNL A   1      41.109  27.845  28.365  1.00  0.00     0.049 A 
ATOM     43  H   UNL A   1      40.813  28.744  30.219  1.00  0.00     0.167 HD
ATOM     44  C   UNL A   1      39.900  31.016  34.029  1.00  0.00     0.034 A 
ATOM     45  C   UNL A   1      42.221  27.104  28.497  1.00  0.00     0.034 A 
ATOM     46  C   UNL A   1      41.026  30.164  34.293  1.00  0.00     0.049 A 
ATOM     47  C   UNL A   1      42.865  27.074  29.852  1.00  0.00     0.074 A 
ATOM     48  C   UNL A   1      41.735  30.004  35.466  1.00  0.00     0.029 A 
ATOM     49  N   UNL A   1      41.609  29.328  33.347  1.00  0.00    -0.354 N 
ATOM     50  N   UNL A   1      42.515  27.710  30.948  1.00  0.00    -0.248 NA
ATOM     51  C   UNL A   1      44.026  26.195  30.006  1.00  0.00     0.031 C 
ATOM     52  C   UNL A   1      42.768  29.093  35.219  1.00  0.00     0.029 A 
ATOM     53  C   UNL A   1      42.676  28.652  33.905  1.00  0.00     0.049 A 
ATOM     54  H   UNL A   1      41.304  29.231  32.416  1.00  0.00     0.167 HD
ATOM     55  C   UNL A   1      43.397  27.293  31.931  1.00  0.00     0.074 A 
ATOM     56  C   UNL A   1      44.274  26.318  31.303  1.00  0.00     0.031 C 
ATOM     57  C   UNL A   1      43.499  27.681  33.229  1.00  0.00     0.034 A 
BRANCH  44  58
ATOM     58  C   UNL A   1      39.343  31.886  35.123  1.00  0.00     0.023 A 
ATOM     59  C   UNL A   1      38.316  31.398  35.960  1.00  0.00     0.012 A 
ATOM     60  C   UNL A   1      39.845  33.183  35.338  1.00  0.00     0.148 A 
ATOM     61  C   UNL A   1      37.782  32.195  36.973  1.00  0.00     0.002 A 
ATOM     62  C   UNL A   1      39.340  33.956  36.377  1.00  0.00     0.091 A 
ATOM     63  F   UNL A   1      40.795  33.645  34.513  1.00  0.00    -0.205 F 
ATOM     64  C   UNL A   1      38.301  33.468  37.188  1.00  0.00     0.022 A 
BRANCH  62  65
ATOM     65  S   UNL A   1      39.984  35.583  36.783  1.00  0.00     0.127 S 
ATOM     66  O   UNL A   1      39.270  35.884  38.023  1.00  0.00    -0.237 OA
ATOM     67  O   UNL A   1      41.411  35.312  36.950  1.00  0.00    -0.237 OA
ATOM     68  O   UNL A   1      39.652  36.441  35.654  1.00  0.00    -0.744 OA
ENDBRANCH  62  65
ENDBRANCH  44  58
BRANCH  45  69
ATOM     69  C   UNL A   1      42.742  26.347  27.332  1.00  0.00     0.023 A 
ATOM     70  C   UNL A   1      43.668  26.941  26.457  1.00  0.00     0.012 A 
ATOM     71  C   UNL A   1      42.361  25.005  27.126  1.00  0.00     0.148 A 
ATOM     72  C   UNL A   1      44.179  26.223  25.374  1.00  0.00     0.002 A 
ATOM     73  C   UNL A   1      42.918  24.279  26.084  1.00  0.00     0.091 A 
ATOM     74  F   UNL A   1      41.474  24.460  27.971  1.00  0.00    -0.205 F 
ATOM     75  C   UNL A   1      43.813  24.890  25.194  1.00  0.00     0.022 A 
BRANCH  73  76
ATOM     76  S   UNL A   1      42.609  22.522  25.875  1.00  0.00     0.127 S 
ATOM     77  O   UNL A   1      41.153  22.483  25.788  1.00  0.00    -0.237 OA
ATOM     78  O   UNL A   1      43.310  22.237  24.622  1.00  0.00    -0.237 OA
ATOM     79  O   UNL A   1      43.194  21.879  27.044  1.00  0.00    -0.744 OA
ENDBRANCH  73  76
ENDBRANCH  45  69
BRANCH  57  80
ATOM     80  C   UNL A   1      44.590  27.030  34.032  1.00  0.00     0.023 A 
ATOM     81  C   UNL A   1      45.872  27.610  34.072  1.00  0.00     0.012 A 
ATOM     82  C   UNL A   1      44.329  25.858  34.766  1.00  0.00     0.148 A 
ATOM     83  C   UNL A   1      46.899  26.999  34.786  1.00  0.00     0.002 A 
ATOM     84  C   UNL A   1      45.341  25.290  35.525  1.00  0.00     0.091 A 
ATOM     85  F   UNL A   1      43.104  25.316  34.699  1.00  0.00    -0.205 F 
ATOM     86  C   UNL A   1      46.631  25.846  35.520  1.00  0.00     0.022 A 
BRANCH  84  87
ATOM     87  S   UNL A   1      45.057  23.869  36.584  1.00  0.00     0.127 S 
ATOM     88  O   UNL A   1      46.422  23.416  36.845  1.00  0.00    -0.237 OA
ATOM     89  O   UNL A   1      44.382  24.472  37.735  1.00  0.00    -0.237 OA
ATOM     90  O   UNL A   1      44.228  22.954  35.812  1.00  0.00    -0.744 OA
ENDBRANCH  84  87
ENDBRANCH  57  80
ENDBRANCH  31  32
ENDBRANCH  24  26
ENDBRANCH  23  24
ENDBRANCH  22  23
ENDBRANCH   1  22
TORSDOF 17
ENDMDL
