MODEL 1
REMARK VINA RESULT:     -12.4      0.000      0.000
REMARK SMILES Cc1cccc(O[C@H](C)C(=O)N2CCC[C@@H](C(=O)OCCOC(=O)c3ccc(-c4c5nc(c(-c6cccc(S(=O)(=O)[O-])c6F)c6ccc([nH]6)c(-c6cccc(S(=O)(=O)[O-])c6F)c6nc(c(-c7cccc(S(=O)(=O)[O-])c7F)c7ccc4[nH]7)C=C6)C=C5)cc3)C2)c1
REMARK SMILES IDX 20 1 19 2 17 3 18 4 16 5 12 6 13 7 88 8 14 9 15 10 10 11
REMARK SMILES IDX 11 12 8 13 9 14 7 15 6 16 1 17 2 18 3 19 89 20 4 21 5 22
REMARK SMILES IDX 21 23 22 24 23 25 24 26 25 27 26 28 87 29 27 30 86 31 28 32
REMARK SMILES IDX 29 33 30 34 80 35 31 36 85 37 79 38 81 39 32 40 84 41 78 42
REMARK SMILES IDX 77 43 33 45 65 46 45 47 64 48 46 49 49 50 63 51 82 52 47 53
REMARK SMILES IDX 48 54 62 56 83 57 50 58 34 59 35 60 43 61 36 62 38 63 44 64
REMARK SMILES IDX 37 65 39 66 40 67 41 68 42 69 66 70 67 71 75 72 68 73 70 74
REMARK SMILES IDX 76 75 69 76 71 77 72 78 73 79 74 80 51 81 52 82 60 83 53 84
REMARK SMILES IDX 55 85 61 86 54 87 56 88 57 89 58 90 59 91
REMARK H PARENT 81 44 49 55
REMARK Flexibility Score: inf
ROOT
ATOM      1  C   UNL A   1      32.746  29.666  26.737  1.00  0.00     0.274 C 
ENDROOT
BRANCH   1   2
ATOM      2  O   UNL A   1      31.796  28.827  26.055  1.00  0.00    -0.462 OA
BRANCH   2   3
ATOM      3  C   UNL A   1      31.510  27.655  26.629  1.00  0.00     0.310 C 
ATOM      4  O   UNL A   1      31.154  27.554  27.799  1.00  0.00    -0.252 OA
BRANCH   3   5
ATOM      5  C   UNL A   1      31.414  26.457  25.749  1.00  0.00     0.119 C 
ATOM      6  N   UNL A   1      32.759  25.795  23.914  1.00  0.00    -0.339 N 
ATOM      7  C   UNL A   1      32.100  24.482  23.788  1.00  0.00     0.119 C 
ATOM      8  C   UNL A   1      32.830  26.259  25.265  1.00  0.00     0.134 C 
ATOM      9  C   UNL A   1      30.819  24.335  24.664  1.00  0.00     0.022 C 
ATOM     10  C   UNL A   1      30.862  25.074  26.034  1.00  0.00     0.019 C 
BRANCH   6  11
ATOM     11  C   UNL A   1      33.142  26.570  22.833  1.00  0.00     0.263 C 
ATOM     12  O   UNL A   1      33.597  26.033  21.813  1.00  0.00    -0.271 OA
BRANCH  11  13
ATOM     13  C   UNL A   1      32.947  28.161  22.830  1.00  0.00     0.259 C 
ATOM     14  C   UNL A   1      34.263  28.945  22.910  1.00  0.00     0.064 C 
BRANCH  13  15
ATOM     15  O   UNL A   1      31.909  28.905  22.178  1.00  0.00    -0.481 OA
BRANCH  15  16
ATOM     16  C   UNL A   1      30.616  28.827  22.603  1.00  0.00     0.120 A 
ATOM     17  C   UNL A   1      27.704  31.250  23.044  1.00  0.00     0.044 C 
ATOM     18  C   UNL A   1      28.520  29.992  23.023  1.00  0.00    -0.047 A 
ATOM     19  C   UNL A   1      27.912  28.775  23.346  1.00  0.00     0.003 A 
ATOM     20  C   UNL A   1      29.879  30.010  22.666  1.00  0.00     0.049 A 
ATOM     21  C   UNL A   1      28.628  27.587  23.229  1.00  0.00     0.004 A 
ATOM     22  C   UNL A   1      29.967  27.609  22.828  1.00  0.00     0.046 A 
ENDBRANCH  15  16
ENDBRANCH  13  15
ENDBRANCH  11  13
ENDBRANCH   6  11
ENDBRANCH   3   5
ENDBRANCH   2   3
ENDBRANCH   1   2
BRANCH   1  23
ATOM     23  C   UNL A   1      34.228  29.248  27.031  1.00  0.00     0.275 C 
BRANCH  23  24
ATOM     24  O   UNL A   1      35.124  29.837  28.041  1.00  0.00    -0.458 OA
BRANCH  24  25
ATOM     25  C   UNL A   1      36.295  30.512  27.932  1.00  0.00     0.338 C 
ATOM     26  O   UNL A   1      36.377  31.726  27.806  1.00  0.00    -0.246 OA
BRANCH  25  27
ATOM     27  C   UNL A   1      37.468  29.655  27.888  1.00  0.00     0.060 A 
ATOM     28  C   UNL A   1      38.316  29.636  26.771  1.00  0.00     0.016 A 
ATOM     29  C   UNL A   1      37.786  29.022  29.084  1.00  0.00     0.016 A 
ATOM     30  C   UNL A   1      39.581  29.074  26.901  1.00  0.00     0.010 A 
ATOM     31  C   UNL A   1      39.067  28.574  29.247  1.00  0.00     0.010 A 
ATOM     32  C   UNL A   1      39.954  28.572  28.151  1.00  0.00    -0.014 A 
BRANCH  32  33
ATOM     33  C   UNL A   1      41.035  27.617  28.321  1.00  0.00     0.031 A 
ATOM     34  C   UNL A   1      40.901  26.164  28.167  1.00  0.00     0.074 A 
ATOM     35  C   UNL A   1      42.198  28.260  28.570  1.00  0.00     0.049 A 
ATOM     36  N   UNL A   1      41.703  25.329  28.730  1.00  0.00    -0.248 NA
ATOM     37  C   UNL A   1      39.845  25.518  27.391  1.00  0.00     0.031 C 
ATOM     38  C   UNL A   1      43.569  27.802  28.534  1.00  0.00     0.029 A 
ATOM     39  N   UNL A   1      42.288  29.564  29.097  1.00  0.00    -0.354 N 
ATOM     40  C   UNL A   1      41.456  24.082  28.191  1.00  0.00     0.074 A 
ATOM     41  C   UNL A   1      40.234  24.235  27.433  1.00  0.00     0.031 C 
ATOM     42  C   UNL A   1      44.307  28.660  29.269  1.00  0.00     0.029 A 
ATOM     43  C   UNL A   1      43.375  29.564  29.949  1.00  0.00     0.049 A 
ATOM     44  H   UNL A   1      41.693  30.323  28.896  1.00  0.00     0.167 HD
ATOM     45  C   UNL A   1      42.420  23.121  28.294  1.00  0.00     0.034 A 
ATOM     46  C   UNL A   1      43.206  29.707  31.298  1.00  0.00     0.034 A 
ATOM     47  C   UNL A   1      43.573  23.640  29.040  1.00  0.00     0.049 A 
ATOM     48  C   UNL A   1      43.803  28.534  32.025  1.00  0.00     0.074 A 
ATOM     49  C   UNL A   1      44.714  24.291  28.598  1.00  0.00     0.029 A 
ATOM     50  N   UNL A   1      43.499  23.854  30.412  1.00  0.00    -0.354 N 
ATOM     51  N   UNL A   1      43.911  27.345  31.507  1.00  0.00    -0.248 NA
ATOM     52  C   UNL A   1      44.305  28.618  33.388  1.00  0.00     0.031 C 
ATOM     53  C   UNL A   1      45.272  24.988  29.694  1.00  0.00     0.029 A 
ATOM     54  C   UNL A   1      44.493  24.736  30.811  1.00  0.00     0.049 A 
ATOM     55  H   UNL A   1      42.837  23.442  31.013  1.00  0.00     0.167 HD
ATOM     56  C   UNL A   1      44.448  26.504  32.433  1.00  0.00     0.074 A 
ATOM     57  C   UNL A   1      44.708  27.352  33.586  1.00  0.00     0.031 C 
ATOM     58  C   UNL A   1      44.604  25.170  32.195  1.00  0.00     0.034 A 
BRANCH  45  59
ATOM     59  C   UNL A   1      42.521  21.906  27.381  1.00  0.00     0.023 A 
ATOM     60  C   UNL A   1      41.658  20.820  27.669  1.00  0.00     0.012 A 
ATOM     61  C   UNL A   1      43.434  21.711  26.322  1.00  0.00     0.148 A 
ATOM     62  C   UNL A   1      41.769  19.576  27.044  1.00  0.00     0.002 A 
ATOM     63  C   UNL A   1      43.577  20.450  25.723  1.00  0.00     0.091 A 
ATOM     64  F   UNL A   1      44.134  22.753  25.858  1.00  0.00    -0.205 F 
ATOM     65  C   UNL A   1      42.754  19.379  26.093  1.00  0.00     0.022 A 
BRANCH  63  66
ATOM     66  S   UNL A   1      44.862  20.071  24.518  1.00  0.00     0.127 S 
ATOM     67  O   UNL A   1      44.669  21.127  23.520  1.00  0.00    -0.237 OA
ATOM     68  O   UNL A   1      46.084  20.201  25.309  1.00  0.00    -0.237 OA
ATOM     69  O   UNL A   1      44.570  18.729  24.028  1.00  0.00    -0.744 OA
ENDBRANCH  63  66
ENDBRANCH  45  59
BRANCH  46  70
ATOM     70  C   UNL A   1      41.947  30.394  31.772  1.00  0.00     0.023 A 
ATOM     71  C   UNL A   1      41.725  31.746  31.408  1.00  0.00     0.012 A 
ATOM     72  C   UNL A   1      40.872  29.685  32.344  1.00  0.00     0.148 A 
ATOM     73  C   UNL A   1      40.467  32.346  31.547  1.00  0.00     0.002 A 
ATOM     74  C   UNL A   1      39.616  30.287  32.471  1.00  0.00     0.091 A 
ATOM     75  F   UNL A   1      41.059  28.416  32.728  1.00  0.00    -0.205 F 
ATOM     76  C   UNL A   1      39.408  31.613  32.070  1.00  0.00     0.022 A 
BRANCH  74  77
ATOM     77  S   UNL A   1      38.192  29.319  32.998  1.00  0.00     0.127 S 
ATOM     78  O   UNL A   1      38.091  29.632  34.425  1.00  0.00    -0.237 OA
ATOM     79  O   UNL A   1      37.092  29.858  32.209  1.00  0.00    -0.237 OA
ATOM     80  O   UNL A   1      38.623  27.959  32.694  1.00  0.00    -0.744 OA
ENDBRANCH  74  77
ENDBRANCH  46  70
BRANCH  58  81
ATOM     81  C   UNL A   1      44.925  24.172  33.269  1.00  0.00     0.023 A 
ATOM     82  C   UNL A   1      44.015  23.155  33.617  1.00  0.00     0.012 A 
ATOM     83  C   UNL A   1      46.212  24.123  33.849  1.00  0.00     0.148 A 
ATOM     84  C   UNL A   1      44.336  22.178  34.559  1.00  0.00     0.002 A 
ATOM     85  C   UNL A   1      46.563  23.086  34.704  1.00  0.00     0.091 A 
ATOM     86  F   UNL A   1      47.104  25.092  33.585  1.00  0.00    -0.205 F 
ATOM     87  C   UNL A   1      45.619  22.130  35.089  1.00  0.00     0.022 A 
BRANCH  85  88
ATOM     88  S   UNL A   1      48.273  22.870  35.204  1.00  0.00     0.127 S 
ATOM     89  O   UNL A   1      48.508  24.058  36.021  1.00  0.00    -0.237 OA
ATOM     90  O   UNL A   1      48.232  21.614  35.956  1.00  0.00    -0.237 OA
ATOM     91  O   UNL A   1      49.015  22.787  33.952  1.00  0.00    -0.744 OA
ENDBRANCH  85  88
ENDBRANCH  58  81
ENDBRANCH  32  33
ENDBRANCH  25  27
ENDBRANCH  24  25
ENDBRANCH  23  24
ENDBRANCH   1  23
TORSDOF 18
ENDMDL
MODEL 2
REMARK VINA RESULT:     -12.3      1.634      3.692
REMARK SMILES Cc1cccc(O[C@H](C)C(=O)N2CCC[C@@H](C(=O)OCCOC(=O)c3ccc(-c4c5nc(c(-c6cccc(S(=O)(=O)[O-])c6F)c6ccc([nH]6)c(-c6cccc(S(=O)(=O)[O-])c6F)c6nc(c(-c7cccc(S(=O)(=O)[O-])c7F)c7ccc4[nH]7)C=C6)C=C5)cc3)C2)c1
REMARK SMILES IDX 20 1 19 2 17 3 18 4 16 5 12 6 13 7 88 8 14 9 15 10 10 11
REMARK SMILES IDX 11 12 8 13 9 14 7 15 6 16 1 17 2 18 3 19 89 20 4 21 5 22
REMARK SMILES IDX 21 23 22 24 23 25 24 26 25 27 26 28 87 29 27 30 86 31 28 32
REMARK SMILES IDX 29 33 30 34 80 35 31 36 85 37 79 38 81 39 32 40 84 41 78 42
REMARK SMILES IDX 77 43 33 45 65 46 45 47 64 48 46 49 49 50 63 51 82 52 47 53
REMARK SMILES IDX 48 54 62 56 83 57 50 58 34 59 35 60 43 61 36 62 38 63 44 64
REMARK SMILES IDX 37 65 39 66 40 67 41 68 42 69 66 70 67 71 75 72 68 73 70 74
REMARK SMILES IDX 76 75 69 76 71 77 72 78 73 79 74 80 51 81 52 82 60 83 53 84
REMARK SMILES IDX 55 85 61 86 54 87 56 88 57 89 58 90 59 91
REMARK H PARENT 81 44 49 55
REMARK Flexibility Score: inf
ROOT
ATOM      1  C   UNL A   1      33.565  28.656  26.729  1.00  0.00     0.274 C 
ENDROOT
BRANCH   1   2
ATOM      2  O   UNL A   1      33.352  27.877  25.537  1.00  0.00    -0.462 OA
BRANCH   2   3
ATOM      3  C   UNL A   1      32.083  27.596  25.224  1.00  0.00     0.310 C 
ATOM      4  O   UNL A   1      31.174  28.413  25.326  1.00  0.00    -0.252 OA
BRANCH   3   5
ATOM      5  C   UNL A   1      31.812  26.311  24.521  1.00  0.00     0.119 C 
ATOM      6  N   UNL A   1      30.946  24.267  25.349  1.00  0.00    -0.339 N 
ATOM      7  C   UNL A   1      30.839  23.664  24.008  1.00  0.00     0.119 C 
ATOM      8  C   UNL A   1      30.719  25.679  25.349  1.00  0.00     0.134 C 
ATOM      9  C   UNL A   1      31.527  24.500  22.887  1.00  0.00     0.022 C 
ATOM     10  C   UNL A   1      31.458  26.044  23.072  1.00  0.00     0.019 C 
BRANCH   6  11
ATOM     11  C   UNL A   1      31.363  23.574  26.474  1.00  0.00     0.263 C 
ATOM     12  O   UNL A   1      30.569  23.358  27.400  1.00  0.00    -0.271 OA
BRANCH  11  13
ATOM     13  C   UNL A   1      32.843  22.970  26.586  1.00  0.00     0.259 C 
ATOM     14  C   UNL A   1      33.185  22.428  27.980  1.00  0.00     0.064 C 
BRANCH  13  15
ATOM     15  O   UNL A   1      33.595  22.324  25.551  1.00  0.00    -0.481 OA
BRANCH  15  16
ATOM     16  C   UNL A   1      34.957  22.381  25.533  1.00  0.00     0.120 A 
ATOM     17  C   UNL A   1      37.814  19.943  24.868  1.00  0.00     0.044 C 
ATOM     18  C   UNL A   1      37.056  21.199  25.182  1.00  0.00    -0.047 A 
ATOM     19  C   UNL A   1      37.756  22.397  25.352  1.00  0.00     0.003 A 
ATOM     20  C   UNL A   1      35.655  21.197  25.289  1.00  0.00     0.049 A 
ATOM     21  C   UNL A   1      37.061  23.588  25.539  1.00  0.00     0.004 A 
ATOM     22  C   UNL A   1      35.664  23.586  25.598  1.00  0.00     0.046 A 
ENDBRANCH  15  16
ENDBRANCH  13  15
ENDBRANCH  11  13
ENDBRANCH   6  11
ENDBRANCH   3   5
ENDBRANCH   2   3
ENDBRANCH   1   2
BRANCH   1  23
ATOM     23  C   UNL A   1      34.981  29.056  27.270  1.00  0.00     0.275 C 
BRANCH  23  24
ATOM     24  O   UNL A   1      35.453  30.415  27.582  1.00  0.00    -0.458 OA
BRANCH  24  25
ATOM     25  C   UNL A   1      36.601  30.872  28.139  1.00  0.00     0.338 C 
ATOM     26  O   UNL A   1      36.740  31.999  28.595  1.00  0.00    -0.246 OA
BRANCH  25  27
ATOM     27  C   UNL A   1      37.705  29.930  28.072  1.00  0.00     0.060 A 
ATOM     28  C   UNL A   1      38.431  29.741  26.887  1.00  0.00     0.016 A 
ATOM     29  C   UNL A   1      38.102  29.392  29.290  1.00  0.00     0.016 A 
ATOM     30  C   UNL A   1      39.664  29.100  26.953  1.00  0.00     0.010 A 
ATOM     31  C   UNL A   1      39.362  28.868  29.375  1.00  0.00     0.010 A 
ATOM     32  C   UNL A   1      40.130  28.695  28.207  1.00  0.00    -0.014 A 
BRANCH  32  33
ATOM     33  C   UNL A   1      41.158  27.681  28.370  1.00  0.00     0.031 A 
ATOM     34  C   UNL A   1      40.946  26.238  28.210  1.00  0.00     0.074 A 
ATOM     35  C   UNL A   1      42.354  28.260  28.619  1.00  0.00     0.049 A 
ATOM     36  N   UNL A   1      41.703  25.359  28.767  1.00  0.00    -0.248 NA
ATOM     37  C   UNL A   1      39.855  25.654  27.433  1.00  0.00     0.031 C 
ATOM     38  C   UNL A   1      43.698  27.729  28.578  1.00  0.00     0.029 A 
ATOM     39  N   UNL A   1      42.515  29.555  29.152  1.00  0.00    -0.354 N 
ATOM     40  C   UNL A   1      41.388  24.130  28.223  1.00  0.00     0.074 A 
ATOM     41  C   UNL A   1      40.175  24.352  27.468  1.00  0.00     0.031 C 
ATOM     42  C   UNL A   1      44.483  28.543  29.315  1.00  0.00     0.029 A 
ATOM     43  C   UNL A   1      43.602  29.492  30.002  1.00  0.00     0.049 A 
ATOM     44  H   UNL A   1      41.962  30.346  28.956  1.00  0.00     0.167 HD
ATOM     45  C   UNL A   1      42.299  23.118  28.319  1.00  0.00     0.034 A 
ATOM     46  C   UNL A   1      43.443  29.638  31.351  1.00  0.00     0.034 A 
ATOM     47  C   UNL A   1      43.479  23.570  29.066  1.00  0.00     0.049 A 
ATOM     48  C   UNL A   1      43.978  28.432  32.072  1.00  0.00     0.074 A 
ATOM     49  C   UNL A   1      44.653  24.161  28.624  1.00  0.00     0.029 A 
ATOM     50  N   UNL A   1      43.419  23.782  30.439  1.00  0.00    -0.354 N 
ATOM     51  N   UNL A   1      44.021  27.241  31.548  1.00  0.00    -0.248 NA
ATOM     52  C   UNL A   1      44.486  28.482  33.434  1.00  0.00     0.031 C 
ATOM     53  C   UNL A   1      45.250  24.823  29.723  1.00  0.00     0.029 A 
ATOM     54  C   UNL A   1      44.460  24.608  30.840  1.00  0.00     0.049 A 
ATOM     55  H   UNL A   1      42.737  23.403  31.039  1.00  0.00     0.167 HD
ATOM     56  C   UNL A   1      44.514  26.368  32.469  1.00  0.00     0.074 A 
ATOM     57  C   UNL A   1      44.820  27.196  33.626  1.00  0.00     0.031 C 
ATOM     58  C   UNL A   1      44.597  25.029  32.225  1.00  0.00     0.034 A 
BRANCH  45  59
ATOM     59  C   UNL A   1      42.333  21.904  27.401  1.00  0.00     0.023 A 
ATOM     60  C   UNL A   1      41.256  20.991  27.513  1.00  0.00     0.012 A 
ATOM     61  C   UNL A   1      43.360  21.546  26.500  1.00  0.00     0.148 A 
ATOM     62  C   UNL A   1      41.246  19.746  26.879  1.00  0.00     0.002 A 
ATOM     63  C   UNL A   1      43.374  20.280  25.897  1.00  0.00     0.091 A 
ATOM     64  F   UNL A   1      44.301  22.446  26.187  1.00  0.00    -0.205 F 
ATOM     65  C   UNL A   1      42.324  19.375  26.096  1.00  0.00     0.022 A 
BRANCH  63  66
ATOM     66  S   UNL A   1      44.753  19.674  24.908  1.00  0.00     0.127 S 
ATOM     67  O   UNL A   1      44.758  18.244  25.228  1.00  0.00    -0.237 OA
ATOM     68  O   UNL A   1      44.326  19.988  23.546  1.00  0.00    -0.237 OA
ATOM     69  O   UNL A   1      45.931  20.393  25.379  1.00  0.00    -0.744 OA
ENDBRANCH  63  66
ENDBRANCH  45  59
BRANCH  46  70
ATOM     70  C   UNL A   1      42.224  30.390  31.831  1.00  0.00     0.023 A 
ATOM     71  C   UNL A   1      42.035  31.730  31.409  1.00  0.00     0.012 A 
ATOM     72  C   UNL A   1      41.146  29.746  32.472  1.00  0.00     0.148 A 
ATOM     73  C   UNL A   1      40.801  32.378  31.558  1.00  0.00     0.002 A 
ATOM     74  C   UNL A   1      39.915  30.396  32.609  1.00  0.00     0.091 A 
ATOM     75  F   UNL A   1      41.305  28.491  32.912  1.00  0.00    -0.205 F 
ATOM     76  C   UNL A   1      39.738  31.707  32.150  1.00  0.00     0.022 A 
BRANCH  74  77
ATOM     77  S   UNL A   1      38.479  29.503  33.228  1.00  0.00     0.127 S 
ATOM     78  O   UNL A   1      37.361  30.187  32.574  1.00  0.00    -0.237 OA
ATOM     79  O   UNL A   1      38.682  28.142  32.752  1.00  0.00    -0.237 OA
ATOM     80  O   UNL A   1      38.581  29.727  34.666  1.00  0.00    -0.744 OA
ENDBRANCH  74  77
ENDBRANCH  46  70
BRANCH  58  81
ATOM     81  C   UNL A   1      44.866  24.009  33.294  1.00  0.00     0.023 A 
ATOM     82  C   UNL A   1      43.899  23.049  33.648  1.00  0.00     0.012 A 
ATOM     83  C   UNL A   1      46.153  23.881  33.862  1.00  0.00     0.148 A 
ATOM     84  C   UNL A   1      44.168  22.052  34.585  1.00  0.00     0.002 A 
ATOM     85  C   UNL A   1      46.447  22.821  34.712  1.00  0.00     0.091 A 
ATOM     86  F   UNL A   1      47.099  24.794  33.593  1.00  0.00    -0.205 F 
ATOM     87  C   UNL A   1      45.449  21.924  35.103  1.00  0.00     0.022 A 
BRANCH  85  88
ATOM     88  S   UNL A   1      48.145  22.500  35.196  1.00  0.00     0.127 S 
ATOM     89  O   UNL A   1      47.978  21.554  36.296  1.00  0.00    -0.237 OA
ATOM     90  O   UNL A   1      48.723  21.923  33.981  1.00  0.00    -0.237 OA
ATOM     91  O   UNL A   1      48.682  23.809  35.544  1.00  0.00    -0.744 OA
ENDBRANCH  85  88
ENDBRANCH  58  81
ENDBRANCH  32  33
ENDBRANCH  25  27
ENDBRANCH  24  25
ENDBRANCH  23  24
ENDBRANCH   1  23
TORSDOF 18
ENDMDL
MODEL 3
REMARK VINA RESULT:     -12.0      2.222      3.845
REMARK SMILES Cc1cccc(O[C@H](C)C(=O)N2CCC[C@@H](C(=O)OCCOC(=O)c3ccc(-c4c5nc(c(-c6cccc(S(=O)(=O)[O-])c6F)c6ccc([nH]6)c(-c6cccc(S(=O)(=O)[O-])c6F)c6nc(c(-c7cccc(S(=O)(=O)[O-])c7F)c7ccc4[nH]7)C=C6)C=C5)cc3)C2)c1
REMARK SMILES IDX 20 1 19 2 17 3 18 4 16 5 12 6 13 7 88 8 14 9 15 10 10 11
REMARK SMILES IDX 11 12 8 13 9 14 7 15 6 16 1 17 2 18 3 19 89 20 4 21 5 22
REMARK SMILES IDX 21 23 22 24 23 25 24 26 25 27 26 28 87 29 27 30 86 31 28 32
REMARK SMILES IDX 29 33 30 34 80 35 31 36 85 37 79 38 81 39 32 40 84 41 78 42
REMARK SMILES IDX 77 43 33 45 65 46 45 47 64 48 46 49 49 50 63 51 82 52 47 53
REMARK SMILES IDX 48 54 62 56 83 57 50 58 34 59 35 60 43 61 36 62 38 63 44 64
REMARK SMILES IDX 37 65 39 66 40 67 41 68 42 69 66 70 67 71 75 72 68 73 70 74
REMARK SMILES IDX 76 75 69 76 71 77 72 78 73 79 74 80 51 81 52 82 60 83 53 84
REMARK SMILES IDX 55 85 61 86 54 87 56 88 57 89 58 90 59 91
REMARK H PARENT 81 44 49 55
REMARK Flexibility Score: inf
ROOT
ATOM      1  C   UNL A   1      32.869  29.835  25.929  1.00  0.00     0.274 C 
ENDROOT
BRANCH   1   2
ATOM      2  O   UNL A   1      31.569  29.259  26.150  1.00  0.00    -0.462 OA
BRANCH   2   3
ATOM      3  C   UNL A   1      31.537  27.974  26.515  1.00  0.00     0.310 C 
ATOM      4  O   UNL A   1      31.400  27.614  27.680  1.00  0.00    -0.252 OA
BRANCH   3   5
ATOM      5  C   UNL A   1      31.448  26.949  25.437  1.00  0.00     0.119 C 
ATOM      6  N   UNL A   1      30.998  24.626  25.568  1.00  0.00    -0.339 N 
ATOM      7  C   UNL A   1      30.914  24.468  24.105  1.00  0.00     0.119 C 
ATOM      8  C   UNL A   1      30.532  25.900  26.022  1.00  0.00     0.134 C 
ATOM      9  C   UNL A   1      31.378  25.725  23.309  1.00  0.00     0.022 C 
ATOM     10  C   UNL A   1      31.057  27.092  23.980  1.00  0.00     0.019 C 
BRANCH   6  11
ATOM     11  C   UNL A   1      31.596  23.703  26.410  1.00  0.00     0.263 C 
ATOM     12  O   UNL A   1      31.195  23.573  27.575  1.00  0.00    -0.271 OA
BRANCH  11  13
ATOM     13  C   UNL A   1      32.761  22.730  25.895  1.00  0.00     0.259 C 
ATOM     14  C   UNL A   1      34.159  23.361  25.942  1.00  0.00     0.064 C 
BRANCH  13  15
ATOM     15  O   UNL A   1      32.806  21.301  26.000  1.00  0.00    -0.481 OA
BRANCH  15  16
ATOM     16  C   UNL A   1      32.718  20.512  24.892  1.00  0.00     0.120 A 
ATOM     17  C   UNL A   1      33.035  16.791  24.118  1.00  0.00     0.044 C 
ATOM     18  C   UNL A   1      32.821  18.266  23.957  1.00  0.00    -0.047 A 
ATOM     19  C   UNL A   1      32.450  18.773  22.707  1.00  0.00     0.003 A 
ATOM     20  C   UNL A   1      32.967  19.147  25.042  1.00  0.00     0.049 A 
ATOM     21  C   UNL A   1      32.146  20.123  22.567  1.00  0.00     0.004 A 
ATOM     22  C   UNL A   1      32.249  20.986  23.662  1.00  0.00     0.046 A 
ENDBRANCH  15  16
ENDBRANCH  13  15
ENDBRANCH  11  13
ENDBRANCH   6  11
ENDBRANCH   3   5
ENDBRANCH   2   3
ENDBRANCH   1   2
BRANCH   1  23
ATOM     23  C   UNL A   1      33.712  30.547  27.043  1.00  0.00     0.275 C 
BRANCH  23  24
ATOM     24  O   UNL A   1      34.571  29.898  28.046  1.00  0.00    -0.458 OA
BRANCH  24  25
ATOM     25  C   UNL A   1      35.602  30.360  28.794  1.00  0.00     0.338 C 
ATOM     26  O   UNL A   1      35.524  31.318  29.552  1.00  0.00    -0.246 OA
BRANCH  25  27
ATOM     27  C   UNL A   1      36.859  29.670  28.557  1.00  0.00     0.060 A 
ATOM     28  C   UNL A   1      37.538  29.791  27.336  1.00  0.00     0.016 A 
ATOM     29  C   UNL A   1      37.420  29.059  29.672  1.00  0.00     0.016 A 
ATOM     30  C   UNL A   1      38.871  29.401  27.271  1.00  0.00     0.010 A 
ATOM     31  C   UNL A   1      38.759  28.784  29.641  1.00  0.00     0.010 A 
ATOM     32  C   UNL A   1      39.477  28.927  28.437  1.00  0.00    -0.014 A 
BRANCH  32  33
ATOM     33  C   UNL A   1      40.686  28.122  28.420  1.00  0.00     0.031 A 
ATOM     34  C   UNL A   1      40.717  26.657  28.334  1.00  0.00     0.074 A 
ATOM     35  C   UNL A   1      41.781  28.915  28.422  1.00  0.00     0.049 A 
ATOM     36  N   UNL A   1      41.713  25.958  28.752  1.00  0.00    -0.248 NA
ATOM     37  C   UNL A   1      39.628  25.847  27.794  1.00  0.00     0.031 C 
ATOM     38  C   UNL A   1      43.168  28.629  28.133  1.00  0.00     0.029 A 
ATOM     39  N   UNL A   1      41.797  30.245  28.886  1.00  0.00    -0.354 N 
ATOM     40  C   UNL A   1      41.535  24.664  28.305  1.00  0.00     0.074 A 
ATOM     41  C   UNL A   1      40.182  24.626  27.795  1.00  0.00     0.031 C 
ATOM     42  C   UNL A   1      43.914  29.608  28.688  1.00  0.00     0.029 A 
ATOM     43  C   UNL A   1      43.016  30.423  29.511  1.00  0.00     0.049 A 
ATOM     44  H   UNL A   1      41.081  30.914  28.784  1.00  0.00     0.167 HD
ATOM     45  C   UNL A   1      42.618  23.835  28.245  1.00  0.00     0.034 A 
ATOM     46  C   UNL A   1      43.087  30.614  30.863  1.00  0.00     0.034 A 
ATOM     47  C   UNL A   1      43.813  24.530  28.740  1.00  0.00     0.049 A 
ATOM     48  C   UNL A   1      43.959  29.563  31.491  1.00  0.00     0.074 A 
ATOM     49  C   UNL A   1      44.755  25.294  28.067  1.00  0.00     0.029 A 
ATOM     50  N   UNL A   1      43.971  24.804  30.094  1.00  0.00    -0.354 N 
ATOM     51  N   UNL A   1      44.122  28.371  30.994  1.00  0.00    -0.248 NA
ATOM     52  C   UNL A   1      44.693  29.778  32.729  1.00  0.00     0.031 C 
ATOM     53  C   UNL A   1      45.413  26.110  29.016  1.00  0.00     0.029 A 
ATOM     54  C   UNL A   1      44.899  25.822  30.269  1.00  0.00     0.049 A 
ATOM     55  H   UNL A   1      43.494  24.344  30.822  1.00  0.00     0.167 HD
ATOM     56  C   UNL A   1      44.930  27.651  31.821  1.00  0.00     0.074 A 
ATOM     57  C   UNL A   1      45.289  28.583  32.879  1.00  0.00     0.031 C 
ATOM     58  C   UNL A   1      45.211  26.337  31.593  1.00  0.00     0.034 A 
BRANCH  45  59
ATOM     59  C   UNL A   1      42.703  22.597  27.363  1.00  0.00     0.023 A 
ATOM     60  C   UNL A   1      41.944  21.473  27.769  1.00  0.00     0.012 A 
ATOM     61  C   UNL A   1      43.517  22.419  26.222  1.00  0.00     0.148 A 
ATOM     62  C   UNL A   1      42.069  20.216  27.173  1.00  0.00     0.002 A 
ATOM     63  C   UNL A   1      43.677  21.149  25.649  1.00  0.00     0.091 A 
ATOM     64  F   UNL A   1      44.099  23.484  25.658  1.00  0.00    -0.205 F 
ATOM     65  C   UNL A   1      42.964  20.045  26.132  1.00  0.00     0.022 A 
BRANCH  63  66
ATOM     66  S   UNL A   1      44.856  20.804  24.331  1.00  0.00     0.127 S 
ATOM     67  O   UNL A   1      46.138  20.879  25.037  1.00  0.00    -0.237 OA
ATOM     68  O   UNL A   1      44.475  19.458  23.910  1.00  0.00    -0.237 OA
ATOM     69  O   UNL A   1      44.664  21.852  23.335  1.00  0.00    -0.744 OA
ENDBRANCH  63  66
ENDBRANCH  45  59
BRANCH  46  70
ATOM     70  C   UNL A   1      41.861  31.164  31.553  1.00  0.00     0.023 A 
ATOM     71  C   UNL A   1      41.402  32.459  31.206  1.00  0.00     0.012 A 
ATOM     72  C   UNL A   1      41.014  30.357  32.339  1.00  0.00     0.148 A 
ATOM     73  C   UNL A   1      40.125  32.906  31.569  1.00  0.00     0.002 A 
ATOM     74  C   UNL A   1      39.736  30.806  32.690  1.00  0.00     0.091 A 
ATOM     75  F   UNL A   1      41.432  29.141  32.711  1.00  0.00    -0.205 F 
ATOM     76  C   UNL A   1      39.287  32.075  32.304  1.00  0.00     0.022 A 
BRANCH  74  77
ATOM     77  S   UNL A   1      38.574  29.698  33.504  1.00  0.00     0.127 S 
ATOM     78  O   UNL A   1      37.275  30.181  33.033  1.00  0.00    -0.237 OA
ATOM     79  O   UNL A   1      38.924  28.383  32.986  1.00  0.00    -0.237 OA
ATOM     80  O   UNL A   1      38.851  29.952  34.914  1.00  0.00    -0.744 OA
ENDBRANCH  74  77
ENDBRANCH  46  70
BRANCH  58  81
ATOM     81  C   UNL A   1      45.857  25.442  32.611  1.00  0.00     0.023 A 
ATOM     82  C   UNL A   1      47.220  25.575  32.942  1.00  0.00     0.012 A 
ATOM     83  C   UNL A   1      45.082  24.549  33.384  1.00  0.00     0.148 A 
ATOM     84  C   UNL A   1      47.809  24.800  33.940  1.00  0.00     0.002 A 
ATOM     85  C   UNL A   1      45.650  23.860  34.448  1.00  0.00     0.091 A 
ATOM     86  F   UNL A   1      43.788  24.352  33.083  1.00  0.00    -0.205 F 
ATOM     87  C   UNL A   1      47.019  23.955  34.709  1.00  0.00     0.022 A 
BRANCH  85  88
ATOM     88  S   UNL A   1      44.606  22.957  35.596  1.00  0.00     0.127 S 
ATOM     89  O   UNL A   1      43.413  23.798  35.655  1.00  0.00    -0.237 OA
ATOM     90  O   UNL A   1      44.413  21.675  34.916  1.00  0.00    -0.237 OA
ATOM     91  O   UNL A   1      45.396  22.867  36.818  1.00  0.00    -0.744 OA
ENDBRANCH  85  88
ENDBRANCH  58  81
ENDBRANCH  32  33
ENDBRANCH  25  27
ENDBRANCH  24  25
ENDBRANCH  23  24
ENDBRANCH   1  23
TORSDOF 18
ENDMDL
