MODEL 1
REMARK VINA RESULT:     -12.6      0.000      0.000
REMARK SMILES Cc1cc(Cl)c2c(c1)C=C(C(=O)OCCOC(=O)c1ccc(-c3c4nc(c(-c5cccc(S(=O)(=O)[O-])c5F)c5ccc([nH]5)c(-c5cccc(S(=O)(=O)[O-])c5F)c5nc(c(-c6cccc(S(=O)(=O)[O-])c6F)c6ccc3[nH]6)C=C5)C=C4)cc1)[C@@H](C(F)(F)F)O2
REMARK SMILES IDX 15 1 14 2 13 3 11 4 12 5 10 6 1 7 2 8 3 9 8 10 4 11 7 12
REMARK SMILES IDX 5 13 6 14 9 15 87 16 82 17 83 18 84 19 85 20 86 21 16 22
REMARK SMILES IDX 17 23 18 24 19 25 20 26 81 27 21 28 80 29 22 30 23 31 24 32
REMARK SMILES IDX 74 33 25 34 79 35 73 36 75 37 26 38 78 39 72 40 71 41 27 43
REMARK SMILES IDX 59 44 39 45 58 46 40 47 43 48 57 49 76 50 41 51 42 52 56 54
REMARK SMILES IDX 77 55 44 56 28 57 29 58 37 59 30 60 32 61 38 62 31 63 33 64
REMARK SMILES IDX 34 65 35 66 36 67 60 68 61 69 69 70 62 71 64 72 70 73 63 74
REMARK SMILES IDX 65 75 66 76 67 77 68 78 45 79 46 80 54 81 47 82 49 83 55 84
REMARK SMILES IDX 48 85 50 86 51 87 52 88 53 89
REMARK H PARENT 75 42 43 53
REMARK Flexibility Score: inf
ROOT
ATOM      1  C   UNL A   1      31.587  30.419  25.729  1.00  0.00     0.275 C 
ENDROOT
BRANCH   1   2
ATOM      2  C   UNL A   1      31.555  29.048  25.052  1.00  0.00     0.275 C 
BRANCH   2   3
ATOM      3  O   UNL A   1      32.426  28.104  25.713  1.00  0.00    -0.459 OA
BRANCH   3   4
ATOM      4  C   UNL A   1      31.799  27.145  26.431  1.00  0.00     0.338 C 
ATOM      5  O   UNL A   1      30.974  27.322  27.315  1.00  0.00    -0.246 OA
BRANCH   4   6
ATOM      6  C   UNL A   1      32.239  25.800  26.015  1.00  0.00     0.087 C 
ATOM      7  C   UNL A   1      37.390  22.669  24.714  1.00  0.00     0.044 C 
ATOM      8  C   UNL A   1      35.910  22.906  24.811  1.00  0.00    -0.049 A 
ATOM      9  C   UNL A   1      35.003  21.985  24.275  1.00  0.00     0.028 A 
ATOM     10  C   UNL A   1      35.412  24.061  25.416  1.00  0.00     0.015 A 
ATOM     11  C   UNL A   1      33.622  22.216  24.353  1.00  0.00     0.084 A 
ATOM     12  C   UNL A   1      34.031  24.300  25.476  1.00  0.00     0.019 A 
ATOM     13  Cl  UNL A   1      32.557  21.041  23.666  1.00  0.00    -0.080 Cl
ATOM     14  C   UNL A   1      33.125  23.380  24.951  1.00  0.00     0.146 A 
ATOM     15  C   UNL A   1      33.549  25.539  26.047  1.00  0.00     0.027 C 
ATOM     16  O   UNL A   1      31.768  23.565  25.012  1.00  0.00    -0.474 OA
ATOM     17  C   UNL A   1      31.235  24.856  25.427  1.00  0.00     0.316 C 
BRANCH  17  18
ATOM     18  C   UNL A   1      30.493  25.495  24.244  1.00  0.00     0.430 C 
ATOM     19  F   UNL A   1      29.909  24.556  23.461  1.00  0.00    -0.167 F 
ATOM     20  F   UNL A   1      29.496  26.314  24.662  1.00  0.00    -0.167 F 
ATOM     21  F   UNL A   1      31.314  26.226  23.455  1.00  0.00    -0.167 F 
ENDBRANCH  17  18
ENDBRANCH   4   6
ENDBRANCH   3   4
ENDBRANCH   2   3
ENDBRANCH   1   2
BRANCH   1  22
ATOM     22  O   UNL A   1      32.331  30.364  26.960  1.00  0.00    -0.458 OA
BRANCH  22  23
ATOM     23  C   UNL A   1      33.015  31.492  27.251  1.00  0.00     0.338 C 
ATOM     24  O   UNL A   1      32.561  32.617  27.380  1.00  0.00    -0.246 OA
BRANCH  23  25
ATOM     25  C   UNL A   1      34.429  31.193  27.513  1.00  0.00     0.060 A 
ATOM     26  C   UNL A   1      34.781  29.873  27.768  1.00  0.00     0.016 A 
ATOM     27  C   UNL A   1      35.329  32.219  27.779  1.00  0.00     0.016 A 
ATOM     28  C   UNL A   1      35.936  29.594  28.490  1.00  0.00     0.010 A 
ATOM     29  C   UNL A   1      36.571  31.910  28.346  1.00  0.00     0.010 A 
ATOM     30  C   UNL A   1      36.861  30.604  28.780  1.00  0.00    -0.014 A 
BRANCH  30  31
ATOM     31  C   UNL A   1      38.103  30.311  29.556  1.00  0.00     0.031 A 
ATOM     32  C   UNL A   1      39.167  29.412  28.970  1.00  0.00     0.074 A 
ATOM     33  C   UNL A   1      38.284  30.833  30.786  1.00  0.00     0.049 A 
ATOM     34  N   UNL A   1      40.179  28.832  29.564  1.00  0.00    -0.248 NA
ATOM     35  C   UNL A   1      39.073  29.111  27.531  1.00  0.00     0.031 C 
ATOM     36  C   UNL A   1      37.374  31.761  31.462  1.00  0.00     0.029 A 
ATOM     37  N   UNL A   1      39.293  30.646  31.702  1.00  0.00    -0.354 N 
ATOM     38  C   UNL A   1      40.785  28.034  28.599  1.00  0.00     0.074 A 
ATOM     39  C   UNL A   1      40.035  28.210  27.375  1.00  0.00     0.031 C 
ATOM     40  C   UNL A   1      37.873  32.084  32.661  1.00  0.00     0.029 A 
ATOM     41  C   UNL A   1      39.072  31.292  32.897  1.00  0.00     0.049 A 
ATOM     42  H   UNL A   1      40.094  30.103  31.520  1.00  0.00     0.167 HD
ATOM     43  C   UNL A   1      41.872  27.232  28.721  1.00  0.00     0.034 A 
ATOM     44  C   UNL A   1      39.712  31.212  34.080  1.00  0.00     0.034 A 
ATOM     45  C   UNL A   1      42.654  27.122  29.926  1.00  0.00     0.049 A 
ATOM     46  C   UNL A   1      40.888  30.286  34.203  1.00  0.00     0.074 A 
ATOM     47  C   UNL A   1      43.787  26.359  30.147  1.00  0.00     0.029 A 
ATOM     48  N   UNL A   1      42.395  27.801  31.107  1.00  0.00    -0.354 N 
ATOM     49  N   UNL A   1      41.449  29.539  33.284  1.00  0.00    -0.248 NA
ATOM     50  C   UNL A   1      41.521  30.198  35.525  1.00  0.00     0.031 C 
ATOM     51  C   UNL A   1      44.197  26.556  31.470  1.00  0.00     0.029 A 
ATOM     52  C   UNL A   1      43.340  27.470  32.064  1.00  0.00     0.049 A 
ATOM     53  H   UNL A   1      41.648  28.428  31.246  1.00  0.00     0.167 HD
ATOM     54  C   UNL A   1      42.514  28.903  33.910  1.00  0.00     0.074 A 
ATOM     55  C   UNL A   1      42.540  29.385  35.278  1.00  0.00     0.031 C 
ATOM     56  C   UNL A   1      43.377  27.986  33.408  1.00  0.00     0.034 A 
BRANCH  43  57
ATOM     57  C   UNL A   1      42.302  26.421  27.524  1.00  0.00     0.023 A 
ATOM     58  C   UNL A   1      43.128  26.998  26.540  1.00  0.00     0.012 A 
ATOM     59  C   UNL A   1      41.959  25.056  27.419  1.00  0.00     0.148 A 
ATOM     60  C   UNL A   1      43.584  26.241  25.459  1.00  0.00     0.002 A 
ATOM     61  C   UNL A   1      42.459  24.295  26.368  1.00  0.00     0.091 A 
ATOM     62  F   UNL A   1      41.157  24.526  28.355  1.00  0.00    -0.205 F 
ATOM     63  C   UNL A   1      43.260  24.889  25.381  1.00  0.00     0.022 A 
BRANCH  61  64
ATOM     64  S   UNL A   1      42.175  22.526  26.224  1.00  0.00     0.127 S 
ATOM     65  O   UNL A   1      40.718  22.467  26.117  1.00  0.00    -0.237 OA
ATOM     66  O   UNL A   1      42.889  22.203  24.988  1.00  0.00    -0.237 OA
ATOM     67  O   UNL A   1      42.734  21.928  27.428  1.00  0.00    -0.744 OA
ENDBRANCH  61  64
ENDBRANCH  43  57
BRANCH  44  68
ATOM     68  C   UNL A   1      39.242  32.032  35.234  1.00  0.00     0.023 A 
ATOM     69  C   UNL A   1      38.396  31.446  36.194  1.00  0.00     0.012 A 
ATOM     70  C   UNL A   1      39.678  33.360  35.423  1.00  0.00     0.148 A 
ATOM     71  C   UNL A   1      37.981  32.169  37.312  1.00  0.00     0.002 A 
ATOM     72  C   UNL A   1      39.317  34.051  36.573  1.00  0.00     0.091 A 
ATOM     73  F   UNL A   1      40.469  33.907  34.489  1.00  0.00    -0.205 F 
ATOM     74  C   UNL A   1      38.454  33.464  37.511  1.00  0.00     0.022 A 
BRANCH  72  75
ATOM     75  S   UNL A   1      40.003  35.658  36.990  1.00  0.00     0.127 S 
ATOM     76  O   UNL A   1      39.341  35.945  38.261  1.00  0.00    -0.237 OA
ATOM     77  O   UNL A   1      41.432  35.357  37.094  1.00  0.00    -0.237 OA
ATOM     78  O   UNL A   1      39.652  36.537  35.884  1.00  0.00    -0.744 OA
ENDBRANCH  72  75
ENDBRANCH  44  68
BRANCH  56  79
ATOM     79  C   UNL A   1      44.437  27.449  34.336  1.00  0.00     0.023 A 
ATOM     80  C   UNL A   1      45.631  28.173  34.524  1.00  0.00     0.012 A 
ATOM     81  C   UNL A   1      44.222  26.266  35.071  1.00  0.00     0.148 A 
ATOM     82  C   UNL A   1      46.612  27.708  35.399  1.00  0.00     0.002 A 
ATOM     83  C   UNL A   1      45.178  25.839  35.984  1.00  0.00     0.091 A 
ATOM     84  F   UNL A   1      43.088  25.581  34.864  1.00  0.00    -0.205 F 
ATOM     85  C   UNL A   1      46.379  26.551  36.138  1.00  0.00     0.022 A 
BRANCH  83  86
ATOM     86  S   UNL A   1      44.924  24.422  37.057  1.00  0.00     0.127 S 
ATOM     87  O   UNL A   1      43.731  24.821  37.801  1.00  0.00    -0.237 OA
ATOM     88  O   UNL A   1      44.709  23.340  36.094  1.00  0.00    -0.237 OA
ATOM     89  O   UNL A   1      46.140  24.294  37.848  1.00  0.00    -0.744 OA
ENDBRANCH  83  86
ENDBRANCH  56  79
ENDBRANCH  30  31
ENDBRANCH  23  25
ENDBRANCH  22  23
ENDBRANCH   1  22
TORSDOF 15
ENDMDL
MODEL 2
REMARK VINA RESULT:     -12.5      1.273      1.565
REMARK SMILES Cc1cc(Cl)c2c(c1)C=C(C(=O)OCCOC(=O)c1ccc(-c3c4nc(c(-c5cccc(S(=O)(=O)[O-])c5F)c5ccc([nH]5)c(-c5cccc(S(=O)(=O)[O-])c5F)c5nc(c(-c6cccc(S(=O)(=O)[O-])c6F)c6ccc3[nH]6)C=C5)C=C4)cc1)[C@@H](C(F)(F)F)O2
REMARK SMILES IDX 15 1 14 2 13 3 11 4 12 5 10 6 1 7 2 8 3 9 8 10 4 11 7 12
REMARK SMILES IDX 5 13 6 14 9 15 87 16 82 17 83 18 84 19 85 20 86 21 16 22
REMARK SMILES IDX 17 23 18 24 19 25 20 26 81 27 21 28 80 29 22 30 23 31 24 32
REMARK SMILES IDX 74 33 25 34 79 35 73 36 75 37 26 38 78 39 72 40 71 41 27 43
REMARK SMILES IDX 59 44 39 45 58 46 40 47 43 48 57 49 76 50 41 51 42 52 56 54
REMARK SMILES IDX 77 55 44 56 28 57 29 58 37 59 30 60 32 61 38 62 31 63 33 64
REMARK SMILES IDX 34 65 35 66 36 67 60 68 61 69 69 70 62 71 64 72 70 73 63 74
REMARK SMILES IDX 65 75 66 76 67 77 68 78 45 79 46 80 54 81 47 82 49 83 55 84
REMARK SMILES IDX 48 85 50 86 51 87 52 88 53 89
REMARK H PARENT 75 42 43 53
REMARK Flexibility Score: inf
ROOT
ATOM      1  C   UNL A   1      31.753  30.657  26.167  1.00  0.00     0.275 C 
ENDROOT
BRANCH   1   2
ATOM      2  C   UNL A   1      31.560  29.365  25.373  1.00  0.00     0.275 C 
BRANCH   2   3
ATOM      3  O   UNL A   1      32.425  28.311  25.850  1.00  0.00    -0.459 OA
BRANCH   3   4
ATOM      4  C   UNL A   1      31.817  27.347  26.577  1.00  0.00     0.338 C 
ATOM      5  O   UNL A   1      31.027  27.519  27.494  1.00  0.00    -0.246 OA
BRANCH   4   6
ATOM      6  C   UNL A   1      32.227  26.004  26.126  1.00  0.00     0.087 C 
ATOM      7  C   UNL A   1      37.295  22.838  24.606  1.00  0.00     0.044 C 
ATOM      8  C   UNL A   1      35.822  23.089  24.755  1.00  0.00    -0.049 A 
ATOM      9  C   UNL A   1      34.887  22.187  24.236  1.00  0.00     0.028 A 
ATOM     10  C   UNL A   1      35.358  24.240  25.395  1.00  0.00     0.015 A 
ATOM     11  C   UNL A   1      33.513  22.432  24.362  1.00  0.00     0.084 A 
ATOM     12  C   UNL A   1      33.982  24.493  25.504  1.00  0.00     0.019 A 
ATOM     13  Cl  UNL A   1      32.412  21.281  23.692  1.00  0.00    -0.080 Cl
ATOM     14  C   UNL A   1      33.049  23.592  24.995  1.00  0.00     0.146 A 
ATOM     15  C   UNL A   1      33.534  25.729  26.110  1.00  0.00     0.027 C 
ATOM     16  O   UNL A   1      31.697  23.791  25.103  1.00  0.00    -0.474 OA
ATOM     17  C   UNL A   1      31.193  25.082  25.556  1.00  0.00     0.316 C 
BRANCH  17  18
ATOM     18  C   UNL A   1      30.421  25.748  24.408  1.00  0.00     0.430 C 
ATOM     19  F   UNL A   1      31.228  26.544  23.665  1.00  0.00    -0.167 F 
ATOM     20  F   UNL A   1      29.903  24.830  23.554  1.00  0.00    -0.167 F 
ATOM     21  F   UNL A   1      29.396  26.511  24.851  1.00  0.00    -0.167 F 
ENDBRANCH  17  18
ENDBRANCH   4   6
ENDBRANCH   3   4
ENDBRANCH   2   3
ENDBRANCH   1   2
BRANCH   1  22
ATOM     22  O   UNL A   1      32.739  30.481  27.200  1.00  0.00    -0.458 OA
BRANCH  22  23
ATOM     23  C   UNL A   1      33.461  31.588  27.479  1.00  0.00     0.338 C 
ATOM     24  O   UNL A   1      33.042  32.725  27.626  1.00  0.00    -0.246 OA
BRANCH  23  25
ATOM     25  C   UNL A   1      34.873  31.249  27.701  1.00  0.00     0.060 A 
ATOM     26  C   UNL A   1      35.198  29.915  27.910  1.00  0.00     0.016 A 
ATOM     27  C   UNL A   1      35.803  32.246  27.979  1.00  0.00     0.016 A 
ATOM     28  C   UNL A   1      36.361  29.587  28.597  1.00  0.00     0.010 A 
ATOM     29  C   UNL A   1      37.048  31.891  28.509  1.00  0.00     0.010 A 
ATOM     30  C   UNL A   1      37.316  30.566  28.898  1.00  0.00    -0.014 A 
BRANCH  30  31
ATOM     31  C   UNL A   1      38.566  30.221  29.637  1.00  0.00     0.031 A 
ATOM     32  C   UNL A   1      39.568  29.267  29.028  1.00  0.00     0.074 A 
ATOM     33  C   UNL A   1      38.811  30.745  30.856  1.00  0.00     0.049 A 
ATOM     34  N   UNL A   1      40.569  28.645  29.596  1.00  0.00    -0.248 NA
ATOM     35  C   UNL A   1      39.414  28.958  27.596  1.00  0.00     0.031 C 
ATOM     36  C   UNL A   1      37.967  31.721  31.550  1.00  0.00     0.029 A 
ATOM     37  N   UNL A   1      39.838  30.518  31.742  1.00  0.00    -0.354 N 
ATOM     38  C   UNL A   1      41.107  27.811  28.621  1.00  0.00     0.074 A 
ATOM     39  C   UNL A   1      40.327  28.012  27.419  1.00  0.00     0.031 C 
ATOM     40  C   UNL A   1      38.518  32.030  32.730  1.00  0.00     0.029 A 
ATOM     41  C   UNL A   1      39.686  31.184  32.937  1.00  0.00     0.049 A 
ATOM     42  H   UNL A   1      40.606  29.936  31.541  1.00  0.00     0.167 HD
ATOM     43  C   UNL A   1      42.157  26.959  28.718  1.00  0.00     0.034 A 
ATOM     44  C   UNL A   1      40.358  31.084  34.100  1.00  0.00     0.034 A 
ATOM     45  C   UNL A   1      42.971  26.822  29.898  1.00  0.00     0.049 A 
ATOM     46  C   UNL A   1      41.492  30.104  34.196  1.00  0.00     0.074 A 
ATOM     47  C   UNL A   1      44.073  26.008  30.093  1.00  0.00     0.029 A 
ATOM     48  N   UNL A   1      42.781  27.523  31.081  1.00  0.00    -0.354 N 
ATOM     49  N   UNL A   1      41.988  29.324  33.267  1.00  0.00    -0.248 NA
ATOM     50  C   UNL A   1      42.162  29.997  35.498  1.00  0.00     0.031 C 
ATOM     51  C   UNL A   1      44.533  26.197  31.399  1.00  0.00     0.029 A 
ATOM     52  C   UNL A   1      43.740  27.156  32.010  1.00  0.00     0.049 A 
ATOM     53  H   UNL A   1      42.070  28.186  31.236  1.00  0.00     0.167 HD
ATOM     54  C   UNL A   1      43.041  28.643  33.867  1.00  0.00     0.074 A 
ATOM     55  C   UNL A   1      43.133  29.135  35.228  1.00  0.00     0.031 C 
ATOM     56  C   UNL A   1      43.843  27.681  33.347  1.00  0.00     0.034 A 
BRANCH  43  57
ATOM     57  C   UNL A   1      42.511  26.118  27.516  1.00  0.00     0.023 A 
ATOM     58  C   UNL A   1      43.370  26.629  26.524  1.00  0.00     0.012 A 
ATOM     59  C   UNL A   1      42.060  24.784  27.414  1.00  0.00     0.148 A 
ATOM     60  C   UNL A   1      43.754  25.840  25.438  1.00  0.00     0.002 A 
ATOM     61  C   UNL A   1      42.489  23.987  26.358  1.00  0.00     0.091 A 
ATOM     62  F   UNL A   1      41.229  24.318  28.358  1.00  0.00    -0.205 F 
ATOM     63  C   UNL A   1      43.325  24.517  25.363  1.00  0.00     0.022 A 
BRANCH  61  64
ATOM     64  S   UNL A   1      42.066  22.246  26.216  1.00  0.00     0.127 S 
ATOM     65  O   UNL A   1      42.787  21.865  25.002  1.00  0.00    -0.237 OA
ATOM     66  O   UNL A   1      42.624  21.696  27.452  1.00  0.00    -0.237 OA
ATOM     67  O   UNL A   1      40.615  22.189  26.121  1.00  0.00    -0.744 OA
ENDBRANCH  61  64
ENDBRANCH  43  57
BRANCH  44  68
ATOM     68  C   UNL A   1      39.964  31.936  35.259  1.00  0.00     0.023 A 
ATOM     69  C   UNL A   1      40.418  33.267  35.319  1.00  0.00     0.012 A 
ATOM     70  C   UNL A   1      39.095  31.462  36.263  1.00  0.00     0.148 A 
ATOM     71  C   UNL A   1      40.025  34.105  36.362  1.00  0.00     0.002 A 
ATOM     72  C   UNL A   1      38.653  32.322  37.261  1.00  0.00     0.091 A 
ATOM     73  F   UNL A   1      38.688  30.186  36.200  1.00  0.00    -0.205 F 
ATOM     74  C   UNL A   1      39.131  33.640  37.323  1.00  0.00     0.022 A 
BRANCH  72  75
ATOM     75  S   UNL A   1      37.383  31.859  38.445  1.00  0.00     0.127 S 
ATOM     76  O   UNL A   1      37.102  30.479  38.057  1.00  0.00    -0.237 OA
ATOM     77  O   UNL A   1      38.091  32.009  39.717  1.00  0.00    -0.237 OA
ATOM     78  O   UNL A   1      36.294  32.804  38.246  1.00  0.00    -0.744 OA
ENDBRANCH  72  75
ENDBRANCH  44  68
BRANCH  56  79
ATOM     79  C   UNL A   1      44.905  27.102  34.248  1.00  0.00     0.023 A 
ATOM     80  C   UNL A   1      46.175  27.711  34.308  1.00  0.00     0.012 A 
ATOM     81  C   UNL A   1      44.625  26.001  35.080  1.00  0.00     0.148 A 
ATOM     82  C   UNL A   1      47.162  27.208  35.156  1.00  0.00     0.002 A 
ATOM     83  C   UNL A   1      45.594  25.542  35.963  1.00  0.00     0.091 A 
ATOM     84  F   UNL A   1      43.418  25.424  34.994  1.00  0.00    -0.205 F 
ATOM     85  C   UNL A   1      46.867  26.134  35.991  1.00  0.00     0.022 A 
BRANCH  83  86
ATOM     86  S   UNL A   1      45.274  24.234  37.152  1.00  0.00     0.127 S 
ATOM     87  O   UNL A   1      44.171  24.799  37.927  1.00  0.00    -0.237 OA
ATOM     88  O   UNL A   1      44.902  23.114  36.288  1.00  0.00    -0.237 OA
ATOM     89  O   UNL A   1      46.519  24.045  37.885  1.00  0.00    -0.744 OA
ENDBRANCH  83  86
ENDBRANCH  56  79
ENDBRANCH  30  31
ENDBRANCH  23  25
ENDBRANCH  22  23
ENDBRANCH   1  22
TORSDOF 15
ENDMDL
MODEL 3
REMARK VINA RESULT:     -12.4      4.844      9.970
REMARK SMILES Cc1cc(Cl)c2c(c1)C=C(C(=O)OCCOC(=O)c1ccc(-c3c4nc(c(-c5cccc(S(=O)(=O)[O-])c5F)c5ccc([nH]5)c(-c5cccc(S(=O)(=O)[O-])c5F)c5nc(c(-c6cccc(S(=O)(=O)[O-])c6F)c6ccc3[nH]6)C=C5)C=C4)cc1)[C@@H](C(F)(F)F)O2
REMARK SMILES IDX 15 1 14 2 13 3 11 4 12 5 10 6 1 7 2 8 3 9 8 10 4 11 7 12
REMARK SMILES IDX 5 13 6 14 9 15 87 16 82 17 83 18 84 19 85 20 86 21 16 22
REMARK SMILES IDX 17 23 18 24 19 25 20 26 81 27 21 28 80 29 22 30 23 31 24 32
REMARK SMILES IDX 74 33 25 34 79 35 73 36 75 37 26 38 78 39 72 40 71 41 27 43
REMARK SMILES IDX 59 44 39 45 58 46 40 47 43 48 57 49 76 50 41 51 42 52 56 54
REMARK SMILES IDX 77 55 44 56 28 57 29 58 37 59 30 60 32 61 38 62 31 63 33 64
REMARK SMILES IDX 34 65 35 66 36 67 60 68 61 69 69 70 62 71 64 72 70 73 63 74
REMARK SMILES IDX 65 75 66 76 67 77 68 78 45 79 46 80 54 81 47 82 49 83 55 84
REMARK SMILES IDX 48 85 50 86 51 87 52 88 53 89
REMARK H PARENT 75 42 43 53
REMARK Flexibility Score: inf
ROOT
ATOM      1  C   UNL A   1      36.109  21.044  25.435  1.00  0.00     0.275 C 
ENDROOT
BRANCH   1   2
ATOM      2  C   UNL A   1      34.841  21.655  24.840  1.00  0.00     0.275 C 
BRANCH   2   3
ATOM      3  O   UNL A   1      34.919  23.097  24.779  1.00  0.00    -0.459 OA
BRANCH   3   4
ATOM      4  C   UNL A   1      34.727  23.636  23.555  1.00  0.00     0.338 C 
ATOM      5  O   UNL A   1      35.211  23.242  22.504  1.00  0.00    -0.246 OA
BRANCH   4   6
ATOM      6  C   UNL A   1      33.829  24.803  23.626  1.00  0.00     0.087 C 
ATOM      7  C   UNL A   1      32.884  29.881  26.995  1.00  0.00     0.044 C 
ATOM      8  C   UNL A   1      32.583  28.850  25.945  1.00  0.00    -0.049 A 
ATOM      9  C   UNL A   1      31.366  28.865  25.256  1.00  0.00     0.028 A 
ATOM     10  C   UNL A   1      33.504  27.842  25.653  1.00  0.00     0.015 A 
ATOM     11  C   UNL A   1      31.081  27.891  24.288  1.00  0.00     0.084 A 
ATOM     12  C   UNL A   1      33.211  26.858  24.698  1.00  0.00     0.019 A 
ATOM     13  Cl  UNL A   1      29.556  27.963  23.480  1.00  0.00    -0.080 Cl
ATOM     14  C   UNL A   1      32.002  26.875  24.004  1.00  0.00     0.146 A 
ATOM     15  C   UNL A   1      34.157  25.787  24.468  1.00  0.00     0.027 C 
ATOM     16  O   UNL A   1      31.688  25.946  23.046  1.00  0.00    -0.474 OA
ATOM     17  C   UNL A   1      32.525  24.764  22.889  1.00  0.00     0.316 C 
BRANCH  17  18
ATOM     18  C   UNL A   1      31.708  23.519  23.265  1.00  0.00     0.430 C 
ATOM     19  F   UNL A   1      32.147  22.421  22.604  1.00  0.00    -0.167 F 
ATOM     20  F   UNL A   1      31.811  23.233  24.587  1.00  0.00    -0.167 F 
ATOM     21  F   UNL A   1      30.393  23.661  22.983  1.00  0.00    -0.167 F 
ENDBRANCH  17  18
ENDBRANCH   4   6
ENDBRANCH   3   4
ENDBRANCH   2   3
ENDBRANCH   1   2
BRANCH   1  22
ATOM     22  O   UNL A   1      37.281  21.726  24.954  1.00  0.00    -0.458 OA
BRANCH  22  23
ATOM     23  C   UNL A   1      38.431  21.363  25.564  1.00  0.00     0.338 C 
ATOM     24  O   UNL A   1      39.062  20.333  25.394  1.00  0.00    -0.246 OA
BRANCH  23  25
ATOM     25  C   UNL A   1      38.926  22.441  26.430  1.00  0.00     0.060 A 
ATOM     26  C   UNL A   1      38.424  23.721  26.230  1.00  0.00     0.016 A 
ATOM     27  C   UNL A   1      40.055  22.249  27.219  1.00  0.00     0.016 A 
ATOM     28  C   UNL A   1      39.168  24.825  26.631  1.00  0.00     0.010 A 
ATOM     29  C   UNL A   1      40.702  23.361  27.770  1.00  0.00     0.010 A 
ATOM     30  C   UNL A   1      40.314  24.668  27.421  1.00  0.00    -0.014 A 
BRANCH  30  31
ATOM     31  C   UNL A   1      41.118  25.849  27.854  1.00  0.00     0.031 A 
ATOM     32  C   UNL A   1      40.489  26.920  28.715  1.00  0.00     0.074 A 
ATOM     33  C   UNL A   1      42.406  25.979  27.474  1.00  0.00     0.049 A 
ATOM     34  N   UNL A   1      40.920  28.126  28.981  1.00  0.00    -0.248 NA
ATOM     35  C   UNL A   1      39.198  26.599  29.347  1.00  0.00     0.031 C 
ATOM     36  C   UNL A   1      43.168  25.004  26.691  1.00  0.00     0.029 A 
ATOM     37  N   UNL A   1      43.305  26.999  27.683  1.00  0.00    -0.354 N 
ATOM     38  C   UNL A   1      39.920  28.735  29.733  1.00  0.00     0.074 A 
ATOM     39  C   UNL A   1      38.861  27.761  29.890  1.00  0.00     0.031 C 
ATOM     40  C   UNL A   1      44.416  25.451  26.510  1.00  0.00     0.029 A 
ATOM     41  C   UNL A   1      44.513  26.799  27.053  1.00  0.00     0.049 A 
ATOM     42  H   UNL A   1      43.105  27.793  28.229  1.00  0.00     0.167 HD
ATOM     43  C   UNL A   1      39.889  29.988  30.248  1.00  0.00     0.034 A 
ATOM     44  C   UNL A   1      45.561  27.624  26.863  1.00  0.00     0.034 A 
ATOM     45  C   UNL A   1      40.981  30.922  30.146  1.00  0.00     0.049 A 
ATOM     46  C   UNL A   1      45.487  29.021  27.408  1.00  0.00     0.074 A 
ATOM     47  C   UNL A   1      41.062  32.207  30.655  1.00  0.00     0.029 A 
ATOM     48  N   UNL A   1      42.185  30.672  29.504  1.00  0.00    -0.354 N 
ATOM     49  N   UNL A   1      44.537  29.582  28.116  1.00  0.00    -0.248 NA
ATOM     50  C   UNL A   1      46.634  29.897  27.134  1.00  0.00     0.031 C 
ATOM     51  C   UNL A   1      42.304  32.742  30.298  1.00  0.00     0.029 A 
ATOM     52  C   UNL A   1      43.012  31.779  29.597  1.00  0.00     0.049 A 
ATOM     53  H   UNL A   1      42.417  29.830  29.050  1.00  0.00     0.167 HD
ATOM     54  C   UNL A   1      44.977  30.872  28.387  1.00  0.00     0.074 A 
ATOM     55  C   UNL A   1      46.296  30.994  27.799  1.00  0.00     0.031 C 
ATOM     56  C   UNL A   1      44.337  31.873  29.041  1.00  0.00     0.034 A 
BRANCH  43  57
ATOM     57  C   UNL A   1      38.650  30.429  30.989  1.00  0.00     0.023 A 
ATOM     58  C   UNL A   1      38.550  30.229  32.380  1.00  0.00     0.012 A 
ATOM     59  C   UNL A   1      37.620  31.123  30.318  1.00  0.00     0.148 A 
ATOM     60  C   UNL A   1      37.437  30.686  33.087  1.00  0.00     0.002 A 
ATOM     61  C   UNL A   1      36.539  31.621  31.038  1.00  0.00     0.091 A 
ATOM     62  F   UNL A   1      37.722  31.289  28.992  1.00  0.00    -0.205 F 
ATOM     63  C   UNL A   1      36.440  31.392  32.419  1.00  0.00     0.022 A 
BRANCH  61  64
ATOM     64  S   UNL A   1      35.247  32.620  30.288  1.00  0.00     0.127 S 
ATOM     65  O   UNL A   1      34.802  31.757  29.195  1.00  0.00    -0.237 OA
ATOM     66  O   UNL A   1      34.289  32.753  31.387  1.00  0.00    -0.237 OA
ATOM     67  O   UNL A   1      35.884  33.863  29.878  1.00  0.00    -0.744 OA
ENDBRANCH  61  64
ENDBRANCH  43  57
BRANCH  44  68
ATOM     68  C   UNL A   1      46.760  27.140  26.119  1.00  0.00     0.023 A 
ATOM     69  C   UNL A   1      46.854  27.384  24.736  1.00  0.00     0.012 A 
ATOM     70  C   UNL A   1      47.831  26.503  26.778  1.00  0.00     0.148 A 
ATOM     71  C   UNL A   1      47.986  26.991  24.021  1.00  0.00     0.002 A 
ATOM     72  C   UNL A   1      48.983  26.177  26.073  1.00  0.00     0.091 A 
ATOM     73  F   UNL A   1      47.715  26.262  28.092  1.00  0.00    -0.205 F 
ATOM     74  C   UNL A   1      49.056  26.404  24.691  1.00  0.00     0.022 A 
BRANCH  72  75
ATOM     75  S   UNL A   1      50.468  25.563  26.878  1.00  0.00     0.127 S 
ATOM     76  O   UNL A   1      51.369  25.378  25.742  1.00  0.00    -0.237 OA
ATOM     77  O   UNL A   1      50.812  26.679  27.762  1.00  0.00    -0.237 OA
ATOM     78  O   UNL A   1      50.069  24.347  27.571  1.00  0.00    -0.744 OA
ENDBRANCH  72  75
ENDBRANCH  44  68
BRANCH  56  79
ATOM     79  C   UNL A   1      45.061  33.189  29.172  1.00  0.00     0.023 A 
ATOM     80  C   UNL A   1      45.888  33.422  30.288  1.00  0.00     0.012 A 
ATOM     81  C   UNL A   1      44.975  34.165  28.159  1.00  0.00     0.148 A 
ATOM     82  C   UNL A   1      46.588  34.621  30.414  1.00  0.00     0.002 A 
ATOM     83  C   UNL A   1      45.719  35.333  28.263  1.00  0.00     0.091 A 
ATOM     84  F   UNL A   1      44.168  33.933  27.113  1.00  0.00    -0.205 F 
ATOM     85  C   UNL A   1      46.514  35.569  29.397  1.00  0.00     0.022 A 
BRANCH  83  86
ATOM     86  S   UNL A   1      45.773  36.564  26.956  1.00  0.00     0.127 S 
ATOM     87  O   UNL A   1      46.798  37.480  27.452  1.00  0.00    -0.237 OA
ATOM     88  O   UNL A   1      46.175  35.767  25.797  1.00  0.00    -0.237 OA
ATOM     89  O   UNL A   1      44.428  37.118  26.872  1.00  0.00    -0.744 OA
ENDBRANCH  83  86
ENDBRANCH  56  79
ENDBRANCH  30  31
ENDBRANCH  23  25
ENDBRANCH  22  23
ENDBRANCH   1  22
TORSDOF 15
ENDMDL
