MODEL 1
REMARK VINA RESULT:     -11.1      0.000      0.000
REMARK SMILES COC(=O)c1cncc(N2CC[C@H](C(=O)OCCOC(=O)c3ccc(-c4c5nc(c(-c6cccc(S(=O)(=O)[O-])c6F)c6ccc([nH]6)c(-c6cccc(S(=O)(=O)[O-])c6F)c6nc(c(-c7cccc(S(=O)(=O)[O-])c7F)c7ccc4[nH]7)C=C6)C=C5)cc3)C2)n1
REMARK SMILES IDX 17 1 16 2 14 3 15 4 13 5 10 6 11 7 85 8 12 9 9 10 5 11 6 12
REMARK SMILES IDX 86 13 7 14 8 15 3 16 4 17 2 18 1 19 18 20 19 21 20 22 21 23
REMARK SMILES IDX 22 24 23 25 84 26 24 27 83 28 25 29 26 30 27 31 77 32 28 33
REMARK SMILES IDX 82 34 76 35 78 36 29 37 81 38 75 39 74 40 30 42 62 43 42 44
REMARK SMILES IDX 61 45 43 46 46 47 60 48 79 49 44 50 45 51 59 53 80 54 47 55
REMARK SMILES IDX 31 56 32 57 40 58 33 59 35 60 41 61 34 62 36 63 37 64 38 65
REMARK SMILES IDX 39 66 63 67 64 68 72 69 65 70 67 71 73 72 66 73 68 74 69 75
REMARK SMILES IDX 70 76 71 77 48 78 49 79 57 80 50 81 52 82 58 83 51 84 53 85
REMARK SMILES IDX 54 86 55 87 56 88
REMARK H PARENT 78 41 46 52
REMARK Flexibility Score: inf
ROOT
ATOM      1  C   UNL A   1      31.105  29.773  24.430  1.00  0.00     0.274 C 
ENDROOT
BRANCH   1   2
ATOM      2  O   UNL A   1      30.298  28.615  24.151  1.00  0.00    -0.462 OA
BRANCH   2   3
ATOM      3  C   UNL A   1      30.184  28.241  22.853  1.00  0.00     0.310 C 
ATOM      4  O   UNL A   1      29.715  28.938  21.962  1.00  0.00    -0.252 OA
BRANCH   3   5
ATOM      5  C   UNL A   1      30.698  26.850  22.593  1.00  0.00     0.120 C 
ATOM      6  N   UNL A   1      31.373  24.863  23.655  1.00  0.00    -0.354 N 
ATOM      7  C   UNL A   1      32.406  25.199  22.672  1.00  0.00     0.119 C 
ATOM      8  C   UNL A   1      30.400  25.954  23.785  1.00  0.00     0.133 C 
ATOM      9  C   UNL A   1      32.200  26.682  22.399  1.00  0.00     0.038 C 
BRANCH   6  10
ATOM     10  C   UNL A   1      31.741  24.267  24.846  1.00  0.00     0.148 A 
ATOM     11  C   UNL A   1      33.306  23.204  26.161  1.00  0.00     0.169 A 
ATOM     12  C   UNL A   1      32.437  23.225  27.242  1.00  0.00     0.147 A 
ATOM     13  N   UNL A   1      32.968  23.720  24.951  1.00  0.00    -0.221 NA
ATOM     14  N   UNL A   1      31.199  23.766  27.167  1.00  0.00    -0.258 NA
ATOM     15  C   UNL A   1      30.884  24.286  25.952  1.00  0.00     0.157 A 
BRANCH  11  16
ATOM     16  C   UNL A   1      34.688  22.676  26.285  1.00  0.00     0.358 C 
ATOM     17  O   UNL A   1      34.973  21.512  26.518  1.00  0.00    -0.244 OA
BRANCH  16  18
ATOM     18  O   UNL A   1      35.585  23.686  26.114  1.00  0.00    -0.464 OA
ATOM     19  C   UNL A   1      36.858  23.249  25.638  1.00  0.00     0.282 C 
ENDBRANCH  16  18
ENDBRANCH  11  16
ENDBRANCH   6  10
ENDBRANCH   3   5
ENDBRANCH   2   3
ENDBRANCH   1   2
BRANCH   1  20
ATOM     20  C   UNL A   1      31.529  29.786  25.901  1.00  0.00     0.275 C 
BRANCH  20  21
ATOM     21  O   UNL A   1      32.927  30.094  26.046  1.00  0.00    -0.458 OA
BRANCH  21  22
ATOM     22  C   UNL A   1      33.207  31.104  26.904  1.00  0.00     0.338 C 
ATOM     23  O   UNL A   1      32.480  32.030  27.220  1.00  0.00    -0.246 OA
BRANCH  22  24
ATOM     24  C   UNL A   1      34.511  30.865  27.536  1.00  0.00     0.060 A 
ATOM     25  C   UNL A   1      34.865  29.548  27.839  1.00  0.00     0.016 A 
ATOM     26  C   UNL A   1      35.338  31.926  27.906  1.00  0.00     0.016 A 
ATOM     27  C   UNL A   1      36.039  29.278  28.531  1.00  0.00     0.010 A 
ATOM     28  C   UNL A   1      36.524  31.654  28.592  1.00  0.00     0.010 A 
ATOM     29  C   UNL A   1      36.874  30.331  28.920  1.00  0.00    -0.014 A 
BRANCH  29  30
ATOM     30  C   UNL A   1      38.097  30.052  29.706  1.00  0.00     0.031 A 
ATOM     31  C   UNL A   1      39.133  29.112  29.162  1.00  0.00     0.074 A 
ATOM     32  C   UNL A   1      38.260  30.629  30.911  1.00  0.00     0.049 A 
ATOM     33  N   UNL A   1      40.211  28.651  29.737  1.00  0.00    -0.248 NA
ATOM     34  C   UNL A   1      38.926  28.623  27.789  1.00  0.00     0.031 C 
ATOM     35  C   UNL A   1      37.327  31.572  31.527  1.00  0.00     0.029 A 
ATOM     36  N   UNL A   1      39.257  30.485  31.841  1.00  0.00    -0.354 N 
ATOM     37  C   UNL A   1      40.789  27.783  28.820  1.00  0.00     0.074 A 
ATOM     38  C   UNL A   1      39.942  27.784  27.646  1.00  0.00     0.031 C 
ATOM     39  C   UNL A   1      37.784  31.907  32.744  1.00  0.00     0.029 A 
ATOM     40  C   UNL A   1      39.016  31.171  33.009  1.00  0.00     0.049 A 
ATOM     41  H   UNL A   1      40.066  29.944  31.689  1.00  0.00     0.167 HD
ATOM     42  C   UNL A   1      41.926  27.060  28.944  1.00  0.00     0.034 A 
ATOM     43  C   UNL A   1      39.697  31.178  34.172  1.00  0.00     0.034 A 
ATOM     44  C   UNL A   1      42.780  27.094  30.100  1.00  0.00     0.049 A 
ATOM     45  C   UNL A   1      40.951  30.354  34.286  1.00  0.00     0.074 A 
ATOM     46  C   UNL A   1      43.973  26.425  30.310  1.00  0.00     0.029 A 
ATOM     47  N   UNL A   1      42.534  27.840  31.243  1.00  0.00    -0.354 N 
ATOM     48  N   UNL A   1      41.529  29.602  33.380  1.00  0.00    -0.248 NA
ATOM     49  C   UNL A   1      41.661  30.399  35.572  1.00  0.00     0.031 C 
ATOM     50  C   UNL A   1      44.442  26.759  31.586  1.00  0.00     0.029 A 
ATOM     51  C   UNL A   1      43.548  27.647  32.164  1.00  0.00     0.049 A 
ATOM     52  H   UNL A   1      41.751  28.423  31.379  1.00  0.00     0.167 HD
ATOM     53  C   UNL A   1      42.684  29.107  33.975  1.00  0.00     0.074 A 
ATOM     54  C   UNL A   1      42.734  29.662  35.313  1.00  0.00     0.031 C 
ATOM     55  C   UNL A   1      43.610  28.257  33.468  1.00  0.00     0.034 A 
BRANCH  42  56
ATOM     56  C   UNL A   1      42.329  26.189  27.784  1.00  0.00     0.023 A 
ATOM     57  C   UNL A   1      43.189  26.705  26.793  1.00  0.00     0.012 A 
ATOM     58  C   UNL A   1      41.898  24.851  27.697  1.00  0.00     0.148 A 
ATOM     59  C   UNL A   1      43.593  25.911  25.721  1.00  0.00     0.002 A 
ATOM     60  C   UNL A   1      42.335  24.054  26.644  1.00  0.00     0.091 A 
ATOM     61  F   UNL A   1      41.058  24.387  28.633  1.00  0.00    -0.205 F 
ATOM     62  C   UNL A   1      43.175  24.585  25.652  1.00  0.00     0.022 A 
BRANCH  60  63
ATOM     63  S   UNL A   1      41.902  22.316  26.510  1.00  0.00     0.127 S 
ATOM     64  O   UNL A   1      40.445  22.380  26.409  1.00  0.00    -0.237 OA
ATOM     65  O   UNL A   1      42.582  21.920  25.275  1.00  0.00    -0.237 OA
ATOM     66  O   UNL A   1      42.423  21.682  27.714  1.00  0.00    -0.744 OA
ENDBRANCH  60  63
ENDBRANCH  42  56
BRANCH  43  67
ATOM     67  C   UNL A   1      39.221  32.020  35.303  1.00  0.00     0.023 A 
ATOM     68  C   UNL A   1      38.304  31.483  36.226  1.00  0.00     0.012 A 
ATOM     69  C   UNL A   1      39.699  33.331  35.495  1.00  0.00     0.148 A 
ATOM     70  C   UNL A   1      37.857  32.241  37.309  1.00  0.00     0.002 A 
ATOM     71  C   UNL A   1      39.292  34.062  36.606  1.00  0.00     0.091 A 
ATOM     72  F   UNL A   1      40.556  33.835  34.594  1.00  0.00    -0.205 F 
ATOM     73  C   UNL A   1      38.361  33.524  37.506  1.00  0.00     0.022 A 
BRANCH  71  74
ATOM     74  S   UNL A   1      39.993  35.668  37.005  1.00  0.00     0.127 S 
ATOM     75  O   UNL A   1      41.411  35.348  37.147  1.00  0.00    -0.237 OA
ATOM     76  O   UNL A   1      39.655  36.452  35.817  1.00  0.00    -0.237 OA
ATOM     77  O   UNL A   1      39.312  36.099  38.218  1.00  0.00    -0.744 OA
ENDBRANCH  71  74
ENDBRANCH  43  67
BRANCH  55  78
ATOM     78  C   UNL A   1      44.778  27.896  34.346  1.00  0.00     0.023 A 
ATOM     79  C   UNL A   1      45.933  28.703  34.331  1.00  0.00     0.012 A 
ATOM     80  C   UNL A   1      44.700  26.810  35.239  1.00  0.00     0.148 A 
ATOM     81  C   UNL A   1      47.005  28.418  35.177  1.00  0.00     0.002 A 
ATOM     82  C   UNL A   1      45.755  26.559  36.108  1.00  0.00     0.091 A 
ATOM     83  F   UNL A   1      43.601  26.043  35.220  1.00  0.00    -0.205 F 
ATOM     84  C   UNL A   1      46.911  27.356  36.073  1.00  0.00     0.022 A 
BRANCH  82  85
ATOM     85  S   UNL A   1      45.680  25.267  37.356  1.00  0.00     0.127 S 
ATOM     86  O   UNL A   1      46.969  25.423  38.024  1.00  0.00    -0.237 OA
ATOM     87  O   UNL A   1      44.523  25.672  38.157  1.00  0.00    -0.237 OA
ATOM     88  O   UNL A   1      45.496  24.020  36.625  1.00  0.00    -0.744 OA
ENDBRANCH  82  85
ENDBRANCH  55  78
ENDBRANCH  29  30
ENDBRANCH  22  24
ENDBRANCH  21  22
ENDBRANCH  20  21
ENDBRANCH   1  20
TORSDOF 17
ENDMDL
MODEL 2
REMARK VINA RESULT:     -11.0      5.135     10.118
REMARK SMILES COC(=O)c1cncc(N2CC[C@H](C(=O)OCCOC(=O)c3ccc(-c4c5nc(c(-c6cccc(S(=O)(=O)[O-])c6F)c6ccc([nH]6)c(-c6cccc(S(=O)(=O)[O-])c6F)c6nc(c(-c7cccc(S(=O)(=O)[O-])c7F)c7ccc4[nH]7)C=C6)C=C5)cc3)C2)n1
REMARK SMILES IDX 17 1 16 2 14 3 15 4 13 5 10 6 11 7 85 8 12 9 9 10 5 11 6 12
REMARK SMILES IDX 86 13 7 14 8 15 3 16 4 17 2 18 1 19 18 20 19 21 20 22 21 23
REMARK SMILES IDX 22 24 23 25 84 26 24 27 83 28 25 29 26 30 27 31 77 32 28 33
REMARK SMILES IDX 82 34 76 35 78 36 29 37 81 38 75 39 74 40 30 42 62 43 42 44
REMARK SMILES IDX 61 45 43 46 46 47 60 48 79 49 44 50 45 51 59 53 80 54 47 55
REMARK SMILES IDX 31 56 32 57 40 58 33 59 35 60 41 61 34 62 36 63 37 64 38 65
REMARK SMILES IDX 39 66 63 67 64 68 72 69 65 70 67 71 73 72 66 73 68 74 69 75
REMARK SMILES IDX 70 76 71 77 48 78 49 79 57 80 50 81 52 82 58 83 51 84 53 85
REMARK SMILES IDX 54 86 55 87 56 88
REMARK H PARENT 78 41 46 52
REMARK Flexibility Score: inf
ROOT
ATOM      1  C   UNL A   1      35.776  20.109  24.962  1.00  0.00     0.274 C 
ENDROOT
BRANCH   1   2
ATOM      2  O   UNL A   1      34.567  20.881  24.850  1.00  0.00    -0.462 OA
BRANCH   2   3
ATOM      3  C   UNL A   1      33.402  20.192  24.773  1.00  0.00     0.310 C 
ATOM      4  O   UNL A   1      33.300  18.975  24.850  1.00  0.00    -0.252 OA
BRANCH   3   5
ATOM      5  C   UNL A   1      32.203  21.083  24.575  1.00  0.00     0.120 C 
ATOM      6  N   UNL A   1      31.490  23.082  23.562  1.00  0.00    -0.354 N 
ATOM      7  C   UNL A   1      31.014  23.106  24.946  1.00  0.00     0.119 C 
ATOM      8  C   UNL A   1      32.398  21.950  23.341  1.00  0.00     0.133 C 
ATOM      9  C   UNL A   1      31.897  22.098  25.668  1.00  0.00     0.038 C 
BRANCH   6  10
ATOM     10  C   UNL A   1      31.876  24.263  22.958  1.00  0.00     0.148 A 
ATOM     11  C   UNL A   1      31.536  26.498  22.517  1.00  0.00     0.169 A 
ATOM     12  C   UNL A   1      32.752  26.571  21.853  1.00  0.00     0.147 A 
ATOM     13  N   UNL A   1      31.082  25.346  23.072  1.00  0.00    -0.221 NA
ATOM     14  N   UNL A   1      33.570  25.501  21.721  1.00  0.00    -0.258 NA
ATOM     15  C   UNL A   1      33.104  24.361  22.293  1.00  0.00     0.157 A 
BRANCH  11  16
ATOM     16  C   UNL A   1      30.688  27.701  22.719  1.00  0.00     0.358 C 
ATOM     17  O   UNL A   1      30.269  28.418  21.825  1.00  0.00    -0.244 OA
BRANCH  16  18
ATOM     18  O   UNL A   1      30.463  27.888  24.049  1.00  0.00    -0.464 OA
ATOM     19  C   UNL A   1      31.447  28.701  24.689  1.00  0.00     0.282 C 
ENDBRANCH  16  18
ENDBRANCH  11  16
ENDBRANCH   6  10
ENDBRANCH   3   5
ENDBRANCH   2   3
ENDBRANCH   1   2
BRANCH   1  20
ATOM     20  C   UNL A   1      36.991  20.965  24.595  1.00  0.00     0.275 C 
BRANCH  20  21
ATOM     21  O   UNL A   1      37.517  21.656  25.742  1.00  0.00    -0.458 OA
BRANCH  21  22
ATOM     22  C   UNL A   1      38.813  21.388  26.030  1.00  0.00     0.338 C 
ATOM     23  O   UNL A   1      39.432  20.370  25.776  1.00  0.00    -0.246 OA
BRANCH  22  24
ATOM     24  C   UNL A   1      39.447  22.583  26.602  1.00  0.00     0.060 A 
ATOM     25  C   UNL A   1      39.036  23.834  26.134  1.00  0.00     0.016 A 
ATOM     26  C   UNL A   1      40.492  22.475  27.519  1.00  0.00     0.016 A 
ATOM     27  C   UNL A   1      39.677  24.989  26.566  1.00  0.00     0.010 A 
ATOM     28  C   UNL A   1      41.129  23.637  27.960  1.00  0.00     0.010 A 
ATOM     29  C   UNL A   1      40.735  24.898  27.476  1.00  0.00    -0.014 A 
BRANCH  29  30
ATOM     30  C   UNL A   1      41.457  26.122  27.894  1.00  0.00     0.031 A 
ATOM     31  C   UNL A   1      40.741  27.171  28.695  1.00  0.00     0.074 A 
ATOM     32  C   UNL A   1      42.743  26.291  27.536  1.00  0.00     0.049 A 
ATOM     33  N   UNL A   1      41.156  28.354  29.059  1.00  0.00    -0.248 NA
ATOM     34  C   UNL A   1      39.376  26.846  29.140  1.00  0.00     0.031 C 
ATOM     35  C   UNL A   1      43.540  25.328  26.776  1.00  0.00     0.029 A 
ATOM     36  N   UNL A   1      43.595  27.345  27.743  1.00  0.00    -0.354 N 
ATOM     37  C   UNL A   1      40.093  28.937  29.736  1.00  0.00     0.074 A 
ATOM     38  C   UNL A   1      39.012  27.973  29.735  1.00  0.00     0.031 C 
ATOM     39  C   UNL A   1      44.761  25.845  26.561  1.00  0.00     0.029 A 
ATOM     40  C   UNL A   1      44.816  27.188  27.129  1.00  0.00     0.049 A 
ATOM     41  H   UNL A   1      43.357  28.137  28.278  1.00  0.00     0.167 HD
ATOM     42  C   UNL A   1      40.028  30.159  30.314  1.00  0.00     0.034 A 
ATOM     43  C   UNL A   1      45.849  28.045  27.012  1.00  0.00     0.034 A 
ATOM     44  C   UNL A   1      41.119  31.095  30.342  1.00  0.00     0.049 A 
ATOM     45  C   UNL A   1      45.745  29.402  27.652  1.00  0.00     0.074 A 
ATOM     46  C   UNL A   1      41.167  32.345  30.931  1.00  0.00     0.029 A 
ATOM     47  N   UNL A   1      42.359  30.881  29.757  1.00  0.00    -0.354 N 
ATOM     48  N   UNL A   1      44.763  29.907  28.359  1.00  0.00    -0.248 NA
ATOM     49  C   UNL A   1      46.900  30.299  27.501  1.00  0.00     0.031 C 
ATOM     50  C   UNL A   1      42.433  32.893  30.693  1.00  0.00     0.029 A 
ATOM     51  C   UNL A   1      43.178  31.976  29.967  1.00  0.00     0.049 A 
ATOM     52  H   UNL A   1      42.617  30.068  29.264  1.00  0.00     0.167 HD
ATOM     53  C   UNL A   1      45.191  31.167  28.763  1.00  0.00     0.074 A 
ATOM     54  C   UNL A   1      46.530  31.340  28.237  1.00  0.00     0.031 C 
ATOM     55  C   UNL A   1      44.530  32.104  29.486  1.00  0.00     0.034 A 
BRANCH  42  56
ATOM     56  C   UNL A   1      38.739  30.544  30.990  1.00  0.00     0.023 A 
ATOM     57  C   UNL A   1      38.563  30.266  32.360  1.00  0.00     0.012 A 
ATOM     58  C   UNL A   1      37.725  31.221  30.285  1.00  0.00     0.148 A 
ATOM     59  C   UNL A   1      37.387  30.633  33.013  1.00  0.00     0.002 A 
ATOM     60  C   UNL A   1      36.570  31.616  30.951  1.00  0.00     0.091 A 
ATOM     61  F   UNL A   1      37.899  31.451  28.976  1.00  0.00    -0.205 F 
ATOM     62  C   UNL A   1      36.396  31.316  32.312  1.00  0.00     0.022 A 
BRANCH  60  63
ATOM     63  S   UNL A   1      35.270  32.559  30.147  1.00  0.00     0.127 S 
ATOM     64  O   UNL A   1      34.846  31.640  29.092  1.00  0.00    -0.237 OA
ATOM     65  O   UNL A   1      34.299  32.736  31.227  1.00  0.00    -0.237 OA
ATOM     66  O   UNL A   1      35.896  33.793  29.692  1.00  0.00    -0.744 OA
ENDBRANCH  60  63
ENDBRANCH  42  56
BRANCH  43  67
ATOM     67  C   UNL A   1      47.079  27.625  26.287  1.00  0.00     0.023 A 
ATOM     68  C   UNL A   1      48.082  26.920  26.979  1.00  0.00     0.012 A 
ATOM     69  C   UNL A   1      47.245  27.881  24.911  1.00  0.00     0.148 A 
ATOM     70  C   UNL A   1      49.236  26.494  26.321  1.00  0.00     0.002 A 
ATOM     71  C   UNL A   1      48.372  27.406  24.249  1.00  0.00     0.091 A 
ATOM     72  F   UNL A   1      46.290  28.572  24.273  1.00  0.00    -0.205 F 
ATOM     73  C   UNL A   1      49.375  26.726  24.954  1.00  0.00     0.022 A 
BRANCH  71  74
ATOM     74  S   UNL A   1      48.565  27.545  22.468  1.00  0.00     0.127 S 
ATOM     75  O   UNL A   1      49.838  28.252  22.359  1.00  0.00    -0.237 OA
ATOM     76  O   UNL A   1      48.602  26.143  22.053  1.00  0.00    -0.237 OA
ATOM     77  O   UNL A   1      47.391  28.274  22.005  1.00  0.00    -0.744 OA
ENDBRANCH  71  74
ENDBRANCH  43  67
BRANCH  55  78
ATOM     78  C   UNL A   1      45.253  33.389  29.785  1.00  0.00     0.023 A 
ATOM     79  C   UNL A   1      46.327  33.387  30.697  1.00  0.00     0.012 A 
ATOM     80  C   UNL A   1      44.921  34.578  29.106  1.00  0.00     0.148 A 
ATOM     81  C   UNL A   1      47.045  34.556  30.946  1.00  0.00     0.002 A 
ATOM     82  C   UNL A   1      45.668  35.728  29.328  1.00  0.00     0.091 A 
ATOM     83  F   UNL A   1      43.881  34.562  28.259  1.00  0.00    -0.205 F 
ATOM     84  C   UNL A   1      46.724  35.722  30.253  1.00  0.00     0.022 A 
BRANCH  82  85
ATOM     85  S   UNL A   1      45.381  37.248  28.412  1.00  0.00     0.127 S 
ATOM     86  O   UNL A   1      44.043  37.621  28.866  1.00  0.00    -0.237 OA
ATOM     87  O   UNL A   1      46.454  38.115  28.899  1.00  0.00    -0.237 OA
ATOM     88  O   UNL A   1      45.491  36.890  27.005  1.00  0.00    -0.744 OA
ENDBRANCH  82  85
ENDBRANCH  55  78
ENDBRANCH  29  30
ENDBRANCH  22  24
ENDBRANCH  21  22
ENDBRANCH  20  21
ENDBRANCH   1  20
TORSDOF 17
ENDMDL
MODEL 3
REMARK VINA RESULT:     -10.8      1.861      2.508
REMARK SMILES COC(=O)c1cncc(N2CC[C@H](C(=O)OCCOC(=O)c3ccc(-c4c5nc(c(-c6cccc(S(=O)(=O)[O-])c6F)c6ccc([nH]6)c(-c6cccc(S(=O)(=O)[O-])c6F)c6nc(c(-c7cccc(S(=O)(=O)[O-])c7F)c7ccc4[nH]7)C=C6)C=C5)cc3)C2)n1
REMARK SMILES IDX 17 1 16 2 14 3 15 4 13 5 10 6 11 7 85 8 12 9 9 10 5 11 6 12
REMARK SMILES IDX 86 13 7 14 8 15 3 16 4 17 2 18 1 19 18 20 19 21 20 22 21 23
REMARK SMILES IDX 22 24 23 25 84 26 24 27 83 28 25 29 26 30 27 31 77 32 28 33
REMARK SMILES IDX 82 34 76 35 78 36 29 37 81 38 75 39 74 40 30 42 62 43 42 44
REMARK SMILES IDX 61 45 43 46 46 47 60 48 79 49 44 50 45 51 59 53 80 54 47 55
REMARK SMILES IDX 31 56 32 57 40 58 33 59 35 60 41 61 34 62 36 63 37 64 38 65
REMARK SMILES IDX 39 66 63 67 64 68 72 69 65 70 67 71 73 72 66 73 68 74 69 75
REMARK SMILES IDX 70 76 71 77 48 78 49 79 57 80 50 81 52 82 58 83 51 84 53 85
REMARK SMILES IDX 54 86 55 87 56 88
REMARK H PARENT 78 41 46 52
REMARK Flexibility Score: inf
ROOT
ATOM      1  C   UNL A   1      31.789  28.938  24.791  1.00  0.00     0.274 C 
ENDROOT
BRANCH   1   2
ATOM      2  O   UNL A   1      32.291  27.646  24.405  1.00  0.00    -0.462 OA
BRANCH   2   3
ATOM      3  C   UNL A   1      31.434  26.599  24.496  1.00  0.00     0.310 C 
ATOM      4  O   UNL A   1      30.514  26.377  23.720  1.00  0.00    -0.252 OA
BRANCH   3   5
ATOM      5  C   UNL A   1      31.719  25.706  25.675  1.00  0.00     0.120 C 
ATOM      6  N   UNL A   1      32.897  23.782  26.338  1.00  0.00    -0.354 N 
ATOM      7  C   UNL A   1      31.526  23.639  26.832  1.00  0.00     0.119 C 
ATOM      8  C   UNL A   1      33.015  24.943  25.449  1.00  0.00     0.133 C 
ATOM      9  C   UNL A   1      30.714  24.602  25.977  1.00  0.00     0.038 C 
BRANCH   6  10
ATOM     10  C   UNL A   1      33.587  22.660  25.923  1.00  0.00     0.148 A 
ATOM     11  C   UNL A   1      33.617  20.462  25.229  1.00  0.00     0.169 A 
ATOM     12  C   UNL A   1      34.982  20.536  24.996  1.00  0.00     0.147 A 
ATOM     13  N   UNL A   1      32.905  21.519  25.698  1.00  0.00    -0.221 NA
ATOM     14  N   UNL A   1      35.694  21.667  25.212  1.00  0.00    -0.258 NA
ATOM     15  C   UNL A   1      34.963  22.715  25.671  1.00  0.00     0.157 A 
BRANCH  11  16
ATOM     16  C   UNL A   1      32.839  19.238  24.912  1.00  0.00     0.358 C 
ATOM     17  O   UNL A   1      32.317  18.508  25.740  1.00  0.00    -0.244 OA
BRANCH  16  18
ATOM     18  O   UNL A   1      32.810  19.046  23.564  1.00  0.00    -0.464 OA
ATOM     19  C   UNL A   1      32.907  17.675  23.178  1.00  0.00     0.282 C 
ENDBRANCH  16  18
ENDBRANCH  11  16
ENDBRANCH   6  10
ENDBRANCH   3   5
ENDBRANCH   2   3
ENDBRANCH   1   2
BRANCH   1  20
ATOM     20  C   UNL A   1      32.877  29.741  25.507  1.00  0.00     0.275 C 
BRANCH  20  21
ATOM     21  O   UNL A   1      32.415  30.249  26.771  1.00  0.00    -0.458 OA
BRANCH  21  22
ATOM     22  C   UNL A   1      32.998  31.402  27.176  1.00  0.00     0.338 C 
ATOM     23  O   UNL A   1      32.508  32.518  27.180  1.00  0.00    -0.246 OA
BRANCH  22  24
ATOM     24  C   UNL A   1      34.316  31.110  27.755  1.00  0.00     0.060 A 
ATOM     25  C   UNL A   1      34.551  29.821  28.239  1.00  0.00     0.016 A 
ATOM     26  C   UNL A   1      35.276  32.111  27.903  1.00  0.00     0.016 A 
ATOM     27  C   UNL A   1      35.741  29.522  28.891  1.00  0.00     0.010 A 
ATOM     28  C   UNL A   1      36.477  31.808  28.549  1.00  0.00     0.010 A 
ATOM     29  C   UNL A   1      36.710  30.517  29.059  1.00  0.00    -0.014 A 
BRANCH  29  30
ATOM     30  C   UNL A   1      37.955  30.218  29.802  1.00  0.00     0.031 A 
ATOM     31  C   UNL A   1      38.982  29.305  29.198  1.00  0.00     0.074 A 
ATOM     32  C   UNL A   1      38.146  30.752  31.022  1.00  0.00     0.049 A 
ATOM     33  N   UNL A   1      40.076  28.830  29.729  1.00  0.00    -0.248 NA
ATOM     34  C   UNL A   1      38.742  28.864  27.814  1.00  0.00     0.031 C 
ATOM     35  C   UNL A   1      37.224  31.667  31.696  1.00  0.00     0.029 A 
ATOM     36  N   UNL A   1      39.168  30.581  31.921  1.00  0.00    -0.354 N 
ATOM     37  C   UNL A   1      40.635  28.000  28.766  1.00  0.00     0.074 A 
ATOM     38  C   UNL A   1      39.758  28.037  27.615  1.00  0.00     0.031 C 
ATOM     39  C   UNL A   1      37.711  31.961  32.913  1.00  0.00     0.029 A 
ATOM     40  C   UNL A   1      38.954  31.223  33.119  1.00  0.00     0.049 A 
ATOM     41  H   UNL A   1      39.975  30.051  31.729  1.00  0.00     0.167 HD
ATOM     42  C   UNL A   1      41.779  27.279  28.834  1.00  0.00     0.034 A 
ATOM     43  C   UNL A   1      39.664  31.192  34.263  1.00  0.00     0.034 A 
ATOM     44  C   UNL A   1      42.663  27.278  29.968  1.00  0.00     0.049 A 
ATOM     45  C   UNL A   1      40.925  30.373  34.315  1.00  0.00     0.074 A 
ATOM     46  C   UNL A   1      43.864  26.609  30.123  1.00  0.00     0.029 A 
ATOM     47  N   UNL A   1      42.442  27.981  31.143  1.00  0.00    -0.354 N 
ATOM     48  N   UNL A   1      41.483  29.658  33.368  1.00  0.00    -0.248 NA
ATOM     49  C   UNL A   1      41.668  30.376  35.583  1.00  0.00     0.031 C 
ATOM     50  C   UNL A   1      44.364  26.900  31.398  1.00  0.00     0.029 A 
ATOM     51  C   UNL A   1      43.481  27.761  32.030  1.00  0.00     0.049 A 
ATOM     52  H   UNL A   1      41.659  28.553  31.320  1.00  0.00     0.167 HD
ATOM     53  C   UNL A   1      42.656  29.150  33.914  1.00  0.00     0.074 A 
ATOM     54  C   UNL A   1      42.738  29.656  35.270  1.00  0.00     0.031 C 
ATOM     55  C   UNL A   1      43.573  28.324  33.354  1.00  0.00     0.034 A 
BRANCH  42  56
ATOM     56  C   UNL A   1      42.157  26.454  27.633  1.00  0.00     0.023 A 
ATOM     57  C   UNL A   1      42.881  27.049  26.581  1.00  0.00     0.012 A 
ATOM     58  C   UNL A   1      41.838  25.084  27.566  1.00  0.00     0.148 A 
ATOM     59  C   UNL A   1      43.260  26.299  25.468  1.00  0.00     0.002 A 
ATOM     60  C   UNL A   1      42.251  24.334  26.470  1.00  0.00     0.091 A 
ATOM     61  F   UNL A   1      41.124  24.543  28.563  1.00  0.00    -0.205 F 
ATOM     62  C   UNL A   1      42.955  24.941  25.418  1.00  0.00     0.022 A 
BRANCH  60  63
ATOM     63  S   UNL A   1      41.962  22.565  26.350  1.00  0.00     0.127 S 
ATOM     64  O   UNL A   1      42.635  22.239  25.095  1.00  0.00    -0.237 OA
ATOM     65  O   UNL A   1      42.630  22.058  27.550  1.00  0.00    -0.237 OA
ATOM     66  O   UNL A   1      40.515  22.397  26.351  1.00  0.00    -0.744 OA
ENDBRANCH  60  63
ENDBRANCH  42  56
BRANCH  43  67
ATOM     67  C   UNL A   1      39.213  31.991  35.436  1.00  0.00     0.023 A 
ATOM     68  C   UNL A   1      39.437  33.381  35.452  1.00  0.00     0.012 A 
ATOM     69  C   UNL A   1      38.528  31.393  36.513  1.00  0.00     0.148 A 
ATOM     70  C   UNL A   1      39.005  34.158  36.527  1.00  0.00     0.002 A 
ATOM     71  C   UNL A   1      38.053  32.181  37.554  1.00  0.00     0.091 A 
ATOM     72  F   UNL A   1      38.343  30.065  36.490  1.00  0.00    -0.205 F 
ATOM     73  C   UNL A   1      38.302  33.561  37.571  1.00  0.00     0.022 A 
BRANCH  71  74
ATOM     74  S   UNL A   1      37.025  31.512  38.868  1.00  0.00     0.127 S 
ATOM     75  O   UNL A   1      37.923  31.588  40.018  1.00  0.00    -0.237 OA
ATOM     76  O   UNL A   1      35.909  32.457  38.895  1.00  0.00    -0.237 OA
ATOM     77  O   UNL A   1      36.661  30.170  38.433  1.00  0.00    -0.744 OA
ENDBRANCH  71  74
ENDBRANCH  43  67
BRANCH  55  78
ATOM     78  C   UNL A   1      44.765  27.939  34.187  1.00  0.00     0.023 A 
ATOM     79  C   UNL A   1      45.912  28.758  34.179  1.00  0.00     0.012 A 
ATOM     80  C   UNL A   1      44.720  26.816  35.036  1.00  0.00     0.148 A 
ATOM     81  C   UNL A   1      47.007  28.450  34.986  1.00  0.00     0.002 A 
ATOM     82  C   UNL A   1      45.798  26.540  35.869  1.00  0.00     0.091 A 
ATOM     83  F   UNL A   1      43.628  26.039  35.012  1.00  0.00    -0.205 F 
ATOM     84  C   UNL A   1      46.945  27.350  35.840  1.00  0.00     0.022 A 
BRANCH  82  85
ATOM     85  S   UNL A   1      45.765  25.197  37.062  1.00  0.00     0.127 S 
ATOM     86  O   UNL A   1      45.624  24.030  36.194  1.00  0.00    -0.237 OA
ATOM     87  O   UNL A   1      47.072  25.321  37.710  1.00  0.00    -0.237 OA
ATOM     88  O   UNL A   1      44.633  25.471  37.937  1.00  0.00    -0.744 OA
ENDBRANCH  82  85
ENDBRANCH  55  78
ENDBRANCH  29  30
ENDBRANCH  22  24
ENDBRANCH  21  22
ENDBRANCH  20  21
ENDBRANCH   1  20
TORSDOF 17
ENDMDL
