MODEL 1
REMARK VINA RESULT:     -11.3      0.000      0.000
REMARK SMILES CC(=O)N[C@H](CC(=O)NCC(=O)OCCOC(=O)c1ccc(-c2c3nc(c(-c4cccc(S(=O)(=O)[O-])c4F)c4ccc([nH]4)c(-c4cccc(S(=O)(=O)[O-])c4F)c4nc(c(-c5cccc(S(=O)(=O)[O-])c5F)c5ccc2[nH]5)C=C4)C=C3)cc1)c1cccs1
REMARK SMILES IDX 14 1 13 2 11 3 12 4 10 5 9 6 7 7 8 8 6 10 5 11 4 12 1 13
REMARK SMILES IDX 2 14 3 15 82 17 83 18 86 19 84 20 85 21 15 22 16 23 17 24
REMARK SMILES IDX 18 25 19 26 20 27 81 28 21 29 80 30 22 31 23 32 24 33 74 34
REMARK SMILES IDX 25 35 79 36 73 37 75 38 26 39 78 40 72 41 71 42 27 44 59 45
REMARK SMILES IDX 39 46 58 47 40 48 43 49 57 50 76 51 41 52 42 53 56 55 77 56
REMARK SMILES IDX 44 57 28 58 29 59 37 60 30 61 32 62 38 63 31 64 33 65 34 66
REMARK SMILES IDX 35 67 36 68 60 69 61 70 69 71 62 72 64 73 70 74 63 75 65 76
REMARK SMILES IDX 66 77 67 78 68 79 45 80 46 81 54 82 47 83 49 84 55 85 48 86
REMARK SMILES IDX 50 87 51 88 52 89 53 90
REMARK H PARENT 9 9 4 16 75 43 43 54
REMARK Flexibility Score: inf
ROOT
ATOM      1  C   UNL A   1      34.933  21.116  24.899  1.00  0.00     0.274 C 
ENDROOT
BRANCH   1   2
ATOM      2  O   UNL A   1      34.044  20.249  25.633  1.00  0.00    -0.461 OA
BRANCH   2   3
ATOM      3  C   UNL A   1      32.765  20.160  25.192  1.00  0.00     0.325 C 
ATOM      4  O   UNL A   1      32.162  19.111  25.000  1.00  0.00    -0.250 OA
BRANCH   3   5
ATOM      5  C   UNL A   1      32.138  21.529  24.911  1.00  0.00     0.238 C 
BRANCH   5   6
ATOM      6  N   UNL A   1      31.553  22.249  26.035  1.00  0.00    -0.345 N 
ATOM      7  C   UNL A   1      31.769  23.518  26.461  1.00  0.00     0.222 C 
ATOM      8  O   UNL A   1      30.974  24.027  27.252  1.00  0.00    -0.275 OA
ATOM      9  H   UNL A   1      30.901  21.735  26.566  1.00  0.00     0.164 HD
BRANCH   7  10
ATOM     10  C   UNL A   1      32.968  24.301  25.978  1.00  0.00     0.130 C 
BRANCH  10  11
ATOM     11  C   UNL A   1      32.637  25.725  25.527  1.00  0.00     0.131 C 
BRANCH  11  12
ATOM     12  N   UNL A   1      33.556  26.683  26.131  1.00  0.00    -0.348 N 
ATOM     13  C   UNL A   1      31.802  28.276  26.823  1.00  0.00     0.114 C 
ATOM     14  C   UNL A   1      33.249  27.871  26.728  1.00  0.00     0.217 C 
ATOM     15  O   UNL A   1      34.150  28.578  27.177  1.00  0.00    -0.275 OA
ATOM     16  H   UNL A   1      34.511  26.443  26.106  1.00  0.00     0.164 HD
ENDBRANCH  11  12
BRANCH  11  17
ATOM     17  C   UNL A   1      32.605  25.962  24.030  1.00  0.00     0.027 A 
ATOM     18  C   UNL A   1      33.613  25.925  23.083  1.00  0.00     0.017 A 
ATOM     19  S   UNL A   1      31.078  26.225  23.267  1.00  0.00    -0.147 S 
ATOM     20  C   UNL A   1      33.112  25.901  21.748  1.00  0.00     0.012 A 
ATOM     21  C   UNL A   1      31.746  26.044  21.708  1.00  0.00     0.065 A 
ENDBRANCH  11  17
ENDBRANCH  10  11
ENDBRANCH   7  10
ENDBRANCH   5   6
ENDBRANCH   3   5
ENDBRANCH   2   3
ENDBRANCH   1   2
BRANCH   1  22
ATOM     22  C   UNL A   1      36.373  20.611  25.041  1.00  0.00     0.275 C 
BRANCH  22  23
ATOM     23  O   UNL A   1      37.163  21.587  25.745  1.00  0.00    -0.458 OA
BRANCH  23  24
ATOM     24  C   UNL A   1      38.446  21.224  25.972  1.00  0.00     0.338 C 
ATOM     25  O   UNL A   1      39.001  20.184  25.638  1.00  0.00    -0.246 OA
BRANCH  24  26
ATOM     26  C   UNL A   1      39.184  22.391  26.466  1.00  0.00     0.060 A 
ATOM     27  C   UNL A   1      38.699  23.649  26.097  1.00  0.00     0.016 A 
ATOM     28  C   UNL A   1      40.327  22.267  27.253  1.00  0.00     0.016 A 
ATOM     29  C   UNL A   1      39.358  24.798  26.503  1.00  0.00     0.010 A 
ATOM     30  C   UNL A   1      40.992  23.424  27.661  1.00  0.00     0.010 A 
ATOM     31  C   UNL A   1      40.517  24.692  27.276  1.00  0.00    -0.014 A 
BRANCH  31  32
ATOM     32  C   UNL A   1      41.267  25.917  27.620  1.00  0.00     0.031 A 
ATOM     33  C   UNL A   1      40.590  26.986  28.425  1.00  0.00     0.074 A 
ATOM     34  C   UNL A   1      42.544  26.050  27.219  1.00  0.00     0.049 A 
ATOM     35  N   UNL A   1      41.032  28.166  28.763  1.00  0.00    -0.248 NA
ATOM     36  C   UNL A   1      39.233  26.686  28.911  1.00  0.00     0.031 C 
ATOM     37  C   UNL A   1      43.296  25.053  26.457  1.00  0.00     0.029 A 
ATOM     38  N   UNL A   1      43.426  27.086  27.380  1.00  0.00    -0.354 N 
ATOM     39  C   UNL A   1      39.993  28.772  29.456  1.00  0.00     0.074 A 
ATOM     40  C   UNL A   1      38.898  27.827  29.496  1.00  0.00     0.031 C 
ATOM     41  C   UNL A   1      44.523  25.534  26.198  1.00  0.00     0.029 A 
ATOM     42  C   UNL A   1      44.624  26.886  26.738  1.00  0.00     0.049 A 
ATOM     43  H   UNL A   1      43.222  27.893  27.905  1.00  0.00     0.167 HD
ATOM     44  C   UNL A   1      39.962  30.004  30.014  1.00  0.00     0.034 A 
ATOM     45  C   UNL A   1      45.671  27.719  26.575  1.00  0.00     0.034 A 
ATOM     46  C   UNL A   1      41.073  30.918  29.992  1.00  0.00     0.049 A 
ATOM     47  C   UNL A   1      45.604  29.088  27.196  1.00  0.00     0.074 A 
ATOM     48  C   UNL A   1      41.162  32.178  30.552  1.00  0.00     0.029 A 
ATOM     49  N   UNL A   1      42.288  30.666  29.373  1.00  0.00    -0.354 N 
ATOM     50  N   UNL A   1      44.644  29.622  27.914  1.00  0.00    -0.248 NA
ATOM     51  C   UNL A   1      46.770  29.960  27.008  1.00  0.00     0.031 C 
ATOM     52  C   UNL A   1      42.426  32.697  30.253  1.00  0.00     0.029 A 
ATOM     53  C   UNL A   1      43.134  31.748  29.531  1.00  0.00     0.049 A 
ATOM     54  H   UNL A   1      42.516  29.837  28.891  1.00  0.00     0.167 HD
ATOM     55  C   UNL A   1      45.103  30.877  28.292  1.00  0.00     0.074 A 
ATOM     56  C   UNL A   1      46.435  31.016  27.739  1.00  0.00     0.031 C 
ATOM     57  C   UNL A   1      44.476  31.837  29.017  1.00  0.00     0.034 A 
BRANCH  44  58
ATOM     58  C   UNL A   1      38.691  30.430  30.699  1.00  0.00     0.023 A 
ATOM     59  C   UNL A   1      38.510  30.167  32.071  1.00  0.00     0.012 A 
ATOM     60  C   UNL A   1      37.691  31.126  29.991  1.00  0.00     0.148 A 
ATOM     61  C   UNL A   1      37.341  30.561  32.722  1.00  0.00     0.002 A 
ATOM     62  C   UNL A   1      36.549  31.554  30.655  1.00  0.00     0.091 A 
ATOM     63  F   UNL A   1      37.870  31.344  28.681  1.00  0.00    -0.205 F 
ATOM     64  C   UNL A   1      36.366  31.263  32.017  1.00  0.00     0.022 A 
BRANCH  62  65
ATOM     65  S   UNL A   1      35.269  32.526  29.853  1.00  0.00     0.127 S 
ATOM     66  O   UNL A   1      34.789  31.596  28.832  1.00  0.00    -0.237 OA
ATOM     67  O   UNL A   1      34.330  32.766  30.950  1.00  0.00    -0.237 OA
ATOM     68  O   UNL A   1      35.930  33.721  29.347  1.00  0.00    -0.744 OA
ENDBRANCH  62  65
ENDBRANCH  44  58
BRANCH  45  69
ATOM     69  C   UNL A   1      46.869  27.270  25.811  1.00  0.00     0.023 A 
ATOM     70  C   UNL A   1      47.783  26.383  26.411  1.00  0.00     0.012 A 
ATOM     71  C   UNL A   1      47.090  27.689  24.484  1.00  0.00     0.148 A 
ATOM     72  C   UNL A   1      48.909  25.942  25.713  1.00  0.00     0.002 A 
ATOM     73  C   UNL A   1      48.182  27.202  23.775  1.00  0.00     0.091 A 
ATOM     74  F   UNL A   1      46.218  28.547  23.935  1.00  0.00    -0.205 F 
ATOM     75  C   UNL A   1      49.102  26.341  24.393  1.00  0.00     0.022 A 
BRANCH  73  76
ATOM     76  S   UNL A   1      48.430  27.556  22.032  1.00  0.00     0.127 S 
ATOM     77  O   UNL A   1      49.620  28.402  22.065  1.00  0.00    -0.237 OA
ATOM     78  O   UNL A   1      48.640  26.218  21.477  1.00  0.00    -0.237 OA
ATOM     79  O   UNL A   1      47.204  28.202  21.585  1.00  0.00    -0.744 OA
ENDBRANCH  73  76
ENDBRANCH  45  69
BRANCH  57  80
ATOM     80  C   UNL A   1      45.237  33.106  29.292  1.00  0.00     0.023 A 
ATOM     81  C   UNL A   1      46.076  33.190  30.420  1.00  0.00     0.012 A 
ATOM     82  C   UNL A   1      45.183  34.181  28.385  1.00  0.00     0.148 A 
ATOM     83  C   UNL A   1      46.827  34.340  30.657  1.00  0.00     0.002 A 
ATOM     84  C   UNL A   1      45.972  35.304  28.600  1.00  0.00     0.091 A 
ATOM     85  F   UNL A   1      44.363  34.085  27.328  1.00  0.00    -0.205 F 
ATOM     86  C   UNL A   1      46.785  35.390  29.741  1.00  0.00     0.022 A 
BRANCH  84  87
ATOM     87  S   UNL A   1      46.057  36.657  27.423  1.00  0.00     0.127 S 
ATOM     88  O   UNL A   1      47.206  37.412  27.920  1.00  0.00    -0.237 OA
ATOM     89  O   UNL A   1      46.289  35.956  26.159  1.00  0.00    -0.237 OA
ATOM     90  O   UNL A   1      44.774  37.342  27.506  1.00  0.00    -0.744 OA
ENDBRANCH  84  87
ENDBRANCH  57  80
ENDBRANCH  31  32
ENDBRANCH  24  26
ENDBRANCH  23  24
ENDBRANCH  22  23
ENDBRANCH   1  22
TORSDOF 19
ENDMDL
MODEL 2
REMARK VINA RESULT:     -10.9      1.621      2.194
REMARK SMILES CC(=O)N[C@H](CC(=O)NCC(=O)OCCOC(=O)c1ccc(-c2c3nc(c(-c4cccc(S(=O)(=O)[O-])c4F)c4ccc([nH]4)c(-c4cccc(S(=O)(=O)[O-])c4F)c4nc(c(-c5cccc(S(=O)(=O)[O-])c5F)c5ccc2[nH]5)C=C4)C=C3)cc1)c1cccs1
REMARK SMILES IDX 14 1 13 2 11 3 12 4 10 5 9 6 7 7 8 8 6 10 5 11 4 12 1 13
REMARK SMILES IDX 2 14 3 15 82 17 83 18 86 19 84 20 85 21 15 22 16 23 17 24
REMARK SMILES IDX 18 25 19 26 20 27 81 28 21 29 80 30 22 31 23 32 24 33 74 34
REMARK SMILES IDX 25 35 79 36 73 37 75 38 26 39 78 40 72 41 71 42 27 44 59 45
REMARK SMILES IDX 39 46 58 47 40 48 43 49 57 50 76 51 41 52 42 53 56 55 77 56
REMARK SMILES IDX 44 57 28 58 29 59 37 60 30 61 32 62 38 63 31 64 33 65 34 66
REMARK SMILES IDX 35 67 36 68 60 69 61 70 69 71 62 72 64 73 70 74 63 75 65 76
REMARK SMILES IDX 66 77 67 78 68 79 45 80 46 81 54 82 47 83 49 84 55 85 48 86
REMARK SMILES IDX 50 87 51 88 52 89 53 90
REMARK H PARENT 9 9 4 16 75 43 43 54
REMARK Flexibility Score: inf
ROOT
ATOM      1  C   UNL A   1      35.111  21.065  24.700  1.00  0.00     0.274 C 
ENDROOT
BRANCH   1   2
ATOM      2  O   UNL A   1      34.190  20.687  25.745  1.00  0.00    -0.461 OA
BRANCH   2   3
ATOM      3  C   UNL A   1      32.921  20.393  25.373  1.00  0.00     0.325 C 
ATOM      4  O   UNL A   1      32.471  19.260  25.254  1.00  0.00    -0.250 OA
BRANCH   3   5
ATOM      5  C   UNL A   1      32.087  21.642  25.069  1.00  0.00     0.238 C 
BRANCH   5   6
ATOM      6  N   UNL A   1      31.627  22.439  26.199  1.00  0.00    -0.345 N 
ATOM      7  C   UNL A   1      30.964  23.622  26.215  1.00  0.00     0.222 C 
ATOM      8  O   UNL A   1      30.420  23.989  27.258  1.00  0.00    -0.275 OA
ATOM      9  H   UNL A   1      31.829  22.062  27.087  1.00  0.00     0.164 HD
BRANCH   7  10
ATOM     10  C   UNL A   1      30.890  24.482  24.975  1.00  0.00     0.130 C 
BRANCH  10  11
ATOM     11  C   UNL A   1      32.028  25.500  24.858  1.00  0.00     0.131 C 
BRANCH  11  12
ATOM     12  N   UNL A   1      32.389  25.710  23.462  1.00  0.00    -0.348 N 
ATOM     13  C   UNL A   1      34.480  24.401  23.567  1.00  0.00     0.114 C 
ATOM     14  C   UNL A   1      33.496  25.251  22.807  1.00  0.00     0.217 C 
ATOM     15  O   UNL A   1      33.664  25.533  21.623  1.00  0.00    -0.275 OA
ATOM     16  H   UNL A   1      31.759  26.244  22.925  1.00  0.00     0.164 HD
ENDBRANCH  11  12
BRANCH  11  17
ATOM     17  C   UNL A   1      31.786  26.849  25.504  1.00  0.00     0.027 A 
ATOM     18  C   UNL A   1      31.716  27.220  26.835  1.00  0.00     0.017 A 
ATOM     19  S   UNL A   1      31.674  28.243  24.490  1.00  0.00    -0.147 S 
ATOM     20  C   UNL A   1      31.783  28.633  27.016  1.00  0.00     0.012 A 
ATOM     21  C   UNL A   1      31.777  29.307  25.819  1.00  0.00     0.065 A 
ENDBRANCH  11  17
ENDBRANCH  10  11
ENDBRANCH   7  10
ENDBRANCH   5   6
ENDBRANCH   3   5
ENDBRANCH   2   3
ENDBRANCH   1   2
BRANCH   1  22
ATOM     22  C   UNL A   1      36.506  20.524  25.026  1.00  0.00     0.275 C 
BRANCH  22  23
ATOM     23  O   UNL A   1      37.282  21.543  25.685  1.00  0.00    -0.458 OA
BRANCH  23  24
ATOM     24  C   UNL A   1      38.543  21.177  26.009  1.00  0.00     0.338 C 
ATOM     25  O   UNL A   1      39.104  20.118  25.758  1.00  0.00    -0.246 OA
BRANCH  24  26
ATOM     26  C   UNL A   1      39.262  22.358  26.498  1.00  0.00     0.060 A 
ATOM     27  C   UNL A   1      38.772  23.606  26.103  1.00  0.00     0.016 A 
ATOM     28  C   UNL A   1      40.394  22.255  27.305  1.00  0.00     0.016 A 
ATOM     29  C   UNL A   1      39.415  24.767  26.503  1.00  0.00     0.010 A 
ATOM     30  C   UNL A   1      41.042  23.424  27.706  1.00  0.00     0.010 A 
ATOM     31  C   UNL A   1      40.562  24.682  27.297  1.00  0.00    -0.014 A 
BRANCH  31  32
ATOM     32  C   UNL A   1      41.296  25.919  27.634  1.00  0.00     0.031 A 
ATOM     33  C   UNL A   1      40.599  26.991  28.417  1.00  0.00     0.074 A 
ATOM     34  C   UNL A   1      42.576  26.059  27.248  1.00  0.00     0.049 A 
ATOM     35  N   UNL A   1      41.024  28.180  28.746  1.00  0.00    -0.248 NA
ATOM     36  C   UNL A   1      39.238  26.684  28.889  1.00  0.00     0.031 C 
ATOM     37  C   UNL A   1      43.348  25.059  26.509  1.00  0.00     0.029 A 
ATOM     38  N   UNL A   1      43.447  27.105  27.408  1.00  0.00    -0.354 N 
ATOM     39  C   UNL A   1      39.971  28.784  29.417  1.00  0.00     0.074 A 
ATOM     40  C   UNL A   1      38.884  27.829  29.455  1.00  0.00     0.031 C 
ATOM     41  C   UNL A   1      44.574  25.549  26.261  1.00  0.00     0.029 A 
ATOM     42  C   UNL A   1      44.655  26.909  26.784  1.00  0.00     0.049 A 
ATOM     43  H   UNL A   1      43.228  27.917  27.920  1.00  0.00     0.167 HD
ATOM     44  C   UNL A   1      39.920  30.023  29.959  1.00  0.00     0.034 A 
ATOM     45  C   UNL A   1      45.696  27.750  26.624  1.00  0.00     0.034 A 
ATOM     46  C   UNL A   1      41.023  30.946  29.940  1.00  0.00     0.049 A 
ATOM     47  C   UNL A   1      45.608  29.126  27.227  1.00  0.00     0.074 A 
ATOM     48  C   UNL A   1      41.093  32.214  30.486  1.00  0.00     0.029 A 
ATOM     49  N   UNL A   1      42.248  30.698  29.340  1.00  0.00    -0.354 N 
ATOM     50  N   UNL A   1      44.634  29.659  27.925  1.00  0.00    -0.248 NA
ATOM     51  C   UNL A   1      46.768  30.007  27.043  1.00  0.00     0.031 C 
ATOM     52  C   UNL A   1      42.356  32.742  30.196  1.00  0.00     0.029 A 
ATOM     53  C   UNL A   1      43.082  31.791  29.496  1.00  0.00     0.049 A 
ATOM     54  H   UNL A   1      42.491  29.866  28.872  1.00  0.00     0.167 HD
ATOM     55  C   UNL A   1      45.075  30.924  28.293  1.00  0.00     0.074 A 
ATOM     56  C   UNL A   1      46.414  31.069  27.756  1.00  0.00     0.031 C 
ATOM     57  C   UNL A   1      44.430  31.886  28.998  1.00  0.00     0.034 A 
BRANCH  44  58
ATOM     58  C   UNL A   1      38.636  30.445  30.622  1.00  0.00     0.023 A 
ATOM     59  C   UNL A   1      38.351  30.020  31.935  1.00  0.00     0.012 A 
ATOM     60  C   UNL A   1      37.730  31.295  29.958  1.00  0.00     0.148 A 
ATOM     61  C   UNL A   1      37.169  30.408  32.566  1.00  0.00     0.002 A 
ATOM     62  C   UNL A   1      36.575  31.712  30.608  1.00  0.00     0.091 A 
ATOM     63  F   UNL A   1      38.007  31.666  28.700  1.00  0.00    -0.205 F 
ATOM     64  C   UNL A   1      36.287  31.261  31.906  1.00  0.00     0.022 A 
BRANCH  62  65
ATOM     65  S   UNL A   1      35.413  32.867  29.871  1.00  0.00     0.127 S 
ATOM     66  O   UNL A   1      34.243  32.695  30.731  1.00  0.00    -0.237 OA
ATOM     67  O   UNL A   1      36.105  34.146  30.032  1.00  0.00    -0.237 OA
ATOM     68  O   UNL A   1      35.242  32.438  28.491  1.00  0.00    -0.744 OA
ENDBRANCH  62  65
ENDBRANCH  44  58
BRANCH  45  69
ATOM     69  C   UNL A   1      46.908  27.303  25.882  1.00  0.00     0.023 A 
ATOM     70  C   UNL A   1      46.997  27.531  24.495  1.00  0.00     0.012 A 
ATOM     71  C   UNL A   1      47.986  26.685  26.545  1.00  0.00     0.148 A 
ATOM     72  C   UNL A   1      48.125  27.128  23.778  1.00  0.00     0.002 A 
ATOM     73  C   UNL A   1      49.130  26.338  25.836  1.00  0.00     0.091 A 
ATOM     74  F   UNL A   1      47.876  26.460  27.862  1.00  0.00    -0.205 F 
ATOM     75  C   UNL A   1      49.196  26.544  24.450  1.00  0.00     0.022 A 
BRANCH  73  76
ATOM     76  S   UNL A   1      50.605  25.706  26.644  1.00  0.00     0.127 S 
ATOM     77  O   UNL A   1      50.890  26.762  27.613  1.00  0.00    -0.237 OA
ATOM     78  O   UNL A   1      50.121  24.453  27.223  1.00  0.00    -0.237 OA
ATOM     79  O   UNL A   1      51.589  25.534  25.584  1.00  0.00    -0.744 OA
ENDBRANCH  73  76
ENDBRANCH  45  69
BRANCH  57  80
ATOM     80  C   UNL A   1      45.175  33.166  29.268  1.00  0.00     0.023 A 
ATOM     81  C   UNL A   1      46.004  33.270  30.402  1.00  0.00     0.012 A 
ATOM     82  C   UNL A   1      45.116  34.232  28.349  1.00  0.00     0.148 A 
ATOM     83  C   UNL A   1      46.740  34.430  30.633  1.00  0.00     0.002 A 
ATOM     84  C   UNL A   1      45.892  35.365  28.560  1.00  0.00     0.091 A 
ATOM     85  F   UNL A   1      44.307  34.117  27.287  1.00  0.00    -0.205 F 
ATOM     86  C   UNL A   1      46.695  35.471  29.707  1.00  0.00     0.022 A 
BRANCH  84  87
ATOM     87  S   UNL A   1      45.972  36.707  27.371  1.00  0.00     0.127 S 
ATOM     88  O   UNL A   1      46.511  37.795  28.186  1.00  0.00    -0.237 OA
ATOM     89  O   UNL A   1      46.899  36.180  26.368  1.00  0.00    -0.237 OA
ATOM     90  O   UNL A   1      44.610  36.900  26.890  1.00  0.00    -0.744 OA
ENDBRANCH  84  87
ENDBRANCH  57  80
ENDBRANCH  31  32
ENDBRANCH  24  26
ENDBRANCH  23  24
ENDBRANCH  22  23
ENDBRANCH   1  22
TORSDOF 19
ENDMDL
MODEL 3
REMARK VINA RESULT:     -10.8      1.605      7.948
REMARK SMILES CC(=O)N[C@H](CC(=O)NCC(=O)OCCOC(=O)c1ccc(-c2c3nc(c(-c4cccc(S(=O)(=O)[O-])c4F)c4ccc([nH]4)c(-c4cccc(S(=O)(=O)[O-])c4F)c4nc(c(-c5cccc(S(=O)(=O)[O-])c5F)c5ccc2[nH]5)C=C4)C=C3)cc1)c1cccs1
REMARK SMILES IDX 14 1 13 2 11 3 12 4 10 5 9 6 7 7 8 8 6 10 5 11 4 12 1 13
REMARK SMILES IDX 2 14 3 15 82 17 83 18 86 19 84 20 85 21 15 22 16 23 17 24
REMARK SMILES IDX 18 25 19 26 20 27 81 28 21 29 80 30 22 31 23 32 24 33 74 34
REMARK SMILES IDX 25 35 79 36 73 37 75 38 26 39 78 40 72 41 71 42 27 44 59 45
REMARK SMILES IDX 39 46 58 47 40 48 43 49 57 50 76 51 41 52 42 53 56 55 77 56
REMARK SMILES IDX 44 57 28 58 29 59 37 60 30 61 32 62 38 63 31 64 33 65 34 66
REMARK SMILES IDX 35 67 36 68 60 69 61 70 69 71 62 72 64 73 70 74 63 75 65 76
REMARK SMILES IDX 66 77 67 78 68 79 45 80 46 81 54 82 47 83 49 84 55 85 48 86
REMARK SMILES IDX 50 87 51 88 52 89 53 90
REMARK H PARENT 9 9 4 16 75 43 43 54
REMARK Flexibility Score: inf
ROOT
ATOM      1  C   UNL A   1      35.930  19.878  25.001  1.00  0.00     0.274 C 
ENDROOT
BRANCH   1   2
ATOM      2  O   UNL A   1      34.790  20.750  25.143  1.00  0.00    -0.461 OA
BRANCH   2   3
ATOM      3  C   UNL A   1      33.567  20.209  24.921  1.00  0.00     0.325 C 
ATOM      4  O   UNL A   1      33.351  19.015  24.750  1.00  0.00    -0.250 OA
BRANCH   3   5
ATOM      5  C   UNL A   1      32.454  21.259  24.864  1.00  0.00     0.238 C 
BRANCH   5   6
ATOM      6  N   UNL A   1      31.987  21.819  26.126  1.00  0.00    -0.345 N 
ATOM      7  C   UNL A   1      32.238  23.028  26.685  1.00  0.00     0.222 C 
ATOM      8  O   UNL A   1      31.527  23.417  27.614  1.00  0.00    -0.275 OA
ATOM      9  H   UNL A   1      31.400  21.229  26.653  1.00  0.00     0.164 HD
BRANCH   7  10
ATOM     10  C   UNL A   1      33.372  23.891  26.182  1.00  0.00     0.130 C 
BRANCH  10  11
ATOM     11  C   UNL A   1      32.919  25.059  25.303  1.00  0.00     0.131 C 
BRANCH  11  12
ATOM     12  N   UNL A   1      31.596  24.801  24.748  1.00  0.00    -0.348 N 
ATOM     13  C   UNL A   1      32.358  24.659  22.403  1.00  0.00     0.114 C 
ATOM     14  C   UNL A   1      31.262  24.621  23.436  1.00  0.00     0.217 C 
ATOM     15  O   UNL A   1      30.088  24.429  23.128  1.00  0.00    -0.275 OA
ATOM     16  H   UNL A   1      30.855  24.749  25.395  1.00  0.00     0.164 HD
ENDBRANCH  11  12
BRANCH  11  17
ATOM     17  C   UNL A   1      32.910  26.425  25.960  1.00  0.00     0.027 A 
ATOM     18  C   UNL A   1      33.916  27.361  26.123  1.00  0.00     0.017 A 
ATOM     19  S   UNL A   1      31.409  27.055  26.537  1.00  0.00    -0.147 S 
ATOM     20  C   UNL A   1      33.419  28.639  26.517  1.00  0.00     0.012 A 
ATOM     21  C   UNL A   1      32.068  28.613  26.762  1.00  0.00     0.065 A 
ENDBRANCH  11  17
ENDBRANCH  10  11
ENDBRANCH   7  10
ENDBRANCH   5   6
ENDBRANCH   3   5
ENDBRANCH   2   3
ENDBRANCH   1   2
BRANCH   1  22
ATOM     22  C   UNL A   1      37.167  20.707  24.643  1.00  0.00     0.275 C 
BRANCH  22  23
ATOM     23  O   UNL A   1      37.651  21.391  25.813  1.00  0.00    -0.458 OA
BRANCH  23  24
ATOM     24  C   UNL A   1      38.954  21.173  26.102  1.00  0.00     0.338 C 
ATOM     25  O   UNL A   1      39.618  20.173  25.858  1.00  0.00    -0.246 OA
BRANCH  24  26
ATOM     26  C   UNL A   1      39.557  22.437  26.535  1.00  0.00     0.060 A 
ATOM     27  C   UNL A   1      38.894  23.613  26.170  1.00  0.00     0.016 A 
ATOM     28  C   UNL A   1      40.745  22.483  27.262  1.00  0.00     0.016 A 
ATOM     29  C   UNL A   1      39.416  24.847  26.520  1.00  0.00     0.010 A 
ATOM     30  C   UNL A   1      41.272  23.726  27.613  1.00  0.00     0.010 A 
ATOM     31  C   UNL A   1      40.616  24.911  27.232  1.00  0.00    -0.014 A 
BRANCH  31  32
ATOM     32  C   UNL A   1      41.216  26.232  27.513  1.00  0.00     0.031 A 
ATOM     33  C   UNL A   1      42.612  26.514  27.045  1.00  0.00     0.074 A 
ATOM     34  C   UNL A   1      40.501  27.161  28.171  1.00  0.00     0.049 A 
ATOM     35  N   UNL A   1      43.355  27.566  27.255  1.00  0.00    -0.248 NA
ATOM     36  C   UNL A   1      43.260  25.469  26.234  1.00  0.00     0.031 C 
ATOM     37  C   UNL A   1      39.125  26.990  28.641  1.00  0.00     0.029 A 
ATOM     38  N   UNL A   1      40.838  28.427  28.572  1.00  0.00    -0.354 N 
ATOM     39  C   UNL A   1      44.574  27.294  26.649  1.00  0.00     0.074 A 
ATOM     40  C   UNL A   1      44.471  25.977  26.057  1.00  0.00     0.031 C 
ATOM     41  C   UNL A   1      38.742  28.104  29.286  1.00  0.00     0.029 A 
ATOM     42  C   UNL A   1      39.858  29.044  29.312  1.00  0.00     0.049 A 
ATOM     43  H   UNL A   1      41.698  28.853  28.353  1.00  0.00     0.167 HD
ATOM     44  C   UNL A   1      45.675  28.076  26.589  1.00  0.00     0.034 A 
ATOM     45  C   UNL A   1      39.875  30.222  29.966  1.00  0.00     0.034 A 
ATOM     46  C   UNL A   1      45.747  29.396  27.156  1.00  0.00     0.049 A 
ATOM     47  C   UNL A   1      41.118  31.067  29.891  1.00  0.00     0.074 A 
ATOM     48  C   UNL A   1      46.801  30.290  27.127  1.00  0.00     0.029 A 
ATOM     49  N   UNL A   1      44.720  30.009  27.858  1.00  0.00    -0.354 N 
ATOM     50  N   UNL A   1      42.239  30.831  29.251  1.00  0.00    -0.248 NA
ATOM     51  C   UNL A   1      41.093  32.350  30.606  1.00  0.00     0.031 C 
ATOM     52  C   UNL A   1      46.418  31.436  27.831  1.00  0.00     0.029 A 
ATOM     53  C   UNL A   1      45.115  31.268  28.274  1.00  0.00     0.049 A 
ATOM     54  H   UNL A   1      43.838  29.608  28.036  1.00  0.00     0.167 HD
ATOM     55  C   UNL A   1      43.039  31.948  29.456  1.00  0.00     0.074 A 
ATOM     56  C   UNL A   1      42.265  32.869  30.265  1.00  0.00     0.031 C 
ATOM     57  C   UNL A   1      44.303  32.187  29.030  1.00  0.00     0.034 A 
BRANCH  44  58
ATOM     58  C   UNL A   1      46.885  27.529  25.880  1.00  0.00     0.023 A 
ATOM     59  C   UNL A   1      47.031  27.718  24.491  1.00  0.00     0.012 A 
ATOM     60  C   UNL A   1      47.897  26.860  26.597  1.00  0.00     0.148 A 
ATOM     61  C   UNL A   1      48.150  27.223  23.821  1.00  0.00     0.002 A 
ATOM     62  C   UNL A   1      49.028  26.408  25.930  1.00  0.00     0.091 A 
ATOM     63  F   UNL A   1      47.727  26.667  27.912  1.00  0.00    -0.205 F 
ATOM     64  C   UNL A   1      49.151  26.577  24.541  1.00  0.00     0.022 A 
BRANCH  62  65
ATOM     65  S   UNL A   1      50.406  25.629  26.779  1.00  0.00     0.127 S 
ATOM     66  O   UNL A   1      50.789  26.668  27.734  1.00  0.00    -0.237 OA
ATOM     67  O   UNL A   1      49.774  24.453  27.378  1.00  0.00    -0.237 OA
ATOM     68  O   UNL A   1      51.394  25.331  25.752  1.00  0.00    -0.744 OA
ENDBRANCH  62  65
ENDBRANCH  44  58
BRANCH  45  69
ATOM     69  C   UNL A   1      38.674  30.672  30.725  1.00  0.00     0.023 A 
ATOM     70  C   UNL A   1      38.624  30.487  32.120  1.00  0.00     0.012 A 
ATOM     71  C   UNL A   1      37.598  31.311  30.078  1.00  0.00     0.148 A 
ATOM     72  C   UNL A   1      37.513  30.905  32.854  1.00  0.00     0.002 A 
ATOM     73  C   UNL A   1      36.520  31.777  30.822  1.00  0.00     0.091 A 
ATOM     74  F   UNL A   1      37.656  31.462  28.748  1.00  0.00    -0.205 F 
ATOM     75  C   UNL A   1      36.467  31.561  32.207  1.00  0.00     0.022 A 
BRANCH  73  76
ATOM     76  S   UNL A   1      35.198  32.749  30.091  1.00  0.00     0.127 S 
ATOM     77  O   UNL A   1      34.267  32.876  31.208  1.00  0.00    -0.237 OA
ATOM     78  O   UNL A   1      35.896  33.983  29.726  1.00  0.00    -0.237 OA
ATOM     79  O   UNL A   1      34.724  31.973  28.954  1.00  0.00    -0.744 OA
ENDBRANCH  73  76
ENDBRANCH  45  69
BRANCH  57  80
ATOM     80  C   UNL A   1      44.918  33.512  29.391  1.00  0.00     0.023 A 
ATOM     81  C   UNL A   1      45.687  33.634  30.564  1.00  0.00     0.012 A 
ATOM     82  C   UNL A   1      44.801  34.613  28.520  1.00  0.00     0.148 A 
ATOM     83  C   UNL A   1      46.305  34.841  30.881  1.00  0.00     0.002 A 
ATOM     84  C   UNL A   1      45.461  35.799  28.817  1.00  0.00     0.091 A 
ATOM     85  F   UNL A   1      44.049  34.480  27.418  1.00  0.00    -0.205 F 
ATOM     86  C   UNL A   1      46.204  35.919  30.003  1.00  0.00     0.022 A 
BRANCH  84  87
ATOM     87  S   UNL A   1      45.468  37.200  27.695  1.00  0.00     0.127 S 
ATOM     88  O   UNL A   1      46.073  36.620  26.497  1.00  0.00    -0.237 OA
ATOM     89  O   UNL A   1      44.042  37.505  27.570  1.00  0.00    -0.237 OA
ATOM     90  O   UNL A   1      46.251  38.237  28.353  1.00  0.00    -0.744 OA
ENDBRANCH  84  87
ENDBRANCH  57  80
ENDBRANCH  31  32
ENDBRANCH  24  26
ENDBRANCH  23  24
ENDBRANCH  22  23
ENDBRANCH   1  22
TORSDOF 19
ENDMDL
