MODEL 1
REMARK VINA RESULT:     -10.4      0.000      0.000
REMARK SMILES CC(C)[C@@H](CO)Nc1ccc(C(=O)OCCOC(=O)c2ccc(-c3c4nc(c(-c5cccc(S(=O)(=O)[O-])c5F)c5ccc([nH]5)c(-c5cccc(S(=O)(=O)[O-])c5F)c5nc(c(-c6cccc(S(=O)(=O)[O-])c6F)c6ccc3[nH]6)C=C5)C=C4)cc2)nn1
REMARK SMILES IDX 15 1 14 2 12 3 13 4 11 5 8 6 9 7 84 8 10 9 83 10 7 11 4 13
REMARK SMILES IDX 2 14 1 15 3 16 5 17 6 18 16 20 17 21 18 22 19 23 20 24 21 25
REMARK SMILES IDX 82 26 22 27 81 28 23 29 24 30 25 31 75 32 26 33 80 34 74 35
REMARK SMILES IDX 76 36 27 37 79 38 73 39 72 40 28 42 60 43 40 44 59 45 41 46
REMARK SMILES IDX 44 47 58 48 77 49 42 50 43 51 57 53 78 54 45 55 29 56 30 57
REMARK SMILES IDX 38 58 31 59 33 60 39 61 32 62 34 63 35 64 36 65 37 66 61 67
REMARK SMILES IDX 62 68 70 69 63 70 65 71 71 72 64 73 66 74 67 75 68 76 69 77
REMARK SMILES IDX 46 78 47 79 55 80 48 81 50 82 56 83 49 84 51 85 52 86 53 87
REMARK SMILES IDX 54 88
REMARK H PARENT 7 12 6 19 76 41 44 52
REMARK Flexibility Score: inf
ROOT
ATOM      1  C   UNL A   1      35.380  20.053  25.003  1.00  0.00     0.275 C 
ENDROOT
BRANCH   1   2
ATOM      2  O   UNL A   1      34.305  20.933  24.620  1.00  0.00    -0.457 OA
BRANCH   2   3
ATOM      3  C   UNL A   1      33.139  20.755  25.303  1.00  0.00     0.358 C 
ATOM      4  O   UNL A   1      32.664  19.679  25.617  1.00  0.00    -0.244 OA
BRANCH   3   5
ATOM      5  C   UNL A   1      32.548  22.064  25.694  1.00  0.00     0.171 A 
ATOM      6  C   UNL A   1      31.742  24.596  26.349  1.00  0.00     0.148 A 
ATOM      7  C   UNL A   1      30.790  23.649  25.997  1.00  0.00     0.051 A 
ATOM      8  N   UNL A   1      33.043  24.263  26.383  1.00  0.00    -0.132 NA
ATOM      9  C   UNL A   1      31.198  22.362  25.631  1.00  0.00     0.042 A 
ATOM     10  N   UNL A   1      33.446  22.981  26.109  1.00  0.00    -0.141 NA
BRANCH   6  11
ATOM     11  N   UNL A   1      31.405  25.893  26.707  1.00  0.00    -0.363 N 
ATOM     12  H   UNL A   1      30.555  26.097  27.160  1.00  0.00     0.162 HD
BRANCH  11  13
ATOM     13  C   UNL A   1      32.372  26.950  26.381  1.00  0.00     0.108 C 
BRANCH  13  14
ATOM     14  C   UNL A   1      32.248  27.334  24.872  1.00  0.00     0.007 C 
ATOM     15  C   UNL A   1      31.076  28.291  24.628  1.00  0.00     0.009 C 
ATOM     16  C   UNL A   1      33.528  27.987  24.328  1.00  0.00     0.009 C 
ENDBRANCH  13  14
BRANCH  13  17
ATOM     17  C   UNL A   1      32.148  28.141  27.350  1.00  0.00     0.181 C 
BRANCH  17  18
ATOM     18  O   UNL A   1      31.028  27.998  28.220  1.00  0.00    -0.394 OA
ATOM     19  H   UNL A   1      30.281  27.625  27.728  1.00  0.00     0.210 HD
ENDBRANCH  17  18
ENDBRANCH  13  17
ENDBRANCH  11  13
ENDBRANCH   6  11
ENDBRANCH   3   5
ENDBRANCH   2   3
ENDBRANCH   1   2
BRANCH   1  20
ATOM     20  C   UNL A   1      36.752  20.644  24.653  1.00  0.00     0.275 C 
BRANCH  20  21
ATOM     21  O   UNL A   1      37.306  21.430  25.725  1.00  0.00    -0.458 OA
BRANCH  21  22
ATOM     22  C   UNL A   1      38.604  21.172  26.015  1.00  0.00     0.338 C 
ATOM     23  O   UNL A   1      39.196  20.120  25.825  1.00  0.00    -0.246 OA
BRANCH  22  24
ATOM     24  C   UNL A   1      39.276  22.396  26.488  1.00  0.00     0.060 A 
ATOM     25  C   UNL A   1      38.777  23.617  26.036  1.00  0.00     0.016 A 
ATOM     26  C   UNL A   1      40.422  22.358  27.284  1.00  0.00     0.016 A 
ATOM     27  C   UNL A   1      39.411  24.808  26.371  1.00  0.00     0.010 A 
ATOM     28  C   UNL A   1      41.063  23.559  27.623  1.00  0.00     0.010 A 
ATOM     29  C   UNL A   1      40.567  24.792  27.158  1.00  0.00    -0.014 A 
BRANCH  29  30
ATOM     30  C   UNL A   1      41.265  26.069  27.446  1.00  0.00     0.031 A 
ATOM     31  C   UNL A   1      40.594  27.127  28.275  1.00  0.00     0.074 A 
ATOM     32  C   UNL A   1      42.521  26.262  26.996  1.00  0.00     0.049 A 
ATOM     33  N   UNL A   1      41.033  28.309  28.620  1.00  0.00    -0.248 NA
ATOM     34  C   UNL A   1      39.247  26.813  28.782  1.00  0.00     0.031 C 
ATOM     35  C   UNL A   1      43.289  25.299  26.207  1.00  0.00     0.029 A 
ATOM     36  N   UNL A   1      43.369  27.331  27.140  1.00  0.00    -0.354 N 
ATOM     37  C   UNL A   1      40.009  28.898  29.352  1.00  0.00     0.074 A 
ATOM     38  C   UNL A   1      38.920  27.942  29.395  1.00  0.00     0.031 C 
ATOM     39  C   UNL A   1      44.498  25.819  25.941  1.00  0.00     0.029 A 
ATOM     40  C   UNL A   1      44.578  27.162  26.507  1.00  0.00     0.049 A 
ATOM     41  H   UNL A   1      43.135  28.141  27.648  1.00  0.00     0.167 HD
ATOM     42  C   UNL A   1      39.982  30.113  29.950  1.00  0.00     0.034 A 
ATOM     43  C   UNL A   1      45.627  27.999  26.387  1.00  0.00     0.034 A 
ATOM     44  C   UNL A   1      41.079  31.043  29.942  1.00  0.00     0.049 A 
ATOM     45  C   UNL A   1      45.564  29.353  27.042  1.00  0.00     0.074 A 
ATOM     46  C   UNL A   1      41.160  32.285  30.546  1.00  0.00     0.029 A 
ATOM     47  N   UNL A   1      42.291  30.833  29.300  1.00  0.00    -0.354 N 
ATOM     48  N   UNL A   1      44.619  29.861  27.797  1.00  0.00    -0.248 NA
ATOM     49  C   UNL A   1      46.719  30.239  26.846  1.00  0.00     0.031 C 
ATOM     50  C   UNL A   1      42.417  32.832  30.259  1.00  0.00     0.029 A 
ATOM     51  C   UNL A   1      43.124  31.925  29.486  1.00  0.00     0.049 A 
ATOM     52  H   UNL A   1      42.526  30.026  28.787  1.00  0.00     0.167 HD
ATOM     53  C   UNL A   1      45.074  31.115  28.185  1.00  0.00     0.074 A 
ATOM     54  C   UNL A   1      46.391  31.280  27.602  1.00  0.00     0.031 C 
ATOM     55  C   UNL A   1      44.452  32.054  28.940  1.00  0.00     0.034 A 
BRANCH  42  56
ATOM     56  C   UNL A   1      38.728  30.491  30.691  1.00  0.00     0.023 A 
ATOM     57  C   UNL A   1      38.590  30.140  32.049  1.00  0.00     0.012 A 
ATOM     58  C   UNL A   1      37.699  31.216  30.058  1.00  0.00     0.148 A 
ATOM     59  C   UNL A   1      37.435  30.474  32.756  1.00  0.00     0.002 A 
ATOM     60  C   UNL A   1      36.567  31.579  30.780  1.00  0.00     0.091 A 
ATOM     61  F   UNL A   1      37.833  31.520  28.758  1.00  0.00    -0.205 F 
ATOM     62  C   UNL A   1      36.428  31.200  32.124  1.00  0.00     0.022 A 
BRANCH  60  63
ATOM     63  S   UNL A   1      35.253  32.572  30.059  1.00  0.00     0.127 S 
ATOM     64  O   UNL A   1      34.343  32.728  31.192  1.00  0.00    -0.237 OA
ATOM     65  O   UNL A   1      35.958  33.795  29.673  1.00  0.00    -0.237 OA
ATOM     66  O   UNL A   1      34.744  31.794  28.938  1.00  0.00    -0.744 OA
ENDBRANCH  60  63
ENDBRANCH  42  56
BRANCH  43  67
ATOM     67  C   UNL A   1      46.847  27.555  25.656  1.00  0.00     0.023 A 
ATOM     68  C   UNL A   1      46.962  27.825  24.279  1.00  0.00     0.012 A 
ATOM     69  C   UNL A   1      47.909  26.912  26.322  1.00  0.00     0.148 A 
ATOM     70  C   UNL A   1      48.107  27.451  23.575  1.00  0.00     0.002 A 
ATOM     71  C   UNL A   1      49.068  26.589  25.625  1.00  0.00     0.091 A 
ATOM     72  F   UNL A   1      47.770  26.642  27.627  1.00  0.00    -0.205 F 
ATOM     73  C   UNL A   1      49.164  26.846  24.249  1.00  0.00     0.022 A 
BRANCH  71  74
ATOM     74  S   UNL A   1      50.526  25.922  26.438  1.00  0.00     0.127 S 
ATOM     75  O   UNL A   1      50.850  26.984  27.387  1.00  0.00    -0.237 OA
ATOM     76  O   UNL A   1      50.003  24.695  27.042  1.00  0.00    -0.237 OA
ATOM     77  O   UNL A   1      51.500  25.702  25.378  1.00  0.00    -0.744 OA
ENDBRANCH  71  74
ENDBRANCH  43  67
BRANCH  55  78
ATOM     78  C   UNL A   1      45.187  33.344  29.193  1.00  0.00     0.023 A 
ATOM     79  C   UNL A   1      45.983  33.473  30.348  1.00  0.00     0.012 A 
ATOM     80  C   UNL A   1      45.148  34.397  28.258  1.00  0.00     0.148 A 
ATOM     81  C   UNL A   1      46.710  34.640  30.582  1.00  0.00     0.002 A 
ATOM     82  C   UNL A   1      45.908  35.541  28.478  1.00  0.00     0.091 A 
ATOM     83  F   UNL A   1      44.368  34.265  27.175  1.00  0.00    -0.205 F 
ATOM     84  C   UNL A   1      46.681  35.668  29.643  1.00  0.00     0.022 A 
BRANCH  82  85
ATOM     85  S   UNL A   1      45.997  36.876  27.278  1.00  0.00     0.127 S 
ATOM     86  O   UNL A   1      44.631  37.395  27.306  1.00  0.00    -0.237 OA
ATOM     87  O   UNL A   1      46.998  37.765  27.871  1.00  0.00    -0.237 OA
ATOM     88  O   UNL A   1      46.411  36.259  26.025  1.00  0.00    -0.744 OA
ENDBRANCH  82  85
ENDBRANCH  55  78
ENDBRANCH  29  30
ENDBRANCH  22  24
ENDBRANCH  21  22
ENDBRANCH  20  21
ENDBRANCH   1  20
TORSDOF 19
ENDMDL
MODEL 2
REMARK VINA RESULT:     -10.3      3.826     10.203
REMARK SMILES CC(C)[C@@H](CO)Nc1ccc(C(=O)OCCOC(=O)c2ccc(-c3c4nc(c(-c5cccc(S(=O)(=O)[O-])c5F)c5ccc([nH]5)c(-c5cccc(S(=O)(=O)[O-])c5F)c5nc(c(-c6cccc(S(=O)(=O)[O-])c6F)c6ccc3[nH]6)C=C5)C=C4)cc2)nn1
REMARK SMILES IDX 15 1 14 2 12 3 13 4 11 5 8 6 9 7 84 8 10 9 83 10 7 11 4 13
REMARK SMILES IDX 2 14 1 15 3 16 5 17 6 18 16 20 17 21 18 22 19 23 20 24 21 25
REMARK SMILES IDX 82 26 22 27 81 28 23 29 24 30 25 31 75 32 26 33 80 34 74 35
REMARK SMILES IDX 76 36 27 37 79 38 73 39 72 40 28 42 60 43 40 44 59 45 41 46
REMARK SMILES IDX 44 47 58 48 77 49 42 50 43 51 57 53 78 54 45 55 29 56 30 57
REMARK SMILES IDX 38 58 31 59 33 60 39 61 32 62 34 63 35 64 36 65 37 66 61 67
REMARK SMILES IDX 62 68 70 69 63 70 65 71 71 72 64 73 66 74 67 75 68 76 69 77
REMARK SMILES IDX 46 78 47 79 55 80 48 81 50 82 56 83 49 84 51 85 52 86 53 87
REMARK SMILES IDX 54 88
REMARK H PARENT 7 12 6 19 76 41 44 52
REMARK Flexibility Score: inf
ROOT
ATOM      1  C   UNL A   1      41.335  19.651  26.445  1.00  0.00     0.275 C 
ENDROOT
BRANCH   1   2
ATOM      2  O   UNL A   1      42.539  20.432  26.568  1.00  0.00    -0.457 OA
BRANCH   2   3
ATOM      3  C   UNL A   1      43.435  20.281  25.552  1.00  0.00     0.358 C 
ATOM      4  O   UNL A   1      43.543  19.293  24.849  1.00  0.00    -0.244 OA
BRANCH   3   5
ATOM      5  C   UNL A   1      44.225  21.527  25.350  1.00  0.00     0.171 A 
ATOM      6  C   UNL A   1      45.924  23.630  24.927  1.00  0.00     0.148 A 
ATOM      7  C   UNL A   1      44.558  23.814  24.760  1.00  0.00     0.051 A 
ATOM      8  N   UNL A   1      46.400  22.433  25.310  1.00  0.00    -0.132 NA
ATOM      9  C   UNL A   1      43.687  22.735  24.945  1.00  0.00     0.042 A 
ATOM     10  N   UNL A   1      45.547  21.391  25.575  1.00  0.00    -0.141 NA
BRANCH   6  11
ATOM     11  N   UNL A   1      46.842  24.653  24.744  1.00  0.00    -0.363 N 
ATOM     12  H   UNL A   1      47.628  24.540  24.163  1.00  0.00     0.162 HD
BRANCH  11  13
ATOM     13  C   UNL A   1      46.590  25.914  25.455  1.00  0.00     0.108 C 
BRANCH  13  14
ATOM     14  C   UNL A   1      47.409  25.944  26.785  1.00  0.00     0.007 C 
ATOM     15  C   UNL A   1      46.692  25.183  27.906  1.00  0.00     0.009 C 
ATOM     16  C   UNL A   1      48.816  25.349  26.619  1.00  0.00     0.009 C 
ENDBRANCH  13  14
BRANCH  13  17
ATOM     17  C   UNL A   1      46.908  27.093  24.499  1.00  0.00     0.181 C 
BRANCH  17  18
ATOM     18  O   UNL A   1      45.828  28.001  24.294  1.00  0.00    -0.394 OA
ATOM     19  H   UNL A   1      45.850  28.690  24.976  1.00  0.00     0.210 HD
ENDBRANCH  17  18
ENDBRANCH  13  17
ENDBRANCH  11  13
ENDBRANCH   6  11
ENDBRANCH   3   5
ENDBRANCH   2   3
ENDBRANCH   1   2
BRANCH   1  20
ATOM     20  C   UNL A   1      40.111  20.532  26.168  1.00  0.00     0.275 C 
BRANCH  20  21
ATOM     21  O   UNL A   1      40.337  21.915  26.499  1.00  0.00    -0.458 OA
BRANCH  21  22
ATOM     22  C   UNL A   1      39.300  22.746  26.234  1.00  0.00     0.338 C 
ATOM     23  O   UNL A   1      38.246  22.444  25.694  1.00  0.00    -0.246 OA
BRANCH  22  24
ATOM     24  C   UNL A   1      39.554  24.080  26.807  1.00  0.00     0.060 A 
ATOM     25  C   UNL A   1      40.157  25.029  25.982  1.00  0.00     0.016 A 
ATOM     26  C   UNL A   1      39.293  24.379  28.146  1.00  0.00     0.016 A 
ATOM     27  C   UNL A   1      40.504  26.280  26.479  1.00  0.00     0.010 A 
ATOM     28  C   UNL A   1      39.644  25.641  28.649  1.00  0.00     0.010 A 
ATOM     29  C   UNL A   1      40.263  26.596  27.820  1.00  0.00    -0.014 A 
BRANCH  29  30
ATOM     30  C   UNL A   1      40.705  27.912  28.345  1.00  0.00     0.031 A 
ATOM     31  C   UNL A   1      42.161  28.284  28.320  1.00  0.00     0.074 A 
ATOM     32  C   UNL A   1      39.794  28.790  28.806  1.00  0.00     0.049 A 
ATOM     33  N   UNL A   1      42.742  29.375  28.743  1.00  0.00    -0.248 NA
ATOM     34  C   UNL A   1      43.086  27.295  27.741  1.00  0.00     0.031 C 
ATOM     35  C   UNL A   1      38.350  28.556  28.855  1.00  0.00     0.029 A 
ATOM     36  N   UNL A   1      39.947  30.053  29.320  1.00  0.00    -0.354 N 
ATOM     37  C   UNL A   1      44.102  29.195  28.520  1.00  0.00     0.074 A 
ATOM     38  C   UNL A   1      44.259  27.883  27.927  1.00  0.00     0.031 C 
ATOM     39  C   UNL A   1      37.749  29.643  29.365  1.00  0.00     0.029 A 
ATOM     40  C   UNL A   1      38.764  30.633  29.713  1.00  0.00     0.049 A 
ATOM     41  H   UNL A   1      40.820  30.501  29.399  1.00  0.00     0.167 HD
ATOM     42  C   UNL A   1      45.124  30.049  28.767  1.00  0.00     0.034 A 
ATOM     43  C   UNL A   1      38.526  31.824  30.298  1.00  0.00     0.034 A 
ATOM     44  C   UNL A   1      44.961  31.368  29.316  1.00  0.00     0.049 A 
ATOM     45  C   UNL A   1      39.681  32.746  30.581  1.00  0.00     0.074 A 
ATOM     46  C   UNL A   1      45.931  32.320  29.573  1.00  0.00     0.029 A 
ATOM     47  N   UNL A   1      43.747  31.926  29.692  1.00  0.00    -0.354 N 
ATOM     48  N   UNL A   1      40.951  32.591  30.290  1.00  0.00    -0.248 NA
ATOM     49  C   UNL A   1      39.368  34.014  31.254  1.00  0.00     0.031 C 
ATOM     50  C   UNL A   1      45.306  33.450  30.115  1.00  0.00     0.029 A 
ATOM     51  C   UNL A   1      43.944  33.205  30.186  1.00  0.00     0.049 A 
ATOM     52  H   UNL A   1      42.873  31.478  29.618  1.00  0.00     0.167 HD
ATOM     53  C   UNL A   1      41.585  33.750  30.723  1.00  0.00     0.074 A 
ATOM     54  C   UNL A   1      40.555  34.609  31.274  1.00  0.00     0.031 C 
ATOM     55  C   UNL A   1      42.902  34.068  30.685  1.00  0.00     0.034 A 
BRANCH  42  56
ATOM     56  C   UNL A   1      46.512  29.587  28.413  1.00  0.00     0.023 A 
ATOM     57  C   UNL A   1      47.074  29.960  27.176  1.00  0.00     0.012 A 
ATOM     58  C   UNL A   1      47.270  28.809  29.310  1.00  0.00     0.148 A 
ATOM     59  C   UNL A   1      48.357  29.540  26.822  1.00  0.00     0.002 A 
ATOM     60  C   UNL A   1      48.562  28.425  28.966  1.00  0.00     0.091 A 
ATOM     61  F   UNL A   1      46.711  28.439  30.471  1.00  0.00    -0.205 F 
ATOM     62  C   UNL A   1      49.104  28.780  27.720  1.00  0.00     0.022 A 
BRANCH  60  63
ATOM     63  S   UNL A   1      49.616  27.502  30.093  1.00  0.00     0.127 S 
ATOM     64  O   UNL A   1      50.832  27.344  29.299  1.00  0.00    -0.237 OA
ATOM     65  O   UNL A   1      49.744  28.419  31.226  1.00  0.00    -0.237 OA
ATOM     66  O   UNL A   1      48.888  26.276  30.393  1.00  0.00    -0.744 OA
ENDBRANCH  60  63
ENDBRANCH  42  56
BRANCH  43  67
ATOM     67  C   UNL A   1      37.125  32.229  30.604  1.00  0.00     0.023 A 
ATOM     68  C   UNL A   1      36.640  32.093  31.918  1.00  0.00     0.012 A 
ATOM     69  C   UNL A   1      36.289  32.790  29.618  1.00  0.00     0.148 A 
ATOM     70  C   UNL A   1      35.345  32.495  32.244  1.00  0.00     0.002 A 
ATOM     71  C   UNL A   1      35.018  33.236  29.960  1.00  0.00     0.091 A 
ATOM     72  F   UNL A   1      36.761  32.889  28.367  1.00  0.00    -0.205 F 
ATOM     73  C   UNL A   1      34.539  33.078  31.270  1.00  0.00     0.022 A 
BRANCH  71  74
ATOM     74  S   UNL A   1      33.960  34.111  28.801  1.00  0.00     0.127 S 
ATOM     75  O   UNL A   1      34.855  35.157  28.311  1.00  0.00    -0.237 OA
ATOM     76  O   UNL A   1      33.645  33.065  27.827  1.00  0.00    -0.237 OA
ATOM     77  O   UNL A   1      32.819  34.571  29.580  1.00  0.00    -0.744 OA
ENDBRANCH  71  74
ENDBRANCH  43  67
BRANCH  55  78
ATOM     78  C   UNL A   1      43.312  35.405  31.245  1.00  0.00     0.023 A 
ATOM     79  C   UNL A   1      43.582  35.526  32.622  1.00  0.00     0.012 A 
ATOM     80  C   UNL A   1      43.500  36.518  30.402  1.00  0.00     0.148 A 
ATOM     81  C   UNL A   1      44.007  36.742  33.157  1.00  0.00     0.002 A 
ATOM     82  C   UNL A   1      43.964  37.716  30.936  1.00  0.00     0.091 A 
ATOM     83  F   UNL A   1      43.217  36.389  29.097  1.00  0.00    -0.205 F 
ATOM     84  C   UNL A   1      44.208  37.832  32.314  1.00  0.00     0.022 A 
BRANCH  82  85
ATOM     85  S   UNL A   1      44.333  39.143  29.909  1.00  0.00     0.127 S 
ATOM     86  O   UNL A   1      44.789  40.115  30.900  1.00  0.00    -0.237 OA
ATOM     87  O   UNL A   1      45.384  38.632  29.028  1.00  0.00    -0.237 OA
ATOM     88  O   UNL A   1      43.089  39.475  29.227  1.00  0.00    -0.744 OA
ENDBRANCH  82  85
ENDBRANCH  55  78
ENDBRANCH  29  30
ENDBRANCH  22  24
ENDBRANCH  21  22
ENDBRANCH  20  21
ENDBRANCH   1  20
TORSDOF 19
ENDMDL
MODEL 3
REMARK VINA RESULT:     -10.3      1.616      7.926
REMARK SMILES CC(C)[C@@H](CO)Nc1ccc(C(=O)OCCOC(=O)c2ccc(-c3c4nc(c(-c5cccc(S(=O)(=O)[O-])c5F)c5ccc([nH]5)c(-c5cccc(S(=O)(=O)[O-])c5F)c5nc(c(-c6cccc(S(=O)(=O)[O-])c6F)c6ccc3[nH]6)C=C5)C=C4)cc2)nn1
REMARK SMILES IDX 15 1 14 2 12 3 13 4 11 5 8 6 9 7 84 8 10 9 83 10 7 11 4 13
REMARK SMILES IDX 2 14 1 15 3 16 5 17 6 18 16 20 17 21 18 22 19 23 20 24 21 25
REMARK SMILES IDX 82 26 22 27 81 28 23 29 24 30 25 31 75 32 26 33 80 34 74 35
REMARK SMILES IDX 76 36 27 37 79 38 73 39 72 40 28 42 60 43 40 44 59 45 41 46
REMARK SMILES IDX 44 47 58 48 77 49 42 50 43 51 57 53 78 54 45 55 29 56 30 57
REMARK SMILES IDX 38 58 31 59 33 60 39 61 32 62 34 63 35 64 36 65 37 66 61 67
REMARK SMILES IDX 62 68 70 69 63 70 65 71 71 72 64 73 66 74 67 75 68 76 69 77
REMARK SMILES IDX 46 78 47 79 55 80 48 81 50 82 56 83 49 84 51 85 52 86 53 87
REMARK SMILES IDX 54 88
REMARK H PARENT 7 12 6 19 76 41 44 52
REMARK Flexibility Score: inf
ROOT
ATOM      1  C   UNL A   1      35.131  20.623  25.426  1.00  0.00     0.275 C 
ENDROOT
BRANCH   1   2
ATOM      2  O   UNL A   1      34.270  19.986  24.461  1.00  0.00    -0.457 OA
BRANCH   2   3
ATOM      3  C   UNL A   1      32.960  19.894  24.824  1.00  0.00     0.358 C 
ATOM      4  O   UNL A   1      32.443  18.931  25.359  1.00  0.00    -0.244 OA
BRANCH   3   5
ATOM      5  C   UNL A   1      32.243  21.172  24.556  1.00  0.00     0.171 A 
ATOM      6  C   UNL A   1      30.906  23.552  24.375  1.00  0.00     0.148 A 
ATOM      7  C   UNL A   1      31.682  23.124  23.306  1.00  0.00     0.051 A 
ATOM      8  N   UNL A   1      30.803  22.793  25.479  1.00  0.00    -0.132 NA
ATOM      9  C   UNL A   1      32.392  21.924  23.404  1.00  0.00     0.042 A 
ATOM     10  N   UNL A   1      31.428  21.574  25.552  1.00  0.00    -0.141 NA
BRANCH   6  11
ATOM     11  N   UNL A   1      30.190  24.740  24.347  1.00  0.00    -0.363 N 
ATOM     12  H   UNL A   1      29.229  24.755  24.134  1.00  0.00     0.162 HD
BRANCH  11  13
ATOM     13  C   UNL A   1      30.926  25.974  24.651  1.00  0.00     0.108 C 
BRANCH  13  14
ATOM     14  C   UNL A   1      30.439  27.125  23.715  1.00  0.00     0.007 C 
ATOM     15  C   UNL A   1      31.109  27.055  22.339  1.00  0.00     0.009 C 
ATOM     16  C   UNL A   1      28.916  27.109  23.514  1.00  0.00     0.009 C 
ENDBRANCH  13  14
BRANCH  13  17
ATOM     17  C   UNL A   1      30.767  26.286  26.162  1.00  0.00     0.181 C 
BRANCH  17  18
ATOM     18  O   UNL A   1      31.397  25.351  27.034  1.00  0.00    -0.394 OA
ATOM     19  H   UNL A   1      31.955  25.825  27.669  1.00  0.00     0.210 HD
ENDBRANCH  17  18
ENDBRANCH  13  17
ENDBRANCH  11  13
ENDBRANCH   6  11
ENDBRANCH   3   5
ENDBRANCH   2   3
ENDBRANCH   1   2
BRANCH   1  20
ATOM     20  C   UNL A   1      36.612  20.451  25.067  1.00  0.00     0.275 C 
BRANCH  20  21
ATOM     21  O   UNL A   1      37.413  21.580  25.463  1.00  0.00    -0.458 OA
BRANCH  21  22
ATOM     22  C   UNL A   1      38.645  21.273  25.936  1.00  0.00     0.338 C 
ATOM     23  O   UNL A   1      39.197  20.184  25.875  1.00  0.00    -0.246 OA
BRANCH  22  24
ATOM     24  C   UNL A   1      39.316  22.484  26.441  1.00  0.00     0.060 A 
ATOM     25  C   UNL A   1      38.789  23.717  26.057  1.00  0.00     0.016 A 
ATOM     26  C   UNL A   1      40.487  22.428  27.199  1.00  0.00     0.016 A 
ATOM     27  C   UNL A   1      39.418  24.901  26.424  1.00  0.00     0.010 A 
ATOM     28  C   UNL A   1      41.124  23.622  27.570  1.00  0.00     0.010 A 
ATOM     29  C   UNL A   1      40.598  24.867  27.174  1.00  0.00    -0.014 A 
BRANCH  29  30
ATOM     30  C   UNL A   1      41.290  26.140  27.495  1.00  0.00     0.031 A 
ATOM     31  C   UNL A   1      42.682  26.391  26.988  1.00  0.00     0.074 A 
ATOM     32  C   UNL A   1      40.651  27.089  28.206  1.00  0.00     0.049 A 
ATOM     33  N   UNL A   1      43.454  27.430  27.173  1.00  0.00    -0.248 NA
ATOM     34  C   UNL A   1      43.287  25.332  26.163  1.00  0.00     0.031 C 
ATOM     35  C   UNL A   1      39.289  26.974  28.728  1.00  0.00     0.029 A 
ATOM     36  N   UNL A   1      41.062  28.334  28.611  1.00  0.00    -0.354 N 
ATOM     37  C   UNL A   1      44.647  27.139  26.523  1.00  0.00     0.074 A 
ATOM     38  C   UNL A   1      44.499  25.820  25.943  1.00  0.00     0.031 C 
ATOM     39  C   UNL A   1      38.975  28.105  29.380  1.00  0.00     0.029 A 
ATOM     40  C   UNL A   1      40.122  29.008  29.354  1.00  0.00     0.049 A 
ATOM     41  H   UNL A   1      41.945  28.708  28.391  1.00  0.00     0.167 HD
ATOM     42  C   UNL A   1      45.758  27.906  26.404  1.00  0.00     0.034 A 
ATOM     43  C   UNL A   1      40.182  30.212  29.956  1.00  0.00     0.034 A 
ATOM     44  C   UNL A   1      45.887  29.233  26.944  1.00  0.00     0.049 A 
ATOM     45  C   UNL A   1      41.435  31.035  29.825  1.00  0.00     0.074 A 
ATOM     46  C   UNL A   1      46.960  30.101  26.848  1.00  0.00     0.029 A 
ATOM     47  N   UNL A   1      44.911  29.887  27.681  1.00  0.00    -0.354 N 
ATOM     48  N   UNL A   1      42.524  30.778  29.141  1.00  0.00    -0.248 NA
ATOM     49  C   UNL A   1      41.460  32.323  30.533  1.00  0.00     0.031 C 
ATOM     50  C   UNL A   1      46.637  31.277  27.537  1.00  0.00     0.029 A 
ATOM     51  C   UNL A   1      45.358  31.145  28.052  1.00  0.00     0.049 A 
ATOM     52  H   UNL A   1      44.028  29.513  27.906  1.00  0.00     0.167 HD
ATOM     53  C   UNL A   1      43.353  31.880  29.315  1.00  0.00     0.074 A 
ATOM     54  C   UNL A   1      42.631  32.818  30.151  1.00  0.00     0.031 C 
ATOM     55  C   UNL A   1      44.607  32.088  28.843  1.00  0.00     0.034 A 
BRANCH  42  56
ATOM     56  C   UNL A   1      46.913  27.332  25.628  1.00  0.00     0.023 A 
ATOM     57  C   UNL A   1      47.728  26.347  26.222  1.00  0.00     0.012 A 
ATOM     58  C   UNL A   1      47.178  27.742  24.307  1.00  0.00     0.148 A 
ATOM     59  C   UNL A   1      48.809  25.805  25.526  1.00  0.00     0.002 A 
ATOM     60  C   UNL A   1      48.234  27.169  23.606  1.00  0.00     0.091 A 
ATOM     61  F   UNL A   1      46.411  28.700  23.765  1.00  0.00    -0.205 F 
ATOM     62  C   UNL A   1      49.056  26.208  24.216  1.00  0.00     0.022 A 
BRANCH  60  63
ATOM     63  S   UNL A   1      48.580  27.586  21.892  1.00  0.00     0.127 S 
ATOM     64  O   UNL A   1      49.493  28.717  22.040  1.00  0.00    -0.237 OA
ATOM     65  O   UNL A   1      49.206  26.361  21.390  1.00  0.00    -0.237 OA
ATOM     66  O   UNL A   1      47.287  27.887  21.293  1.00  0.00    -0.744 OA
ENDBRANCH  60  63
ENDBRANCH  42  56
BRANCH  43  67
ATOM     67  C   UNL A   1      38.994  30.730  30.692  1.00  0.00     0.023 A 
ATOM     68  C   UNL A   1      38.921  30.561  32.087  1.00  0.00     0.012 A 
ATOM     69  C   UNL A   1      37.965  31.428  30.029  1.00  0.00     0.148 A 
ATOM     70  C   UNL A   1      37.838  31.064  32.808  1.00  0.00     0.002 A 
ATOM     71  C   UNL A   1      36.916  31.972  30.760  1.00  0.00     0.091 A 
ATOM     72  F   UNL A   1      38.042  31.558  28.697  1.00  0.00    -0.205 F 
ATOM     73  C   UNL A   1      36.844  31.781  32.149  1.00  0.00     0.022 A 
BRANCH  71  74
ATOM     74  S   UNL A   1      35.658  33.014  30.010  1.00  0.00     0.127 S 
ATOM     75  O   UNL A   1      35.013  32.085  29.086  1.00  0.00    -0.237 OA
ATOM     76  O   UNL A   1      34.846  33.393  31.168  1.00  0.00    -0.237 OA
ATOM     77  O   UNL A   1      36.379  34.120  29.394  1.00  0.00    -0.744 OA
ENDBRANCH  71  74
ENDBRANCH  43  67
BRANCH  55  78
ATOM     78  C   UNL A   1      45.281  33.385  29.206  1.00  0.00     0.023 A 
ATOM     79  C   UNL A   1      46.075  33.452  30.368  1.00  0.00     0.012 A 
ATOM     80  C   UNL A   1      45.188  34.512  28.366  1.00  0.00     0.148 A 
ATOM     81  C   UNL A   1      46.747  34.628  30.702  1.00  0.00     0.002 A 
ATOM     82  C   UNL A   1      45.894  35.668  28.683  1.00  0.00     0.091 A 
ATOM     83  F   UNL A   1      44.411  34.437  27.276  1.00  0.00    -0.205 F 
ATOM     84  C   UNL A   1      46.665  35.731  29.855  1.00  0.00     0.022 A 
BRANCH  82  85
ATOM     85  S   UNL A   1      45.914  37.104  27.604  1.00  0.00     0.127 S 
ATOM     86  O   UNL A   1      44.500  37.471  27.567  1.00  0.00    -0.237 OA
ATOM     87  O   UNL A   1      46.767  38.039  28.340  1.00  0.00    -0.237 OA
ATOM     88  O   UNL A   1      46.479  36.645  26.341  1.00  0.00    -0.744 OA
ENDBRANCH  82  85
ENDBRANCH  55  78
ENDBRANCH  29  30
ENDBRANCH  22  24
ENDBRANCH  21  22
ENDBRANCH  20  21
ENDBRANCH   1  20
TORSDOF 19
ENDMDL
