MODEL 1
REMARK VINA RESULT:     -12.2      0.000      0.000
REMARK SMILES COc1cccc(CSc2nc3ccccc3c(=O)n2CCC(=O)OCCOC(=O)c2ccc(-c3c4nc(c(-c5cccc(S(=O)(=O)[O-])c5F)c5ccc([nH]5)c(-c5cccc(S(=O)(=O)[O-])c5F)c5nc(c(-c6cccc(S(=O)(=O)[O-])c6F)c6ccc3[nH]6)C=C5)C=C4)cc2)c1
REMARK SMILES IDX 25 1 23 2 24 3 22 4 21 5 20 6 10 7 11 8 12 9 18 10 13 11
REMARK SMILES IDX 17 12 19 13 14 14 16 15 15 16 9 17 8 18 7 19 3 20 4 21 94 22
REMARK SMILES IDX 5 23 6 24 2 25 1 26 26 27 27 28 28 29 29 30 30 31 31 32
REMARK SMILES IDX 32 33 93 34 33 35 92 36 34 37 35 38 36 39 86 40 37 41 91 42
REMARK SMILES IDX 85 43 87 44 38 45 90 46 84 47 83 48 39 50 71 51 51 52 70 53
REMARK SMILES IDX 52 54 55 55 69 56 88 57 53 58 54 59 68 61 89 62 56 63 40 64
REMARK SMILES IDX 41 65 49 66 42 67 44 68 50 69 43 70 45 71 46 72 47 73 48 74
REMARK SMILES IDX 72 75 73 76 81 77 74 78 76 79 82 80 75 81 77 82 78 83 79 84
REMARK SMILES IDX 80 85 57 86 58 87 66 88 59 89 61 90 67 91 60 92 62 93 63 94
REMARK SMILES IDX 64 95 65 96
REMARK H PARENT 87 49 55 60
REMARK Flexibility Score: inf
ROOT
ATOM      1  O   UNL A   1      37.324  21.434  24.263  1.00  0.00    -0.462 OA
ENDROOT
BRANCH   1   2
ATOM      2  C   UNL A   1      36.409  22.355  24.649  1.00  0.00     0.307 C 
ATOM      3  O   UNL A   1      35.996  22.486  25.796  1.00  0.00    -0.252 OA
BRANCH   2   4
ATOM      4  C   UNL A   1      35.997  23.288  23.533  1.00  0.00     0.144 C 
BRANCH   4   5
ATOM      5  C   UNL A   1      34.574  23.221  22.961  1.00  0.00     0.140 C 
BRANCH   5   6
ATOM      6  N   UNL A   1      33.605  24.186  23.465  1.00  0.00    -0.286 N 
ATOM      7  C   UNL A   1      32.868  24.055  24.618  1.00  0.00     0.171 A 
ATOM      8  N   UNL A   1      32.764  25.040  25.461  1.00  0.00    -0.224 NA
ATOM      9  C   UNL A   1      33.244  26.295  25.056  1.00  0.00     0.079 A 
ATOM     10  C   UNL A   1      33.548  25.412  22.816  1.00  0.00     0.262 A 
ATOM     11  C   UNL A   1      33.429  27.327  25.973  1.00  0.00     0.029 A 
ATOM     12  C   UNL A   1      33.386  26.577  23.700  1.00  0.00     0.066 A 
ATOM     13  O   UNL A   1      33.698  25.572  21.609  1.00  0.00    -0.269 OA
ATOM     14  C   UNL A   1      33.660  28.633  25.521  1.00  0.00     0.002 A 
ATOM     15  C   UNL A   1      33.537  27.883  23.231  1.00  0.00     0.016 A 
ATOM     16  C   UNL A   1      33.660  28.919  24.153  1.00  0.00     0.001 A 
BRANCH   7  17
ATOM     17  S   UNL A   1      31.814  22.704  24.968  1.00  0.00    -0.083 SA
BRANCH  17  18
ATOM     18  C   UNL A   1      32.646  21.340  25.792  1.00  0.00     0.113 C 
BRANCH  18  19
ATOM     19  C   UNL A   1      32.656  20.029  25.049  1.00  0.00    -0.034 A 
ATOM     20  C   UNL A   1      33.007  17.615  24.993  1.00  0.00     0.119 A 
ATOM     21  C   UNL A   1      32.815  17.634  23.613  1.00  0.00     0.046 A 
ATOM     22  C   UNL A   1      32.866  18.802  25.709  1.00  0.00     0.051 A 
ATOM     23  C   UNL A   1      32.483  18.819  22.957  1.00  0.00     0.004 A 
ATOM     24  C   UNL A   1      32.413  20.012  23.670  1.00  0.00     0.005 A 
BRANCH  20  25
ATOM     25  O   UNL A   1      33.347  16.396  25.509  1.00  0.00    -0.497 OA
ATOM     26  C   UNL A   1      34.623  15.864  25.179  1.00  0.00     0.278 C 
ENDBRANCH  20  25
ENDBRANCH  18  19
ENDBRANCH  17  18
ENDBRANCH   7  17
ENDBRANCH   5   6
ENDBRANCH   4   5
ENDBRANCH   2   4
ENDBRANCH   1   2
BRANCH   1  27
ATOM     27  C   UNL A   1      37.282  20.186  24.988  1.00  0.00     0.274 C 
BRANCH  27  28
ATOM     28  C   UNL A   1      38.659  19.498  24.986  1.00  0.00     0.275 C 
BRANCH  28  29
ATOM     29  O   UNL A   1      39.417  19.635  26.205  1.00  0.00    -0.458 OA
BRANCH  29  30
ATOM     30  C   UNL A   1      40.609  20.260  26.111  1.00  0.00     0.338 C 
ATOM     31  O   UNL A   1      41.649  19.795  25.672  1.00  0.00    -0.246 OA
BRANCH  30  32
ATOM     32  C   UNL A   1      40.541  21.553  26.812  1.00  0.00     0.060 A 
ATOM     33  C   UNL A   1      41.388  21.737  27.909  1.00  0.00     0.016 A 
ATOM     34  C   UNL A   1      39.751  22.602  26.338  1.00  0.00     0.016 A 
ATOM     35  C   UNL A   1      41.516  23.002  28.479  1.00  0.00     0.010 A 
ATOM     36  C   UNL A   1      39.939  23.887  26.861  1.00  0.00     0.010 A 
ATOM     37  C   UNL A   1      40.878  24.106  27.884  1.00  0.00    -0.014 A 
BRANCH  37  38
ATOM     38  C   UNL A   1      41.443  25.468  28.112  1.00  0.00     0.031 A 
ATOM     39  C   UNL A   1      40.677  26.577  28.768  1.00  0.00     0.074 A 
ATOM     40  C   UNL A   1      42.680  25.710  27.624  1.00  0.00     0.049 A 
ATOM     41  N   UNL A   1      41.066  27.804  29.008  1.00  0.00    -0.248 NA
ATOM     42  C   UNL A   1      39.303  26.286  29.197  1.00  0.00     0.031 C 
ATOM     43  C   UNL A   1      43.496  24.740  26.884  1.00  0.00     0.029 A 
ATOM     44  N   UNL A   1      43.466  26.834  27.660  1.00  0.00    -0.354 N 
ATOM     45  C   UNL A   1      39.981  28.448  29.588  1.00  0.00     0.074 A 
ATOM     46  C   UNL A   1      38.912  27.469  29.659  1.00  0.00     0.031 C 
ATOM     47  C   UNL A   1      44.671  25.296  26.566  1.00  0.00     0.029 A 
ATOM     48  C   UNL A   1      44.675  26.679  27.020  1.00  0.00     0.049 A 
ATOM     49  H   UNL A   1      43.192  27.670  28.101  1.00  0.00     0.167 HD
ATOM     50  C   UNL A   1      39.890  29.728  30.028  1.00  0.00     0.034 A 
ATOM     51  C   UNL A   1      45.677  27.551  26.797  1.00  0.00     0.034 A 
ATOM     52  C   UNL A   1      40.961  30.695  29.965  1.00  0.00     0.049 A 
ATOM     53  C   UNL A   1      45.555  28.949  27.324  1.00  0.00     0.074 A 
ATOM     54  C   UNL A   1      40.978  31.991  30.453  1.00  0.00     0.029 A 
ATOM     55  N   UNL A   1      42.194  30.486  29.364  1.00  0.00    -0.354 N 
ATOM     56  N   UNL A   1      44.576  29.490  28.005  1.00  0.00    -0.248 NA
ATOM     57  C   UNL A   1      46.690  29.848  27.079  1.00  0.00     0.031 C 
ATOM     58  C   UNL A   1      42.207  32.575  30.120  1.00  0.00     0.029 A 
ATOM     59  C   UNL A   1      42.972  31.632  29.457  1.00  0.00     0.049 A 
ATOM     60  H   UNL A   1      42.475  29.647  28.933  1.00  0.00     0.167 HD
ATOM     61  C   UNL A   1      44.986  30.785  28.292  1.00  0.00     0.074 A 
ATOM     62  C   UNL A   1      46.318  30.933  27.743  1.00  0.00     0.031 C 
ATOM     63  C   UNL A   1      44.311  31.768  28.939  1.00  0.00     0.034 A 
BRANCH  50  64
ATOM     64  C   UNL A   1      38.590  30.166  30.657  1.00  0.00     0.023 A 
ATOM     65  C   UNL A   1      38.372  29.945  32.032  1.00  0.00     0.012 A 
ATOM     66  C   UNL A   1      37.623  30.869  29.911  1.00  0.00     0.148 A 
ATOM     67  C   UNL A   1      37.202  30.389  32.648  1.00  0.00     0.002 A 
ATOM     68  C   UNL A   1      36.478  31.347  30.541  1.00  0.00     0.091 A 
ATOM     69  F   UNL A   1      37.838  31.059  28.602  1.00  0.00    -0.205 F 
ATOM     70  C   UNL A   1      36.262  31.098  31.907  1.00  0.00     0.022 A 
BRANCH  68  71
ATOM     71  S   UNL A   1      35.245  32.342  29.693  1.00  0.00     0.127 S 
ATOM     72  O   UNL A   1      34.308  32.636  30.776  1.00  0.00    -0.237 OA
ATOM     73  O   UNL A   1      36.032  33.489  29.241  1.00  0.00    -0.237 OA
ATOM     74  O   UNL A   1      34.721  31.506  28.623  1.00  0.00    -0.744 OA
ENDBRANCH  68  71
ENDBRANCH  50  64
BRANCH  51  75
ATOM     75  C   UNL A   1      46.899  27.106  26.071  1.00  0.00     0.023 A 
ATOM     76  C   UNL A   1      47.004  27.332  24.685  1.00  0.00     0.012 A 
ATOM     77  C   UNL A   1      47.970  26.495  26.751  1.00  0.00     0.148 A 
ATOM     78  C   UNL A   1      48.139  26.927  23.984  1.00  0.00     0.002 A 
ATOM     79  C   UNL A   1      49.124  26.152  26.059  1.00  0.00     0.091 A 
ATOM     80  F   UNL A   1      47.846  26.280  28.069  1.00  0.00    -0.205 F 
ATOM     81  C   UNL A   1      49.204  26.349  24.671  1.00  0.00     0.022 A 
BRANCH  79  82
ATOM     82  S   UNL A   1      50.594  25.537  26.886  1.00  0.00     0.127 S 
ATOM     83  O   UNL A   1      51.494  25.304  25.761  1.00  0.00    -0.237 OA
ATOM     84  O   UNL A   1      50.954  26.669  27.741  1.00  0.00    -0.237 OA
ATOM     85  O   UNL A   1      50.166  24.350  27.613  1.00  0.00    -0.744 OA
ENDBRANCH  79  82
ENDBRANCH  51  75
BRANCH  63  86
ATOM     86  C   UNL A   1      45.020  33.088  29.110  1.00  0.00     0.023 A 
ATOM     87  C   UNL A   1      45.780  33.333  30.272  1.00  0.00     0.012 A 
ATOM     88  C   UNL A   1      44.944  34.082  28.116  1.00  0.00     0.148 A 
ATOM     89  C   UNL A   1      46.410  34.563  30.465  1.00  0.00     0.002 A 
ATOM     90  C   UNL A   1      45.618  35.286  28.290  1.00  0.00     0.091 A 
ATOM     91  F   UNL A   1      44.198  33.844  27.027  1.00  0.00    -0.205 F 
ATOM     92  C   UNL A   1      46.337  35.535  29.470  1.00  0.00     0.022 A 
BRANCH  90  93
ATOM     93  S   UNL A   1      45.654  36.557  27.022  1.00  0.00     0.127 S 
ATOM     94  O   UNL A   1      46.147  35.811  25.865  1.00  0.00    -0.237 OA
ATOM     95  O   UNL A   1      44.247  36.952  26.938  1.00  0.00    -0.237 OA
ATOM     96  O   UNL A   1      46.542  37.596  27.525  1.00  0.00    -0.744 OA
ENDBRANCH  90  93
ENDBRANCH  63  86
ENDBRANCH  37  38
ENDBRANCH  30  32
ENDBRANCH  29  30
ENDBRANCH  28  29
ENDBRANCH  27  28
ENDBRANCH   1  27
TORSDOF 20
ENDMDL
MODEL 2
REMARK VINA RESULT:     -12.1      1.761      7.594
REMARK SMILES COc1cccc(CSc2nc3ccccc3c(=O)n2CCC(=O)OCCOC(=O)c2ccc(-c3c4nc(c(-c5cccc(S(=O)(=O)[O-])c5F)c5ccc([nH]5)c(-c5cccc(S(=O)(=O)[O-])c5F)c5nc(c(-c6cccc(S(=O)(=O)[O-])c6F)c6ccc3[nH]6)C=C5)C=C4)cc2)c1
REMARK SMILES IDX 25 1 23 2 24 3 22 4 21 5 20 6 10 7 11 8 12 9 18 10 13 11
REMARK SMILES IDX 17 12 19 13 14 14 16 15 15 16 9 17 8 18 7 19 3 20 4 21 94 22
REMARK SMILES IDX 5 23 6 24 2 25 1 26 26 27 27 28 28 29 29 30 30 31 31 32
REMARK SMILES IDX 32 33 93 34 33 35 92 36 34 37 35 38 36 39 86 40 37 41 91 42
REMARK SMILES IDX 85 43 87 44 38 45 90 46 84 47 83 48 39 50 71 51 51 52 70 53
REMARK SMILES IDX 52 54 55 55 69 56 88 57 53 58 54 59 68 61 89 62 56 63 40 64
REMARK SMILES IDX 41 65 49 66 42 67 44 68 50 69 43 70 45 71 46 72 47 73 48 74
REMARK SMILES IDX 72 75 73 76 81 77 74 78 76 79 82 80 75 81 77 82 78 83 79 84
REMARK SMILES IDX 80 85 57 86 58 87 66 88 59 89 61 90 67 91 60 92 62 93 63 94
REMARK SMILES IDX 64 95 65 96
REMARK H PARENT 87 49 55 60
REMARK Flexibility Score: inf
ROOT
ATOM      1  O   UNL A   1      35.715  21.858  24.599  1.00  0.00    -0.462 OA
ENDROOT
BRANCH   1   2
ATOM      2  C   UNL A   1      34.975  22.543  25.503  1.00  0.00     0.307 C 
ATOM      3  O   UNL A   1      34.638  22.107  26.598  1.00  0.00    -0.252 OA
BRANCH   2   4
ATOM      4  C   UNL A   1      34.669  23.959  25.070  1.00  0.00     0.144 C 
BRANCH   4   5
ATOM      5  C   UNL A   1      34.575  24.302  23.577  1.00  0.00     0.140 C 
BRANCH   5   6
ATOM      6  N   UNL A   1      33.241  24.427  23.003  1.00  0.00    -0.286 N 
ATOM      7  C   UNL A   1      32.202  23.547  23.188  1.00  0.00     0.171 A 
ATOM      8  N   UNL A   1      31.009  23.972  23.482  1.00  0.00    -0.224 NA
ATOM      9  C   UNL A   1      30.771  25.352  23.393  1.00  0.00     0.079 A 
ATOM     10  C   UNL A   1      32.949  25.621  22.356  1.00  0.00     0.262 A 
ATOM     11  C   UNL A   1      29.628  25.925  23.946  1.00  0.00     0.029 A 
ATOM     12  C   UNL A   1      31.597  26.148  22.604  1.00  0.00     0.066 A 
ATOM     13  O   UNL A   1      33.747  26.268  21.686  1.00  0.00    -0.269 OA
ATOM     14  C   UNL A   1      29.282  27.245  23.630  1.00  0.00     0.002 A 
ATOM     15  C   UNL A   1      31.228  27.437  22.216  1.00  0.00     0.016 A 
ATOM     16  C   UNL A   1      30.052  27.981  22.725  1.00  0.00     0.001 A 
BRANCH   7  17
ATOM     17  S   UNL A   1      32.279  21.839  22.820  1.00  0.00    -0.083 SA
BRANCH  17  18
ATOM     18  C   UNL A   1      32.231  20.788  24.277  1.00  0.00     0.113 C 
BRANCH  18  19
ATOM     19  C   UNL A   1      32.603  19.343  24.060  1.00  0.00    -0.034 A 
ATOM     20  C   UNL A   1      33.569  17.250  24.859  1.00  0.00     0.119 A 
ATOM     21  C   UNL A   1      33.419  16.712  23.582  1.00  0.00     0.046 A 
ATOM     22  C   UNL A   1      33.104  18.541  25.104  1.00  0.00     0.051 A 
ATOM     23  C   UNL A   1      32.810  17.448  22.567  1.00  0.00     0.004 A 
ATOM     24  C   UNL A   1      32.413  18.760  22.802  1.00  0.00     0.005 A 
BRANCH  20  25
ATOM     25  O   UNL A   1      34.199  16.434  25.757  1.00  0.00    -0.497 OA
ATOM     26  C   UNL A   1      35.442  15.858  25.377  1.00  0.00     0.278 C 
ENDBRANCH  20  25
ENDBRANCH  18  19
ENDBRANCH  17  18
ENDBRANCH   7  17
ENDBRANCH   5   6
ENDBRANCH   4   5
ENDBRANCH   2   4
ENDBRANCH   1   2
BRANCH   1  27
ATOM     27  C   UNL A   1      36.174  20.561  25.039  1.00  0.00     0.274 C 
BRANCH  27  28
ATOM     28  C   UNL A   1      37.711  20.475  24.999  1.00  0.00     0.275 C 
BRANCH  28  29
ATOM     29  O   UNL A   1      38.404  21.694  25.332  1.00  0.00    -0.458 OA
BRANCH  29  30
ATOM     30  C   UNL A   1      39.538  21.569  26.051  1.00  0.00     0.338 C 
ATOM     31  O   UNL A   1      40.233  20.570  26.160  1.00  0.00    -0.246 OA
BRANCH  30  32
ATOM     32  C   UNL A   1      39.732  22.773  26.877  1.00  0.00     0.060 A 
ATOM     33  C   UNL A   1      40.880  22.834  27.671  1.00  0.00     0.016 A 
ATOM     34  C   UNL A   1      38.866  23.866  26.789  1.00  0.00     0.016 A 
ATOM     35  C   UNL A   1      41.218  24.027  28.308  1.00  0.00     0.010 A 
ATOM     36  C   UNL A   1      39.248  25.084  27.367  1.00  0.00     0.010 A 
ATOM     37  C   UNL A   1      40.463  25.189  28.066  1.00  0.00    -0.014 A 
BRANCH  37  38
ATOM     38  C   UNL A   1      41.113  26.518  28.255  1.00  0.00     0.031 A 
ATOM     39  C   UNL A   1      42.528  26.807  27.851  1.00  0.00     0.074 A 
ATOM     40  C   UNL A   1      40.395  27.468  28.894  1.00  0.00     0.049 A 
ATOM     41  N   UNL A   1      43.198  27.925  27.978  1.00  0.00    -0.248 NA
ATOM     42  C   UNL A   1      43.293  25.711  27.244  1.00  0.00     0.031 C 
ATOM     43  C   UNL A   1      39.037  27.283  29.419  1.00  0.00     0.029 A 
ATOM     44  N   UNL A   1      40.696  28.765  29.224  1.00  0.00    -0.354 N 
ATOM     45  C   UNL A   1      44.475  27.667  27.497  1.00  0.00     0.074 A 
ATOM     46  C   UNL A   1      44.484  26.277  27.078  1.00  0.00     0.031 C 
ATOM     47  C   UNL A   1      38.614  28.426  29.973  1.00  0.00     0.029 A 
ATOM     48  C   UNL A   1      39.686  29.408  29.902  1.00  0.00     0.049 A 
ATOM     49  H   UNL A   1      41.553  29.194  28.998  1.00  0.00     0.167 HD
ATOM     50  C   UNL A   1      45.533  28.510  27.403  1.00  0.00     0.034 A 
ATOM     51  C   UNL A   1      39.623  30.644  30.433  1.00  0.00     0.034 A 
ATOM     52  C   UNL A   1      45.516  29.896  27.812  1.00  0.00     0.049 A 
ATOM     53  C   UNL A   1      40.800  31.561  30.285  1.00  0.00     0.074 A 
ATOM     54  C   UNL A   1      46.520  30.842  27.686  1.00  0.00     0.029 A 
ATOM     55  N   UNL A   1      44.455  30.532  28.441  1.00  0.00    -0.354 N 
ATOM     56  N   UNL A   1      41.945  31.340  29.689  1.00  0.00    -0.248 NA
ATOM     57  C   UNL A   1      40.664  32.907  30.856  1.00  0.00     0.031 C 
ATOM     58  C   UNL A   1      46.079  32.038  28.266  1.00  0.00     0.029 A 
ATOM     59  C   UNL A   1      44.785  31.851  28.720  1.00  0.00     0.049 A 
ATOM     60  H   UNL A   1      43.593  30.109  28.658  1.00  0.00     0.167 HD
ATOM     61  C   UNL A   1      42.658  32.527  29.790  1.00  0.00     0.074 A 
ATOM     62  C   UNL A   1      41.798  33.474  30.471  1.00  0.00     0.031 C 
ATOM     63  C   UNL A   1      43.918  32.802  29.370  1.00  0.00     0.034 A 
BRANCH  50  64
ATOM     64  C   UNL A   1      46.810  27.976  26.803  1.00  0.00     0.023 A 
ATOM     65  C   UNL A   1      47.760  27.347  27.633  1.00  0.00     0.012 A 
ATOM     66  C   UNL A   1      47.032  28.018  25.411  1.00  0.00     0.148 A 
ATOM     67  C   UNL A   1      48.923  26.796  27.094  1.00  0.00     0.002 A 
ATOM     68  C   UNL A   1      48.172  27.429  24.876  1.00  0.00     0.091 A 
ATOM     69  F   UNL A   1      46.125  28.632  24.637  1.00  0.00    -0.205 F 
ATOM     70  C   UNL A   1      49.124  26.827  25.717  1.00  0.00     0.022 A 
BRANCH  68  71
ATOM     71  S   UNL A   1      48.484  27.344  23.108  1.00  0.00     0.127 S 
ATOM     72  O   UNL A   1      48.312  25.916  22.846  1.00  0.00    -0.237 OA
ATOM     73  O   UNL A   1      47.422  28.193  22.567  1.00  0.00    -0.237 OA
ATOM     74  O   UNL A   1      49.832  27.858  22.912  1.00  0.00    -0.744 OA
ENDBRANCH  68  71
ENDBRANCH  50  64
BRANCH  51  75
ATOM     75  C   UNL A   1      38.379  31.094  31.119  1.00  0.00     0.023 A 
ATOM     76  C   UNL A   1      38.264  30.946  32.515  1.00  0.00     0.012 A 
ATOM     77  C   UNL A   1      37.328  31.698  30.402  1.00  0.00     0.148 A 
ATOM     78  C   UNL A   1      37.110  31.362  33.179  1.00  0.00     0.002 A 
ATOM     79  C   UNL A   1      36.209  32.168  31.078  1.00  0.00     0.091 A 
ATOM     80  F   UNL A   1      37.453  31.820  29.073  1.00  0.00    -0.205 F 
ATOM     81  C   UNL A   1      36.089  31.983  32.464  1.00  0.00     0.022 A 
BRANCH  79  82
ATOM     82  S   UNL A   1      34.915  33.105  30.259  1.00  0.00     0.127 S 
ATOM     83  O   UNL A   1      34.380  32.120  29.325  1.00  0.00    -0.237 OA
ATOM     84  O   UNL A   1      34.033  33.439  31.378  1.00  0.00    -0.237 OA
ATOM     85  O   UNL A   1      35.583  34.252  29.659  1.00  0.00    -0.744 OA
ENDBRANCH  79  82
ENDBRANCH  51  75
BRANCH  63  86
ATOM     86  C   UNL A   1      44.432  34.198  29.614  1.00  0.00     0.023 A 
ATOM     87  C   UNL A   1      45.181  34.480  30.776  1.00  0.00     0.012 A 
ATOM     88  C   UNL A   1      44.186  35.230  28.688  1.00  0.00     0.148 A 
ATOM     89  C   UNL A   1      45.630  35.775  31.037  1.00  0.00     0.002 A 
ATOM     90  C   UNL A   1      44.683  36.506  28.927  1.00  0.00     0.091 A 
ATOM     91  F   UNL A   1      43.453  34.953  27.600  1.00  0.00    -0.205 F 
ATOM     92  C   UNL A   1      45.389  36.785  30.108  1.00  0.00     0.022 A 
BRANCH  90  93
ATOM     93  S   UNL A   1      44.499  37.845  27.744  1.00  0.00     0.127 S 
ATOM     94  O   UNL A   1      43.186  37.556  27.168  1.00  0.00    -0.237 OA
ATOM     95  O   UNL A   1      44.540  39.028  28.604  1.00  0.00    -0.237 OA
ATOM     96  O   UNL A   1      45.627  37.726  26.830  1.00  0.00    -0.744 OA
ENDBRANCH  90  93
ENDBRANCH  63  86
ENDBRANCH  37  38
ENDBRANCH  30  32
ENDBRANCH  29  30
ENDBRANCH  28  29
ENDBRANCH  27  28
ENDBRANCH   1  27
TORSDOF 20
ENDMDL
MODEL 3
REMARK VINA RESULT:     -11.6      4.941     10.617
REMARK SMILES COc1cccc(CSc2nc3ccccc3c(=O)n2CCC(=O)OCCOC(=O)c2ccc(-c3c4nc(c(-c5cccc(S(=O)(=O)[O-])c5F)c5ccc([nH]5)c(-c5cccc(S(=O)(=O)[O-])c5F)c5nc(c(-c6cccc(S(=O)(=O)[O-])c6F)c6ccc3[nH]6)C=C5)C=C4)cc2)c1
REMARK SMILES IDX 25 1 23 2 24 3 22 4 21 5 20 6 10 7 11 8 12 9 18 10 13 11
REMARK SMILES IDX 17 12 19 13 14 14 16 15 15 16 9 17 8 18 7 19 3 20 4 21 94 22
REMARK SMILES IDX 5 23 6 24 2 25 1 26 26 27 27 28 28 29 29 30 30 31 31 32
REMARK SMILES IDX 32 33 93 34 33 35 92 36 34 37 35 38 36 39 86 40 37 41 91 42
REMARK SMILES IDX 85 43 87 44 38 45 90 46 84 47 83 48 39 50 71 51 51 52 70 53
REMARK SMILES IDX 52 54 55 55 69 56 88 57 53 58 54 59 68 61 89 62 56 63 40 64
REMARK SMILES IDX 41 65 49 66 42 67 44 68 50 69 43 70 45 71 46 72 47 73 48 74
REMARK SMILES IDX 72 75 73 76 81 77 74 78 76 79 82 80 75 81 77 82 78 83 79 84
REMARK SMILES IDX 80 85 57 86 58 87 66 88 59 89 61 90 67 91 60 92 62 93 63 94
REMARK SMILES IDX 64 95 65 96
REMARK H PARENT 87 49 55 60
REMARK Flexibility Score: inf
ROOT
ATOM      1  O   UNL A   1      31.346  29.271  26.179  1.00  0.00    -0.462 OA
ENDROOT
BRANCH   1   2
ATOM      2  C   UNL A   1      31.693  28.131  26.820  1.00  0.00     0.307 C 
ATOM      3  O   UNL A   1      31.441  27.890  27.996  1.00  0.00    -0.252 OA
BRANCH   2   4
ATOM      4  C   UNL A   1      32.356  27.117  25.915  1.00  0.00     0.144 C 
BRANCH   4   5
ATOM      5  C   UNL A   1      31.591  25.859  25.483  1.00  0.00     0.140 C 
BRANCH   5   6
ATOM      6  N   UNL A   1      32.213  25.012  24.472  1.00  0.00    -0.286 N 
ATOM      7  C   UNL A   1      32.822  25.452  23.321  1.00  0.00     0.171 A 
ATOM      8  N   UNL A   1      33.983  24.993  22.961  1.00  0.00    -0.224 NA
ATOM      9  C   UNL A   1      34.491  23.888  23.663  1.00  0.00     0.079 A 
ATOM     10  C   UNL A   1      32.349  23.665  24.783  1.00  0.00     0.262 A 
ATOM     11  C   UNL A   1      35.824  23.504  23.539  1.00  0.00     0.029 A 
ATOM     12  C   UNL A   1      33.623  23.058  24.368  1.00  0.00     0.066 A 
ATOM     13  O   UNL A   1      31.535  23.009  25.424  1.00  0.00    -0.269 OA
ATOM     14  C   UNL A   1      36.247  22.265  24.037  1.00  0.00     0.002 A 
ATOM     15  C   UNL A   1      34.008  21.787  24.800  1.00  0.00     0.016 A 
ATOM     16  C   UNL A   1      35.328  21.386  24.619  1.00  0.00     0.001 A 
BRANCH   7  17
ATOM     17  S   UNL A   1      32.044  26.448  22.112  1.00  0.00    -0.083 SA
BRANCH  17  18
ATOM     18  C   UNL A   1      31.701  28.121  22.674  1.00  0.00     0.113 C 
BRANCH  18  19
ATOM     19  C   UNL A   1      30.252  28.536  22.662  1.00  0.00    -0.034 A 
ATOM     20  C   UNL A   1      28.504  30.155  22.136  1.00  0.00     0.119 A 
ATOM     21  C   UNL A   1      27.578  29.345  22.791  1.00  0.00     0.046 A 
ATOM     22  C   UNL A   1      29.822  29.716  22.024  1.00  0.00     0.051 A 
ATOM     23  C   UNL A   1      27.959  28.113  23.321  1.00  0.00     0.004 A 
ATOM     24  C   UNL A   1      29.291  27.716  23.266  1.00  0.00     0.005 A 
BRANCH  20  25
ATOM     25  O   UNL A   1      28.007  31.344  21.680  1.00  0.00    -0.497 OA
ATOM     26  C   UNL A   1      28.603  32.543  22.158  1.00  0.00     0.278 C 
ENDBRANCH  20  25
ENDBRANCH  18  19
ENDBRANCH  17  18
ENDBRANCH   7  17
ENDBRANCH   5   6
ENDBRANCH   4   5
ENDBRANCH   2   4
ENDBRANCH   1   2
BRANCH   1  27
ATOM     27  C   UNL A   1      32.368  30.292  26.146  1.00  0.00     0.274 C 
BRANCH  27  28
ATOM     28  C   UNL A   1      31.895  31.571  26.863  1.00  0.00     0.275 C 
BRANCH  28  29
ATOM     29  O   UNL A   1      32.833  32.666  26.849  1.00  0.00    -0.458 OA
BRANCH  29  30
ATOM     30  C   UNL A   1      33.449  32.949  28.015  1.00  0.00     0.338 C 
ATOM     31  O   UNL A   1      33.080  33.743  28.868  1.00  0.00    -0.246 OA
BRANCH  30  32
ATOM     32  C   UNL A   1      34.773  32.305  28.040  1.00  0.00     0.060 A 
ATOM     33  C   UNL A   1      35.884  33.120  28.276  1.00  0.00     0.016 A 
ATOM     34  C   UNL A   1      34.913  30.918  27.948  1.00  0.00     0.016 A 
ATOM     35  C   UNL A   1      37.129  32.540  28.515  1.00  0.00     0.010 A 
ATOM     36  C   UNL A   1      36.147  30.336  28.265  1.00  0.00     0.010 A 
ATOM     37  C   UNL A   1      37.241  31.143  28.623  1.00  0.00    -0.014 A 
BRANCH  37  38
ATOM     38  C   UNL A   1      38.372  30.574  29.413  1.00  0.00     0.031 A 
ATOM     39  C   UNL A   1      39.321  29.548  28.870  1.00  0.00     0.074 A 
ATOM     40  C   UNL A   1      38.476  30.962  30.703  1.00  0.00     0.049 A 
ATOM     41  N   UNL A   1      40.334  28.977  29.472  1.00  0.00    -0.248 NA
ATOM     42  C   UNL A   1      39.106  29.094  27.490  1.00  0.00     0.031 C 
ATOM     43  C   UNL A   1      37.559  31.887  31.379  1.00  0.00     0.029 A 
ATOM     44  N   UNL A   1      39.380  30.629  31.681  1.00  0.00    -0.354 N 
ATOM     45  C   UNL A   1      40.864  28.072  28.562  1.00  0.00     0.074 A 
ATOM     46  C   UNL A   1      40.052  28.169  27.364  1.00  0.00     0.031 C 
ATOM     47  C   UNL A   1      37.963  32.071  32.642  1.00  0.00     0.029 A 
ATOM     48  C   UNL A   1      39.127  31.233  32.891  1.00  0.00     0.049 A 
ATOM     49  H   UNL A   1      40.136  30.016  31.531  1.00  0.00     0.167 HD
ATOM     50  C   UNL A   1      41.931  27.247  28.709  1.00  0.00     0.034 A 
ATOM     51  C   UNL A   1      39.742  31.119  34.083  1.00  0.00     0.034 A 
ATOM     52  C   UNL A   1      42.743  27.162  29.901  1.00  0.00     0.049 A 
ATOM     53  C   UNL A   1      40.937  30.222  34.203  1.00  0.00     0.074 A 
ATOM     54  C   UNL A   1      43.886  26.407  30.110  1.00  0.00     0.029 A 
ATOM     55  N   UNL A   1      42.494  27.833  31.089  1.00  0.00    -0.354 N 
ATOM     56  N   UNL A   1      41.512  29.489  33.282  1.00  0.00    -0.248 NA
ATOM     57  C   UNL A   1      41.588  30.160  35.518  1.00  0.00     0.031 C 
ATOM     58  C   UNL A   1      44.309  26.598  31.432  1.00  0.00     0.029 A 
ATOM     59  C   UNL A   1      43.452  27.501  32.037  1.00  0.00     0.049 A 
ATOM     60  H   UNL A   1      41.746  28.455  31.239  1.00  0.00     0.167 HD
ATOM     61  C   UNL A   1      42.606  28.898  33.898  1.00  0.00     0.074 A 
ATOM     62  C   UNL A   1      42.634  29.389  35.260  1.00  0.00     0.031 C 
ATOM     63  C   UNL A   1      43.498  28.014  33.384  1.00  0.00     0.034 A 
BRANCH  50  64
ATOM     64  C   UNL A   1      42.319  26.380  27.537  1.00  0.00     0.023 A 
ATOM     65  C   UNL A   1      43.144  26.909  26.522  1.00  0.00     0.012 A 
ATOM     66  C   UNL A   1      41.942  25.023  27.480  1.00  0.00     0.148 A 
ATOM     67  C   UNL A   1      43.560  26.111  25.457  1.00  0.00     0.002 A 
ATOM     68  C   UNL A   1      42.397  24.223  26.437  1.00  0.00     0.091 A 
ATOM     69  F   UNL A   1      41.146  24.540  28.445  1.00  0.00    -0.205 F 
ATOM     70  C   UNL A   1      43.197  24.768  25.419  1.00  0.00     0.022 A 
BRANCH  68  71
ATOM     71  S   UNL A   1      42.051  22.462  26.342  1.00  0.00     0.127 S 
ATOM     72  O   UNL A   1      42.617  21.982  27.602  1.00  0.00    -0.237 OA
ATOM     73  O   UNL A   1      40.589  22.437  26.283  1.00  0.00    -0.237 OA
ATOM     74  O   UNL A   1      42.715  21.987  25.137  1.00  0.00    -0.744 OA
ENDBRANCH  68  71
ENDBRANCH  50  64
BRANCH  51  75
ATOM     75  C   UNL A   1      39.255  31.911  35.248  1.00  0.00     0.023 A 
ATOM     76  C   UNL A   1      38.372  31.317  36.170  1.00  0.00     0.012 A 
ATOM     77  C   UNL A   1      39.690  33.232  35.465  1.00  0.00     0.148 A 
ATOM     78  C   UNL A   1      37.905  32.037  37.269  1.00  0.00     0.002 A 
ATOM     79  C   UNL A   1      39.272  33.922  36.595  1.00  0.00     0.091 A 
ATOM     80  F   UNL A   1      40.524  33.782  34.569  1.00  0.00    -0.205 F 
ATOM     81  C   UNL A   1      38.363  33.334  37.489  1.00  0.00     0.022 A 
BRANCH  79  82
ATOM     82  S   UNL A   1      39.923  35.538  37.031  1.00  0.00     0.127 S 
ATOM     83  O   UNL A   1      39.214  35.819  38.275  1.00  0.00    -0.237 OA
ATOM     84  O   UNL A   1      41.350  35.256  37.183  1.00  0.00    -0.237 OA
ATOM     85  O   UNL A   1      39.599  36.406  35.907  1.00  0.00    -0.744 OA
ENDBRANCH  79  82
ENDBRANCH  51  75
BRANCH  63  86
ATOM     86  C   UNL A   1      44.600  27.542  34.299  1.00  0.00     0.023 A 
ATOM     87  C   UNL A   1      45.811  28.260  34.371  1.00  0.00     0.012 A 
ATOM     88  C   UNL A   1      44.432  26.394  35.097  1.00  0.00     0.148 A 
ATOM     89  C   UNL A   1      46.856  27.814  35.182  1.00  0.00     0.002 A 
ATOM     90  C   UNL A   1      45.457  25.985  35.943  1.00  0.00     0.091 A 
ATOM     91  F   UNL A   1      43.284  25.708  35.000  1.00  0.00    -0.205 F 
ATOM     92  C   UNL A   1      46.675  26.684  35.975  1.00  0.00     0.022 A 
BRANCH  90  93
ATOM     93  S   UNL A   1      45.277  24.595  37.066  1.00  0.00     0.127 S 
ATOM     94  O   UNL A   1      44.132  25.010  37.875  1.00  0.00    -0.237 OA
ATOM     95  O   UNL A   1      45.005  23.488  36.148  1.00  0.00    -0.237 OA
ATOM     96  O   UNL A   1      46.545  24.490  37.776  1.00  0.00    -0.744 OA
ENDBRANCH  90  93
ENDBRANCH  63  86
ENDBRANCH  37  38
ENDBRANCH  30  32
ENDBRANCH  29  30
ENDBRANCH  28  29
ENDBRANCH  27  28
ENDBRANCH   1  27
TORSDOF 20
ENDMDL
