MODEL 1
REMARK VINA RESULT:     -11.7      0.000      0.000
REMARK SMILES COc1ccc(OCCNc2c(Cl)cccc2C(=O)OCCOC(=O)c2ccc(-c3c4nc(c(-c5cccc(S(=O)(=O)[O-])c5F)c5ccc([nH]5)c(-c5cccc(S(=O)(=O)[O-])c5F)c5nc(c(-c6cccc(S(=O)(=O)[O-])c6F)c6ccc3[nH]6)C=C5)C=C4)cc2)cc1
REMARK SMILES IDX 20 1 18 2 19 3 17 4 11 5 12 6 13 7 14 8 16 9 15 10 10 11
REMARK SMILES IDX 9 13 8 14 7 15 6 16 3 17 4 18 90 19 5 20 89 21 2 22 1 23
REMARK SMILES IDX 21 24 22 25 23 26 24 27 25 28 26 29 27 30 88 31 28 32 87 33
REMARK SMILES IDX 29 34 30 35 31 36 81 37 32 38 86 39 80 40 82 41 33 42 85 43
REMARK SMILES IDX 79 44 78 45 34 47 66 48 46 49 65 50 47 51 50 52 64 53 83 54
REMARK SMILES IDX 48 55 49 56 63 58 84 59 51 60 35 61 36 62 44 63 37 64 39 65
REMARK SMILES IDX 45 66 38 67 40 68 41 69 42 70 43 71 67 72 68 73 76 74 69 75
REMARK SMILES IDX 71 76 77 77 70 78 72 79 73 80 74 81 75 82 52 83 53 84 61 85
REMARK SMILES IDX 54 86 56 87 62 88 55 89 57 90 58 91 59 92 60 93
REMARK H PARENT 10 12 82 46 50 57
REMARK Flexibility Score: inf
ROOT
ATOM      1  O   UNL A   1      33.245  27.745  25.100  1.00  0.00    -0.458 OA
ENDROOT
BRANCH   1   2
ATOM      2  C   UNL A   1      33.500  26.787  24.174  1.00  0.00     0.340 C 
ATOM      3  O   UNL A   1      33.653  26.958  22.981  1.00  0.00    -0.246 OA
BRANCH   2   4
ATOM      4  C   UNL A   1      33.580  25.433  24.762  1.00  0.00     0.084 A 
ATOM      5  C   UNL A   1      32.480  24.842  25.393  1.00  0.00     0.068 A 
ATOM      6  C   UNL A   1      32.542  23.429  25.556  1.00  0.00     0.065 A 
ATOM      7  Cl  UNL A   1      31.170  22.513  26.088  1.00  0.00    -0.082 Cl
ATOM      8  C   UNL A   1      33.672  22.672  25.229  1.00  0.00     0.023 A 
ATOM      9  C   UNL A   1      34.719  24.665  24.449  1.00  0.00     0.018 A 
ATOM     10  C   UNL A   1      34.785  23.302  24.712  1.00  0.00     0.003 A 
BRANCH   5  11
ATOM     11  N   UNL A   1      31.490  25.543  26.071  1.00  0.00    -0.380 N 
ATOM     12  H   UNL A   1      31.784  25.995  26.893  1.00  0.00     0.160 HD
BRANCH  11  13
ATOM     13  C   UNL A   1      30.081  25.706  25.740  1.00  0.00     0.154 C 
BRANCH  13  14
ATOM     14  C   UNL A   1      29.920  26.096  24.250  1.00  0.00     0.250 C 
BRANCH  14  15
ATOM     15  O   UNL A   1      28.650  26.694  23.914  1.00  0.00    -0.492 OA
BRANCH  15  16
ATOM     16  C   UNL A   1      28.634  27.893  23.257  1.00  0.00     0.119 A 
ATOM     17  C   UNL A   1      28.901  30.505  22.258  1.00  0.00     0.119 A 
ATOM     18  C   UNL A   1      29.984  29.629  22.231  1.00  0.00     0.050 A 
ATOM     19  C   UNL A   1      27.658  30.029  22.651  1.00  0.00     0.050 A 
ATOM     20  C   UNL A   1      29.855  28.333  22.746  1.00  0.00     0.050 A 
ATOM     21  C   UNL A   1      27.521  28.709  23.096  1.00  0.00     0.050 A 
BRANCH  17  22
ATOM     22  O   UNL A   1      29.114  31.780  21.811  1.00  0.00    -0.497 OA
ATOM     23  C   UNL A   1      28.029  32.317  21.049  1.00  0.00     0.278 C 
ENDBRANCH  17  22
ENDBRANCH  15  16
ENDBRANCH  14  15
ENDBRANCH  13  14
ENDBRANCH  11  13
ENDBRANCH   5  11
ENDBRANCH   2   4
ENDBRANCH   1   2
BRANCH   1  24
ATOM     24  C   UNL A   1      32.856  29.032  24.567  1.00  0.00     0.275 C 
BRANCH  24  25
ATOM     25  C   UNL A   1      31.874  29.742  25.495  1.00  0.00     0.275 C 
BRANCH  25  26
ATOM     26  O   UNL A   1      32.438  29.826  26.813  1.00  0.00    -0.458 OA
BRANCH  26  27
ATOM     27  C   UNL A   1      32.988  31.020  27.109  1.00  0.00     0.338 C 
ATOM     28  O   UNL A   1      32.421  32.102  27.211  1.00  0.00    -0.246 OA
BRANCH  27  29
ATOM     29  C   UNL A   1      34.399  30.843  27.450  1.00  0.00     0.060 A 
ATOM     30  C   UNL A   1      34.851  29.546  27.658  1.00  0.00     0.016 A 
ATOM     31  C   UNL A   1      35.198  31.929  27.785  1.00  0.00     0.016 A 
ATOM     32  C   UNL A   1      36.006  29.327  28.395  1.00  0.00     0.010 A 
ATOM     33  C   UNL A   1      36.450  31.695  28.362  1.00  0.00     0.010 A 
ATOM     34  C   UNL A   1      36.842  30.395  28.737  1.00  0.00    -0.014 A 
BRANCH  34  35
ATOM     35  C   UNL A   1      38.105  30.160  29.494  1.00  0.00     0.031 A 
ATOM     36  C   UNL A   1      39.184  29.279  28.910  1.00  0.00     0.074 A 
ATOM     37  C   UNL A   1      38.281  30.709  30.714  1.00  0.00     0.049 A 
ATOM     38  N   UNL A   1      40.219  28.739  29.498  1.00  0.00    -0.248 NA
ATOM     39  C   UNL A   1      39.069  28.940  27.479  1.00  0.00     0.031 C 
ATOM     40  C   UNL A   1      37.340  31.607  31.390  1.00  0.00     0.029 A 
ATOM     41  N   UNL A   1      39.307  30.577  31.620  1.00  0.00    -0.354 N 
ATOM     42  C   UNL A   1      40.815  27.919  28.545  1.00  0.00     0.074 A 
ATOM     43  C   UNL A   1      40.039  28.048  27.332  1.00  0.00     0.031 C 
ATOM     44  C   UNL A   1      37.836  31.964  32.580  1.00  0.00     0.029 A 
ATOM     45  C   UNL A   1      39.067  31.224  32.811  1.00  0.00     0.049 A 
ATOM     46  H   UNL A   1      40.130  30.070  31.435  1.00  0.00     0.167 HD
ATOM     47  C   UNL A   1      41.908  27.130  28.676  1.00  0.00     0.034 A 
ATOM     48  C   UNL A   1      39.716  31.175  33.990  1.00  0.00     0.034 A 
ATOM     49  C   UNL A   1      42.715  27.074  29.866  1.00  0.00     0.049 A 
ATOM     50  C   UNL A   1      40.922  30.293  34.108  1.00  0.00     0.074 A 
ATOM     51  C   UNL A   1      43.870  26.348  30.090  1.00  0.00     0.029 A 
ATOM     52  N   UNL A   1      42.457  27.783  31.030  1.00  0.00    -0.354 N 
ATOM     53  N   UNL A   1      41.483  29.537  33.195  1.00  0.00    -0.248 NA
ATOM     54  C   UNL A   1      41.593  30.262  35.414  1.00  0.00     0.031 C 
ATOM     55  C   UNL A   1      44.297  26.598  31.399  1.00  0.00     0.029 A 
ATOM     56  C   UNL A   1      43.428  27.509  31.978  1.00  0.00     0.049 A 
ATOM     57  H   UNL A   1      41.695  28.393  31.162  1.00  0.00     0.167 HD
ATOM     58  C   UNL A   1      42.588  28.962  33.807  1.00  0.00     0.074 A 
ATOM     59  C   UNL A   1      42.631  29.477  35.161  1.00  0.00     0.031 C 
ATOM     60  C   UNL A   1      43.479  28.074  33.301  1.00  0.00     0.034 A 
BRANCH  47  61
ATOM     61  C   UNL A   1      42.304  26.263  27.505  1.00  0.00     0.023 A 
ATOM     62  C   UNL A   1      43.128  26.779  26.485  1.00  0.00     0.012 A 
ATOM     63  C   UNL A   1      41.905  24.911  27.451  1.00  0.00     0.148 A 
ATOM     64  C   UNL A   1      43.518  25.975  25.413  1.00  0.00     0.002 A 
ATOM     65  C   UNL A   1      42.337  24.104  26.405  1.00  0.00     0.091 A 
ATOM     66  F   UNL A   1      41.107  24.441  28.421  1.00  0.00    -0.205 F 
ATOM     67  C   UNL A   1      43.131  24.638  25.378  1.00  0.00     0.022 A 
BRANCH  65  68
ATOM     68  S   UNL A   1      41.963  22.348  26.314  1.00  0.00     0.127 S 
ATOM     69  O   UNL A   1      40.507  22.364  26.178  1.00  0.00    -0.237 OA
ATOM     70  O   UNL A   1      42.683  21.944  25.106  1.00  0.00    -0.237 OA
ATOM     71  O   UNL A   1      42.468  21.764  27.548  1.00  0.00    -0.744 OA
ENDBRANCH  65  68
ENDBRANCH  47  61
BRANCH  48  72
ATOM     72  C   UNL A   1      39.217  31.970  35.149  1.00  0.00     0.023 A 
ATOM     73  C   UNL A   1      38.304  31.387  36.047  1.00  0.00     0.012 A 
ATOM     74  C   UNL A   1      39.677  33.281  35.392  1.00  0.00     0.148 A 
ATOM     75  C   UNL A   1      37.838  32.102  37.151  1.00  0.00     0.002 A 
ATOM     76  C   UNL A   1      39.261  33.962  36.529  1.00  0.00     0.091 A 
ATOM     77  F   UNL A   1      40.534  33.827  34.518  1.00  0.00    -0.205 F 
ATOM     78  C   UNL A   1      38.326  33.382  37.400  1.00  0.00     0.022 A 
BRANCH  76  79
ATOM     79  S   UNL A   1      39.953  35.551  37.004  1.00  0.00     0.127 S 
ATOM     80  O   UNL A   1      39.243  35.824  38.251  1.00  0.00    -0.237 OA
ATOM     81  O   UNL A   1      41.372  35.228  37.160  1.00  0.00    -0.237 OA
ATOM     82  O   UNL A   1      39.663  36.452  35.898  1.00  0.00    -0.744 OA
ENDBRANCH  76  79
ENDBRANCH  48  72
BRANCH  60  83
ATOM     83  C   UNL A   1      44.607  27.645  34.199  1.00  0.00     0.023 A 
ATOM     84  C   UNL A   1      45.779  28.422  34.280  1.00  0.00     0.012 A 
ATOM     85  C   UNL A   1      44.476  26.499  35.006  1.00  0.00     0.148 A 
ATOM     86  C   UNL A   1      46.820  28.043  35.126  1.00  0.00     0.002 A 
ATOM     87  C   UNL A   1      45.494  26.158  35.886  1.00  0.00     0.091 A 
ATOM     88  F   UNL A   1      43.359  25.764  34.897  1.00  0.00    -0.205 F 
ATOM     89  C   UNL A   1      46.672  26.921  35.937  1.00  0.00     0.022 A 
BRANCH  87  90
ATOM     90  S   UNL A   1      45.350  24.788  37.037  1.00  0.00     0.127 S 
ATOM     91  O   UNL A   1      45.441  23.636  36.143  1.00  0.00    -0.237 OA
ATOM     92  O   UNL A   1      46.516  24.986  37.899  1.00  0.00    -0.237 OA
ATOM     93  O   UNL A   1      44.067  24.958  37.708  1.00  0.00    -0.744 OA
ENDBRANCH  87  90
ENDBRANCH  60  83
ENDBRANCH  34  35
ENDBRANCH  27  29
ENDBRANCH  26  27
ENDBRANCH  25  26
ENDBRANCH  24  25
ENDBRANCH   1  24
TORSDOF 20
ENDMDL
MODEL 2
REMARK VINA RESULT:     -11.7      5.479     10.453
REMARK SMILES COc1ccc(OCCNc2c(Cl)cccc2C(=O)OCCOC(=O)c2ccc(-c3c4nc(c(-c5cccc(S(=O)(=O)[O-])c5F)c5ccc([nH]5)c(-c5cccc(S(=O)(=O)[O-])c5F)c5nc(c(-c6cccc(S(=O)(=O)[O-])c6F)c6ccc3[nH]6)C=C5)C=C4)cc2)cc1
REMARK SMILES IDX 20 1 18 2 19 3 17 4 11 5 12 6 13 7 14 8 16 9 15 10 10 11
REMARK SMILES IDX 9 13 8 14 7 15 6 16 3 17 4 18 90 19 5 20 89 21 2 22 1 23
REMARK SMILES IDX 21 24 22 25 23 26 24 27 25 28 26 29 27 30 88 31 28 32 87 33
REMARK SMILES IDX 29 34 30 35 31 36 81 37 32 38 86 39 80 40 82 41 33 42 85 43
REMARK SMILES IDX 79 44 78 45 34 47 66 48 46 49 65 50 47 51 50 52 64 53 83 54
REMARK SMILES IDX 48 55 49 56 63 58 84 59 51 60 35 61 36 62 44 63 37 64 39 65
REMARK SMILES IDX 45 66 38 67 40 68 41 69 42 70 43 71 67 72 68 73 76 74 69 75
REMARK SMILES IDX 71 76 77 77 70 78 72 79 73 80 74 81 75 82 52 83 53 84 61 85
REMARK SMILES IDX 54 86 56 87 62 88 55 89 57 90 58 91 59 92 60 93
REMARK H PARENT 10 12 82 46 50 57
REMARK Flexibility Score: inf
ROOT
ATOM      1  O   UNL A   1      35.453  23.164  25.653  1.00  0.00    -0.458 OA
ENDROOT
BRANCH   1   2
ATOM      2  C   UNL A   1      34.328  23.817  26.036  1.00  0.00     0.340 C 
ATOM      3  O   UNL A   1      33.556  23.475  26.910  1.00  0.00    -0.246 OA
BRANCH   2   4
ATOM      4  C   UNL A   1      34.093  25.053  25.260  1.00  0.00     0.084 A 
ATOM      5  C   UNL A   1      33.828  25.017  23.886  1.00  0.00     0.068 A 
ATOM      6  C   UNL A   1      33.235  26.189  23.336  1.00  0.00     0.065 A 
ATOM      7  Cl  UNL A   1      32.619  26.222  21.717  1.00  0.00    -0.082 Cl
ATOM      8  C   UNL A   1      33.036  27.360  24.074  1.00  0.00     0.023 A 
ATOM      9  C   UNL A   1      33.902  26.242  25.991  1.00  0.00     0.018 A 
ATOM     10  C   UNL A   1      33.412  27.401  25.400  1.00  0.00     0.003 A 
BRANCH   5  11
ATOM     11  N   UNL A   1      34.319  24.053  23.015  1.00  0.00    -0.380 N 
ATOM     12  H   UNL A   1      35.284  24.108  22.827  1.00  0.00     0.160 HD
BRANCH  11  13
ATOM     13  C   UNL A   1      33.615  22.972  22.339  1.00  0.00     0.154 C 
BRANCH  13  14
ATOM     14  C   UNL A   1      32.752  22.178  23.349  1.00  0.00     0.250 C 
BRANCH  14  15
ATOM     15  O   UNL A   1      32.119  20.997  22.811  1.00  0.00    -0.492 OA
BRANCH  15  16
ATOM     16  C   UNL A   1      32.326  19.795  23.428  1.00  0.00     0.119 A 
ATOM     17  C   UNL A   1      33.183  17.505  24.813  1.00  0.00     0.119 A 
ATOM     18  C   UNL A   1      32.922  18.687  25.503  1.00  0.00     0.050 A 
ATOM     19  C   UNL A   1      32.880  17.434  23.459  1.00  0.00     0.050 A 
ATOM     20  C   UNL A   1      32.513  19.833  24.809  1.00  0.00     0.050 A 
ATOM     21  C   UNL A   1      32.401  18.564  22.788  1.00  0.00     0.050 A 
BRANCH  17  22
ATOM     22  O   UNL A   1      33.654  16.445  25.537  1.00  0.00    -0.497 OA
ATOM     23  C   UNL A   1      34.982  16.046  25.188  1.00  0.00     0.278 C 
ENDBRANCH  17  22
ENDBRANCH  15  16
ENDBRANCH  14  15
ENDBRANCH  13  14
ENDBRANCH  11  13
ENDBRANCH   5  11
ENDBRANCH   2   4
ENDBRANCH   1   2
BRANCH   1  24
ATOM     24  C   UNL A   1      35.533  21.778  26.059  1.00  0.00     0.275 C 
BRANCH  24  25
ATOM     25  C   UNL A   1      36.464  20.986  25.145  1.00  0.00     0.275 C 
BRANCH  25  26
ATOM     26  O   UNL A   1      37.676  21.727  24.939  1.00  0.00    -0.458 OA
BRANCH  26  27
ATOM     27  C   UNL A   1      38.714  21.317  25.693  1.00  0.00     0.338 C 
ATOM     28  O   UNL A   1      39.269  20.225  25.675  1.00  0.00    -0.246 OA
BRANCH  27  29
ATOM     29  C   UNL A   1      39.223  22.438  26.484  1.00  0.00     0.060 A 
ATOM     30  C   UNL A   1      38.770  23.709  26.159  1.00  0.00     0.016 A 
ATOM     31  C   UNL A   1      40.287  22.272  27.361  1.00  0.00     0.016 A 
ATOM     32  C   UNL A   1      39.509  24.822  26.536  1.00  0.00     0.010 A 
ATOM     33  C   UNL A   1      40.913  23.406  27.887  1.00  0.00     0.010 A 
ATOM     34  C   UNL A   1      40.577  24.695  27.429  1.00  0.00    -0.014 A 
BRANCH  34  35
ATOM     35  C   UNL A   1      41.348  25.894  27.869  1.00  0.00     0.031 A 
ATOM     36  C   UNL A   1      40.679  26.957  28.706  1.00  0.00     0.074 A 
ATOM     37  C   UNL A   1      42.637  26.048  27.500  1.00  0.00     0.049 A 
ATOM     38  N   UNL A   1      41.075  28.176  28.965  1.00  0.00    -0.248 NA
ATOM     39  C   UNL A   1      39.379  26.613  29.312  1.00  0.00     0.031 C 
ATOM     40  C   UNL A   1      43.423  25.088  26.720  1.00  0.00     0.029 A 
ATOM     41  N   UNL A   1      43.514  27.085  27.713  1.00  0.00    -0.354 N 
ATOM     42  C   UNL A   1      40.034  28.774  29.669  1.00  0.00     0.074 A 
ATOM     43  C   UNL A   1      38.997  27.778  29.817  1.00  0.00     0.031 C 
ATOM     44  C   UNL A   1      44.662  25.561  26.542  1.00  0.00     0.029 A 
ATOM     45  C   UNL A   1      44.726  26.910  27.082  1.00  0.00     0.049 A 
ATOM     46  H   UNL A   1      43.298  27.873  28.261  1.00  0.00     0.167 HD
ATOM     47  C   UNL A   1      39.956  30.040  30.146  1.00  0.00     0.034 A 
ATOM     48  C   UNL A   1      45.751  27.760  26.886  1.00  0.00     0.034 A 
ATOM     49  C   UNL A   1      41.030  30.994  30.060  1.00  0.00     0.049 A 
ATOM     50  C   UNL A   1      45.638  29.156  27.422  1.00  0.00     0.074 A 
ATOM     51  C   UNL A   1      41.075  32.286  30.550  1.00  0.00     0.029 A 
ATOM     52  N   UNL A   1      42.253  30.754  29.452  1.00  0.00    -0.354 N 
ATOM     53  N   UNL A   1      44.656  29.701  28.099  1.00  0.00    -0.248 NA
ATOM     54  C   UNL A   1      46.774  30.052  27.176  1.00  0.00     0.031 C 
ATOM     55  C   UNL A   1      42.318  32.837  30.217  1.00  0.00     0.029 A 
ATOM     56  C   UNL A   1      43.060  31.874  29.551  1.00  0.00     0.049 A 
ATOM     57  H   UNL A   1      42.511  29.910  29.014  1.00  0.00     0.167 HD
ATOM     58  C   UNL A   1      45.068  30.995  28.385  1.00  0.00     0.074 A 
ATOM     59  C   UNL A   1      46.398  31.143  27.829  1.00  0.00     0.031 C 
ATOM     60  C   UNL A   1      44.401  31.980  29.035  1.00  0.00     0.034 A 
BRANCH  47  61
ATOM     61  C   UNL A   1      38.669  30.473  30.807  1.00  0.00     0.023 A 
ATOM     62  C   UNL A   1      38.493  30.308  32.195  1.00  0.00     0.012 A 
ATOM     63  C   UNL A   1      37.657  31.102  30.053  1.00  0.00     0.148 A 
ATOM     64  C   UNL A   1      37.316  30.729  32.816  1.00  0.00     0.002 A 
ATOM     65  C   UNL A   1      36.507  31.561  30.687  1.00  0.00     0.091 A 
ATOM     66  F   UNL A   1      37.833  31.235  28.731  1.00  0.00    -0.205 F 
ATOM     67  C   UNL A   1      36.330  31.363  32.065  1.00  0.00     0.022 A 
BRANCH  65  68
ATOM     68  S   UNL A   1      35.216  32.465  29.823  1.00  0.00     0.127 S 
ATOM     69  O   UNL A   1      34.263  32.720  30.902  1.00  0.00    -0.237 OA
ATOM     70  O   UNL A   1      35.934  33.650  29.352  1.00  0.00    -0.237 OA
ATOM     71  O   UNL A   1      34.742  31.581  28.768  1.00  0.00    -0.744 OA
ENDBRANCH  65  68
ENDBRANCH  47  61
BRANCH  48  72
ATOM     72  C   UNL A   1      46.956  27.313  26.130  1.00  0.00     0.023 A 
ATOM     73  C   UNL A   1      47.859  26.416  26.734  1.00  0.00     0.012 A 
ATOM     74  C   UNL A   1      47.189  27.732  24.805  1.00  0.00     0.148 A 
ATOM     75  C   UNL A   1      48.983  25.966  26.040  1.00  0.00     0.002 A 
ATOM     76  C   UNL A   1      48.273  27.228  24.097  1.00  0.00     0.091 A 
ATOM     77  F   UNL A   1      46.328  28.598  24.251  1.00  0.00    -0.205 F 
ATOM     78  C   UNL A   1      49.183  26.359  24.720  1.00  0.00     0.022 A 
BRANCH  76  79
ATOM     79  S   UNL A   1      48.520  27.563  22.349  1.00  0.00     0.127 S 
ATOM     80  O   UNL A   1      47.300  28.292  22.010  1.00  0.00    -0.237 OA
ATOM     81  O   UNL A   1      49.739  28.374  22.366  1.00  0.00    -0.237 OA
ATOM     82  O   UNL A   1      48.677  26.260  21.719  1.00  0.00    -0.744 OA
ENDBRANCH  76  79
ENDBRANCH  48  72
BRANCH  60  83
ATOM     83  C   UNL A   1      45.120  33.287  29.227  1.00  0.00     0.023 A 
ATOM     84  C   UNL A   1      45.865  33.517  30.400  1.00  0.00     0.012 A 
ATOM     85  C   UNL A   1      45.101  34.264  28.213  1.00  0.00     0.148 A 
ATOM     86  C   UNL A   1      46.552  34.717  30.576  1.00  0.00     0.002 A 
ATOM     87  C   UNL A   1      45.831  35.434  28.372  1.00  0.00     0.091 A 
ATOM     88  F   UNL A   1      44.367  34.032  27.115  1.00  0.00    -0.205 F 
ATOM     89  C   UNL A   1      46.546  35.668  29.559  1.00  0.00     0.022 A 
BRANCH  87  90
ATOM     90  S   UNL A   1      45.961  36.669  27.077  1.00  0.00     0.127 S 
ATOM     91  O   UNL A   1      47.030  37.525  27.586  1.00  0.00    -0.237 OA
ATOM     92  O   UNL A   1      46.327  35.860  25.914  1.00  0.00    -0.237 OA
ATOM     93  O   UNL A   1      44.648  37.298  26.987  1.00  0.00    -0.744 OA
ENDBRANCH  87  90
ENDBRANCH  60  83
ENDBRANCH  34  35
ENDBRANCH  27  29
ENDBRANCH  26  27
ENDBRANCH  25  26
ENDBRANCH  24  25
ENDBRANCH   1  24
TORSDOF 20
ENDMDL
MODEL 3
REMARK VINA RESULT:     -11.6      5.143     10.310
REMARK SMILES COc1ccc(OCCNc2c(Cl)cccc2C(=O)OCCOC(=O)c2ccc(-c3c4nc(c(-c5cccc(S(=O)(=O)[O-])c5F)c5ccc([nH]5)c(-c5cccc(S(=O)(=O)[O-])c5F)c5nc(c(-c6cccc(S(=O)(=O)[O-])c6F)c6ccc3[nH]6)C=C5)C=C4)cc2)cc1
REMARK SMILES IDX 20 1 18 2 19 3 17 4 11 5 12 6 13 7 14 8 16 9 15 10 10 11
REMARK SMILES IDX 9 13 8 14 7 15 6 16 3 17 4 18 90 19 5 20 89 21 2 22 1 23
REMARK SMILES IDX 21 24 22 25 23 26 24 27 25 28 26 29 27 30 88 31 28 32 87 33
REMARK SMILES IDX 29 34 30 35 31 36 81 37 32 38 86 39 80 40 82 41 33 42 85 43
REMARK SMILES IDX 79 44 78 45 34 47 66 48 46 49 65 50 47 51 50 52 64 53 83 54
REMARK SMILES IDX 48 55 49 56 63 58 84 59 51 60 35 61 36 62 44 63 37 64 39 65
REMARK SMILES IDX 45 66 38 67 40 68 41 69 42 70 43 71 67 72 68 73 76 74 69 75
REMARK SMILES IDX 71 76 77 77 70 78 72 79 73 80 74 81 75 82 52 83 53 84 61 85
REMARK SMILES IDX 54 86 56 87 62 88 55 89 57 90 58 91 59 92 60 93
REMARK H PARENT 10 12 82 46 50 57
REMARK Flexibility Score: inf
ROOT
ATOM      1  O   UNL A   1      35.260  23.113  25.852  1.00  0.00    -0.458 OA
ENDROOT
BRANCH   1   2
ATOM      2  C   UNL A   1      34.136  23.832  26.094  1.00  0.00     0.340 C 
ATOM      3  O   UNL A   1      33.251  23.548  26.877  1.00  0.00    -0.246 OA
BRANCH   2   4
ATOM      4  C   UNL A   1      34.059  25.063  25.279  1.00  0.00     0.084 A 
ATOM      5  C   UNL A   1      33.882  25.014  23.892  1.00  0.00     0.068 A 
ATOM      6  C   UNL A   1      33.429  26.217  23.280  1.00  0.00     0.065 A 
ATOM      7  Cl  UNL A   1      32.924  26.261  21.623  1.00  0.00    -0.082 Cl
ATOM      8  C   UNL A   1      33.284  27.420  23.979  1.00  0.00     0.023 A 
ATOM      9  C   UNL A   1      33.924  26.282  25.972  1.00  0.00     0.018 A 
ATOM     10  C   UNL A   1      33.575  27.463  25.327  1.00  0.00     0.003 A 
BRANCH   5  11
ATOM     11  N   UNL A   1      34.344  23.990  23.075  1.00  0.00    -0.380 N 
ATOM     12  H   UNL A   1      35.321  23.942  22.972  1.00  0.00     0.160 HD
BRANCH  11  13
ATOM     13  C   UNL A   1      33.592  22.977  22.347  1.00  0.00     0.154 C 
BRANCH  13  14
ATOM     14  C   UNL A   1      32.460  22.406  23.236  1.00  0.00     0.250 C 
BRANCH  14  15
ATOM     15  O   UNL A   1      31.888  21.166  22.768  1.00  0.00    -0.492 OA
BRANCH  15  16
ATOM     16  C   UNL A   1      32.332  19.988  23.302  1.00  0.00     0.119 A 
ATOM     17  C   UNL A   1      32.822  17.387  24.246  1.00  0.00     0.119 A 
ATOM     18  C   UNL A   1      32.777  17.641  22.877  1.00  0.00     0.050 A 
ATOM     19  C   UNL A   1      32.762  18.455  25.132  1.00  0.00     0.050 A 
ATOM     20  C   UNL A   1      32.514  18.935  22.407  1.00  0.00     0.050 A 
ATOM     21  C   UNL A   1      32.573  19.755  24.651  1.00  0.00     0.050 A 
BRANCH  17  22
ATOM     22  O   UNL A   1      33.005  16.091  24.638  1.00  0.00    -0.497 OA
ATOM     23  C   UNL A   1      34.219  15.868  25.360  1.00  0.00     0.278 C 
ENDBRANCH  17  22
ENDBRANCH  15  16
ENDBRANCH  14  15
ENDBRANCH  13  14
ENDBRANCH  11  13
ENDBRANCH   5  11
ENDBRANCH   2   4
ENDBRANCH   1   2
BRANCH   1  24
ATOM     24  C   UNL A   1      35.128  21.683  26.022  1.00  0.00     0.275 C 
BRANCH  24  25
ATOM     25  C   UNL A   1      36.145  20.928  25.170  1.00  0.00     0.275 C 
BRANCH  25  26
ATOM     26  O   UNL A   1      37.298  21.756  24.956  1.00  0.00    -0.458 OA
BRANCH  26  27
ATOM     27  C   UNL A   1      38.411  21.334  25.585  1.00  0.00     0.338 C 
ATOM     28  O   UNL A   1      38.992  20.264  25.445  1.00  0.00    -0.246 OA
BRANCH  27  29
ATOM     29  C   UNL A   1      38.959  22.417  26.401  1.00  0.00     0.060 A 
ATOM     30  C   UNL A   1      38.471  23.698  26.177  1.00  0.00     0.016 A 
ATOM     31  C   UNL A   1      40.081  22.221  27.195  1.00  0.00     0.016 A 
ATOM     32  C   UNL A   1      39.220  24.800  26.564  1.00  0.00     0.010 A 
ATOM     33  C   UNL A   1      40.728  23.335  27.741  1.00  0.00     0.010 A 
ATOM     34  C   UNL A   1      40.347  24.641  27.377  1.00  0.00    -0.014 A 
BRANCH  34  35
ATOM     35  C   UNL A   1      41.131  25.826  27.830  1.00  0.00     0.031 A 
ATOM     36  C   UNL A   1      40.469  26.898  28.661  1.00  0.00     0.074 A 
ATOM     37  C   UNL A   1      42.427  25.960  27.478  1.00  0.00     0.049 A 
ATOM     38  N   UNL A   1      40.881  28.110  28.929  1.00  0.00    -0.248 NA
ATOM     39  C   UNL A   1      39.156  26.574  29.250  1.00  0.00     0.031 C 
ATOM     40  C   UNL A   1      43.208  24.989  26.706  1.00  0.00     0.029 A 
ATOM     41  N   UNL A   1      43.318  26.982  27.705  1.00  0.00    -0.354 N 
ATOM     42  C   UNL A   1      39.842  28.723  29.621  1.00  0.00     0.074 A 
ATOM     43  C   UNL A   1      38.786  27.743  29.753  1.00  0.00     0.031 C 
ATOM     44  C   UNL A   1      44.456  25.443  26.545  1.00  0.00     0.029 A 
ATOM     45  C   UNL A   1      44.535  26.789  27.089  1.00  0.00     0.049 A 
ATOM     46  H   UNL A   1      43.108  27.772  28.253  1.00  0.00     0.167 HD
ATOM     47  C   UNL A   1      39.778  29.988  30.100  1.00  0.00     0.034 A 
ATOM     48  C   UNL A   1      45.577  27.623  26.909  1.00  0.00     0.034 A 
ATOM     49  C   UNL A   1      40.868  30.925  30.031  1.00  0.00     0.049 A 
ATOM     50  C   UNL A   1      45.479  29.019  27.447  1.00  0.00     0.074 A 
ATOM     51  C   UNL A   1      40.928  32.215  30.526  1.00  0.00     0.029 A 
ATOM     52  N   UNL A   1      42.095  30.667  29.438  1.00  0.00    -0.354 N 
ATOM     53  N   UNL A   1      44.498  29.579  28.113  1.00  0.00    -0.248 NA
ATOM     54  C   UNL A   1      46.633  29.897  27.219  1.00  0.00     0.031 C 
ATOM     55  C   UNL A   1      42.184  32.746  30.210  1.00  0.00     0.029 A 
ATOM     56  C   UNL A   1      42.919  31.773  29.550  1.00  0.00     0.049 A 
ATOM     57  H   UNL A   1      42.344  29.820  29.001  1.00  0.00     0.167 HD
ATOM     58  C   UNL A   1      44.926  30.865  28.408  1.00  0.00     0.074 A 
ATOM     59  C   UNL A   1      46.266  30.992  27.870  1.00  0.00     0.031 C 
ATOM     60  C   UNL A   1      44.267  31.859  29.052  1.00  0.00     0.034 A 
BRANCH  47  61
ATOM     61  C   UNL A   1      38.490  30.440  30.746  1.00  0.00     0.023 A 
ATOM     62  C   UNL A   1      38.261  30.205  32.116  1.00  0.00     0.012 A 
ATOM     63  C   UNL A   1      37.531  31.156  30.000  1.00  0.00     0.148 A 
ATOM     64  C   UNL A   1      37.084  30.643  32.725  1.00  0.00     0.002 A 
ATOM     65  C   UNL A   1      36.382  31.630  30.624  1.00  0.00     0.091 A 
ATOM     66  F   UNL A   1      37.756  31.356  28.693  1.00  0.00    -0.205 F 
ATOM     67  C   UNL A   1      36.151  31.363  31.982  1.00  0.00     0.022 A 
BRANCH  65  68
ATOM     68  S   UNL A   1      35.160  32.639  29.775  1.00  0.00     0.127 S 
ATOM     69  O   UNL A   1      34.558  31.667  28.863  1.00  0.00    -0.237 OA
ATOM     70  O   UNL A   1      34.293  33.060  30.875  1.00  0.00    -0.237 OA
ATOM     71  O   UNL A   1      35.901  33.717  29.137  1.00  0.00    -0.744 OA
ENDBRANCH  65  68
ENDBRANCH  47  61
BRANCH  48  72
ATOM     72  C   UNL A   1      46.784  27.158  26.167  1.00  0.00     0.023 A 
ATOM     73  C   UNL A   1      46.885  27.405  24.785  1.00  0.00     0.012 A 
ATOM     74  C   UNL A   1      47.850  26.516  26.829  1.00  0.00     0.148 A 
ATOM     75  C   UNL A   1      48.013  27.000  24.071  1.00  0.00     0.002 A 
ATOM     76  C   UNL A   1      48.998  26.175  26.126  1.00  0.00     0.091 A 
ATOM     77  F   UNL A   1      47.730  26.275  28.142  1.00  0.00    -0.205 F 
ATOM     78  C   UNL A   1      49.075  26.398  24.743  1.00  0.00     0.022 A 
BRANCH  76  79
ATOM     79  S   UNL A   1      50.469  25.535  26.939  1.00  0.00     0.127 S 
ATOM     80  O   UNL A   1      50.825  26.642  27.824  1.00  0.00    -0.237 OA
ATOM     81  O   UNL A   1      49.948  24.347  27.615  1.00  0.00    -0.237 OA
ATOM     82  O   UNL A   1      51.414  25.249  25.869  1.00  0.00    -0.744 OA
ENDBRANCH  76  79
ENDBRANCH  48  72
BRANCH  60  83
ATOM     83  C   UNL A   1      45.005  33.154  29.257  1.00  0.00     0.023 A 
ATOM     84  C   UNL A   1      45.778  33.349  30.418  1.00  0.00     0.012 A 
ATOM     85  C   UNL A   1      44.975  34.153  28.265  1.00  0.00     0.148 A 
ATOM     86  C   UNL A   1      46.482  34.537  30.605  1.00  0.00     0.002 A 
ATOM     87  C   UNL A   1      45.722  35.310  28.434  1.00  0.00     0.091 A 
ATOM     88  F   UNL A   1      44.216  33.953  27.178  1.00  0.00    -0.205 F 
ATOM     89  C   UNL A   1      46.465  35.510  29.609  1.00  0.00     0.022 A 
BRANCH  87  90
ATOM     90  S   UNL A   1      45.838  36.573  27.163  1.00  0.00     0.127 S 
ATOM     91  O   UNL A   1      44.457  37.044  27.084  1.00  0.00    -0.237 OA
ATOM     92  O   UNL A   1      46.776  37.525  27.758  1.00  0.00    -0.237 OA
ATOM     93  O   UNL A   1      46.336  35.899  25.970  1.00  0.00    -0.744 OA
ENDBRANCH  87  90
ENDBRANCH  60  83
ENDBRANCH  34  35
ENDBRANCH  27  29
ENDBRANCH  26  27
ENDBRANCH  25  26
ENDBRANCH  24  25
ENDBRANCH   1  24
TORSDOF 20
ENDMDL
