MODEL 1
REMARK VINA RESULT:     -12.1      0.000      0.000
REMARK SMILES Cc1ccc(O[C@H](C)C(=O)NNC(=O)[C@@H]2[C@@H](C(=O)OCCOC(=O)c3ccc(-c4c5nc(c(-c6cccc(S(=O)(=O)[O-])c6F)c6ccc([nH]6)c(-c6cccc(S(=O)(=O)[O-])c6F)c6nc(c(-c7cccc(S(=O)(=O)[O-])c7F)c7ccc4[nH]7)C=C6)C=C5)cc3)[C@@H]3C=C[C@H]2C3)cc1C
REMARK SMILES IDX 20 1 19 2 17 3 18 4 16 5 15 6 91 7 88 8 90 9 92 10 89 11
REMARK SMILES IDX 13 12 12 13 14 15 11 16 9 17 10 18 7 20 8 21 6 22 5 23 1 24
REMARK SMILES IDX 2 25 3 26 94 27 4 28 93 29 95 30 21 31 22 32 23 33 24 34
REMARK SMILES IDX 25 35 26 36 87 37 27 38 86 39 28 40 29 41 30 42 80 43 31 44
REMARK SMILES IDX 85 45 79 46 81 47 32 48 84 49 78 50 77 51 33 53 65 54 45 55
REMARK SMILES IDX 64 56 46 57 49 58 63 59 82 60 47 61 48 62 62 64 83 65 50 66
REMARK SMILES IDX 34 67 35 68 43 69 36 70 38 71 44 72 37 73 39 74 40 75 41 76
REMARK SMILES IDX 42 77 66 78 67 79 75 80 68 81 70 82 76 83 69 84 71 85 72 86
REMARK SMILES IDX 73 87 74 88 51 89 52 90 60 91 53 92 55 93 61 94 54 95 56 96
REMARK SMILES IDX 57 97 58 98 59 99
REMARK H PARENT 12 14 11 19 81 52 49 63
REMARK Flexibility Score: inf
ROOT
ATOM      1  C   UNL A   1      37.981  20.218  24.992  1.00  0.00     0.274 C 
ENDROOT
BRANCH   1   2
ATOM      2  O   UNL A   1      36.705  19.544  24.977  1.00  0.00    -0.462 OA
BRANCH   2   3
ATOM      3  C   UNL A   1      35.625  20.334  25.209  1.00  0.00     0.310 C 
ATOM      4  O   UNL A   1      35.595  21.234  26.041  1.00  0.00    -0.252 OA
BRANCH   3   5
ATOM      5  C   UNL A   1      34.405  19.924  24.411  1.00  0.00     0.119 C 
ATOM      6  C   UNL A   1      33.002  20.349  24.994  1.00  0.00     0.102 C 
ATOM      7  C   UNL A   1      32.267  18.983  25.079  1.00  0.00     0.025 C 
ATOM      8  C   UNL A   1      34.292  18.377  24.364  1.00  0.00     0.027 C 
ATOM      9  C   UNL A   1      32.091  18.392  23.703  1.00  0.00    -0.027 C 
ATOM     10  C   UNL A   1      33.402  18.090  25.572  1.00  0.00     0.017 C 
ATOM     11  C   UNL A   1      33.306  18.025  23.273  1.00  0.00    -0.027 C 
BRANCH   6  12
ATOM     12  C   UNL A   1      32.394  21.448  24.125  1.00  0.00     0.242 C 
ATOM     13  N   UNL A   1      31.374  22.242  24.573  1.00  0.00    -0.267 N 
ATOM     14  H   UNL A   1      31.112  23.000  24.001  1.00  0.00     0.191 HD
ATOM     15  O   UNL A   1      32.878  21.728  23.023  1.00  0.00    -0.273 OA
BRANCH  13  16
ATOM     16  N   UNL A   1      30.678  22.077  25.754  1.00  0.00    -0.264 N 
ATOM     17  C   UNL A   1      30.704  22.974  26.796  1.00  0.00     0.279 C 
ATOM     18  O   UNL A   1      29.878  22.856  27.706  1.00  0.00    -0.269 OA
ATOM     19  H   UNL A   1      30.129  21.265  25.857  1.00  0.00     0.191 HD
BRANCH  17  20
ATOM     20  C   UNL A   1      31.849  24.000  26.894  1.00  0.00     0.260 C 
ATOM     21  C   UNL A   1      33.119  23.219  27.260  1.00  0.00     0.064 C 
BRANCH  20  22
ATOM     22  O   UNL A   1      32.014  24.756  25.695  1.00  0.00    -0.481 OA
BRANCH  22  23
ATOM     23  C   UNL A   1      31.851  26.115  25.749  1.00  0.00     0.120 A 
ATOM     24  C   UNL A   1      31.411  30.415  25.459  1.00  0.00     0.044 C 
ATOM     25  C   UNL A   1      31.515  28.918  25.539  1.00  0.00    -0.048 A 
ATOM     26  C   UNL A   1      32.161  28.344  26.643  1.00  0.00     0.007 A 
ATOM     27  C   UNL A   1      30.983  28.072  24.550  1.00  0.00    -0.045 A 
ATOM     28  C   UNL A   1      32.314  26.959  26.753  1.00  0.00     0.047 A 
ATOM     29  C   UNL A   1      31.164  26.677  24.668  1.00  0.00     0.050 A 
ATOM     30  C   UNL A   1      30.199  28.583  23.371  1.00  0.00     0.045 C 
ENDBRANCH  22  23
ENDBRANCH  20  22
ENDBRANCH  17  20
ENDBRANCH  13  16
ENDBRANCH   6  12
ENDBRANCH   3   5
ENDBRANCH   2   3
ENDBRANCH   1   2
BRANCH   1  31
ATOM     31  C   UNL A   1      39.107  19.296  25.452  1.00  0.00     0.275 C 
BRANCH  31  32
ATOM     32  O   UNL A   1      39.591  19.687  26.748  1.00  0.00    -0.458 OA
BRANCH  32  33
ATOM     33  C   UNL A   1      40.893  20.047  26.792  1.00  0.00     0.338 C 
ATOM     34  O   UNL A   1      41.863  19.351  26.547  1.00  0.00    -0.246 OA
BRANCH  33  35
ATOM     35  C   UNL A   1      41.014  21.466  27.160  1.00  0.00     0.060 A 
ATOM     36  C   UNL A   1      40.347  22.432  26.406  1.00  0.00     0.016 A 
ATOM     37  C   UNL A   1      41.932  21.846  28.138  1.00  0.00     0.016 A 
ATOM     38  C   UNL A   1      40.692  23.775  26.542  1.00  0.00     0.010 A 
ATOM     39  C   UNL A   1      42.191  23.203  28.348  1.00  0.00     0.010 A 
ATOM     40  C   UNL A   1      41.612  24.181  27.521  1.00  0.00    -0.014 A 
BRANCH  40  41
ATOM     41  C   UNL A   1      41.990  25.614  27.675  1.00  0.00     0.031 A 
ATOM     42  C   UNL A   1      43.347  26.095  27.225  1.00  0.00     0.074 A 
ATOM     43  C   UNL A   1      41.138  26.482  28.255  1.00  0.00     0.049 A 
ATOM     44  N   UNL A   1      43.941  27.235  27.467  1.00  0.00    -0.248 NA
ATOM     45  C   UNL A   1      44.148  25.167  26.410  1.00  0.00     0.031 C 
ATOM     46  C   UNL A   1      39.791  26.159  28.728  1.00  0.00     0.029 A 
ATOM     47  N   UNL A   1      41.286  27.813  28.566  1.00  0.00    -0.354 N 
ATOM     48  C   UNL A   1      45.211  27.131  26.909  1.00  0.00     0.074 A 
ATOM     49  C   UNL A   1      45.296  25.822  26.296  1.00  0.00     0.031 C 
ATOM     50  C   UNL A   1      39.233  27.257  29.256  1.00  0.00     0.029 A 
ATOM     51  C   UNL A   1      40.206  28.343  29.232  1.00  0.00     0.049 A 
ATOM     52  H   UNL A   1      42.089  28.334  28.334  1.00  0.00     0.167 HD
ATOM     53  C   UNL A   1      46.211  28.044  26.899  1.00  0.00     0.034 A 
ATOM     54  C   UNL A   1      40.028  29.552  29.800  1.00  0.00     0.034 A 
ATOM     55  C   UNL A   1      46.094  29.377  27.427  1.00  0.00     0.049 A 
ATOM     56  C   UNL A   1      41.139  30.560  29.743  1.00  0.00     0.074 A 
ATOM     57  C   UNL A   1      47.040  30.388  27.427  1.00  0.00     0.029 A 
ATOM     58  N   UNL A   1      44.957  29.893  28.026  1.00  0.00    -0.354 N 
ATOM     59  N   UNL A   1      42.319  30.454  29.181  1.00  0.00    -0.248 NA
ATOM     60  C   UNL A   1      40.895  31.857  30.390  1.00  0.00     0.031 C 
ATOM     61  C   UNL A   1      46.470  31.520  28.021  1.00  0.00     0.029 A 
ATOM     62  C   UNL A   1      45.171  31.212  28.391  1.00  0.00     0.049 A 
ATOM     63  H   UNL A   1      44.120  29.396  28.171  1.00  0.00     0.167 HD
ATOM     64  C   UNL A   1      42.950  31.673  29.391  1.00  0.00     0.074 A 
ATOM     65  C   UNL A   1      42.013  32.513  30.110  1.00  0.00     0.031 C 
ATOM     66  C   UNL A   1      44.205  32.053  29.048  1.00  0.00     0.034 A 
BRANCH  53  67
ATOM     67  C   UNL A   1      47.516  27.653  26.259  1.00  0.00     0.023 A 
ATOM     68  C   UNL A   1      48.551  27.123  27.054  1.00  0.00     0.012 A 
ATOM     69  C   UNL A   1      47.693  27.743  24.863  1.00  0.00     0.148 A 
ATOM     70  C   UNL A   1      49.749  26.707  26.474  1.00  0.00     0.002 A 
ATOM     71  C   UNL A   1      48.877  27.295  24.289  1.00  0.00     0.091 A 
ATOM     72  F   UNL A   1      46.709  28.275  24.125  1.00  0.00    -0.205 F 
ATOM     73  C   UNL A   1      49.908  26.782  25.092  1.00  0.00     0.022 A 
BRANCH  71  74
ATOM     74  S   UNL A   1      49.136  27.292  22.510  1.00  0.00     0.127 S 
ATOM     75  O   UNL A   1      50.591  27.195  22.421  1.00  0.00    -0.237 OA
ATOM     76  O   UNL A   1      48.419  26.087  22.087  1.00  0.00    -0.237 OA
ATOM     77  O   UNL A   1      48.552  28.536  22.027  1.00  0.00    -0.744 OA
ENDBRANCH  71  74
ENDBRANCH  53  67
BRANCH  54  78
ATOM     78  C   UNL A   1      38.726  29.871  30.449  1.00  0.00     0.023 A 
ATOM     79  C   UNL A   1      38.498  29.458  31.775  1.00  0.00     0.012 A 
ATOM     80  C   UNL A   1      37.745  30.640  29.792  1.00  0.00     0.148 A 
ATOM     81  C   UNL A   1      37.314  29.797  32.431  1.00  0.00     0.002 A 
ATOM     82  C   UNL A   1      36.595  31.024  30.471  1.00  0.00     0.091 A 
ATOM     83  F   UNL A   1      37.964  31.001  28.519  1.00  0.00    -0.205 F 
ATOM     84  C   UNL A   1      36.371  30.594  31.787  1.00  0.00     0.022 A 
BRANCH  82  85
ATOM     85  S   UNL A   1      35.420  32.179  29.751  1.00  0.00     0.127 S 
ATOM     86  O   UNL A   1      34.888  31.409  28.633  1.00  0.00    -0.237 OA
ATOM     87  O   UNL A   1      34.480  32.397  30.853  1.00  0.00    -0.237 OA
ATOM     88  O   UNL A   1      36.209  33.354  29.407  1.00  0.00    -0.744 OA
ENDBRANCH  82  85
ENDBRANCH  54  78
BRANCH  66  89
ATOM     89  C   UNL A   1      44.636  33.444  29.423  1.00  0.00     0.023 A 
ATOM     90  C   UNL A   1      45.283  33.655  30.655  1.00  0.00     0.012 A 
ATOM     91  C   UNL A   1      44.470  34.521  28.532  1.00  0.00     0.148 A 
ATOM     92  C   UNL A   1      45.742  34.924  31.005  1.00  0.00     0.002 A 
ATOM     93  C   UNL A   1      44.962  35.776  28.871  1.00  0.00     0.091 A 
ATOM     94  F   UNL A   1      43.829  34.303  27.373  1.00  0.00    -0.205 F 
ATOM     95  C   UNL A   1      45.592  35.981  30.110  1.00  0.00     0.022 A 
BRANCH  93  96
ATOM     96  S   UNL A   1      44.876  37.168  27.740  1.00  0.00     0.127 S 
ATOM     97  O   UNL A   1      45.507  38.229  28.521  1.00  0.00    -0.237 OA
ATOM     98  O   UNL A   1      45.663  36.701  26.599  1.00  0.00    -0.237 OA
ATOM     99  O   UNL A   1      43.459  37.353  27.452  1.00  0.00    -0.744 OA
ENDBRANCH  93  96
ENDBRANCH  66  89
ENDBRANCH  40  41
ENDBRANCH  33  35
ENDBRANCH  32  33
ENDBRANCH  31  32
ENDBRANCH   1  31
TORSDOF 19
ENDMDL
MODEL 2
REMARK VINA RESULT:     -12.0      1.613      2.459
REMARK SMILES Cc1ccc(O[C@H](C)C(=O)NNC(=O)[C@@H]2[C@@H](C(=O)OCCOC(=O)c3ccc(-c4c5nc(c(-c6cccc(S(=O)(=O)[O-])c6F)c6ccc([nH]6)c(-c6cccc(S(=O)(=O)[O-])c6F)c6nc(c(-c7cccc(S(=O)(=O)[O-])c7F)c7ccc4[nH]7)C=C6)C=C5)cc3)[C@@H]3C=C[C@H]2C3)cc1C
REMARK SMILES IDX 20 1 19 2 17 3 18 4 16 5 15 6 91 7 88 8 90 9 92 10 89 11
REMARK SMILES IDX 13 12 12 13 14 15 11 16 9 17 10 18 7 20 8 21 6 22 5 23 1 24
REMARK SMILES IDX 2 25 3 26 94 27 4 28 93 29 95 30 21 31 22 32 23 33 24 34
REMARK SMILES IDX 25 35 26 36 87 37 27 38 86 39 28 40 29 41 30 42 80 43 31 44
REMARK SMILES IDX 85 45 79 46 81 47 32 48 84 49 78 50 77 51 33 53 65 54 45 55
REMARK SMILES IDX 64 56 46 57 49 58 63 59 82 60 47 61 48 62 62 64 83 65 50 66
REMARK SMILES IDX 34 67 35 68 43 69 36 70 38 71 44 72 37 73 39 74 40 75 41 76
REMARK SMILES IDX 42 77 66 78 67 79 75 80 68 81 70 82 76 83 69 84 71 85 72 86
REMARK SMILES IDX 73 87 74 88 51 89 52 90 60 91 53 92 55 93 61 94 54 95 56 96
REMARK SMILES IDX 57 97 58 98 59 99
REMARK H PARENT 12 14 11 19 81 52 49 63
REMARK Flexibility Score: inf
ROOT
ATOM      1  C   UNL A   1      36.096  21.250  24.499  1.00  0.00     0.274 C 
ENDROOT
BRANCH   1   2
ATOM      2  O   UNL A   1      35.099  20.785  25.433  1.00  0.00    -0.462 OA
BRANCH   2   3
ATOM      3  C   UNL A   1      34.362  21.757  26.031  1.00  0.00     0.310 C 
ATOM      4  O   UNL A   1      34.293  21.922  27.244  1.00  0.00    -0.252 OA
BRANCH   3   5
ATOM      5  C   UNL A   1      33.531  22.561  25.053  1.00  0.00     0.119 C 
ATOM      6  C   UNL A   1      32.834  23.859  25.615  1.00  0.00     0.102 C 
ATOM      7  C   UNL A   1      31.347  23.605  25.248  1.00  0.00     0.025 C 
ATOM      8  C   UNL A   1      32.323  21.721  24.559  1.00  0.00     0.027 C 
ATOM      9  C   UNL A   1      31.175  23.541  23.752  1.00  0.00    -0.027 C 
ATOM     10  C   UNL A   1      31.238  22.115  25.559  1.00  0.00     0.017 C 
ATOM     11  C   UNL A   1      31.760  22.409  23.336  1.00  0.00    -0.027 C 
BRANCH   6  12
ATOM     12  C   UNL A   1      33.520  25.100  25.046  1.00  0.00     0.242 C 
ATOM     13  N   UNL A   1      33.462  26.312  25.680  1.00  0.00    -0.267 N 
ATOM     14  H   UNL A   1      34.022  27.035  25.314  1.00  0.00     0.191 HD
ATOM     15  O   UNL A   1      34.244  25.025  24.047  1.00  0.00    -0.273 OA
BRANCH  13  16
ATOM     16  N   UNL A   1      32.690  26.612  26.785  1.00  0.00    -0.264 N 
ATOM     17  C   UNL A   1      32.114  27.839  27.012  1.00  0.00     0.279 C 
ATOM     18  O   UNL A   1      31.262  27.944  27.898  1.00  0.00    -0.269 OA
ATOM     19  H   UNL A   1      32.545  25.902  27.453  1.00  0.00     0.191 HD
BRANCH  17  20
ATOM     20  C   UNL A   1      32.650  29.084  26.279  1.00  0.00     0.260 C 
ATOM     21  C   UNL A   1      34.068  29.340  26.808  1.00  0.00     0.064 C 
BRANCH  20  22
ATOM     22  O   UNL A   1      32.629  28.937  24.859  1.00  0.00    -0.481 OA
BRANCH  22  23
ATOM     23  C   UNL A   1      31.419  28.945  24.217  1.00  0.00     0.120 A 
ATOM     24  C   UNL A   1      27.435  29.234  22.539  1.00  0.00     0.044 C 
ATOM     25  C   UNL A   1      28.826  29.184  23.105  1.00  0.00    -0.048 A 
ATOM     26  C   UNL A   1      29.551  27.987  23.010  1.00  0.00     0.007 A 
ATOM     27  C   UNL A   1      29.430  30.294  23.722  1.00  0.00    -0.045 A 
ATOM     28  C   UNL A   1      30.837  27.874  23.546  1.00  0.00     0.047 A 
ATOM     29  C   UNL A   1      30.721  30.155  24.276  1.00  0.00     0.050 A 
ATOM     30  C   UNL A   1      28.771  31.645  23.801  1.00  0.00     0.045 C 
ENDBRANCH  22  23
ENDBRANCH  20  22
ENDBRANCH  17  20
ENDBRANCH  13  16
ENDBRANCH   6  12
ENDBRANCH   3   5
ENDBRANCH   2   3
ENDBRANCH   1   2
BRANCH   1  31
ATOM     31  C   UNL A   1      37.464  20.630  24.770  1.00  0.00     0.275 C 
BRANCH  31  32
ATOM     32  O   UNL A   1      37.923  20.962  26.092  1.00  0.00    -0.458 OA
BRANCH  32  33
ATOM     33  C   UNL A   1      39.264  21.052  26.231  1.00  0.00     0.338 C 
ATOM     34  O   UNL A   1      40.096  20.207  25.948  1.00  0.00    -0.246 OA
BRANCH  33  35
ATOM     35  C   UNL A   1      39.630  22.373  26.764  1.00  0.00     0.060 A 
ATOM     36  C   UNL A   1      38.948  23.506  26.323  1.00  0.00     0.016 A 
ATOM     37  C   UNL A   1      40.767  22.500  27.561  1.00  0.00     0.016 A 
ATOM     38  C   UNL A   1      39.476  24.772  26.572  1.00  0.00     0.010 A 
ATOM     39  C   UNL A   1      41.229  23.774  27.902  1.00  0.00     0.010 A 
ATOM     40  C   UNL A   1      40.618  24.924  27.373  1.00  0.00    -0.014 A 
BRANCH  40  41
ATOM     41  C   UNL A   1      41.193  26.272  27.645  1.00  0.00     0.031 A 
ATOM     42  C   UNL A   1      42.600  26.600  27.213  1.00  0.00     0.074 A 
ATOM     43  C   UNL A   1      40.474  27.193  28.316  1.00  0.00     0.049 A 
ATOM     44  N   UNL A   1      43.349  27.620  27.544  1.00  0.00    -0.248 NA
ATOM     45  C   UNL A   1      43.259  25.646  26.304  1.00  0.00     0.031 C 
ATOM     46  C   UNL A   1      39.098  27.018  28.784  1.00  0.00     0.029 A 
ATOM     47  N   UNL A   1      40.808  28.457  28.740  1.00  0.00    -0.354 N 
ATOM     48  C   UNL A   1      44.588  27.392  26.954  1.00  0.00     0.074 A 
ATOM     49  C   UNL A   1      44.486  26.145  26.227  1.00  0.00     0.031 C 
ATOM     50  C   UNL A   1      38.702  28.131  29.417  1.00  0.00     0.029 A 
ATOM     51  C   UNL A   1      39.816  29.069  29.470  1.00  0.00     0.049 A 
ATOM     52  H   UNL A   1      41.673  28.882  28.540  1.00  0.00     0.167 HD
ATOM     53  C   UNL A   1      45.705  28.156  27.005  1.00  0.00     0.034 A 
ATOM     54  C   UNL A   1      39.812  30.235  30.147  1.00  0.00     0.034 A 
ATOM     55  C   UNL A   1      45.779  29.440  27.651  1.00  0.00     0.049 A 
ATOM     56  C   UNL A   1      41.052  31.082  30.157  1.00  0.00     0.074 A 
ATOM     57  C   UNL A   1      46.856  30.307  27.722  1.00  0.00     0.029 A 
ATOM     58  N   UNL A   1      44.728  30.052  28.315  1.00  0.00    -0.354 N 
ATOM     59  N   UNL A   1      42.202  30.865  29.565  1.00  0.00    -0.248 NA
ATOM     60  C   UNL A   1      40.995  32.337  30.920  1.00  0.00     0.031 C 
ATOM     61  C   UNL A   1      46.453  31.448  28.423  1.00  0.00     0.029 A 
ATOM     62  C   UNL A   1      45.126  31.290  28.791  1.00  0.00     0.049 A 
ATOM     63  H   UNL A   1      43.831  29.664  28.432  1.00  0.00     0.167 HD
ATOM     64  C   UNL A   1      42.998  31.962  29.870  1.00  0.00     0.074 A 
ATOM     65  C   UNL A   1      42.192  32.854  30.677  1.00  0.00     0.031 C 
ATOM     66  C   UNL A   1      44.291  32.194  29.537  1.00  0.00     0.034 A 
BRANCH  53  67
ATOM     67  C   UNL A   1      46.939  27.648  26.308  1.00  0.00     0.023 A 
ATOM     68  C   UNL A   1      47.843  26.824  27.005  1.00  0.00     0.012 A 
ATOM     69  C   UNL A   1      47.167  27.926  24.945  1.00  0.00     0.148 A 
ATOM     70  C   UNL A   1      48.966  26.300  26.364  1.00  0.00     0.002 A 
ATOM     71  C   UNL A   1      48.270  27.374  24.304  1.00  0.00     0.091 A 
ATOM     72  F   UNL A   1      46.311  28.735  24.304  1.00  0.00    -0.205 F 
ATOM     73  C   UNL A   1      49.173  26.566  25.012  1.00  0.00     0.022 A 
BRANCH  71  74
ATOM     74  S   UNL A   1      48.571  27.609  22.547  1.00  0.00     0.127 S 
ATOM     75  O   UNL A   1      48.683  26.230  22.078  1.00  0.00    -0.237 OA
ATOM     76  O   UNL A   1      47.361  28.305  22.108  1.00  0.00    -0.237 OA
ATOM     77  O   UNL A   1      49.786  28.409  22.462  1.00  0.00    -0.744 OA
ENDBRANCH  71  74
ENDBRANCH  53  67
BRANCH  54  78
ATOM     78  C   UNL A   1      38.572  30.671  30.846  1.00  0.00     0.023 A 
ATOM     79  C   UNL A   1      38.452  30.458  32.232  1.00  0.00     0.012 A 
ATOM     80  C   UNL A   1      37.546  31.358  30.166  1.00  0.00     0.148 A 
ATOM     81  C   UNL A   1      37.329  30.913  32.926  1.00  0.00     0.002 A 
ATOM     82  C   UNL A   1      36.460  31.860  30.873  1.00  0.00     0.091 A 
ATOM     83  F   UNL A   1      37.661  31.528  28.841  1.00  0.00    -0.205 F 
ATOM     84  C   UNL A   1      36.343  31.628  32.251  1.00  0.00     0.022 A 
BRANCH  82  85
ATOM     85  S   UNL A   1      35.239  32.922  30.091  1.00  0.00     0.127 S 
ATOM     86  O   UNL A   1      34.645  32.025  29.106  1.00  0.00    -0.237 OA
ATOM     87  O   UNL A   1      34.364  33.273  31.212  1.00  0.00    -0.237 OA
ATOM     88  O   UNL A   1      36.001  34.047  29.563  1.00  0.00    -0.744 OA
ENDBRANCH  82  85
ENDBRANCH  54  78
BRANCH  66  89
ATOM     89  C   UNL A   1      44.913  33.472  30.025  1.00  0.00     0.023 A 
ATOM     90  C   UNL A   1      45.656  33.464  31.221  1.00  0.00     0.012 A 
ATOM     91  C   UNL A   1      44.830  34.656  29.267  1.00  0.00     0.148 A 
ATOM     92  C   UNL A   1      46.290  34.623  31.668  1.00  0.00     0.002 A 
ATOM     93  C   UNL A   1      45.494  35.798  29.701  1.00  0.00     0.091 A 
ATOM     94  F   UNL A   1      44.097  34.649  28.143  1.00  0.00    -0.205 F 
ATOM     95  C   UNL A   1      46.219  35.785  30.904  1.00  0.00     0.022 A 
BRANCH  93  96
ATOM     96  S   UNL A   1      45.513  37.312  28.733  1.00  0.00     0.127 S 
ATOM     97  O   UNL A   1      46.359  36.934  27.603  1.00  0.00    -0.237 OA
ATOM     98  O   UNL A   1      44.100  37.496  28.402  1.00  0.00    -0.237 OA
ATOM     99  O   UNL A   1      46.058  38.335  29.616  1.00  0.00    -0.744 OA
ENDBRANCH  93  96
ENDBRANCH  66  89
ENDBRANCH  40  41
ENDBRANCH  33  35
ENDBRANCH  32  33
ENDBRANCH  31  32
ENDBRANCH   1  31
TORSDOF 19
ENDMDL
MODEL 3
REMARK VINA RESULT:     -11.9      1.310      7.424
REMARK SMILES Cc1ccc(O[C@H](C)C(=O)NNC(=O)[C@@H]2[C@@H](C(=O)OCCOC(=O)c3ccc(-c4c5nc(c(-c6cccc(S(=O)(=O)[O-])c6F)c6ccc([nH]6)c(-c6cccc(S(=O)(=O)[O-])c6F)c6nc(c(-c7cccc(S(=O)(=O)[O-])c7F)c7ccc4[nH]7)C=C6)C=C5)cc3)[C@@H]3C=C[C@H]2C3)cc1C
REMARK SMILES IDX 20 1 19 2 17 3 18 4 16 5 15 6 91 7 88 8 90 9 92 10 89 11
REMARK SMILES IDX 13 12 12 13 14 15 11 16 9 17 10 18 7 20 8 21 6 22 5 23 1 24
REMARK SMILES IDX 2 25 3 26 94 27 4 28 93 29 95 30 21 31 22 32 23 33 24 34
REMARK SMILES IDX 25 35 26 36 87 37 27 38 86 39 28 40 29 41 30 42 80 43 31 44
REMARK SMILES IDX 85 45 79 46 81 47 32 48 84 49 78 50 77 51 33 53 65 54 45 55
REMARK SMILES IDX 64 56 46 57 49 58 63 59 82 60 47 61 48 62 62 64 83 65 50 66
REMARK SMILES IDX 34 67 35 68 43 69 36 70 38 71 44 72 37 73 39 74 40 75 41 76
REMARK SMILES IDX 42 77 66 78 67 79 75 80 68 81 70 82 76 83 69 84 71 85 72 86
REMARK SMILES IDX 73 87 74 88 51 89 52 90 60 91 53 92 55 93 61 94 54 95 56 96
REMARK SMILES IDX 57 97 58 98 59 99
REMARK H PARENT 12 14 11 19 81 52 49 63
REMARK Flexibility Score: inf
ROOT
ATOM      1  C   UNL A   1      36.076  21.827  24.618  1.00  0.00     0.274 C 
ENDROOT
BRANCH   1   2
ATOM      2  O   UNL A   1      35.638  20.761  25.487  1.00  0.00    -0.462 OA
BRANCH   2   3
ATOM      3  C   UNL A   1      35.710  19.511  24.959  1.00  0.00     0.310 C 
ATOM      4  O   UNL A   1      36.703  18.795  25.015  1.00  0.00    -0.252 OA
BRANCH   3   5
ATOM      5  C   UNL A   1      34.468  19.120  24.185  1.00  0.00     0.119 C 
ATOM      6  C   UNL A   1      33.081  19.440  24.864  1.00  0.00     0.102 C 
ATOM      7  C   UNL A   1      32.400  18.044  24.865  1.00  0.00     0.025 C 
ATOM      8  C   UNL A   1      34.408  17.579  24.013  1.00  0.00     0.027 C 
ATOM      9  C   UNL A   1      32.179  17.561  23.454  1.00  0.00    -0.027 C 
ATOM     10  C   UNL A   1      33.588  17.158  25.230  1.00  0.00     0.017 C 
ATOM     11  C   UNL A   1      33.385  17.280  22.940  1.00  0.00    -0.027 C 
BRANCH   6  12
ATOM     12  C   UNL A   1      32.393  20.582  24.118  1.00  0.00     0.242 C 
ATOM     13  N   UNL A   1      32.348  21.852  24.624  1.00  0.00    -0.267 N 
ATOM     14  H   UNL A   1      31.989  22.556  24.036  1.00  0.00     0.191 HD
ATOM     15  O   UNL A   1      31.948  20.419  22.976  1.00  0.00    -0.273 OA
BRANCH  13  16
ATOM     16  N   UNL A   1      32.759  22.236  25.885  1.00  0.00    -0.264 N 
ATOM     17  C   UNL A   1      31.925  22.773  26.837  1.00  0.00     0.279 C 
ATOM     18  O   UNL A   1      32.329  22.869  27.999  1.00  0.00    -0.269 OA
ATOM     19  H   UNL A   1      33.709  22.118  26.117  1.00  0.00     0.191 HD
BRANCH  17  20
ATOM     20  C   UNL A   1      30.577  23.389  26.415  1.00  0.00     0.260 C 
ATOM     21  C   UNL A   1      29.493  22.729  27.278  1.00  0.00     0.064 C 
BRANCH  20  22
ATOM     22  O   UNL A   1      30.563  24.811  26.535  1.00  0.00    -0.481 OA
BRANCH  22  23
ATOM     23  C   UNL A   1      31.402  25.545  25.737  1.00  0.00     0.120 A 
ATOM     24  C   UNL A   1      33.969  28.223  23.500  1.00  0.00     0.044 C 
ATOM     25  C   UNL A   1      33.117  27.290  24.313  1.00  0.00    -0.048 A 
ATOM     26  C   UNL A   1      32.318  26.350  23.646  1.00  0.00     0.007 A 
ATOM     27  C   UNL A   1      33.094  27.321  25.719  1.00  0.00    -0.045 A 
ATOM     28  C   UNL A   1      31.482  25.479  24.349  1.00  0.00     0.047 A 
ATOM     29  C   UNL A   1      32.229  26.447  26.412  1.00  0.00     0.050 A 
ATOM     30  C   UNL A   1      33.974  28.232  26.531  1.00  0.00     0.045 C 
ENDBRANCH  22  23
ENDBRANCH  20  22
ENDBRANCH  17  20
ENDBRANCH  13  16
ENDBRANCH   6  12
ENDBRANCH   3   5
ENDBRANCH   2   3
ENDBRANCH   1   2
BRANCH   1  31
ATOM     31  C   UNL A   1      37.563  22.125  24.785  1.00  0.00     0.275 C 
BRANCH  31  32
ATOM     32  O   UNL A   1      37.981  21.899  26.143  1.00  0.00    -0.458 OA
BRANCH  32  33
ATOM     33  C   UNL A   1      39.317  21.863  26.336  1.00  0.00     0.338 C 
ATOM     34  O   UNL A   1      40.088  20.975  26.017  1.00  0.00    -0.246 OA
BRANCH  33  35
ATOM     35  C   UNL A   1      39.768  23.103  26.986  1.00  0.00     0.060 A 
ATOM     36  C   UNL A   1      39.254  24.328  26.564  1.00  0.00     0.016 A 
ATOM     37  C   UNL A   1      40.833  23.058  27.886  1.00  0.00     0.016 A 
ATOM     38  C   UNL A   1      39.886  25.511  26.942  1.00  0.00     0.010 A 
ATOM     39  C   UNL A   1      41.391  24.252  28.351  1.00  0.00     0.010 A 
ATOM     40  C   UNL A   1      40.957  25.491  27.848  1.00  0.00    -0.014 A 
BRANCH  40  41
ATOM     41  C   UNL A   1      41.642  26.749  28.259  1.00  0.00     0.031 A 
ATOM     42  C   UNL A   1      40.886  27.816  29.011  1.00  0.00     0.074 A 
ATOM     43  C   UNL A   1      42.931  26.959  27.927  1.00  0.00     0.049 A 
ATOM     44  N   UNL A   1      41.233  29.052  29.262  1.00  0.00    -0.248 NA
ATOM     45  C   UNL A   1      39.558  27.451  29.532  1.00  0.00     0.031 C 
ATOM     46  C   UNL A   1      43.787  26.011  27.212  1.00  0.00     0.029 A 
ATOM     47  N   UNL A   1      43.743  28.049  28.129  1.00  0.00    -0.354 N 
ATOM     48  C   UNL A   1      40.140  29.634  29.895  1.00  0.00     0.074 A 
ATOM     49  C   UNL A   1      39.123  28.611  30.008  1.00  0.00     0.031 C 
ATOM     50  C   UNL A   1      45.002  26.552  27.045  1.00  0.00     0.029 A 
ATOM     51  C   UNL A   1      44.992  27.912  27.570  1.00  0.00     0.049 A 
ATOM     52  H   UNL A   1      43.457  28.850  28.626  1.00  0.00     0.167 HD
ATOM     53  C   UNL A   1      39.999  30.903  30.349  1.00  0.00     0.034 A 
ATOM     54  C   UNL A   1      46.005  28.794  27.451  1.00  0.00     0.034 A 
ATOM     55  C   UNL A   1      41.043  31.893  30.319  1.00  0.00     0.049 A 
ATOM     56  C   UNL A   1      45.838  30.183  27.996  1.00  0.00     0.074 A 
ATOM     57  C   UNL A   1      41.008  33.194  30.791  1.00  0.00     0.029 A 
ATOM     58  N   UNL A   1      42.315  31.686  29.810  1.00  0.00    -0.354 N 
ATOM     59  N   UNL A   1      44.810  30.704  28.621  1.00  0.00    -0.248 NA
ATOM     60  C   UNL A   1      46.970  31.105  27.827  1.00  0.00     0.031 C 
ATOM     61  C   UNL A   1      42.264  33.772  30.574  1.00  0.00     0.029 A 
ATOM     62  C   UNL A   1      43.079  32.831  29.965  1.00  0.00     0.049 A 
ATOM     63  H   UNL A   1      42.629  30.849  29.398  1.00  0.00     0.167 HD
ATOM     64  C   UNL A   1      45.176  32.006  28.935  1.00  0.00     0.074 A 
ATOM     65  C   UNL A   1      46.531  32.188  28.454  1.00  0.00     0.031 C 
ATOM     66  C   UNL A   1      44.445  32.974  29.539  1.00  0.00     0.034 A 
BRANCH  53  67
ATOM     67  C   UNL A   1      38.680  31.290  30.960  1.00  0.00     0.023 A 
ATOM     68  C   UNL A   1      38.506  31.205  32.355  1.00  0.00     0.012 A 
ATOM     69  C   UNL A   1      37.636  31.805  30.164  1.00  0.00     0.148 A 
ATOM     70  C   UNL A   1      37.310  31.607  32.948  1.00  0.00     0.002 A 
ATOM     71  C   UNL A   1      36.459  32.235  30.765  1.00  0.00     0.091 A 
ATOM     72  F   UNL A   1      37.807  31.852  28.835  1.00  0.00    -0.205 F 
ATOM     73  C   UNL A   1      36.291  32.132  32.155  1.00  0.00     0.022 A 
BRANCH  71  74
ATOM     74  S   UNL A   1      35.125  32.988  29.824  1.00  0.00     0.127 S 
ATOM     75  O   UNL A   1      35.815  34.095  29.165  1.00  0.00    -0.237 OA
ATOM     76  O   UNL A   1      34.718  31.904  28.928  1.00  0.00    -0.237 OA
ATOM     77  O   UNL A   1      34.116  33.363  30.806  1.00  0.00    -0.744 OA
ENDBRANCH  71  74
ENDBRANCH  53  67
BRANCH  54  78
ATOM     78  C   UNL A   1      47.277  28.363  26.806  1.00  0.00     0.023 A 
ATOM     79  C   UNL A   1      48.389  28.056  27.613  1.00  0.00     0.012 A 
ATOM     80  C   UNL A   1      47.372  28.185  25.411  1.00  0.00     0.148 A 
ATOM     81  C   UNL A   1      49.574  27.589  27.043  1.00  0.00     0.002 A 
ATOM     82  C   UNL A   1      48.535  27.664  24.856  1.00  0.00     0.091 A 
ATOM     83  F   UNL A   1      46.315  28.510  24.653  1.00  0.00    -0.205 F 
ATOM     84  C   UNL A   1      49.641  27.376  25.668  1.00  0.00     0.022 A 
BRANCH  82  85
ATOM     85  S   UNL A   1      48.627  27.219  23.117  1.00  0.00     0.127 S 
ATOM     86  O   UNL A   1      50.031  27.475  22.815  1.00  0.00    -0.237 OA
ATOM     87  O   UNL A   1      48.249  25.804  23.135  1.00  0.00    -0.237 OA
ATOM     88  O   UNL A   1      47.657  28.081  22.455  1.00  0.00    -0.744 OA
ENDBRANCH  82  85
ENDBRANCH  54  78
BRANCH  66  89
ATOM     89  C   UNL A   1      45.099  34.313  29.736  1.00  0.00     0.023 A 
ATOM     90  C   UNL A   1      45.841  34.551  30.909  1.00  0.00     0.012 A 
ATOM     91  C   UNL A   1      45.044  35.303  28.737  1.00  0.00     0.148 A 
ATOM     92  C   UNL A   1      46.503  35.765  31.094  1.00  0.00     0.002 A 
ATOM     93  C   UNL A   1      45.735  36.496  28.912  1.00  0.00     0.091 A 
ATOM     94  F   UNL A   1      44.311  35.066  27.638  1.00  0.00    -0.205 F 
ATOM     95  C   UNL A   1      46.460  36.731  30.092  1.00  0.00     0.022 A 
BRANCH  93  96
ATOM     96  S   UNL A   1      45.791  37.759  27.635  1.00  0.00     0.127 S 
ATOM     97  O   UNL A   1      46.625  38.782  28.261  1.00  0.00    -0.237 OA
ATOM     98  O   UNL A   1      46.425  37.055  26.519  1.00  0.00    -0.237 OA
ATOM     99  O   UNL A   1      44.404  38.134  27.393  1.00  0.00    -0.744 OA
ENDBRANCH  93  96
ENDBRANCH  66  89
ENDBRANCH  40  41
ENDBRANCH  33  35
ENDBRANCH  32  33
ENDBRANCH  31  32
ENDBRANCH   1  31
TORSDOF 19
ENDMDL
