MODEL 1
REMARK VINA RESULT:     -11.5      0.000      0.000
REMARK SMILES O=C(OCCOC(=O)c1sccc1S(=O)(=O)Nc1ccccc1N1CCCCC1)c1ccc(-c2c3nc(c(-c4cccc(S(=O)(=O)[O-])c4F)c4ccc([nH]4)c(-c4cccc(S(=O)(=O)[O-])c4F)c4nc(c(-c5cccc(S(=O)(=O)[O-])c5F)c5ccc2[nH]5)C=C4)C=C3)cc1
REMARK SMILES IDX 5 1 4 2 3 3 2 4 1 5 30 6 31 7 92 8 32 9 91 10 33 11 34 12
REMARK SMILES IDX 35 13 85 14 36 15 90 16 84 17 86 18 37 19 89 20 83 21 82 22
REMARK SMILES IDX 38 24 70 25 50 26 69 27 51 28 54 29 68 30 87 31 52 32 53 33
REMARK SMILES IDX 67 35 88 36 55 37 39 38 40 39 48 40 41 41 43 42 49 43 42 44
REMARK SMILES IDX 44 45 45 46 46 47 47 48 71 49 72 50 80 51 73 52 75 53 81 54
REMARK SMILES IDX 74 55 76 56 77 57 78 58 79 59 56 60 57 61 65 62 58 63 60 64
REMARK SMILES IDX 66 65 59 66 61 67 62 68 63 69 64 70 6 71 7 72 8 73 9 74
REMARK SMILES IDX 10 75 13 76 11 77 12 78 14 79 15 80 16 81 17 82 18 84 19 85
REMARK SMILES IDX 23 86 20 87 22 88 21 89 24 90 25 91 29 92 26 93 28 94 27 95
REMARK H PARENT 86 23 54 34 17 83
REMARK Flexibility Score: inf
ROOT
ATOM      1  C   UNL A   1      38.071  20.908  25.334  1.00  0.00     0.275 C 
ENDROOT
BRANCH   1   2
ATOM      2  C   UNL A   1      38.972  19.678  25.369  1.00  0.00     0.275 C 
BRANCH   2   3
ATOM      3  O   UNL A   1      40.083  19.778  26.270  1.00  0.00    -0.458 OA
BRANCH   3   4
ATOM      4  C   UNL A   1      41.180  20.556  26.106  1.00  0.00     0.338 C 
ATOM      5  O   UNL A   1      42.212  20.078  25.644  1.00  0.00    -0.246 OA
BRANCH   4   6
ATOM      6  C   UNL A   1      41.222  21.929  26.679  1.00  0.00     0.060 A 
ATOM      7  C   UNL A   1      40.930  23.094  25.965  1.00  0.00     0.016 A 
ATOM      8  C   UNL A   1      41.633  22.044  28.018  1.00  0.00     0.016 A 
ATOM      9  C   UNL A   1      40.962  24.338  26.588  1.00  0.00     0.010 A 
ATOM     10  C   UNL A   1      41.705  23.295  28.641  1.00  0.00     0.010 A 
ATOM     11  C   UNL A   1      41.394  24.447  27.911  1.00  0.00    -0.014 A 
BRANCH  11  12
ATOM     12  C   UNL A   1      41.881  25.773  28.342  1.00  0.00     0.031 A 
ATOM     13  C   UNL A   1      43.275  26.113  27.930  1.00  0.00     0.074 A 
ATOM     14  C   UNL A   1      41.089  26.677  28.942  1.00  0.00     0.049 A 
ATOM     15  N   UNL A   1      43.862  27.274  27.915  1.00  0.00    -0.248 NA
ATOM     16  C   UNL A   1      44.094  25.006  27.399  1.00  0.00     0.031 C 
ATOM     17  C   UNL A   1      39.702  26.439  29.285  1.00  0.00     0.029 A 
ATOM     18  N   UNL A   1      41.306  27.964  29.351  1.00  0.00    -0.354 N 
ATOM     19  C   UNL A   1      45.106  27.042  27.351  1.00  0.00     0.074 A 
ATOM     20  C   UNL A   1      45.201  25.634  27.050  1.00  0.00     0.031 C 
ATOM     21  C   UNL A   1      39.182  27.517  29.889  1.00  0.00     0.029 A 
ATOM     22  C   UNL A   1      40.204  28.550  29.936  1.00  0.00     0.049 A 
ATOM     23  H   UNL A   1      42.168  28.428  29.237  1.00  0.00     0.167 HD
ATOM     24  C   UNL A   1      46.082  27.938  27.097  1.00  0.00     0.034 A 
ATOM     25  C   UNL A   1      40.038  29.800  30.411  1.00  0.00     0.034 A 
ATOM     26  C   UNL A   1      45.994  29.310  27.494  1.00  0.00     0.049 A 
ATOM     27  C   UNL A   1      41.176  30.760  30.196  1.00  0.00     0.074 A 
ATOM     28  C   UNL A   1      46.947  30.300  27.399  1.00  0.00     0.029 A 
ATOM     29  N   UNL A   1      44.879  29.868  28.110  1.00  0.00    -0.354 N 
ATOM     30  N   UNL A   1      42.314  30.554  29.571  1.00  0.00    -0.248 NA
ATOM     31  C   UNL A   1      41.001  32.129  30.693  1.00  0.00     0.031 C 
ATOM     32  C   UNL A   1      46.419  31.452  27.995  1.00  0.00     0.029 A 
ATOM     33  C   UNL A   1      45.126  31.187  28.427  1.00  0.00     0.049 A 
ATOM     34  H   UNL A   1      44.037  29.391  28.295  1.00  0.00     0.167 HD
ATOM     35  C   UNL A   1      42.976  31.772  29.568  1.00  0.00     0.074 A 
ATOM     36  C   UNL A   1      42.100  32.716  30.238  1.00  0.00     0.031 C 
ATOM     37  C   UNL A   1      44.198  32.086  29.069  1.00  0.00     0.034 A 
BRANCH  24  38
ATOM     38  C   UNL A   1      47.307  27.387  26.430  1.00  0.00     0.023 A 
ATOM     39  C   UNL A   1      47.370  27.338  25.021  1.00  0.00     0.012 A 
ATOM     40  C   UNL A   1      48.316  26.775  27.194  1.00  0.00     0.148 A 
ATOM     41  C   UNL A   1      48.397  26.643  24.383  1.00  0.00     0.002 A 
ATOM     42  C   UNL A   1      49.350  26.109  26.551  1.00  0.00     0.091 A 
ATOM     43  F   UNL A   1      48.204  26.793  28.529  1.00  0.00    -0.205 F 
ATOM     44  C   UNL A   1      49.385  26.029  25.147  1.00  0.00     0.022 A 
BRANCH  42  45
ATOM     45  S   UNL A   1      50.674  25.294  27.445  1.00  0.00     0.127 S 
ATOM     46  O   UNL A   1      51.150  26.369  28.315  1.00  0.00    -0.237 OA
ATOM     47  O   UNL A   1      49.958  24.222  28.136  1.00  0.00    -0.237 OA
ATOM     48  O   UNL A   1      51.622  24.842  26.437  1.00  0.00    -0.744 OA
ENDBRANCH  42  45
ENDBRANCH  24  38
BRANCH  25  49
ATOM     49  C   UNL A   1      38.738  30.229  31.013  1.00  0.00     0.023 A 
ATOM     50  C   UNL A   1      38.466  29.933  32.364  1.00  0.00     0.012 A 
ATOM     51  C   UNL A   1      37.777  30.945  30.269  1.00  0.00     0.148 A 
ATOM     52  C   UNL A   1      37.255  30.310  32.951  1.00  0.00     0.002 A 
ATOM     53  C   UNL A   1      36.588  31.354  30.872  1.00  0.00     0.091 A 
ATOM     54  F   UNL A   1      38.034  31.208  28.980  1.00  0.00    -0.205 F 
ATOM     55  C   UNL A   1      36.319  31.026  32.208  1.00  0.00     0.022 A 
BRANCH  53  56
ATOM     56  S   UNL A   1      35.373  32.365  30.012  1.00  0.00     0.127 S 
ATOM     57  O   UNL A   1      34.957  31.479  28.929  1.00  0.00    -0.237 OA
ATOM     58  O   UNL A   1      34.361  32.587  31.046  1.00  0.00    -0.237 OA
ATOM     59  O   UNL A   1      36.088  33.572  29.612  1.00  0.00    -0.744 OA
ENDBRANCH  53  56
ENDBRANCH  25  49
BRANCH  37  60
ATOM     60  C   UNL A   1      44.651  33.507  29.229  1.00  0.00     0.023 A 
ATOM     61  C   UNL A   1      45.444  33.862  30.336  1.00  0.00     0.012 A 
ATOM     62  C   UNL A   1      44.383  34.454  28.224  1.00  0.00     0.148 A 
ATOM     63  C   UNL A   1      45.952  35.153  30.450  1.00  0.00     0.002 A 
ATOM     64  C   UNL A   1      44.934  35.722  28.319  1.00  0.00     0.091 A 
ATOM     65  F   UNL A   1      43.602  34.094  27.195  1.00  0.00    -0.205 F 
ATOM     66  C   UNL A   1      45.710  36.077  29.436  1.00  0.00     0.022 A 
BRANCH  64  67
ATOM     67  S   UNL A   1      44.764  36.929  27.002  1.00  0.00     0.127 S 
ATOM     68  O   UNL A   1      45.457  36.266  25.899  1.00  0.00    -0.237 OA
ATOM     69  O   UNL A   1      43.312  37.019  26.845  1.00  0.00    -0.237 OA
ATOM     70  O   UNL A   1      45.391  38.148  27.498  1.00  0.00    -0.744 OA
ENDBRANCH  64  67
ENDBRANCH  37  60
ENDBRANCH  11  12
ENDBRANCH   4   6
ENDBRANCH   3   4
ENDBRANCH   2   3
ENDBRANCH   1   2
BRANCH   1  71
ATOM     71  O   UNL A   1      36.689  20.659  25.049  1.00  0.00    -0.458 OA
BRANCH  71  72
ATOM     72  C   UNL A   1      35.811  21.630  25.412  1.00  0.00     0.349 C 
ATOM     73  O   UNL A   1      36.156  22.751  25.777  1.00  0.00    -0.245 OA
BRANCH  72  74
ATOM     74  C   UNL A   1      34.439  21.198  25.229  1.00  0.00     0.133 A 
ATOM     75  S   UNL A   1      34.229  19.555  24.711  1.00  0.00    -0.136 S 
ATOM     76  C   UNL A   1      33.212  21.842  25.337  1.00  0.00     0.113 A 
ATOM     77  C   UNL A   1      32.532  19.658  24.793  1.00  0.00     0.067 A 
ATOM     78  C   UNL A   1      32.117  20.940  25.065  1.00  0.00     0.035 A 
BRANCH  76  79
ATOM     79  S   UNL A   1      32.933  23.510  25.769  1.00  0.00     0.263 S 
ATOM     80  O   UNL A   1      31.576  23.777  25.331  1.00  0.00    -0.201 OA
ATOM     81  O   UNL A   1      33.258  23.621  27.170  1.00  0.00    -0.201 OA
BRANCH  79  82
ATOM     82  N   UNL A   1      33.864  24.632  24.928  1.00  0.00    -0.277 N 
ATOM     83  H   UNL A   1      34.732  24.936  25.278  1.00  0.00     0.180 HD
BRANCH  82  84
ATOM     84  C   UNL A   1      33.357  25.131  23.691  1.00  0.00     0.072 A 
ATOM     85  C   UNL A   1      33.490  24.334  22.549  1.00  0.00     0.029 A 
ATOM     86  C   UNL A   1      32.650  26.358  23.669  1.00  0.00     0.061 A 
ATOM     87  C   UNL A   1      32.908  24.741  21.352  1.00  0.00     0.002 A 
ATOM     88  C   UNL A   1      32.021  26.699  22.465  1.00  0.00     0.028 A 
ATOM     89  C   UNL A   1      32.148  25.906  21.319  1.00  0.00     0.002 A 
BRANCH  86  90
ATOM     90  N   UNL A   1      32.609  27.236  24.741  1.00  0.00    -0.370 N 
ATOM     91  C   UNL A   1      33.688  28.187  25.003  1.00  0.00     0.116 C 
ATOM     92  C   UNL A   1      31.374  27.428  25.504  1.00  0.00     0.116 C 
ATOM     93  C   UNL A   1      34.032  28.228  26.484  1.00  0.00     0.021 C 
ATOM     94  C   UNL A   1      31.712  27.417  26.994  1.00  0.00     0.021 C 
ATOM     95  C   UNL A   1      32.779  28.456  27.327  1.00  0.00     0.004 C 
ENDBRANCH  86  90
ENDBRANCH  82  84
ENDBRANCH  79  82
ENDBRANCH  76  79
ENDBRANCH  72  74
ENDBRANCH  71  72
ENDBRANCH   1  71
TORSDOF 18
ENDMDL
MODEL 2
REMARK VINA RESULT:     -11.5      1.173      2.314
REMARK SMILES O=C(OCCOC(=O)c1sccc1S(=O)(=O)Nc1ccccc1N1CCCCC1)c1ccc(-c2c3nc(c(-c4cccc(S(=O)(=O)[O-])c4F)c4ccc([nH]4)c(-c4cccc(S(=O)(=O)[O-])c4F)c4nc(c(-c5cccc(S(=O)(=O)[O-])c5F)c5ccc2[nH]5)C=C4)C=C3)cc1
REMARK SMILES IDX 5 1 4 2 3 3 2 4 1 5 30 6 31 7 92 8 32 9 91 10 33 11 34 12
REMARK SMILES IDX 35 13 85 14 36 15 90 16 84 17 86 18 37 19 89 20 83 21 82 22
REMARK SMILES IDX 38 24 70 25 50 26 69 27 51 28 54 29 68 30 87 31 52 32 53 33
REMARK SMILES IDX 67 35 88 36 55 37 39 38 40 39 48 40 41 41 43 42 49 43 42 44
REMARK SMILES IDX 44 45 45 46 46 47 47 48 71 49 72 50 80 51 73 52 75 53 81 54
REMARK SMILES IDX 74 55 76 56 77 57 78 58 79 59 56 60 57 61 65 62 58 63 60 64
REMARK SMILES IDX 66 65 59 66 61 67 62 68 63 69 64 70 6 71 7 72 8 73 9 74
REMARK SMILES IDX 10 75 13 76 11 77 12 78 14 79 15 80 16 81 17 82 18 84 19 85
REMARK SMILES IDX 23 86 20 87 22 88 21 89 24 90 25 91 29 92 26 93 28 94 27 95
REMARK H PARENT 86 23 54 34 17 83
REMARK Flexibility Score: inf
ROOT
ATOM      1  C   UNL A   1      36.512  21.974  25.696  1.00  0.00     0.275 C 
ENDROOT
BRANCH   1   2
ATOM      2  C   UNL A   1      37.783  21.417  25.062  1.00  0.00     0.275 C 
BRANCH   2   3
ATOM      3  O   UNL A   1      38.823  21.092  25.995  1.00  0.00    -0.458 OA
BRANCH   3   4
ATOM      4  C   UNL A   1      40.052  21.658  26.054  1.00  0.00     0.338 C 
ATOM      5  O   UNL A   1      41.039  21.028  25.687  1.00  0.00    -0.246 OA
BRANCH   4   6
ATOM      6  C   UNL A   1      40.252  22.953  26.761  1.00  0.00     0.060 A 
ATOM      7  C   UNL A   1      39.661  24.161  26.381  1.00  0.00     0.016 A 
ATOM      8  C   UNL A   1      41.137  22.949  27.852  1.00  0.00     0.016 A 
ATOM      9  C   UNL A   1      39.876  25.322  27.117  1.00  0.00     0.010 A 
ATOM     10  C   UNL A   1      41.388  24.121  28.575  1.00  0.00     0.010 A 
ATOM     11  C   UNL A   1      40.774  25.316  28.185  1.00  0.00    -0.014 A 
BRANCH  11  12
ATOM     12  C   UNL A   1      41.333  26.623  28.589  1.00  0.00     0.031 A 
ATOM     13  C   UNL A   1      42.687  26.940  28.045  1.00  0.00     0.074 A 
ATOM     14  C   UNL A   1      40.626  27.531  29.280  1.00  0.00     0.049 A 
ATOM     15  N   UNL A   1      43.296  28.088  27.992  1.00  0.00    -0.248 NA
ATOM     16  C   UNL A   1      43.422  25.827  27.416  1.00  0.00     0.031 C 
ATOM     17  C   UNL A   1      39.275  27.316  29.757  1.00  0.00     0.029 A 
ATOM     18  N   UNL A   1      40.913  28.805  29.688  1.00  0.00    -0.354 N 
ATOM     19  C   UNL A   1      44.472  27.841  27.302  1.00  0.00     0.074 A 
ATOM     20  C   UNL A   1      44.503  26.438  26.969  1.00  0.00     0.031 C 
ATOM     21  C   UNL A   1      38.843  28.394  30.429  1.00  0.00     0.029 A 
ATOM     22  C   UNL A   1      39.889  29.403  30.391  1.00  0.00     0.049 A 
ATOM     23  H   UNL A   1      41.770  29.252  29.497  1.00  0.00     0.167 HD
ATOM     24  C   UNL A   1      45.438  28.720  26.967  1.00  0.00     0.034 A 
ATOM     25  C   UNL A   1      39.800  30.646  30.902  1.00  0.00     0.034 A 
ATOM     26  C   UNL A   1      45.422  30.086  27.395  1.00  0.00     0.049 A 
ATOM     27  C   UNL A   1      40.934  31.586  30.591  1.00  0.00     0.074 A 
ATOM     28  C   UNL A   1      46.384  31.057  27.223  1.00  0.00     0.029 A 
ATOM     29  N   UNL A   1      44.388  30.655  28.130  1.00  0.00    -0.354 N 
ATOM     30  N   UNL A   1      41.998  31.368  29.852  1.00  0.00    -0.248 NA
ATOM     31  C   UNL A   1      40.841  32.948  31.127  1.00  0.00     0.031 C 
ATOM     32  C   UNL A   1      45.946  32.208  27.889  1.00  0.00     0.029 A 
ATOM     33  C   UNL A   1      44.697  31.963  28.443  1.00  0.00     0.049 A 
ATOM     34  H   UNL A   1      43.558  30.193  28.389  1.00  0.00     0.167 HD
ATOM     35  C   UNL A   1      42.685  32.571  29.804  1.00  0.00     0.074 A 
ATOM     36  C   UNL A   1      41.903  33.520  30.575  1.00  0.00     0.031 C 
ATOM     37  C   UNL A   1      43.858  32.869  29.190  1.00  0.00     0.034 A 
BRANCH  24  38
ATOM     38  C   UNL A   1      46.577  28.156  26.172  1.00  0.00     0.023 A 
ATOM     39  C   UNL A   1      46.526  28.192  24.761  1.00  0.00     0.012 A 
ATOM     40  C   UNL A   1      47.611  27.453  26.813  1.00  0.00     0.148 A 
ATOM     41  C   UNL A   1      47.463  27.491  24.002  1.00  0.00     0.002 A 
ATOM     42  C   UNL A   1      48.557  26.782  26.050  1.00  0.00     0.091 A 
ATOM     43  F   UNL A   1      47.607  27.394  28.152  1.00  0.00    -0.205 F 
ATOM     44  C   UNL A   1      48.477  26.787  24.646  1.00  0.00     0.022 A 
BRANCH  42  45
ATOM     45  S   UNL A   1      49.905  25.854  26.784  1.00  0.00     0.127 S 
ATOM     46  O   UNL A   1      49.208  24.675  27.297  1.00  0.00    -0.237 OA
ATOM     47  O   UNL A   1      50.764  25.601  25.628  1.00  0.00    -0.237 OA
ATOM     48  O   UNL A   1      50.487  26.723  27.797  1.00  0.00    -0.744 OA
ENDBRANCH  42  45
ENDBRANCH  24  38
BRANCH  25  49
ATOM     49  C   UNL A   1      38.577  31.091  31.639  1.00  0.00     0.023 A 
ATOM     50  C   UNL A   1      38.531  30.979  33.043  1.00  0.00     0.012 A 
ATOM     51  C   UNL A   1      37.467  31.645  30.967  1.00  0.00     0.148 A 
ATOM     52  C   UNL A   1      37.398  31.374  33.758  1.00  0.00     0.002 A 
ATOM     53  C   UNL A   1      36.355  32.076  31.689  1.00  0.00     0.091 A 
ATOM     54  F   UNL A   1      37.510  31.734  29.630  1.00  0.00    -0.205 F 
ATOM     55  C   UNL A   1      36.313  31.929  33.083  1.00  0.00     0.022 A 
BRANCH  53  56
ATOM     56  S   UNL A   1      34.957  32.892  30.905  1.00  0.00     0.127 S 
ATOM     57  O   UNL A   1      35.540  34.170  30.505  1.00  0.00    -0.237 OA
ATOM     58  O   UNL A   1      34.647  31.987  29.797  1.00  0.00    -0.237 OA
ATOM     59  O   UNL A   1      33.921  32.954  31.929  1.00  0.00    -0.744 OA
ENDBRANCH  53  56
ENDBRANCH  25  49
BRANCH  37  60
ATOM     60  C   UNL A   1      44.358  34.276  29.329  1.00  0.00     0.023 A 
ATOM     61  C   UNL A   1      45.379  34.562  30.256  1.00  0.00     0.012 A 
ATOM     62  C   UNL A   1      43.894  35.282  28.462  1.00  0.00     0.148 A 
ATOM     63  C   UNL A   1      45.919  35.842  30.330  1.00  0.00     0.002 A 
ATOM     64  C   UNL A   1      44.473  36.540  28.508  1.00  0.00     0.091 A 
ATOM     65  F   UNL A   1      42.903  34.986  27.609  1.00  0.00    -0.205 F 
ATOM     66  C   UNL A   1      45.479  36.825  29.447  1.00  0.00     0.022 A 
BRANCH  64  67
ATOM     67  S   UNL A   1      44.041  37.824  27.331  1.00  0.00     0.127 S 
ATOM     68  O   UNL A   1      43.692  38.934  28.215  1.00  0.00    -0.237 OA
ATOM     69  O   UNL A   1      45.290  38.002  26.590  1.00  0.00    -0.237 OA
ATOM     70  O   UNL A   1      42.945  37.281  26.537  1.00  0.00    -0.744 OA
ENDBRANCH  64  67
ENDBRANCH  37  60
ENDBRANCH  11  12
ENDBRANCH   4   6
ENDBRANCH   3   4
ENDBRANCH   2   3
ENDBRANCH   1   2
BRANCH   1  71
ATOM     71  O   UNL A   1      35.414  21.059  25.795  1.00  0.00    -0.458 OA
BRANCH  71  72
ATOM     72  C   UNL A   1      34.272  21.541  26.351  1.00  0.00     0.349 C 
ATOM     73  O   UNL A   1      34.132  21.719  27.559  1.00  0.00    -0.245 OA
BRANCH  72  74
ATOM     74  C   UNL A   1      33.296  21.891  25.337  1.00  0.00     0.133 A 
ATOM     75  S   UNL A   1      33.164  20.785  24.007  1.00  0.00    -0.136 S 
ATOM     76  C   UNL A   1      32.445  22.976  25.165  1.00  0.00     0.113 A 
ATOM     77  C   UNL A   1      31.879  21.652  23.305  1.00  0.00     0.067 A 
ATOM     78  C   UNL A   1      31.642  22.830  23.973  1.00  0.00     0.035 A 
BRANCH  76  79
ATOM     79  S   UNL A   1      32.277  24.360  26.214  1.00  0.00     0.263 S 
ATOM     80  O   UNL A   1      31.607  23.842  27.393  1.00  0.00    -0.201 OA
ATOM     81  O   UNL A   1      33.597  24.927  26.344  1.00  0.00    -0.201 OA
BRANCH  79  82
ATOM     82  N   UNL A   1      31.245  25.564  25.651  1.00  0.00    -0.277 N 
ATOM     83  H   UNL A   1      30.434  25.338  25.140  1.00  0.00     0.180 HD
BRANCH  82  84
ATOM     84  C   UNL A   1      31.579  26.921  25.935  1.00  0.00     0.072 A 
ATOM     85  C   UNL A   1      31.268  27.430  27.201  1.00  0.00     0.029 A 
ATOM     86  C   UNL A   1      32.299  27.679  24.980  1.00  0.00     0.061 A 
ATOM     87  C   UNL A   1      31.681  28.713  27.549  1.00  0.00     0.002 A 
ATOM     88  C   UNL A   1      32.755  28.938  25.392  1.00  0.00     0.028 A 
ATOM     89  C   UNL A   1      32.450  29.453  26.657  1.00  0.00     0.002 A 
BRANCH  86  90
ATOM     90  N   UNL A   1      32.510  27.262  23.675  1.00  0.00    -0.370 N 
ATOM     91  C   UNL A   1      31.560  27.560  22.605  1.00  0.00     0.116 C 
ATOM     92  C   UNL A   1      33.810  26.732  23.260  1.00  0.00     0.116 C 
ATOM     93  C   UNL A   1      31.329  26.342  21.724  1.00  0.00     0.021 C 
ATOM     94  C   UNL A   1      33.581  25.478  22.418  1.00  0.00     0.021 C 
ATOM     95  C   UNL A   1      32.657  25.764  21.238  1.00  0.00     0.004 C 
ENDBRANCH  86  90
ENDBRANCH  82  84
ENDBRANCH  79  82
ENDBRANCH  76  79
ENDBRANCH  72  74
ENDBRANCH  71  72
ENDBRANCH   1  71
TORSDOF 18
ENDMDL
MODEL 3
REMARK VINA RESULT:     -11.4      2.238      3.349
REMARK SMILES O=C(OCCOC(=O)c1sccc1S(=O)(=O)Nc1ccccc1N1CCCCC1)c1ccc(-c2c3nc(c(-c4cccc(S(=O)(=O)[O-])c4F)c4ccc([nH]4)c(-c4cccc(S(=O)(=O)[O-])c4F)c4nc(c(-c5cccc(S(=O)(=O)[O-])c5F)c5ccc2[nH]5)C=C4)C=C3)cc1
REMARK SMILES IDX 5 1 4 2 3 3 2 4 1 5 30 6 31 7 92 8 32 9 91 10 33 11 34 12
REMARK SMILES IDX 35 13 85 14 36 15 90 16 84 17 86 18 37 19 89 20 83 21 82 22
REMARK SMILES IDX 38 24 70 25 50 26 69 27 51 28 54 29 68 30 87 31 52 32 53 33
REMARK SMILES IDX 67 35 88 36 55 37 39 38 40 39 48 40 41 41 43 42 49 43 42 44
REMARK SMILES IDX 44 45 45 46 46 47 47 48 71 49 72 50 80 51 73 52 75 53 81 54
REMARK SMILES IDX 74 55 76 56 77 57 78 58 79 59 56 60 57 61 65 62 58 63 60 64
REMARK SMILES IDX 66 65 59 66 61 67 62 68 63 69 64 70 6 71 7 72 8 73 9 74
REMARK SMILES IDX 10 75 13 76 11 77 12 78 14 79 15 80 16 81 17 82 18 84 19 85
REMARK SMILES IDX 23 86 20 87 22 88 21 89 24 90 25 91 29 92 26 93 28 94 27 95
REMARK H PARENT 86 23 54 34 17 83
REMARK Flexibility Score: inf
ROOT
ATOM      1  C   UNL A   1      36.212  21.877  25.583  1.00  0.00     0.275 C 
ENDROOT
BRANCH   1   2
ATOM      2  C   UNL A   1      37.431  22.788  25.696  1.00  0.00     0.275 C 
BRANCH   2   3
ATOM      3  O   UNL A   1      38.660  22.107  25.984  1.00  0.00    -0.458 OA
BRANCH   3   4
ATOM      4  C   UNL A   1      39.675  22.577  26.748  1.00  0.00     0.338 C 
ATOM      5  O   UNL A   1      40.456  21.795  27.284  1.00  0.00    -0.246 OA
BRANCH   4   6
ATOM      6  C   UNL A   1      39.731  24.015  27.127  1.00  0.00     0.060 A 
ATOM      7  C   UNL A   1      40.168  25.039  26.283  1.00  0.00     0.016 A 
ATOM      8  C   UNL A   1      39.359  24.338  28.442  1.00  0.00     0.016 A 
ATOM      9  C   UNL A   1      40.158  26.365  26.706  1.00  0.00     0.010 A 
ATOM     10  C   UNL A   1      39.381  25.664  28.888  1.00  0.00     0.010 A 
ATOM     11  C   UNL A   1      39.810  26.676  28.021  1.00  0.00    -0.014 A 
BRANCH  11  12
ATOM     12  C   UNL A   1      40.288  27.972  28.544  1.00  0.00     0.031 A 
ATOM     13  C   UNL A   1      41.753  28.224  28.399  1.00  0.00     0.074 A 
ATOM     14  C   UNL A   1      39.456  28.925  28.993  1.00  0.00     0.049 A 
ATOM     15  N   UNL A   1      42.402  29.347  28.501  1.00  0.00    -0.248 NA
ATOM     16  C   UNL A   1      42.587  27.067  28.021  1.00  0.00     0.031 C 
ATOM     17  C   UNL A   1      38.017  28.773  29.073  1.00  0.00     0.029 A 
ATOM     18  N   UNL A   1      39.672  30.198  29.444  1.00  0.00    -0.354 N 
ATOM     19  C   UNL A   1      43.712  29.037  28.174  1.00  0.00     0.074 A 
ATOM     20  C   UNL A   1      43.775  27.625  27.887  1.00  0.00     0.031 C 
ATOM     21  C   UNL A   1      37.461  29.884  29.578  1.00  0.00     0.029 A 
ATOM     22  C   UNL A   1      38.518  30.853  29.820  1.00  0.00     0.049 A 
ATOM     23  H   UNL A   1      40.566  30.608  29.495  1.00  0.00     0.167 HD
ATOM     24  C   UNL A   1      44.771  29.871  28.112  1.00  0.00     0.034 A 
ATOM     25  C   UNL A   1      38.343  32.112  30.265  1.00  0.00     0.034 A 
ATOM     26  C   UNL A   1      44.694  31.247  28.495  1.00  0.00     0.049 A 
ATOM     27  C   UNL A   1      39.558  33.000  30.270  1.00  0.00     0.074 A 
ATOM     28  C   UNL A   1      45.707  32.177  28.585  1.00  0.00     0.029 A 
ATOM     29  N   UNL A   1      43.520  31.875  28.899  1.00  0.00    -0.354 N 
ATOM     30  N   UNL A   1      40.777  32.723  29.865  1.00  0.00    -0.248 NA
ATOM     31  C   UNL A   1      39.377  34.379  30.736  1.00  0.00     0.031 C 
ATOM     32  C   UNL A   1      45.149  33.362  29.081  1.00  0.00     0.029 A 
ATOM     33  C   UNL A   1      43.785  33.178  29.264  1.00  0.00     0.049 A 
ATOM     34  H   UNL A   1      42.632  31.451  28.921  1.00  0.00     0.167 HD
ATOM     35  C   UNL A   1      41.500  33.897  29.992  1.00  0.00     0.074 A 
ATOM     36  C   UNL A   1      40.575  34.897  30.496  1.00  0.00     0.031 C 
ATOM     37  C   UNL A   1      42.810  34.135  29.730  1.00  0.00     0.034 A 
BRANCH  24  38
ATOM     38  C   UNL A   1      46.062  29.242  27.679  1.00  0.00     0.023 A 
ATOM     39  C   UNL A   1      47.180  29.284  28.540  1.00  0.00     0.012 A 
ATOM     40  C   UNL A   1      46.211  28.759  26.368  1.00  0.00     0.148 A 
ATOM     41  C   UNL A   1      48.439  28.900  28.083  1.00  0.00     0.002 A 
ATOM     42  C   UNL A   1      47.463  28.351  25.929  1.00  0.00     0.091 A 
ATOM     43  F   UNL A   1      45.145  28.778  25.556  1.00  0.00    -0.205 F 
ATOM     44  C   UNL A   1      48.581  28.434  26.779  1.00  0.00     0.022 A 
BRANCH  42  45
ATOM     45  S   UNL A   1      47.747  27.729  24.270  1.00  0.00     0.127 S 
ATOM     46  O   UNL A   1      47.027  28.709  23.459  1.00  0.00    -0.237 OA
ATOM     47  O   UNL A   1      49.205  27.802  24.164  1.00  0.00    -0.237 OA
ATOM     48  O   UNL A   1      47.202  26.380  24.248  1.00  0.00    -0.744 OA
ENDBRANCH  42  45
ENDBRANCH  24  38
BRANCH  25  49
ATOM     49  C   UNL A   1      36.983  32.623  30.619  1.00  0.00     0.023 A 
ATOM     50  C   UNL A   1      36.558  32.595  31.962  1.00  0.00     0.012 A 
ATOM     51  C   UNL A   1      36.113  33.154  29.644  1.00  0.00     0.148 A 
ATOM     52  C   UNL A   1      35.287  33.053  32.323  1.00  0.00     0.002 A 
ATOM     53  C   UNL A   1      34.863  33.648  30.015  1.00  0.00     0.091 A 
ATOM     54  F   UNL A   1      36.515  33.162  28.365  1.00  0.00    -0.205 F 
ATOM     55  C   UNL A   1      34.443  33.586  31.352  1.00  0.00     0.022 A 
BRANCH  53  56
ATOM     56  S   UNL A   1      33.754  34.440  28.840  1.00  0.00     0.127 S 
ATOM     57  O   UNL A   1      32.689  34.926  29.712  1.00  0.00    -0.237 OA
ATOM     58  O   UNL A   1      34.602  35.487  28.266  1.00  0.00    -0.237 OA
ATOM     59  O   UNL A   1      33.381  33.394  27.896  1.00  0.00    -0.744 OA
ENDBRANCH  53  56
ENDBRANCH  25  49
BRANCH  37  60
ATOM     60  C   UNL A   1      43.311  35.526  29.981  1.00  0.00     0.023 A 
ATOM     61  C   UNL A   1      43.911  35.835  31.217  1.00  0.00     0.012 A 
ATOM     62  C   UNL A   1      43.288  36.484  28.952  1.00  0.00     0.148 A 
ATOM     63  C   UNL A   1      44.466  37.093  31.431  1.00  0.00     0.002 A 
ATOM     64  C   UNL A   1      43.888  37.717  29.155  1.00  0.00     0.091 A 
ATOM     65  F   UNL A   1      42.687  36.169  27.795  1.00  0.00    -0.205 F 
ATOM     66  C   UNL A   1      44.469  38.028  30.397  1.00  0.00     0.022 A 
BRANCH  64  67
ATOM     67  S   UNL A   1      44.033  38.928  27.839  1.00  0.00     0.127 S 
ATOM     68  O   UNL A   1      44.827  38.201  26.851  1.00  0.00    -0.237 OA
ATOM     69  O   UNL A   1      42.636  39.146  27.459  1.00  0.00    -0.237 OA
ATOM     70  O   UNL A   1      44.680  40.089  28.438  1.00  0.00    -0.744 OA
ENDBRANCH  64  67
ENDBRANCH  37  60
ENDBRANCH  11  12
ENDBRANCH   4   6
ENDBRANCH   3   4
ENDBRANCH   2   3
ENDBRANCH   1   2
BRANCH   1  71
ATOM     71  O   UNL A   1      35.070  22.443  24.928  1.00  0.00    -0.458 OA
BRANCH  71  72
ATOM     72  C   UNL A   1      33.912  22.459  25.636  1.00  0.00     0.349 C 
ATOM     73  O   UNL A   1      33.865  22.345  26.859  1.00  0.00    -0.245 OA
BRANCH  72  74
ATOM     74  C   UNL A   1      32.770  22.712  24.778  1.00  0.00     0.133 A 
ATOM     75  S   UNL A   1      32.634  21.688  23.385  1.00  0.00    -0.136 S 
ATOM     76  C   UNL A   1      31.749  23.656  24.800  1.00  0.00     0.113 A 
ATOM     77  C   UNL A   1      31.152  22.382  22.915  1.00  0.00     0.067 A 
ATOM     78  C   UNL A   1      30.829  23.460  23.704  1.00  0.00     0.035 A 
BRANCH  76  79
ATOM     79  S   UNL A   1      31.513  24.924  25.974  1.00  0.00     0.263 S 
ATOM     80  O   UNL A   1      30.359  25.658  25.489  1.00  0.00    -0.201 OA
ATOM     81  O   UNL A   1      31.448  24.274  27.260  1.00  0.00    -0.201 OA
BRANCH  79  82
ATOM     82  N   UNL A   1      32.736  26.079  26.035  1.00  0.00    -0.277 N 
ATOM     83  H   UNL A   1      33.684  25.815  26.036  1.00  0.00     0.180 HD
BRANCH  82  84
ATOM     84  C   UNL A   1      32.359  27.454  26.086  1.00  0.00     0.072 A 
ATOM     85  C   UNL A   1      32.097  28.025  27.336  1.00  0.00     0.029 A 
ATOM     86  C   UNL A   1      32.357  28.224  24.898  1.00  0.00     0.061 A 
ATOM     87  C   UNL A   1      31.835  29.389  27.431  1.00  0.00     0.002 A 
ATOM     88  C   UNL A   1      32.158  29.603  25.042  1.00  0.00     0.028 A 
ATOM     89  C   UNL A   1      31.898  30.181  26.290  1.00  0.00     0.002 A 
BRANCH  86  90
ATOM     90  N   UNL A   1      32.480  27.674  23.631  1.00  0.00    -0.370 N 
ATOM     91  C   UNL A   1      31.388  27.715  22.660  1.00  0.00     0.116 C 
ATOM     92  C   UNL A   1      33.788  27.259  23.120  1.00  0.00     0.116 C 
ATOM     93  C   UNL A   1      31.232  26.376  21.956  1.00  0.00     0.021 C 
ATOM     94  C   UNL A   1      33.643  25.890  22.457  1.00  0.00     0.021 C 
ATOM     95  C   UNL A   1      32.566  25.910  21.376  1.00  0.00     0.004 C 
ENDBRANCH  86  90
ENDBRANCH  82  84
ENDBRANCH  79  82
ENDBRANCH  76  79
ENDBRANCH  72  74
ENDBRANCH  71  72
ENDBRANCH   1  71
TORSDOF 18
ENDMDL
