MODEL 1
REMARK VINA RESULT:     -12.2      0.000      0.000
REMARK SMILES O=C(C[NH+]1CCN(c2ncc(C(F)(F)F)cc2Cl)CC1)OCCOC(=O)c1ccc(-c2c3nc(c(-c4cccc(S(=O)(=O)[O-])c4F)c4ccc([nH]4)c(-c4cccc(S(=O)(=O)[O-])c4F)c4nc(c(-c5cccc(S(=O)(=O)[O-])c5F)c5ccc2[nH]5)C=C4)C=C3)cc1
REMARK SMILES IDX 22 1 21 2 2 3 1 4 3 5 4 6 5 7 20 8 6 10 19 11 7 12 8 13 9 14
REMARK SMILES IDX 17 15 10 16 16 17 18 18 11 19 12 20 13 21 14 22 15 23 23 24
REMARK SMILES IDX 24 25 25 26 26 27 27 28 28 29 89 30 29 31 88 32 30 33 31 34
REMARK SMILES IDX 32 35 82 36 33 37 87 38 81 39 83 40 34 41 86 42 80 43 79 44
REMARK SMILES IDX 35 46 67 47 47 48 66 49 48 50 51 51 65 52 84 53 49 54 50 55
REMARK SMILES IDX 64 57 85 58 52 59 36 60 37 61 45 62 38 63 40 64 46 65 39 66
REMARK SMILES IDX 41 67 42 68 43 69 44 70 68 71 69 72 77 73 70 74 72 75 78 76
REMARK SMILES IDX 71 77 73 78 74 79 75 80 76 81 53 82 54 83 62 84 55 85 57 86
REMARK SMILES IDX 63 87 56 88 58 89 59 90 60 91 61 92
REMARK H PARENT 4 9 83 45 51 56
REMARK Flexibility Score: inf
ROOT
ATOM      1  C   UNL A   1      34.714  20.751  25.055  1.00  0.00     0.274 C 
ENDROOT
BRANCH   1   2
ATOM      2  O   UNL A   1      34.474  22.011  24.387  1.00  0.00    -0.458 OA
BRANCH   2   3
ATOM      3  C   UNL A   1      33.388  22.308  23.630  1.00  0.00     0.361 C 
ATOM      4  O   UNL A   1      32.492  21.475  23.489  1.00  0.00    -0.245 OA
BRANCH   3   5
ATOM      5  C   UNL A   1      33.342  23.636  22.886  1.00  0.00     0.386 C 
BRANCH   5   6
ATOM      6  N   UNL A   1      33.349  24.796  23.786  1.00  0.00    -0.323 N 
ATOM      7  C   UNL A   1      33.674  26.043  23.041  1.00  0.00     0.284 C 
ATOM      8  C   UNL A   1      32.055  24.940  24.496  1.00  0.00     0.284 C 
ATOM      9  H   UNL A   1      34.075  24.637  24.486  1.00  0.00     0.348 HD
ATOM     10  C   UNL A   1      32.547  26.590  22.139  1.00  0.00     0.179 C 
ATOM     11  C   UNL A   1      30.886  25.548  23.679  1.00  0.00     0.179 C 
ATOM     12  N   UNL A   1      31.336  26.706  22.928  1.00  0.00    -0.344 N 
BRANCH  12  13
ATOM     13  C   UNL A   1      30.725  27.929  23.053  1.00  0.00     0.147 A 
ATOM     14  N   UNL A   1      29.848  28.264  22.081  1.00  0.00    -0.237 NA
ATOM     15  C   UNL A   1      30.971  28.796  24.128  1.00  0.00     0.084 A 
ATOM     16  C   UNL A   1      29.192  29.455  22.178  1.00  0.00     0.126 A 
ATOM     17  C   UNL A   1      30.275  29.998  24.215  1.00  0.00     0.039 A 
ATOM     18  Cl  UNL A   1      32.111  28.457  25.382  1.00  0.00    -0.080 Cl
ATOM     19  C   UNL A   1      29.340  30.337  23.237  1.00  0.00     0.075 A 
BRANCH  19  20
ATOM     20  C   UNL A   1      28.508  31.579  23.360  1.00  0.00     0.417 C 
ATOM     21  F   UNL A   1      27.303  31.408  23.949  1.00  0.00    -0.166 F 
ATOM     22  F   UNL A   1      29.155  32.602  23.978  1.00  0.00    -0.166 F 
ATOM     23  F   UNL A   1      28.211  32.084  22.114  1.00  0.00    -0.166 F 
ENDBRANCH  19  20
ENDBRANCH  12  13
ENDBRANCH   5   6
ENDBRANCH   3   5
ENDBRANCH   2   3
ENDBRANCH   1   2
BRANCH   1  24
ATOM     24  C   UNL A   1      36.180  20.328  24.986  1.00  0.00     0.275 C 
BRANCH  24  25
ATOM     25  O   UNL A   1      37.033  21.321  25.581  1.00  0.00    -0.458 OA
BRANCH  25  26
ATOM     26  C   UNL A   1      38.332  20.971  25.750  1.00  0.00     0.338 C 
ATOM     27  O   UNL A   1      38.856  19.924  25.409  1.00  0.00    -0.246 OA
BRANCH  26  28
ATOM     28  C   UNL A   1      39.086  22.150  26.236  1.00  0.00     0.060 A 
ATOM     29  C   UNL A   1      38.542  23.421  26.004  1.00  0.00     0.016 A 
ATOM     30  C   UNL A   1      40.271  22.017  26.969  1.00  0.00     0.016 A 
ATOM     31  C   UNL A   1      39.186  24.561  26.491  1.00  0.00     0.010 A 
ATOM     32  C   UNL A   1      40.918  23.159  27.447  1.00  0.00     0.010 A 
ATOM     33  C   UNL A   1      40.391  24.437  27.196  1.00  0.00    -0.014 A 
BRANCH  33  34
ATOM     34  C   UNL A   1      41.178  25.641  27.555  1.00  0.00     0.031 A 
ATOM     35  C   UNL A   1      40.502  26.744  28.320  1.00  0.00     0.074 A 
ATOM     36  C   UNL A   1      42.458  25.781  27.167  1.00  0.00     0.049 A 
ATOM     37  N   UNL A   1      40.988  27.890  28.720  1.00  0.00    -0.248 NA
ATOM     38  C   UNL A   1      39.091  26.528  28.680  1.00  0.00     0.031 C 
ATOM     39  C   UNL A   1      43.228  24.800  26.407  1.00  0.00     0.029 A 
ATOM     40  N   UNL A   1      43.327  26.831  27.333  1.00  0.00    -0.354 N 
ATOM     41  C   UNL A   1      39.943  28.538  29.364  1.00  0.00     0.074 A 
ATOM     42  C   UNL A   1      38.790  27.666  29.287  1.00  0.00     0.031 C 
ATOM     43  C   UNL A   1      44.441  25.311  26.129  1.00  0.00     0.029 A 
ATOM     44  C   UNL A   1      44.534  26.653  26.699  1.00  0.00     0.049 A 
ATOM     45  H   UNL A   1      43.107  27.635  27.857  1.00  0.00     0.167 HD
ATOM     46  C   UNL A   1      39.946  29.740  29.984  1.00  0.00     0.034 A 
ATOM     47  C   UNL A   1      45.589  27.484  26.589  1.00  0.00     0.034 A 
ATOM     48  C   UNL A   1      41.088  30.605  30.077  1.00  0.00     0.049 A 
ATOM     49  C   UNL A   1      45.553  28.832  27.259  1.00  0.00     0.074 A 
ATOM     50  C   UNL A   1      41.203  31.808  30.752  1.00  0.00     0.029 A 
ATOM     51  N   UNL A   1      42.306  30.373  29.460  1.00  0.00    -0.354 N 
ATOM     52  N   UNL A   1      44.614  29.359  28.005  1.00  0.00    -0.248 NA
ATOM     53  C   UNL A   1      46.741  29.686  27.095  1.00  0.00     0.031 C 
ATOM     54  C   UNL A   1      42.486  32.315  30.524  1.00  0.00     0.029 A 
ATOM     55  C   UNL A   1      43.173  31.421  29.720  1.00  0.00     0.049 A 
ATOM     56  H   UNL A   1      42.524  29.581  28.918  1.00  0.00     0.167 HD
ATOM     57  C   UNL A   1      45.110  30.586  28.428  1.00  0.00     0.074 A 
ATOM     58  C   UNL A   1      46.438  30.720  27.868  1.00  0.00     0.031 C 
ATOM     59  C   UNL A   1      44.512  31.525  29.201  1.00  0.00     0.034 A 
BRANCH  46  60
ATOM     60  C   UNL A   1      38.673  30.174  30.656  1.00  0.00     0.023 A 
ATOM     61  C   UNL A   1      38.440  29.805  31.995  1.00  0.00     0.012 A 
ATOM     62  C   UNL A   1      37.740  30.987  29.985  1.00  0.00     0.148 A 
ATOM     63  C   UNL A   1      37.284  30.219  32.653  1.00  0.00     0.002 A 
ATOM     64  C   UNL A   1      36.606  31.425  30.659  1.00  0.00     0.091 A 
ATOM     65  F   UNL A   1      37.968  31.300  28.702  1.00  0.00    -0.205 F 
ATOM     66  C   UNL A   1      36.374  31.037  31.989  1.00  0.00     0.022 A 
BRANCH  64  67
ATOM     67  S   UNL A   1      35.409  32.533  29.907  1.00  0.00     0.127 S 
ATOM     68  O   UNL A   1      34.405  32.640  30.963  1.00  0.00    -0.237 OA
ATOM     69  O   UNL A   1      36.200  33.746  29.693  1.00  0.00    -0.237 OA
ATOM     70  O   UNL A   1      34.969  31.875  28.686  1.00  0.00    -0.744 OA
ENDBRANCH  64  67
ENDBRANCH  46  60
BRANCH  47  71
ATOM     71  C   UNL A   1      46.801  27.064  25.842  1.00  0.00     0.023 A 
ATOM     72  C   UNL A   1      47.766  26.266  26.486  1.00  0.00     0.012 A 
ATOM     73  C   UNL A   1      47.025  27.486  24.521  1.00  0.00     0.148 A 
ATOM     74  C   UNL A   1      48.950  25.919  25.835  1.00  0.00     0.002 A 
ATOM     75  C   UNL A   1      48.191  27.109  23.867  1.00  0.00     0.091 A 
ATOM     76  F   UNL A   1      46.109  28.269  23.933  1.00  0.00    -0.205 F 
ATOM     77  C   UNL A   1      49.160  26.336  24.523  1.00  0.00     0.022 A 
BRANCH  75  78
ATOM     78  S   UNL A   1      48.456  27.521  22.142  1.00  0.00     0.127 S 
ATOM     79  O   UNL A   1      47.214  28.199  21.790  1.00  0.00    -0.237 OA
ATOM     80  O   UNL A   1      49.640  28.378  22.212  1.00  0.00    -0.237 OA
ATOM     81  O   UNL A   1      48.712  26.241  21.495  1.00  0.00    -0.744 OA
ENDBRANCH  75  78
ENDBRANCH  47  71
BRANCH  59  82
ATOM     82  C   UNL A   1      45.287  32.776  29.516  1.00  0.00     0.023 A 
ATOM     83  C   UNL A   1      46.161  32.794  30.621  1.00  0.00     0.012 A 
ATOM     84  C   UNL A   1      45.216  33.900  28.670  1.00  0.00     0.148 A 
ATOM     85  C   UNL A   1      46.938  33.919  30.890  1.00  0.00     0.002 A 
ATOM     86  C   UNL A   1      46.027  35.001  28.919  1.00  0.00     0.091 A 
ATOM     87  F   UNL A   1      44.362  33.871  27.636  1.00  0.00    -0.205 F 
ATOM     88  C   UNL A   1      46.882  35.016  30.033  1.00  0.00     0.022 A 
BRANCH  86  89
ATOM     89  S   UNL A   1      46.088  36.420  27.818  1.00  0.00     0.127 S 
ATOM     90  O   UNL A   1      46.608  37.462  28.701  1.00  0.00    -0.237 OA
ATOM     91  O   UNL A   1      47.024  35.972  26.785  1.00  0.00    -0.237 OA
ATOM     92  O   UNL A   1      44.724  36.621  27.348  1.00  0.00    -0.744 OA
ENDBRANCH  86  89
ENDBRANCH  59  82
ENDBRANCH  33  34
ENDBRANCH  26  28
ENDBRANCH  25  26
ENDBRANCH  24  25
ENDBRANCH   1  24
TORSDOF 17
ENDMDL
MODEL 2
REMARK VINA RESULT:     -12.2      6.025      8.476
REMARK SMILES O=C(C[NH+]1CCN(c2ncc(C(F)(F)F)cc2Cl)CC1)OCCOC(=O)c1ccc(-c2c3nc(c(-c4cccc(S(=O)(=O)[O-])c4F)c4ccc([nH]4)c(-c4cccc(S(=O)(=O)[O-])c4F)c4nc(c(-c5cccc(S(=O)(=O)[O-])c5F)c5ccc2[nH]5)C=C4)C=C3)cc1
REMARK SMILES IDX 22 1 21 2 2 3 1 4 3 5 4 6 5 7 20 8 6 10 19 11 7 12 8 13 9 14
REMARK SMILES IDX 17 15 10 16 16 17 18 18 11 19 12 20 13 21 14 22 15 23 23 24
REMARK SMILES IDX 24 25 25 26 26 27 27 28 28 29 89 30 29 31 88 32 30 33 31 34
REMARK SMILES IDX 32 35 82 36 33 37 87 38 81 39 83 40 34 41 86 42 80 43 79 44
REMARK SMILES IDX 35 46 67 47 47 48 66 49 48 50 51 51 65 52 84 53 49 54 50 55
REMARK SMILES IDX 64 57 85 58 52 59 36 60 37 61 45 62 38 63 40 64 46 65 39 66
REMARK SMILES IDX 41 67 42 68 43 69 44 70 68 71 69 72 77 73 70 74 72 75 78 76
REMARK SMILES IDX 71 77 73 78 74 79 75 80 76 81 53 82 54 83 62 84 55 85 57 86
REMARK SMILES IDX 63 87 56 88 58 89 59 90 60 91 61 92
REMARK H PARENT 4 9 83 45 51 56
REMARK Flexibility Score: inf
ROOT
ATOM      1  C   UNL A   1      32.299  29.200  25.041  1.00  0.00     0.274 C 
ENDROOT
BRANCH   1   2
ATOM      2  O   UNL A   1      31.431  28.056  25.206  1.00  0.00    -0.458 OA
BRANCH   2   3
ATOM      3  C   UNL A   1      31.543  27.114  26.175  1.00  0.00     0.361 C 
ATOM      4  O   UNL A   1      31.020  27.299  27.275  1.00  0.00    -0.245 OA
BRANCH   3   5
ATOM      5  C   UNL A   1      32.400  25.881  25.919  1.00  0.00     0.386 C 
BRANCH   5   6
ATOM      6  N   UNL A   1      31.605  24.660  25.738  1.00  0.00    -0.323 N 
ATOM      7  C   UNL A   1      31.859  24.055  24.402  1.00  0.00     0.284 C 
ATOM      8  C   UNL A   1      31.875  23.674  26.812  1.00  0.00     0.284 C 
ATOM      9  H   UNL A   1      30.621  24.924  25.794  1.00  0.00     0.348 HD
ATOM     10  C   UNL A   1      33.220  23.345  24.243  1.00  0.00     0.179 C 
ATOM     11  C   UNL A   1      33.193  22.866  26.689  1.00  0.00     0.179 C 
ATOM     12  N   UNL A   1      33.379  22.397  25.328  1.00  0.00    -0.344 N 
BRANCH  12  13
ATOM     13  C   UNL A   1      33.566  21.067  25.043  1.00  0.00     0.147 A 
ATOM     14  N   UNL A   1      32.456  20.355  24.746  1.00  0.00    -0.237 NA
ATOM     15  C   UNL A   1      34.830  20.460  25.041  1.00  0.00     0.084 A 
ATOM     16  C   UNL A   1      32.594  19.038  24.424  1.00  0.00     0.126 A 
ATOM     17  C   UNL A   1      34.947  19.118  24.690  1.00  0.00     0.039 A 
ATOM     18  Cl  UNL A   1      36.287  21.293  25.455  1.00  0.00    -0.080 Cl
ATOM     19  C   UNL A   1      33.813  18.383  24.346  1.00  0.00     0.075 A 
BRANCH  19  20
ATOM     20  C   UNL A   1      33.925  16.965  23.871  1.00  0.00     0.417 C 
ATOM     21  F   UNL A   1      32.852  16.184  24.134  1.00  0.00    -0.166 F 
ATOM     22  F   UNL A   1      34.229  16.860  22.551  1.00  0.00    -0.166 F 
ATOM     23  F   UNL A   1      34.972  16.329  24.500  1.00  0.00    -0.166 F 
ENDBRANCH  19  20
ENDBRANCH  12  13
ENDBRANCH   5   6
ENDBRANCH   3   5
ENDBRANCH   2   3
ENDBRANCH   1   2
BRANCH   1  24
ATOM     24  C   UNL A   1      31.740  30.455  25.711  1.00  0.00     0.275 C 
BRANCH  24  25
ATOM     25  O   UNL A   1      32.291  30.625  27.028  1.00  0.00    -0.458 OA
BRANCH  25  26
ATOM     26  C   UNL A   1      33.066  31.722  27.215  1.00  0.00     0.338 C 
ATOM     27  O   UNL A   1      32.731  32.886  27.071  1.00  0.00    -0.246 OA
BRANCH  26  28
ATOM     28  C   UNL A   1      34.349  31.304  27.828  1.00  0.00     0.060 A 
ATOM     29  C   UNL A   1      34.564  29.934  28.031  1.00  0.00     0.016 A 
ATOM     30  C   UNL A   1      35.354  32.226  28.136  1.00  0.00     0.016 A 
ATOM     31  C   UNL A   1      35.779  29.484  28.554  1.00  0.00     0.010 A 
ATOM     32  C   UNL A   1      36.565  31.775  28.668  1.00  0.00     0.010 A 
ATOM     33  C   UNL A   1      36.778  30.405  28.897  1.00  0.00    -0.014 A 
BRANCH  33  34
ATOM     34  C   UNL A   1      37.992  29.961  29.622  1.00  0.00     0.031 A 
ATOM     35  C   UNL A   1      38.260  30.518  30.992  1.00  0.00     0.074 A 
ATOM     36  C   UNL A   1      38.874  29.115  29.058  1.00  0.00     0.049 A 
ATOM     37  N   UNL A   1      39.265  30.288  31.795  1.00  0.00    -0.248 NA
ATOM     38  C   UNL A   1      37.265  31.463  31.525  1.00  0.00     0.031 C 
ATOM     39  C   UNL A   1      38.747  28.515  27.733  1.00  0.00     0.029 A 
ATOM     40  N   UNL A   1      40.075  28.642  29.525  1.00  0.00    -0.354 N 
ATOM     41  C   UNL A   1      39.034  31.067  32.920  1.00  0.00     0.074 A 
ATOM     42  C   UNL A   1      37.802  31.791  32.691  1.00  0.00     0.031 C 
ATOM     43  C   UNL A   1      39.849  27.790  27.470  1.00  0.00     0.029 A 
ATOM     44  C   UNL A   1      40.755  27.871  28.613  1.00  0.00     0.049 A 
ATOM     45  H   UNL A   1      40.417  28.837  30.427  1.00  0.00     0.167 HD
ATOM     46  C   UNL A   1      39.767  31.157  34.054  1.00  0.00     0.034 A 
ATOM     47  C   UNL A   1      41.974  27.301  28.694  1.00  0.00     0.034 A 
ATOM     48  C   UNL A   1      40.983  30.432  34.296  1.00  0.00     0.049 A 
ATOM     49  C   UNL A   1      42.786  27.446  29.953  1.00  0.00     0.074 A 
ATOM     50  C   UNL A   1      41.752  30.404  35.446  1.00  0.00     0.029 A 
ATOM     51  N   UNL A   1      41.620  29.626  33.367  1.00  0.00    -0.354 N 
ATOM     52  N   UNL A   1      42.474  28.052  31.072  1.00  0.00    -0.248 NA
ATOM     53  C   UNL A   1      44.107  26.798  29.969  1.00  0.00     0.031 C 
ATOM     54  C   UNL A   1      42.869  29.597  35.204  1.00  0.00     0.029 A 
ATOM     55  C   UNL A   1      42.786  29.112  33.909  1.00  0.00     0.049 A 
ATOM     56  H   UNL A   1      41.294  29.446  32.456  1.00  0.00     0.167 HD
ATOM     57  C   UNL A   1      43.541  27.828  31.935  1.00  0.00     0.074 A 
ATOM     58  C   UNL A   1      44.502  27.019  31.216  1.00  0.00     0.031 C 
ATOM     59  C   UNL A   1      43.714  28.266  33.206  1.00  0.00     0.034 A 
BRANCH  46  60
ATOM     60  C   UNL A   1      39.244  32.045  35.147  1.00  0.00     0.023 A 
ATOM     61  C   UNL A   1      39.346  33.443  35.007  1.00  0.00     0.012 A 
ATOM     62  C   UNL A   1      38.609  31.504  36.281  1.00  0.00     0.148 A 
ATOM     63  C   UNL A   1      38.842  34.292  35.990  1.00  0.00     0.002 A 
ATOM     64  C   UNL A   1      38.078  32.358  37.239  1.00  0.00     0.091 A 
ATOM     65  F   UNL A   1      38.551  30.171  36.407  1.00  0.00    -0.205 F 
ATOM     66  C   UNL A   1      38.199  33.750  37.099  1.00  0.00     0.022 A 
BRANCH  64  67
ATOM     67  S   UNL A   1      37.176  31.754  38.671  1.00  0.00     0.127 S 
ATOM     68  O   UNL A   1      35.983  32.598  38.643  1.00  0.00    -0.237 OA
ATOM     69  O   UNL A   1      36.939  30.353  38.319  1.00  0.00    -0.237 OA
ATOM     70  O   UNL A   1      38.059  31.952  39.810  1.00  0.00    -0.744 OA
ENDBRANCH  64  67
ENDBRANCH  46  60
BRANCH  47  71
ATOM     71  C   UNL A   1      42.506  26.501  27.562  1.00  0.00     0.023 A 
ATOM     72  C   UNL A   1      43.311  27.128  26.592  1.00  0.00     0.012 A 
ATOM     73  C   UNL A   1      42.183  25.142  27.416  1.00  0.00     0.148 A 
ATOM     74  C   UNL A   1      43.763  26.420  25.478  1.00  0.00     0.002 A 
ATOM     75  C   UNL A   1      42.663  24.434  26.322  1.00  0.00     0.091 A 
ATOM     76  F   UNL A   1      41.390  24.568  28.333  1.00  0.00    -0.205 F 
ATOM     77  C   UNL A   1      43.444  25.071  25.346  1.00  0.00     0.022 A 
BRANCH  75  78
ATOM     78  S   UNL A   1      42.378  22.671  26.165  1.00  0.00     0.127 S 
ATOM     79  O   UNL A   1      42.954  22.153  27.401  1.00  0.00    -0.237 OA
ATOM     80  O   UNL A   1      40.919  22.604  26.078  1.00  0.00    -0.237 OA
ATOM     81  O   UNL A   1      43.044  22.301  24.923  1.00  0.00    -0.744 OA
ENDBRANCH  75  78
ENDBRANCH  47  71
BRANCH  59  82
ATOM     82  C   UNL A   1      44.975  27.867  33.922  1.00  0.00     0.023 A 
ATOM     83  C   UNL A   1      46.094  28.725  33.890  1.00  0.00     0.012 A 
ATOM     84  C   UNL A   1      45.025  26.692  34.697  1.00  0.00     0.148 A 
ATOM     85  C   UNL A   1      47.250  28.407  34.602  1.00  0.00     0.002 A 
ATOM     86  C   UNL A   1      46.165  26.405  35.439  1.00  0.00     0.091 A 
ATOM     87  F   UNL A   1      43.958  25.880  34.696  1.00  0.00    -0.205 F 
ATOM     88  C   UNL A   1      47.281  27.256  35.386  1.00  0.00     0.022 A 
BRANCH  86  89
ATOM     89  S   UNL A   1      46.259  24.994  36.548  1.00  0.00     0.127 S 
ATOM     90  O   UNL A   1      46.188  23.873  35.612  1.00  0.00    -0.237 OA
ATOM     91  O   UNL A   1      47.568  25.180  37.177  1.00  0.00    -0.237 OA
ATOM     92  O   UNL A   1      45.130  25.123  37.458  1.00  0.00    -0.744 OA
ENDBRANCH  86  89
ENDBRANCH  59  82
ENDBRANCH  33  34
ENDBRANCH  26  28
ENDBRANCH  25  26
ENDBRANCH  24  25
ENDBRANCH   1  24
TORSDOF 17
ENDMDL
MODEL 3
REMARK VINA RESULT:     -12.1      1.590      2.031
REMARK SMILES O=C(C[NH+]1CCN(c2ncc(C(F)(F)F)cc2Cl)CC1)OCCOC(=O)c1ccc(-c2c3nc(c(-c4cccc(S(=O)(=O)[O-])c4F)c4ccc([nH]4)c(-c4cccc(S(=O)(=O)[O-])c4F)c4nc(c(-c5cccc(S(=O)(=O)[O-])c5F)c5ccc2[nH]5)C=C4)C=C3)cc1
REMARK SMILES IDX 22 1 21 2 2 3 1 4 3 5 4 6 5 7 20 8 6 10 19 11 7 12 8 13 9 14
REMARK SMILES IDX 17 15 10 16 16 17 18 18 11 19 12 20 13 21 14 22 15 23 23 24
REMARK SMILES IDX 24 25 25 26 26 27 27 28 28 29 89 30 29 31 88 32 30 33 31 34
REMARK SMILES IDX 32 35 82 36 33 37 87 38 81 39 83 40 34 41 86 42 80 43 79 44
REMARK SMILES IDX 35 46 67 47 47 48 66 49 48 50 51 51 65 52 84 53 49 54 50 55
REMARK SMILES IDX 64 57 85 58 52 59 36 60 37 61 45 62 38 63 40 64 46 65 39 66
REMARK SMILES IDX 41 67 42 68 43 69 44 70 68 71 69 72 77 73 70 74 72 75 78 76
REMARK SMILES IDX 71 77 73 78 74 79 75 80 76 81 53 82 54 83 62 84 55 85 57 86
REMARK SMILES IDX 63 87 56 88 58 89 59 90 60 91 61 92
REMARK H PARENT 4 9 83 45 51 56
REMARK Flexibility Score: inf
ROOT
ATOM      1  C   UNL A   1      35.195  20.971  24.629  1.00  0.00     0.274 C 
ENDROOT
BRANCH   1   2
ATOM      2  O   UNL A   1      34.113  20.337  25.348  1.00  0.00    -0.458 OA
BRANCH   2   3
ATOM      3  C   UNL A   1      32.837  20.793  25.417  1.00  0.00     0.361 C 
ATOM      4  O   UNL A   1      31.902  20.047  25.126  1.00  0.00    -0.245 OA
BRANCH   3   5
ATOM      5  C   UNL A   1      32.588  22.256  25.762  1.00  0.00     0.386 C 
BRANCH   5   6
ATOM      6  N   UNL A   1      31.334  22.770  25.197  1.00  0.00    -0.323 N 
ATOM      7  C   UNL A   1      30.756  23.831  26.067  1.00  0.00     0.284 C 
ATOM      8  C   UNL A   1      31.529  23.280  23.818  1.00  0.00     0.284 C 
ATOM      9  H   UNL A   1      30.675  21.992  25.153  1.00  0.00     0.348 HD
ATOM     10  C   UNL A   1      31.483  25.193  26.023  1.00  0.00     0.179 C 
ATOM     11  C   UNL A   1      32.191  24.676  23.688  1.00  0.00     0.179 C 
ATOM     12  N   UNL A   1      31.610  25.607  24.639  1.00  0.00    -0.344 N 
BRANCH  12  13
ATOM     13  C   UNL A   1      31.062  26.800  24.237  1.00  0.00     0.147 A 
ATOM     14  N   UNL A   1      29.810  26.746  23.731  1.00  0.00    -0.237 NA
ATOM     15  C   UNL A   1      31.740  28.023  24.347  1.00  0.00     0.084 A 
ATOM     16  C   UNL A   1      29.211  27.909  23.349  1.00  0.00     0.126 A 
ATOM     17  C   UNL A   1      31.100  29.200  23.967  1.00  0.00     0.039 A 
ATOM     18  Cl  UNL A   1      33.357  28.166  24.940  1.00  0.00    -0.080 Cl
ATOM     19  C   UNL A   1      29.794  29.159  23.479  1.00  0.00     0.075 A 
BRANCH  19  20
ATOM     20  C   UNL A   1      29.051  30.422  23.155  1.00  0.00     0.417 C 
ATOM     21  F   UNL A   1      29.412  31.021  21.997  1.00  0.00    -0.166 F 
ATOM     22  F   UNL A   1      27.700  30.270  23.164  1.00  0.00    -0.166 F 
ATOM     23  F   UNL A   1      29.280  31.376  24.119  1.00  0.00    -0.166 F 
ENDBRANCH  19  20
ENDBRANCH  12  13
ENDBRANCH   5   6
ENDBRANCH   3   5
ENDBRANCH   2   3
ENDBRANCH   1   2
BRANCH   1  24
ATOM     24  C   UNL A   1      36.562  20.426  25.036  1.00  0.00     0.275 C 
BRANCH  24  25
ATOM     25  O   UNL A   1      37.341  21.433  25.704  1.00  0.00    -0.458 OA
BRANCH  25  26
ATOM     26  C   UNL A   1      38.630  21.110  25.974  1.00  0.00     0.338 C 
ATOM     27  O   UNL A   1      39.189  20.057  25.716  1.00  0.00    -0.246 OA
BRANCH  26  28
ATOM     28  C   UNL A   1      39.336  22.321  26.457  1.00  0.00     0.060 A 
ATOM     29  C   UNL A   1      38.819  23.572  26.094  1.00  0.00     0.016 A 
ATOM     30  C   UNL A   1      40.444  22.239  27.307  1.00  0.00     0.016 A 
ATOM     31  C   UNL A   1      39.414  24.742  26.570  1.00  0.00     0.010 A 
ATOM     32  C   UNL A   1      41.044  23.411  27.774  1.00  0.00     0.010 A 
ATOM     33  C   UNL A   1      40.545  24.669  27.394  1.00  0.00    -0.014 A 
BRANCH  33  34
ATOM     34  C   UNL A   1      41.295  25.896  27.751  1.00  0.00     0.031 A 
ATOM     35  C   UNL A   1      40.581  26.987  28.498  1.00  0.00     0.074 A 
ATOM     36  C   UNL A   1      42.576  26.067  27.377  1.00  0.00     0.049 A 
ATOM     37  N   UNL A   1      41.032  28.149  28.893  1.00  0.00    -0.248 NA
ATOM     38  C   UNL A   1      39.172  26.737  28.842  1.00  0.00     0.031 C 
ATOM     39  C   UNL A   1      43.381  25.100  26.636  1.00  0.00     0.029 A 
ATOM     40  N   UNL A   1      43.415  27.141  27.545  1.00  0.00    -0.354 N 
ATOM     41  C   UNL A   1      39.962  28.775  29.518  1.00  0.00     0.074 A 
ATOM     42  C   UNL A   1      38.834  27.872  29.436  1.00  0.00     0.031 C 
ATOM     43  C   UNL A   1      44.583  25.640  26.368  1.00  0.00     0.029 A 
ATOM     44  C   UNL A   1      44.634  26.989  26.927  1.00  0.00     0.049 A 
ATOM     45  H   UNL A   1      43.168  27.943  28.058  1.00  0.00     0.167 HD
ATOM     46  C   UNL A   1      39.926  29.982  30.128  1.00  0.00     0.034 A 
ATOM     47  C   UNL A   1      45.668  27.847  26.822  1.00  0.00     0.034 A 
ATOM     48  C   UNL A   1      41.043  30.878  30.227  1.00  0.00     0.049 A 
ATOM     49  C   UNL A   1      45.588  29.199  27.479  1.00  0.00     0.074 A 
ATOM     50  C   UNL A   1      41.118  32.089  30.892  1.00  0.00     0.029 A 
ATOM     51  N   UNL A   1      42.275  30.673  29.627  1.00  0.00    -0.354 N 
ATOM     52  N   UNL A   1      44.626  29.707  28.209  1.00  0.00    -0.248 NA
ATOM     53  C   UNL A   1      46.755  30.083  27.322  1.00  0.00     0.031 C 
ATOM     54  C   UNL A   1      42.390  32.629  30.675  1.00  0.00     0.029 A 
ATOM     55  C   UNL A   1      43.110  31.745  29.888  1.00  0.00     0.049 A 
ATOM     56  H   UNL A   1      42.520  29.883  29.095  1.00  0.00     0.167 HD
ATOM     57  C   UNL A   1      45.085  30.951  28.627  1.00  0.00     0.074 A 
ATOM     58  C   UNL A   1      46.415  31.116  28.082  1.00  0.00     0.031 C 
ATOM     59  C   UNL A   1      44.452  31.880  29.385  1.00  0.00     0.034 A 
BRANCH  46  60
ATOM     60  C   UNL A   1      38.634  30.388  30.780  1.00  0.00     0.023 A 
ATOM     61  C   UNL A   1      38.407  30.050  32.129  1.00  0.00     0.012 A 
ATOM     62  C   UNL A   1      37.675  31.145  30.081  1.00  0.00     0.148 A 
ATOM     63  C   UNL A   1      37.232  30.441  32.768  1.00  0.00     0.002 A 
ATOM     64  C   UNL A   1      36.522  31.560  30.736  1.00  0.00     0.091 A 
ATOM     65  F   UNL A   1      37.899  31.428  28.790  1.00  0.00    -0.205 F 
ATOM     66  C   UNL A   1      36.296  31.203  32.076  1.00  0.00     0.022 A 
BRANCH  64  67
ATOM     67  S   UNL A   1      35.289  32.600  29.945  1.00  0.00     0.127 S 
ATOM     68  O   UNL A   1      36.097  33.743  29.523  1.00  0.00    -0.237 OA
ATOM     69  O   UNL A   1      34.820  31.747  28.852  1.00  0.00    -0.237 OA
ATOM     70  O   UNL A   1      34.290  32.879  30.966  1.00  0.00    -0.744 OA
ENDBRANCH  64  67
ENDBRANCH  46  60
BRANCH  47  71
ATOM     71  C   UNL A   1      46.900  27.453  26.094  1.00  0.00     0.023 A 
ATOM     72  C   UNL A   1      46.996  27.706  24.712  1.00  0.00     0.012 A 
ATOM     73  C   UNL A   1      47.953  26.791  26.748  1.00  0.00     0.148 A 
ATOM     74  C   UNL A   1      48.109  27.279  23.987  1.00  0.00     0.002 A 
ATOM     75  C   UNL A   1      49.073  26.399  26.027  1.00  0.00     0.091 A 
ATOM     76  F   UNL A   1      47.833  26.532  28.059  1.00  0.00    -0.205 F 
ATOM     77  C   UNL A   1      49.151  26.631  24.646  1.00  0.00     0.022 A 
BRANCH  75  78
ATOM     78  S   UNL A   1      50.489  25.667  26.847  1.00  0.00     0.127 S 
ATOM     79  O   UNL A   1      49.923  24.448  27.414  1.00  0.00    -0.237 OA
ATOM     80  O   UNL A   1      51.417  25.468  25.734  1.00  0.00    -0.237 OA
ATOM     81  O   UNL A   1      50.934  26.685  27.790  1.00  0.00    -0.744 OA
ENDBRANCH  75  78
ENDBRANCH  47  71
BRANCH  59  82
ATOM     82  C   UNL A   1      45.190  33.154  29.697  1.00  0.00     0.023 A 
ATOM     83  C   UNL A   1      46.014  33.219  30.838  1.00  0.00     0.012 A 
ATOM     84  C   UNL A   1      45.137  34.253  28.817  1.00  0.00     0.148 A 
ATOM     85  C   UNL A   1      46.758  34.367  31.110  1.00  0.00     0.002 A 
ATOM     86  C   UNL A   1      45.916  35.376  29.070  1.00  0.00     0.091 A 
ATOM     87  F   UNL A   1      44.330  34.179  27.748  1.00  0.00    -0.205 F 
ATOM     88  C   UNL A   1      46.720  35.438  30.220  1.00  0.00     0.022 A 
BRANCH  86  89
ATOM     89  S   UNL A   1      46.000  36.765  27.933  1.00  0.00     0.127 S 
ATOM     90  O   UNL A   1      44.646  37.308  28.024  1.00  0.00    -0.237 OA
ATOM     91  O   UNL A   1      47.035  37.603  28.540  1.00  0.00    -0.237 OA
ATOM     92  O   UNL A   1      46.363  36.202  26.640  1.00  0.00    -0.744 OA
ENDBRANCH  86  89
ENDBRANCH  59  82
ENDBRANCH  33  34
ENDBRANCH  26  28
ENDBRANCH  25  26
ENDBRANCH  24  25
ENDBRANCH   1  24
TORSDOF 17
ENDMDL
