MODEL 1
REMARK VINA RESULT:     -12.6      0.000      0.000
REMARK SMILES CC(C)CCc1cc2c(cc1Cl)C=C(C(=O)OCCOC(=O)c1ccc(-c3c4nc(c(-c5cccc(S(=O)(=O)[O-])c5F)c5ccc([nH]5)c(-c5cccc(S(=O)(=O)[O-])c5F)c5nc(c(-c6cccc(S(=O)(=O)[O-])c6F)c6ccc3[nH]6)C=C5)C=C4)cc1)[C@H](C(F)(F)F)O2
REMARK SMILES IDX 18 1 17 2 15 3 16 4 14 5 6 6 7 7 11 8 8 9 10 10 12 11 9 12
REMARK SMILES IDX 91 13 13 14 86 15 5 16 4 17 2 18 1 19 3 20 87 21 88 22 89 23
REMARK SMILES IDX 90 24 19 25 20 26 21 27 22 28 23 29 24 30 85 31 25 32 84 33
REMARK SMILES IDX 26 34 27 35 28 36 78 37 29 38 83 39 77 40 79 41 30 42 82 43
REMARK SMILES IDX 76 44 75 45 31 47 63 48 43 49 62 50 44 51 47 52 61 53 80 54
REMARK SMILES IDX 45 55 46 56 60 58 81 59 48 60 32 61 33 62 41 63 34 64 36 65
REMARK SMILES IDX 42 66 35 67 37 68 38 69 39 70 40 71 64 72 65 73 73 74 66 75
REMARK SMILES IDX 68 76 74 77 67 78 69 79 70 80 71 81 72 82 49 83 50 84 58 85
REMARK SMILES IDX 51 86 53 87 59 88 52 89 54 90 55 91 56 92 57 93
REMARK H PARENT 79 46 47 57
REMARK Flexibility Score: inf
ROOT
ATOM      1  C   UNL A   1      31.926  29.460  24.873  1.00  0.00     0.275 C 
ENDROOT
BRANCH   1   2
ATOM      2  O   UNL A   1      33.083  28.609  25.017  1.00  0.00    -0.459 OA
BRANCH   2   3
ATOM      3  C   UNL A   1      33.659  28.183  23.872  1.00  0.00     0.338 C 
ATOM      4  O   UNL A   1      34.287  28.879  23.093  1.00  0.00    -0.246 OA
BRANCH   3   5
ATOM      5  C   UNL A   1      33.519  26.718  23.727  1.00  0.00     0.087 C 
ATOM      6  C   UNL A   1      33.642  21.770  24.625  1.00  0.00    -0.026 A 
ATOM      7  C   UNL A   1      33.619  22.557  23.451  1.00  0.00     0.052 A 
ATOM      8  C   UNL A   1      33.533  22.417  25.868  1.00  0.00     0.045 A 
ATOM      9  C   UNL A   1      33.601  23.947  23.523  1.00  0.00     0.128 A 
ATOM     10  C   UNL A   1      33.532  23.809  25.936  1.00  0.00     0.032 A 
ATOM     11  Cl  UNL A   1      33.438  21.559  27.364  1.00  0.00    -0.084 Cl
ATOM     12  C   UNL A   1      33.615  24.566  24.767  1.00  0.00     0.019 A 
ATOM     13  O   UNL A   1      33.664  24.657  22.351  1.00  0.00    -0.475 OA
ATOM     14  C   UNL A   1      33.785  26.000  24.827  1.00  0.00     0.027 C 
ATOM     15  C   UNL A   1      33.209  26.055  22.410  1.00  0.00     0.316 C 
BRANCH   6  16
ATOM     16  C   UNL A   1      33.850  20.275  24.509  1.00  0.00     0.037 C 
BRANCH  16  17
ATOM     17  C   UNL A   1      32.616  19.519  23.978  1.00  0.00     0.008 C 
BRANCH  17  18
ATOM     18  C   UNL A   1      32.643  17.987  24.173  1.00  0.00    -0.017 C 
ATOM     19  C   UNL A   1      33.699  17.304  23.305  1.00  0.00     0.007 C 
ATOM     20  C   UNL A   1      32.888  17.658  25.649  1.00  0.00     0.007 C 
ENDBRANCH  17  18
ENDBRANCH  16  17
ENDBRANCH   6  16
BRANCH  15  21
ATOM     21  C   UNL A   1      31.753  26.120  21.913  1.00  0.00     0.430 C 
ATOM     22  F   UNL A   1      30.963  25.187  22.484  1.00  0.00    -0.167 F 
ATOM     23  F   UNL A   1      31.183  27.329  22.100  1.00  0.00    -0.167 F 
ATOM     24  F   UNL A   1      31.717  25.904  20.568  1.00  0.00    -0.167 F 
ENDBRANCH  15  21
ENDBRANCH   3   5
ENDBRANCH   2   3
ENDBRANCH   1   2
BRANCH   1  25
ATOM     25  C   UNL A   1      31.895  30.537  25.962  1.00  0.00     0.275 C 
BRANCH  25  26
ATOM     26  O   UNL A   1      32.961  30.355  26.915  1.00  0.00    -0.458 OA
BRANCH  26  27
ATOM     27  C   UNL A   1      33.567  31.490  27.334  1.00  0.00     0.338 C 
ATOM     28  O   UNL A   1      33.071  32.602  27.412  1.00  0.00    -0.246 OA
BRANCH  27  29
ATOM     29  C   UNL A   1      34.896  31.161  27.874  1.00  0.00     0.060 A 
ATOM     30  C   UNL A   1      35.876  32.116  28.119  1.00  0.00     0.016 A 
ATOM     31  C   UNL A   1      35.115  29.835  28.231  1.00  0.00     0.016 A 
ATOM     32  C   UNL A   1      37.087  31.712  28.704  1.00  0.00     0.010 A 
ATOM     33  C   UNL A   1      36.282  29.444  28.875  1.00  0.00     0.010 A 
ATOM     34  C   UNL A   1      37.300  30.373  29.096  1.00  0.00    -0.014 A 
BRANCH  34  35
ATOM     35  C   UNL A   1      38.562  29.936  29.759  1.00  0.00     0.031 A 
ATOM     36  C   UNL A   1      38.932  30.424  31.140  1.00  0.00     0.074 A 
ATOM     37  C   UNL A   1      39.426  29.150  29.083  1.00  0.00     0.049 A 
ATOM     38  N   UNL A   1      39.982  30.123  31.864  1.00  0.00    -0.248 NA
ATOM     39  C   UNL A   1      38.033  31.399  31.782  1.00  0.00     0.031 C 
ATOM     40  C   UNL A   1      39.265  28.719  27.693  1.00  0.00     0.029 A 
ATOM     41  N   UNL A   1      40.611  28.577  29.472  1.00  0.00    -0.354 N 
ATOM     42  C   UNL A   1      39.890  30.896  33.015  1.00  0.00     0.074 A 
ATOM     43  C   UNL A   1      38.702  31.709  32.884  1.00  0.00     0.031 C 
ATOM     44  C   UNL A   1      40.281  27.906  27.364  1.00  0.00     0.029 A 
ATOM     45  C   UNL A   1      41.174  27.771  28.510  1.00  0.00     0.049 A 
ATOM     46  H   UNL A   1      41.019  28.729  30.355  1.00  0.00     0.167 HD
ATOM     47  C   UNL A   1      40.693  30.898  34.107  1.00  0.00     0.034 A 
ATOM     48  C   UNL A   1      42.271  26.988  28.552  1.00  0.00     0.034 A 
ATOM     49  C   UNL A   1      41.817  30.021  34.282  1.00  0.00     0.049 A 
ATOM     50  C   UNL A   1      43.074  26.908  29.819  1.00  0.00     0.074 A 
ATOM     51  C   UNL A   1      42.610  29.857  35.404  1.00  0.00     0.029 A 
ATOM     52  N   UNL A   1      42.297  29.149  33.320  1.00  0.00    -0.354 N 
ATOM     53  N   UNL A   1      42.874  27.527  30.957  1.00  0.00    -0.248 NA
ATOM     54  C   UNL A   1      44.233  26.003  29.821  1.00  0.00     0.031 C 
ATOM     55  C   UNL A   1      43.568  28.878  35.121  1.00  0.00     0.029 A 
ATOM     56  C   UNL A   1      43.370  28.437  33.823  1.00  0.00     0.049 A 
ATOM     57  H   UNL A   1      41.929  29.051  32.412  1.00  0.00     0.167 HD
ATOM     58  C   UNL A   1      43.872  27.079  31.814  1.00  0.00     0.074 A 
ATOM     59  C   UNL A   1      44.663  26.118  31.072  1.00  0.00     0.031 C 
ATOM     60  C   UNL A   1      44.119  27.448  33.093  1.00  0.00     0.034 A 
BRANCH  47  61
ATOM     61  C   UNL A   1      40.326  31.797  35.258  1.00  0.00     0.023 A 
ATOM     62  C   UNL A   1      40.939  33.063  35.353  1.00  0.00     0.012 A 
ATOM     63  C   UNL A   1      39.315  31.445  36.174  1.00  0.00     0.148 A 
ATOM     64  C   UNL A   1      40.567  33.959  36.353  1.00  0.00     0.002 A 
ATOM     65  C   UNL A   1      38.927  32.358  37.150  1.00  0.00     0.091 A 
ATOM     66  F   UNL A   1      38.749  30.235  36.068  1.00  0.00    -0.205 F 
ATOM     67  C   UNL A   1      39.556  33.611  37.244  1.00  0.00     0.022 A 
BRANCH  65  68
ATOM     68  S   UNL A   1      37.596  32.041  38.314  1.00  0.00     0.127 S 
ATOM     69  O   UNL A   1      38.233  32.374  39.589  1.00  0.00    -0.237 OA
ATOM     70  O   UNL A   1      36.574  32.993  37.877  1.00  0.00    -0.237 OA
ATOM     71  O   UNL A   1      37.239  30.640  38.150  1.00  0.00    -0.744 OA
ENDBRANCH  65  68
ENDBRANCH  47  61
BRANCH  48  72
ATOM     72  C   UNL A   1      42.585  26.122  27.384  1.00  0.00     0.023 A 
ATOM     73  C   UNL A   1      43.407  26.634  26.361  1.00  0.00     0.012 A 
ATOM     74  C   UNL A   1      42.158  24.782  27.321  1.00  0.00     0.148 A 
ATOM     75  C   UNL A   1      43.795  25.828  25.291  1.00  0.00     0.002 A 
ATOM     76  C   UNL A   1      42.580  23.973  26.272  1.00  0.00     0.091 A 
ATOM     77  F   UNL A   1      41.377  24.321  28.307  1.00  0.00    -0.205 F 
ATOM     78  C   UNL A   1      43.391  24.497  25.252  1.00  0.00     0.022 A 
BRANCH  76  79
ATOM     79  S   UNL A   1      42.205  22.219  26.186  1.00  0.00     0.127 S 
ATOM     80  O   UNL A   1      40.749  22.232  26.060  1.00  0.00    -0.237 OA
ATOM     81  O   UNL A   1      42.923  21.819  24.976  1.00  0.00    -0.237 OA
ATOM     82  O   UNL A   1      42.723  21.641  27.417  1.00  0.00    -0.744 OA
ENDBRANCH  76  79
ENDBRANCH  48  72
BRANCH  60  83
ATOM     83  C   UNL A   1      45.292  26.827  33.797  1.00  0.00     0.023 A 
ATOM     84  C   UNL A   1      46.522  27.513  33.812  1.00  0.00     0.012 A 
ATOM     85  C   UNL A   1      45.142  25.647  34.550  1.00  0.00     0.148 A 
ATOM     86  C   UNL A   1      47.589  27.030  34.566  1.00  0.00     0.002 A 
ATOM     87  C   UNL A   1      46.201  25.189  35.324  1.00  0.00     0.091 A 
ATOM     88  F   UNL A   1      43.962  25.011  34.510  1.00  0.00    -0.205 F 
ATOM     89  C   UNL A   1      47.425  25.878  35.331  1.00  0.00     0.022 A 
BRANCH  87  90
ATOM     90  S   UNL A   1      46.066  23.757  36.401  1.00  0.00     0.127 S 
ATOM     91  O   UNL A   1      47.456  23.560  36.810  1.00  0.00    -0.237 OA
ATOM     92  O   UNL A   1      45.182  24.248  37.459  1.00  0.00    -0.237 OA
ATOM     93  O   UNL A   1      45.503  22.689  35.585  1.00  0.00    -0.744 OA
ENDBRANCH  87  90
ENDBRANCH  60  83
ENDBRANCH  34  35
ENDBRANCH  27  29
ENDBRANCH  26  27
ENDBRANCH  25  26
ENDBRANCH   1  25
TORSDOF 18
ENDMDL
MODEL 2
REMARK VINA RESULT:     -12.3      1.898      2.379
REMARK SMILES CC(C)CCc1cc2c(cc1Cl)C=C(C(=O)OCCOC(=O)c1ccc(-c3c4nc(c(-c5cccc(S(=O)(=O)[O-])c5F)c5ccc([nH]5)c(-c5cccc(S(=O)(=O)[O-])c5F)c5nc(c(-c6cccc(S(=O)(=O)[O-])c6F)c6ccc3[nH]6)C=C5)C=C4)cc1)[C@H](C(F)(F)F)O2
REMARK SMILES IDX 18 1 17 2 15 3 16 4 14 5 6 6 7 7 11 8 8 9 10 10 12 11 9 12
REMARK SMILES IDX 91 13 13 14 86 15 5 16 4 17 2 18 1 19 3 20 87 21 88 22 89 23
REMARK SMILES IDX 90 24 19 25 20 26 21 27 22 28 23 29 24 30 85 31 25 32 84 33
REMARK SMILES IDX 26 34 27 35 28 36 78 37 29 38 83 39 77 40 79 41 30 42 82 43
REMARK SMILES IDX 76 44 75 45 31 47 63 48 43 49 62 50 44 51 47 52 61 53 80 54
REMARK SMILES IDX 45 55 46 56 60 58 81 59 48 60 32 61 33 62 41 63 34 64 36 65
REMARK SMILES IDX 42 66 35 67 37 68 38 69 39 70 40 71 64 72 65 73 73 74 66 75
REMARK SMILES IDX 68 76 74 77 67 78 69 79 70 80 71 81 72 82 49 83 50 84 58 85
REMARK SMILES IDX 51 86 53 87 59 88 52 89 54 90 55 91 56 92 57 93
REMARK H PARENT 79 46 47 57
REMARK Flexibility Score: inf
ROOT
ATOM      1  C   UNL A   1      31.163  29.114  24.419  1.00  0.00     0.275 C 
ENDROOT
BRANCH   1   2
ATOM      2  O   UNL A   1      31.638  27.766  24.618  1.00  0.00    -0.459 OA
BRANCH   2   3
ATOM      3  C   UNL A   1      31.295  26.864  23.673  1.00  0.00     0.338 C 
ATOM      4  O   UNL A   1      30.745  27.120  22.616  1.00  0.00    -0.246 OA
BRANCH   3   5
ATOM      5  C   UNL A   1      31.768  25.512  24.041  1.00  0.00     0.087 C 
ATOM      6  C   UNL A   1      32.500  20.535  24.113  1.00  0.00    -0.026 A 
ATOM      7  C   UNL A   1      32.608  21.560  25.081  1.00  0.00     0.052 A 
ATOM      8  C   UNL A   1      32.201  20.894  22.788  1.00  0.00     0.045 A 
ATOM      9  C   UNL A   1      32.317  22.883  24.757  1.00  0.00     0.128 A 
ATOM     10  C   UNL A   1      31.894  22.216  22.471  1.00  0.00     0.032 A 
ATOM     11  Cl  UNL A   1      32.151  19.747  21.497  1.00  0.00    -0.084 Cl
ATOM     12  C   UNL A   1      31.907  23.195  23.466  1.00  0.00     0.019 A 
ATOM     13  O   UNL A   1      32.358  23.819  25.758  1.00  0.00    -0.475 OA
ATOM     14  C   UNL A   1      31.429  24.531  23.192  1.00  0.00     0.027 C 
ATOM     15  C   UNL A   1      32.486  25.223  25.334  1.00  0.00     0.316 C 
BRANCH   6  16
ATOM     16  C   UNL A   1      32.641  19.092  24.547  1.00  0.00     0.037 C 
BRANCH  16  17
ATOM     17  C   UNL A   1      34.103  18.645  24.739  1.00  0.00     0.008 C 
BRANCH  17  18
ATOM     18  C   UNL A   1      34.407  17.183  24.342  1.00  0.00    -0.017 C 
ATOM     19  C   UNL A   1      33.736  16.173  25.271  1.00  0.00     0.007 C 
ATOM     20  C   UNL A   1      33.964  16.938  22.897  1.00  0.00     0.007 C 
ENDBRANCH  17  18
ENDBRANCH  16  17
ENDBRANCH   6  16
BRANCH  15  21
ATOM     21  C   UNL A   1      33.967  25.631  25.425  1.00  0.00     0.430 C 
ATOM     22  F   UNL A   1      34.733  24.697  26.024  1.00  0.00    -0.167 F 
ATOM     23  F   UNL A   1      34.513  25.918  24.223  1.00  0.00    -0.167 F 
ATOM     24  F   UNL A   1      34.084  26.774  26.158  1.00  0.00    -0.167 F 
ENDBRANCH  15  21
ENDBRANCH   3   5
ENDBRANCH   2   3
ENDBRANCH   1   2
BRANCH   1  25
ATOM     25  C   UNL A   1      31.379  29.965  25.675  1.00  0.00     0.275 C 
BRANCH  25  26
ATOM     26  O   UNL A   1      32.781  30.136  25.961  1.00  0.00    -0.458 OA
BRANCH  26  27
ATOM     27  C   UNL A   1      33.088  31.190  26.753  1.00  0.00     0.338 C 
ATOM     28  O   UNL A   1      32.368  32.135  27.032  1.00  0.00    -0.246 OA
BRANCH  27  29
ATOM     29  C   UNL A   1      34.388  30.950  27.400  1.00  0.00     0.060 A 
ATOM     30  C   UNL A   1      35.283  31.967  27.714  1.00  0.00     0.016 A 
ATOM     31  C   UNL A   1      34.661  29.643  27.787  1.00  0.00     0.016 A 
ATOM     32  C   UNL A   1      36.466  31.643  28.397  1.00  0.00     0.010 A 
ATOM     33  C   UNL A   1      35.795  29.329  28.525  1.00  0.00     0.010 A 
ATOM     34  C   UNL A   1      36.731  30.323  28.819  1.00  0.00    -0.014 A 
BRANCH  34  35
ATOM     35  C   UNL A   1      37.961  29.970  29.584  1.00  0.00     0.031 A 
ATOM     36  C   UNL A   1      38.193  30.499  30.980  1.00  0.00     0.074 A 
ATOM     37  C   UNL A   1      38.918  29.226  28.992  1.00  0.00     0.049 A 
ATOM     38  N   UNL A   1      39.200  30.271  31.788  1.00  0.00    -0.248 NA
ATOM     39  C   UNL A   1      37.193  31.429  31.533  1.00  0.00     0.031 C 
ATOM     40  C   UNL A   1      38.891  28.766  27.602  1.00  0.00     0.029 A 
ATOM     41  N   UNL A   1      40.100  28.729  29.482  1.00  0.00    -0.354 N 
ATOM     42  C   UNL A   1      38.974  31.055  32.914  1.00  0.00     0.074 A 
ATOM     43  C   UNL A   1      37.756  31.795  32.676  1.00  0.00     0.031 C 
ATOM     44  C   UNL A   1      39.974  28.009  27.368  1.00  0.00     0.029 A 
ATOM     45  C   UNL A   1      40.782  27.944  28.581  1.00  0.00     0.049 A 
ATOM     46  H   UNL A   1      40.429  28.918  30.390  1.00  0.00     0.167 HD
ATOM     47  C   UNL A   1      39.688  31.120  34.063  1.00  0.00     0.034 A 
ATOM     48  C   UNL A   1      41.915  27.227  28.722  1.00  0.00     0.034 A 
ATOM     49  C   UNL A   1      40.844  30.313  34.341  1.00  0.00     0.049 A 
ATOM     50  C   UNL A   1      42.621  27.213  30.048  1.00  0.00     0.074 A 
ATOM     51  C   UNL A   1      41.556  30.213  35.523  1.00  0.00     0.029 A 
ATOM     52  N   UNL A   1      41.447  29.456  33.435  1.00  0.00    -0.354 N 
ATOM     53  N   UNL A   1      42.298  27.836  31.155  1.00  0.00    -0.248 NA
ATOM     54  C   UNL A   1      43.826  26.378  30.157  1.00  0.00     0.031 C 
ATOM     55  C   UNL A   1      42.587  29.287  35.334  1.00  0.00     0.029 A 
ATOM     56  C   UNL A   1      42.516  28.816  34.033  1.00  0.00     0.049 A 
ATOM     57  H   UNL A   1      41.156  29.324  32.504  1.00  0.00     0.167 HD
ATOM     58  C   UNL A   1      43.250  27.460  32.095  1.00  0.00     0.074 A 
ATOM     59  C   UNL A   1      44.149  26.537  31.435  1.00  0.00     0.031 C 
ATOM     60  C   UNL A   1      43.376  27.862  33.381  1.00  0.00     0.034 A 
BRANCH  47  61
ATOM     61  C   UNL A   1      39.182  32.013  35.165  1.00  0.00     0.023 A 
ATOM     62  C   UNL A   1      38.207  31.512  36.051  1.00  0.00     0.012 A 
ATOM     63  C   UNL A   1      39.734  33.289  35.391  1.00  0.00     0.148 A 
ATOM     64  C   UNL A   1      37.773  32.272  37.134  1.00  0.00     0.002 A 
ATOM     65  C   UNL A   1      39.318  34.030  36.493  1.00  0.00     0.091 A 
ATOM     66  F   UNL A   1      40.656  33.748  34.533  1.00  0.00    -0.205 F 
ATOM     67  C   UNL A   1      38.334  33.526  37.361  1.00  0.00     0.022 A 
BRANCH  65  68
ATOM     68  S   UNL A   1      40.015  35.631  36.917  1.00  0.00     0.127 S 
ATOM     69  O   UNL A   1      39.623  36.438  35.760  1.00  0.00    -0.237 OA
ATOM     70  O   UNL A   1      39.305  35.956  38.153  1.00  0.00    -0.237 OA
ATOM     71  O   UNL A   1      41.447  35.423  37.068  1.00  0.00    -0.744 OA
ENDBRANCH  65  68
ENDBRANCH  47  61
BRANCH  48  72
ATOM     72  C   UNL A   1      42.368  26.364  27.599  1.00  0.00     0.023 A 
ATOM     73  C   UNL A   1      43.328  26.868  26.700  1.00  0.00     0.012 A 
ATOM     74  C   UNL A   1      41.931  25.032  27.467  1.00  0.00     0.148 A 
ATOM     75  C   UNL A   1      43.842  26.063  25.684  1.00  0.00     0.002 A 
ATOM     76  C   UNL A   1      42.475  24.223  26.476  1.00  0.00     0.091 A 
ATOM     77  F   UNL A   1      41.016  24.579  28.335  1.00  0.00    -0.205 F 
ATOM     78  C   UNL A   1      43.424  24.740  25.578  1.00  0.00     0.022 A 
BRANCH  76  79
ATOM     79  S   UNL A   1      42.085  22.477  26.324  1.00  0.00     0.127 S 
ATOM     80  O   UNL A   1      42.627  22.165  25.002  1.00  0.00    -0.237 OA
ATOM     81  O   UNL A   1      42.830  21.905  27.445  1.00  0.00    -0.237 OA
ATOM     82  O   UNL A   1      40.638  22.382  26.446  1.00  0.00    -0.744 OA
ENDBRANCH  76  79
ENDBRANCH  48  72
BRANCH  60  83
ATOM     83  C   UNL A   1      44.524  27.321  34.185  1.00  0.00     0.023 A 
ATOM     84  C   UNL A   1      45.729  28.049  34.231  1.00  0.00     0.012 A 
ATOM     85  C   UNL A   1      44.366  26.181  34.996  1.00  0.00     0.148 A 
ATOM     86  C   UNL A   1      46.765  27.645  35.070  1.00  0.00     0.002 A 
ATOM     87  C   UNL A   1      45.392  25.803  35.854  1.00  0.00     0.091 A 
ATOM     88  F   UNL A   1      43.211  25.504  34.926  1.00  0.00    -0.205 F 
ATOM     89  C   UNL A   1      46.592  26.532  35.890  1.00  0.00     0.022 A 
BRANCH  87  90
ATOM     90  S   UNL A   1      45.239  24.430  37.002  1.00  0.00     0.127 S 
ATOM     91  O   UNL A   1      44.067  24.824  37.783  1.00  0.00    -0.237 OA
ATOM     92  O   UNL A   1      45.020  23.297  36.102  1.00  0.00    -0.237 OA
ATOM     93  O   UNL A   1      46.491  24.382  37.745  1.00  0.00    -0.744 OA
ENDBRANCH  87  90
ENDBRANCH  60  83
ENDBRANCH  34  35
ENDBRANCH  27  29
ENDBRANCH  26  27
ENDBRANCH  25  26
ENDBRANCH   1  25
TORSDOF 18
ENDMDL
MODEL 3
REMARK VINA RESULT:     -12.2      5.243     10.424
REMARK SMILES CC(C)CCc1cc2c(cc1Cl)C=C(C(=O)OCCOC(=O)c1ccc(-c3c4nc(c(-c5cccc(S(=O)(=O)[O-])c5F)c5ccc([nH]5)c(-c5cccc(S(=O)(=O)[O-])c5F)c5nc(c(-c6cccc(S(=O)(=O)[O-])c6F)c6ccc3[nH]6)C=C5)C=C4)cc1)[C@H](C(F)(F)F)O2
REMARK SMILES IDX 18 1 17 2 15 3 16 4 14 5 6 6 7 7 11 8 8 9 10 10 12 11 9 12
REMARK SMILES IDX 91 13 13 14 86 15 5 16 4 17 2 18 1 19 3 20 87 21 88 22 89 23
REMARK SMILES IDX 90 24 19 25 20 26 21 27 22 28 23 29 24 30 85 31 25 32 84 33
REMARK SMILES IDX 26 34 27 35 28 36 78 37 29 38 83 39 77 40 79 41 30 42 82 43
REMARK SMILES IDX 76 44 75 45 31 47 63 48 43 49 62 50 44 51 47 52 61 53 80 54
REMARK SMILES IDX 45 55 46 56 60 58 81 59 48 60 32 61 33 62 41 63 34 64 36 65
REMARK SMILES IDX 42 66 35 67 37 68 38 69 39 70 40 71 64 72 65 73 73 74 66 75
REMARK SMILES IDX 68 76 74 77 67 78 69 79 70 80 71 81 72 82 49 83 50 84 58 85
REMARK SMILES IDX 51 86 53 87 59 88 52 89 54 90 55 91 56 92 57 93
REMARK H PARENT 79 46 47 57
REMARK Flexibility Score: inf
ROOT
ATOM      1  C   UNL A   1      34.900  20.770  24.894  1.00  0.00     0.275 C 
ENDROOT
BRANCH   1   2
ATOM      2  O   UNL A   1      34.214  21.758  24.096  1.00  0.00    -0.459 OA
BRANCH   2   3
ATOM      3  C   UNL A   1      32.973  22.100  24.504  1.00  0.00     0.338 C 
ATOM      4  O   UNL A   1      32.194  21.371  25.092  1.00  0.00    -0.246 OA
BRANCH   3   5
ATOM      5  C   UNL A   1      32.707  23.530  24.234  1.00  0.00     0.087 C 
ATOM      6  C   UNL A   1      30.427  27.841  22.999  1.00  0.00    -0.026 A 
ATOM      7  C   UNL A   1      31.773  27.410  23.019  1.00  0.00     0.052 A 
ATOM      8  C   UNL A   1      29.438  26.970  23.487  1.00  0.00     0.045 A 
ATOM      9  C   UNL A   1      32.104  26.114  23.407  1.00  0.00     0.128 A 
ATOM     10  C   UNL A   1      29.770  25.668  23.858  1.00  0.00     0.032 A 
ATOM     11  Cl  UNL A   1      27.776  27.422  23.618  1.00  0.00    -0.084 Cl
ATOM     12  C   UNL A   1      31.093  25.232  23.771  1.00  0.00     0.019 A 
ATOM     13  O   UNL A   1      33.417  25.728  23.324  1.00  0.00    -0.475 OA
ATOM     14  C   UNL A   1      31.427  23.843  23.989  1.00  0.00     0.027 C 
ATOM     15  C   UNL A   1      33.805  24.558  24.128  1.00  0.00     0.316 C 
BRANCH   6  16
ATOM     16  C   UNL A   1      30.091  29.188  22.396  1.00  0.00     0.037 C 
BRANCH  16  17
ATOM     17  C   UNL A   1      29.604  30.223  23.428  1.00  0.00     0.008 C 
BRANCH  17  18
ATOM     18  C   UNL A   1      28.485  31.169  22.940  1.00  0.00    -0.017 C 
ATOM     19  C   UNL A   1      27.278  31.181  23.877  1.00  0.00     0.007 C 
ATOM     20  C   UNL A   1      29.039  32.588  22.784  1.00  0.00     0.007 C 
ENDBRANCH  17  18
ENDBRANCH  16  17
ENDBRANCH   6  16
BRANCH  15  21
ATOM     21  C   UNL A   1      34.439  25.050  25.441  1.00  0.00     0.430 C 
ATOM     22  F   UNL A   1      35.720  24.654  25.586  1.00  0.00    -0.167 F 
ATOM     23  F   UNL A   1      34.394  26.392  25.581  1.00  0.00    -0.167 F 
ATOM     24  F   UNL A   1      33.744  24.551  26.502  1.00  0.00    -0.167 F 
ENDBRANCH  15  21
ENDBRANCH   3   5
ENDBRANCH   2   3
ENDBRANCH   1   2
BRANCH   1  25
ATOM     25  C   UNL A   1      35.923  21.427  25.826  1.00  0.00     0.275 C 
BRANCH  25  26
ATOM     26  O   UNL A   1      37.150  21.730  25.132  1.00  0.00    -0.458 OA
BRANCH  26  27
ATOM     27  C   UNL A   1      38.282  21.299  25.737  1.00  0.00     0.338 C 
ATOM     28  O   UNL A   1      38.749  20.172  25.705  1.00  0.00    -0.246 OA
BRANCH  27  29
ATOM     29  C   UNL A   1      38.996  22.450  26.310  1.00  0.00     0.060 A 
ATOM     30  C   UNL A   1      40.087  22.323  27.163  1.00  0.00     0.016 A 
ATOM     31  C   UNL A   1      38.592  23.711  25.885  1.00  0.00     0.016 A 
ATOM     32  C   UNL A   1      40.746  23.484  27.600  1.00  0.00     0.010 A 
ATOM     33  C   UNL A   1      39.285  24.856  26.257  1.00  0.00     0.010 A 
ATOM     34  C   UNL A   1      40.359  24.762  27.145  1.00  0.00    -0.014 A 
BRANCH  34  35
ATOM     35  C   UNL A   1      41.076  26.000  27.564  1.00  0.00     0.031 A 
ATOM     36  C   UNL A   1      42.496  26.269  27.125  1.00  0.00     0.074 A 
ATOM     37  C   UNL A   1      40.472  26.860  28.410  1.00  0.00     0.049 A 
ATOM     38  N   UNL A   1      43.254  27.306  27.385  1.00  0.00    -0.248 NA
ATOM     39  C   UNL A   1      43.170  25.233  26.324  1.00  0.00     0.031 C 
ATOM     40  C   UNL A   1      39.159  26.658  29.025  1.00  0.00     0.029 A 
ATOM     41  N   UNL A   1      40.884  28.073  28.902  1.00  0.00    -0.354 N 
ATOM     42  C   UNL A   1      44.493  27.029  26.820  1.00  0.00     0.074 A 
ATOM     43  C   UNL A   1      44.404  25.711  26.232  1.00  0.00     0.031 C 
ATOM     44  C   UNL A   1      38.849  27.733  29.766  1.00  0.00     0.029 A 
ATOM     45  C   UNL A   1      39.946  28.693  29.695  1.00  0.00     0.049 A 
ATOM     46  H   UNL A   1      41.767  28.462  28.707  1.00  0.00     0.167 HD
ATOM     47  C   UNL A   1      45.594  27.816  26.752  1.00  0.00     0.034 A 
ATOM     48  C   UNL A   1      39.952  29.908  30.277  1.00  0.00     0.034 A 
ATOM     49  C   UNL A   1      45.654  29.162  27.248  1.00  0.00     0.049 A 
ATOM     50  C   UNL A   1      41.133  30.816  30.080  1.00  0.00     0.074 A 
ATOM     51  C   UNL A   1      46.678  30.083  27.110  1.00  0.00     0.029 A 
ATOM     52  N   UNL A   1      44.645  29.788  27.960  1.00  0.00    -0.354 N 
ATOM     53  N   UNL A   1      42.232  30.596  29.401  1.00  0.00    -0.248 NA
ATOM     54  C   UNL A   1      41.066  32.147  30.700  1.00  0.00     0.031 C 
ATOM     55  C   UNL A   1      46.284  31.270  27.734  1.00  0.00     0.029 A 
ATOM     56  C   UNL A   1      45.017  31.085  28.262  1.00  0.00     0.049 A 
ATOM     57  H   UNL A   1      43.790  29.371  28.215  1.00  0.00     0.167 HD
ATOM     58  C   UNL A   1      42.982  31.761  29.501  1.00  0.00     0.074 A 
ATOM     59  C   UNL A   1      42.202  32.695  30.287  1.00  0.00     0.031 C 
ATOM     60  C   UNL A   1      44.213  32.023  29.003  1.00  0.00     0.034 A 
BRANCH  47  61
ATOM     61  C   UNL A   1      46.798  27.291  26.015  1.00  0.00     0.023 A 
ATOM     62  C   UNL A   1      47.603  26.316  26.638  1.00  0.00     0.012 A 
ATOM     63  C   UNL A   1      47.075  27.675  24.688  1.00  0.00     0.148 A 
ATOM     64  C   UNL A   1      48.677  25.742  25.960  1.00  0.00     0.002 A 
ATOM     65  C   UNL A   1      48.129  27.075  24.007  1.00  0.00     0.091 A 
ATOM     66  F   UNL A   1      46.300  28.608  24.117  1.00  0.00    -0.205 F 
ATOM     67  C   UNL A   1      48.934  26.114  24.643  1.00  0.00     0.022 A 
BRANCH  65  68
ATOM     68  S   UNL A   1      48.516  27.433  22.289  1.00  0.00     0.127 S 
ATOM     69  O   UNL A   1      47.355  28.226  21.884  1.00  0.00    -0.237 OA
ATOM     70  O   UNL A   1      49.761  28.192  22.408  1.00  0.00    -0.237 OA
ATOM     71  O   UNL A   1      48.645  26.143  21.626  1.00  0.00    -0.744 OA
ENDBRANCH  65  68
ENDBRANCH  47  61
BRANCH  48  72
ATOM     72  C   UNL A   1      38.734  30.373  30.993  1.00  0.00     0.023 A 
ATOM     73  C   UNL A   1      38.663  30.205  32.390  1.00  0.00     0.012 A 
ATOM     74  C   UNL A   1      37.698  31.054  30.326  1.00  0.00     0.148 A 
ATOM     75  C   UNL A   1      37.577  30.702  33.111  1.00  0.00     0.002 A 
ATOM     76  C   UNL A   1      36.638  31.581  31.055  1.00  0.00     0.091 A 
ATOM     77  F   UNL A   1      37.791  31.199  28.997  1.00  0.00    -0.205 F 
ATOM     78  C   UNL A   1      36.572  31.397  32.446  1.00  0.00     0.022 A 
BRANCH  76  79
ATOM     79  S   UNL A   1      35.349  32.584  30.309  1.00  0.00     0.127 S 
ATOM     80  O   UNL A   1      34.897  31.724  29.217  1.00  0.00    -0.237 OA
ATOM     81  O   UNL A   1      34.402  32.723  31.415  1.00  0.00    -0.237 OA
ATOM     82  O   UNL A   1      35.996  33.824  29.905  1.00  0.00    -0.744 OA
ENDBRANCH  76  79
ENDBRANCH  48  72
BRANCH  60  83
ATOM     83  C   UNL A   1      44.820  33.368  29.280  1.00  0.00     0.023 A 
ATOM     84  C   UNL A   1      45.592  33.543  30.446  1.00  0.00     0.012 A 
ATOM     85  C   UNL A   1      44.745  34.406  28.332  1.00  0.00     0.148 A 
ATOM     86  C   UNL A   1      46.277  34.736  30.666  1.00  0.00     0.002 A 
ATOM     87  C   UNL A   1      45.457  35.581  28.544  1.00  0.00     0.091 A 
ATOM     88  F   UNL A   1      43.997  34.215  27.236  1.00  0.00    -0.205 F 
ATOM     89  C   UNL A   1      46.220  35.748  29.711  1.00  0.00     0.022 A 
BRANCH  87  90
ATOM     90  S   UNL A   1      45.508  36.913  27.339  1.00  0.00     0.127 S 
ATOM     91  O   UNL A   1      44.097  37.281  27.241  1.00  0.00    -0.237 OA
ATOM     92  O   UNL A   1      46.352  37.903  28.009  1.00  0.00    -0.237 OA
ATOM     93  O   UNL A   1      46.085  36.342  26.129  1.00  0.00    -0.744 OA
ENDBRANCH  87  90
ENDBRANCH  60  83
ENDBRANCH  34  35
ENDBRANCH  27  29
ENDBRANCH  26  27
ENDBRANCH  25  26
ENDBRANCH   1  25
TORSDOF 18
ENDMDL
