MODEL 1
REMARK VINA RESULT:     -10.5      0.000      0.000
REMARK SMILES COc1ncnc(N2CCSC[C@@H]2CC(=O)OCCOC(=O)c2ccc(-c3c4nc(c(-c5cccc(S(=O)(=O)[O-])c5F)c5ccc([nH]5)c(-c5cccc(S(=O)(=O)[O-])c5F)c5nc(c(-c6cccc(S(=O)(=O)[O-])c6F)c6ccc3[nH]6)C=C5)C=C4)cc2)c1[N+](=O)[O-]
REMARK SMILES IDX 18 1 17 2 15 3 16 4 14 5 13 6 8 7 9 8 10 9 12 10 11 11 7 12
REMARK SMILES IDX 3 13 4 14 86 15 5 16 6 17 2 18 1 19 87 20 88 21 89 22 19 23
REMARK SMILES IDX 20 24 21 25 22 26 23 27 24 28 85 29 25 30 84 31 26 32 27 33
REMARK SMILES IDX 28 34 78 35 29 36 83 37 77 38 79 39 30 40 82 41 76 42 75 43
REMARK SMILES IDX 31 45 63 46 43 47 62 48 44 49 47 50 61 51 80 52 45 53 46 54
REMARK SMILES IDX 60 56 81 57 48 58 32 59 33 60 41 61 34 62 36 63 42 64 35 65
REMARK SMILES IDX 37 66 38 67 39 68 40 69 64 70 65 71 73 72 66 73 68 74 74 75
REMARK SMILES IDX 67 76 69 77 70 78 71 79 72 80 49 81 50 82 58 83 51 84 53 85
REMARK SMILES IDX 59 86 52 87 54 88 55 89 56 90 57 91
REMARK H PARENT 79 44 47 55
REMARK Flexibility Score: inf
ROOT
ATOM      1  C   UNL A   1      31.768  28.452  25.268  1.00  0.00     0.274 C 
ENDROOT
BRANCH   1   2
ATOM      2  O   UNL A   1      32.916  27.801  25.856  1.00  0.00    -0.462 OA
BRANCH   2   3
ATOM      3  C   UNL A   1      33.527  26.858  25.098  1.00  0.00     0.308 C 
ATOM      4  O   UNL A   1      33.781  26.986  23.905  1.00  0.00    -0.252 OA
BRANCH   3   5
ATOM      5  C   UNL A   1      33.637  25.523  25.787  1.00  0.00     0.148 C 
BRANCH   5   6
ATOM      6  C   UNL A   1      32.631  24.382  25.592  1.00  0.00     0.105 C 
ATOM      7  N   UNL A   1      32.893  23.535  24.417  1.00  0.00    -0.345 N 
ATOM      8  C   UNL A   1      32.179  23.712  23.142  1.00  0.00     0.129 C 
ATOM      9  C   UNL A   1      30.667  23.854  23.290  1.00  0.00     0.091 C 
ATOM     10  C   UNL A   1      31.151  24.738  25.816  1.00  0.00     0.095 C 
ATOM     11  S   UNL A   1      30.211  25.239  24.361  1.00  0.00    -0.158 SA
BRANCH   7  12
ATOM     12  C   UNL A   1      33.617  22.373  24.600  1.00  0.00     0.215 A 
ATOM     13  C   UNL A   1      35.579  21.057  24.630  1.00  0.00     0.299 A 
ATOM     14  N   UNL A   1      34.909  19.975  25.069  1.00  0.00    -0.196 NA
ATOM     15  C   UNL A   1      34.968  22.255  24.351  1.00  0.00     0.372 A 
ATOM     16  C   UNL A   1      33.598  20.160  25.260  1.00  0.00     0.228 A 
ATOM     17  N   UNL A   1      32.929  21.309  25.071  1.00  0.00    -0.212 NA
BRANCH  13  18
ATOM     18  O   UNL A   1      36.918  20.866  24.404  1.00  0.00    -0.476 OA
ATOM     19  C   UNL A   1      37.608  20.730  25.647  1.00  0.00     0.280 C 
ENDBRANCH  13  18
BRANCH  15  20
ATOM     20  N   UNL A   1      35.767  23.367  23.961  1.00  0.00     0.072 N 
ATOM     21  O   UNL A   1      36.391  23.950  24.861  1.00  0.00    -0.258 OA
ATOM     22  O   UNL A   1      35.832  23.630  22.753  1.00  0.00    -0.258 OA
ENDBRANCH  15  20
ENDBRANCH   7  12
ENDBRANCH   5   6
ENDBRANCH   3   5
ENDBRANCH   2   3
ENDBRANCH   1   2
BRANCH   1  23
ATOM     23  C   UNL A   1      31.847  29.966  25.404  1.00  0.00     0.275 C 
BRANCH  23  24
ATOM     24  O   UNL A   1      33.164  30.330  25.844  1.00  0.00    -0.458 OA
BRANCH  24  25
ATOM     25  C   UNL A   1      33.208  31.186  26.887  1.00  0.00     0.338 C 
ATOM     26  O   UNL A   1      32.391  32.041  27.180  1.00  0.00    -0.246 OA
BRANCH  25  27
ATOM     27  C   UNL A   1      34.439  30.961  27.654  1.00  0.00     0.060 A 
ATOM     28  C   UNL A   1      35.354  31.997  27.854  1.00  0.00     0.016 A 
ATOM     29  C   UNL A   1      34.731  29.662  28.062  1.00  0.00     0.016 A 
ATOM     30  C   UNL A   1      36.601  31.723  28.405  1.00  0.00     0.010 A 
ATOM     31  C   UNL A   1      35.949  29.402  28.683  1.00  0.00     0.010 A 
ATOM     32  C   UNL A   1      36.896  30.426  28.841  1.00  0.00    -0.014 A 
BRANCH  32  33
ATOM     33  C   UNL A   1      38.162  30.146  29.547  1.00  0.00     0.031 A 
ATOM     34  C   UNL A   1      39.172  29.207  28.962  1.00  0.00     0.074 A 
ATOM     35  C   UNL A   1      38.332  30.691  30.766  1.00  0.00     0.049 A 
ATOM     36  N   UNL A   1      40.258  28.728  29.509  1.00  0.00    -0.248 NA
ATOM     37  C   UNL A   1      38.928  28.732  27.590  1.00  0.00     0.031 C 
ATOM     38  C   UNL A   1      37.383  31.599  31.417  1.00  0.00     0.029 A 
ATOM     39  N   UNL A   1      39.334  30.539  31.684  1.00  0.00    -0.354 N 
ATOM     40  C   UNL A   1      40.802  27.858  28.573  1.00  0.00     0.074 A 
ATOM     41  C   UNL A   1      39.931  27.881  27.417  1.00  0.00     0.031 C 
ATOM     42  C   UNL A   1      37.843  31.913  32.636  1.00  0.00     0.029 A 
ATOM     43  C   UNL A   1      39.086  31.190  32.870  1.00  0.00     0.049 A 
ATOM     44  H   UNL A   1      40.151  30.016  31.514  1.00  0.00     0.167 HD
ATOM     45  C   UNL A   1      41.930  27.115  28.678  1.00  0.00     0.034 A 
ATOM     46  C   UNL A   1      39.769  31.178  34.029  1.00  0.00     0.034 A 
ATOM     47  C   UNL A   1      42.796  27.138  29.828  1.00  0.00     0.049 A 
ATOM     48  C   UNL A   1      41.031  30.372  34.101  1.00  0.00     0.074 A 
ATOM     49  C   UNL A   1      43.987  26.463  30.026  1.00  0.00     0.029 A 
ATOM     50  N   UNL A   1      42.561  27.878  30.980  1.00  0.00    -0.354 N 
ATOM     51  N   UNL A   1      41.584  29.627  33.174  1.00  0.00    -0.248 NA
ATOM     52  C   UNL A   1      41.778  30.423  35.363  1.00  0.00     0.031 C 
ATOM     53  C   UNL A   1      44.467  26.789  31.299  1.00  0.00     0.029 A 
ATOM     54  C   UNL A   1      43.582  27.676  31.892  1.00  0.00     0.049 A 
ATOM     55  H   UNL A   1      41.781  28.461  31.126  1.00  0.00     0.167 HD
ATOM     56  C   UNL A   1      42.755  29.133  33.731  1.00  0.00     0.074 A 
ATOM     57  C   UNL A   1      42.844  29.689  35.068  1.00  0.00     0.031 C 
ATOM     58  C   UNL A   1      43.663  28.280  33.199  1.00  0.00     0.034 A 
BRANCH  45  59
ATOM     59  C   UNL A   1      42.315  26.246  27.509  1.00  0.00     0.023 A 
ATOM     60  C   UNL A   1      43.114  26.782  26.478  1.00  0.00     0.012 A 
ATOM     61  C   UNL A   1      41.943  24.888  27.456  1.00  0.00     0.148 A 
ATOM     62  C   UNL A   1      43.519  25.989  25.406  1.00  0.00     0.002 A 
ATOM     63  C   UNL A   1      42.380  24.094  26.400  1.00  0.00     0.091 A 
ATOM     64  F   UNL A   1      41.163  24.400  28.431  1.00  0.00    -0.205 F 
ATOM     65  C   UNL A   1      43.161  24.644  25.372  1.00  0.00     0.022 A 
BRANCH  63  66
ATOM     66  S   UNL A   1      42.025  22.334  26.303  1.00  0.00     0.127 S 
ATOM     67  O   UNL A   1      42.581  21.850  27.565  1.00  0.00    -0.237 OA
ATOM     68  O   UNL A   1      40.563  22.314  26.235  1.00  0.00    -0.237 OA
ATOM     69  O   UNL A   1      42.691  21.858  25.098  1.00  0.00    -0.744 OA
ENDBRANCH  63  66
ENDBRANCH  45  59
BRANCH  46  70
ATOM     70  C   UNL A   1      39.286  32.004  35.168  1.00  0.00     0.023 A 
ATOM     71  C   UNL A   1      38.422  31.426  36.116  1.00  0.00     0.012 A 
ATOM     72  C   UNL A   1      39.750  33.319  35.372  1.00  0.00     0.148 A 
ATOM     73  C   UNL A   1      38.018  32.146  37.241  1.00  0.00     0.002 A 
ATOM     74  C   UNL A   1      39.389  34.011  36.523  1.00  0.00     0.091 A 
ATOM     75  F   UNL A   1      40.558  33.861  34.450  1.00  0.00    -0.205 F 
ATOM     76  C   UNL A   1      38.513  33.431  37.453  1.00  0.00     0.022 A 
BRANCH  74  77
ATOM     77  S   UNL A   1      40.111  35.603  36.939  1.00  0.00     0.127 S 
ATOM     78  O   UNL A   1      39.604  36.452  35.864  1.00  0.00    -0.237 OA
ATOM     79  O   UNL A   1      39.536  35.872  38.258  1.00  0.00    -0.237 OA
ATOM     80  O   UNL A   1      41.551  35.380  36.954  1.00  0.00    -0.744 OA
ENDBRANCH  74  77
ENDBRANCH  46  70
BRANCH  58  81
ATOM     81  C   UNL A   1      44.834  27.907  34.065  1.00  0.00     0.023 A 
ATOM     82  C   UNL A   1      45.988  28.715  34.053  1.00  0.00     0.012 A 
ATOM     83  C   UNL A   1      44.772  26.793  34.923  1.00  0.00     0.148 A 
ATOM     84  C   UNL A   1      47.077  28.402  34.862  1.00  0.00     0.002 A 
ATOM     85  C   UNL A   1      45.848  26.511  35.757  1.00  0.00     0.091 A 
ATOM     86  F   UNL A   1      43.676  26.023  34.899  1.00  0.00    -0.205 F 
ATOM     87  C   UNL A   1      47.004  27.307  35.722  1.00  0.00     0.022 A 
BRANCH  85  88
ATOM     88  S   UNL A   1      45.798  25.170  36.950  1.00  0.00     0.127 S 
ATOM     89  O   UNL A   1      44.543  25.438  37.650  1.00  0.00    -0.237 OA
ATOM     90  O   UNL A   1      45.775  23.984  36.091  1.00  0.00    -0.237 OA
ATOM     91  O   UNL A   1      47.008  25.306  37.749  1.00  0.00    -0.744 OA
ENDBRANCH  85  88
ENDBRANCH  58  81
ENDBRANCH  32  33
ENDBRANCH  25  27
ENDBRANCH  24  25
ENDBRANCH  23  24
ENDBRANCH   1  23
TORSDOF 18
ENDMDL
MODEL 2
REMARK VINA RESULT:     -10.5      5.080      9.800
REMARK SMILES COc1ncnc(N2CCSC[C@@H]2CC(=O)OCCOC(=O)c2ccc(-c3c4nc(c(-c5cccc(S(=O)(=O)[O-])c5F)c5ccc([nH]5)c(-c5cccc(S(=O)(=O)[O-])c5F)c5nc(c(-c6cccc(S(=O)(=O)[O-])c6F)c6ccc3[nH]6)C=C5)C=C4)cc2)c1[N+](=O)[O-]
REMARK SMILES IDX 18 1 17 2 15 3 16 4 14 5 13 6 8 7 9 8 10 9 12 10 11 11 7 12
REMARK SMILES IDX 3 13 4 14 86 15 5 16 6 17 2 18 1 19 87 20 88 21 89 22 19 23
REMARK SMILES IDX 20 24 21 25 22 26 23 27 24 28 85 29 25 30 84 31 26 32 27 33
REMARK SMILES IDX 28 34 78 35 29 36 83 37 77 38 79 39 30 40 82 41 76 42 75 43
REMARK SMILES IDX 31 45 63 46 43 47 62 48 44 49 47 50 61 51 80 52 45 53 46 54
REMARK SMILES IDX 60 56 81 57 48 58 32 59 33 60 41 61 34 62 36 63 42 64 35 65
REMARK SMILES IDX 37 66 38 67 39 68 40 69 64 70 65 71 73 72 66 73 68 74 74 75
REMARK SMILES IDX 67 76 69 77 70 78 71 79 72 80 49 81 50 82 58 83 51 84 53 85
REMARK SMILES IDX 59 86 52 87 54 88 55 89 56 90 57 91
REMARK H PARENT 79 44 47 55
REMARK Flexibility Score: inf
ROOT
ATOM      1  C   UNL A   1      35.858  20.905  25.136  1.00  0.00     0.274 C 
ENDROOT
BRANCH   1   2
ATOM      2  O   UNL A   1      35.535  21.482  26.422  1.00  0.00    -0.462 OA
BRANCH   2   3
ATOM      3  C   UNL A   1      34.621  22.482  26.420  1.00  0.00     0.308 C 
ATOM      4  O   UNL A   1      33.532  22.426  26.979  1.00  0.00    -0.252 OA
BRANCH   3   5
ATOM      5  C   UNL A   1      34.950  23.584  25.447  1.00  0.00     0.148 C 
BRANCH   5   6
ATOM      6  C   UNL A   1      34.053  23.967  24.264  1.00  0.00     0.105 C 
ATOM      7  N   UNL A   1      32.765  24.568  24.648  1.00  0.00    -0.345 N 
ATOM      8  C   UNL A   1      31.515  23.791  24.698  1.00  0.00     0.129 C 
ATOM      9  C   UNL A   1      31.278  22.916  23.470  1.00  0.00     0.091 C 
ATOM     10  C   UNL A   1      33.973  22.947  23.115  1.00  0.00     0.095 C 
ATOM     11  S   UNL A   1      32.629  21.747  23.190  1.00  0.00    -0.158 SA
BRANCH   7  12
ATOM     12  C   UNL A   1      32.675  25.945  24.688  1.00  0.00     0.215 A 
ATOM     13  C   UNL A   1      32.484  28.105  23.749  1.00  0.00     0.299 A 
ATOM     14  N   UNL A   1      32.447  28.687  24.963  1.00  0.00    -0.196 NA
ATOM     15  C   UNL A   1      32.633  26.752  23.570  1.00  0.00     0.372 A 
ATOM     16  C   UNL A   1      32.522  27.841  25.998  1.00  0.00     0.228 A 
ATOM     17  N   UNL A   1      32.608  26.504  25.917  1.00  0.00    -0.212 NA
BRANCH  13  18
ATOM     18  O   UNL A   1      32.438  28.969  22.684  1.00  0.00    -0.476 OA
ATOM     19  C   UNL A   1      31.088  29.357  22.429  1.00  0.00     0.280 C 
ENDBRANCH  13  18
BRANCH  15  20
ATOM     20  N   UNL A   1      32.587  26.218  22.251  1.00  0.00     0.072 N 
ATOM     21  O   UNL A   1      31.467  25.925  21.804  1.00  0.00    -0.258 OA
ATOM     22  O   UNL A   1      33.653  26.144  21.626  1.00  0.00    -0.258 OA
ENDBRANCH  15  20
ENDBRANCH   7  12
ENDBRANCH   5   6
ENDBRANCH   3   5
ENDBRANCH   2   3
ENDBRANCH   1   2
BRANCH   1  23
ATOM     23  C   UNL A   1      37.348  20.625  25.001  1.00  0.00     0.275 C 
BRANCH  23  24
ATOM     24  O   UNL A   1      38.083  21.792  25.399  1.00  0.00    -0.458 OA
BRANCH  24  25
ATOM     25  C   UNL A   1      39.194  21.553  26.128  1.00  0.00     0.338 C 
ATOM     26  O   UNL A   1      39.719  20.476  26.349  1.00  0.00    -0.246 OA
BRANCH  25  27
ATOM     27  C   UNL A   1      39.706  22.817  26.670  1.00  0.00     0.060 A 
ATOM     28  C   UNL A   1      39.307  24.040  26.125  1.00  0.00     0.016 A 
ATOM     29  C   UNL A   1      40.694  22.761  27.650  1.00  0.00     0.016 A 
ATOM     30  C   UNL A   1      39.947  25.212  26.512  1.00  0.00     0.010 A 
ATOM     31  C   UNL A   1      41.282  23.942  28.091  1.00  0.00     0.010 A 
ATOM     32  C   UNL A   1      40.925  25.170  27.513  1.00  0.00    -0.014 A 
BRANCH  32  33
ATOM     33  C   UNL A   1      41.519  26.419  28.027  1.00  0.00     0.031 A 
ATOM     34  C   UNL A   1      40.670  27.444  28.715  1.00  0.00     0.074 A 
ATOM     35  C   UNL A   1      42.824  26.639  27.780  1.00  0.00     0.049 A 
ATOM     36  N   UNL A   1      40.990  28.654  29.089  1.00  0.00    -0.248 NA
ATOM     37  C   UNL A   1      39.278  27.069  29.010  1.00  0.00     0.031 C 
ATOM     38  C   UNL A   1      43.717  25.700  27.094  1.00  0.00     0.029 A 
ATOM     39  N   UNL A   1      43.615  27.725  28.038  1.00  0.00    -0.354 N 
ATOM     40  C   UNL A   1      39.829  29.206  29.618  1.00  0.00     0.074 A 
ATOM     41  C   UNL A   1      38.799  28.194  29.525  1.00  0.00     0.031 C 
ATOM     42  C   UNL A   1      44.931  26.256  26.975  1.00  0.00     0.029 A 
ATOM     43  C   UNL A   1      44.886  27.604  27.526  1.00  0.00     0.049 A 
ATOM     44  H   UNL A   1      43.306  28.513  28.540  1.00  0.00     0.167 HD
ATOM     45  C   UNL A   1      39.653  30.445  30.136  1.00  0.00     0.034 A 
ATOM     46  C   UNL A   1      45.893  28.494  27.477  1.00  0.00     0.034 A 
ATOM     47  C   UNL A   1      40.706  31.421  30.247  1.00  0.00     0.049 A 
ATOM     48  C   UNL A   1      45.676  29.846  28.089  1.00  0.00     0.074 A 
ATOM     49  C   UNL A   1      40.654  32.690  30.794  1.00  0.00     0.029 A 
ATOM     50  N   UNL A   1      42.007  31.233  29.797  1.00  0.00    -0.354 N 
ATOM     51  N   UNL A   1      44.601  30.321  28.671  1.00  0.00    -0.248 NA
ATOM     52  C   UNL A   1      46.812  30.774  28.064  1.00  0.00     0.031 C 
ATOM     53  C   UNL A   1      41.921  33.271  30.670  1.00  0.00     0.029 A 
ATOM     54  C   UNL A   1      42.767  32.362  30.054  1.00  0.00     0.049 A 
ATOM     55  H   UNL A   1      42.340  30.417  29.360  1.00  0.00     0.167 HD
ATOM     56  C   UNL A   1      44.934  31.598  29.099  1.00  0.00     0.074 A 
ATOM     57  C   UNL A   1      46.322  31.809  28.735  1.00  0.00     0.031 C 
ATOM     58  C   UNL A   1      44.159  32.523  29.717  1.00  0.00     0.034 A 
BRANCH  45  59
ATOM     59  C   UNL A   1      38.286  30.806  30.657  1.00  0.00     0.023 A 
ATOM     60  C   UNL A   1      37.936  30.469  31.980  1.00  0.00     0.012 A 
ATOM     61  C   UNL A   1      37.371  31.529  29.866  1.00  0.00     0.148 A 
ATOM     62  C   UNL A   1      36.694  30.827  32.502  1.00  0.00     0.002 A 
ATOM     63  C   UNL A   1      36.146  31.912  30.404  1.00  0.00     0.091 A 
ATOM     64  F   UNL A   1      37.709  31.820  28.602  1.00  0.00    -0.205 F 
ATOM     65  C   UNL A   1      35.804  31.556  31.718  1.00  0.00     0.022 A 
BRANCH  63  66
ATOM     66  S   UNL A   1      34.961  32.911  29.494  1.00  0.00     0.127 S 
ATOM     67  O   UNL A   1      34.418  31.938  28.548  1.00  0.00    -0.237 OA
ATOM     68  O   UNL A   1      34.029  33.322  30.545  1.00  0.00    -0.237 OA
ATOM     69  O   UNL A   1      35.725  34.002  28.905  1.00  0.00    -0.744 OA
ENDBRANCH  63  66
ENDBRANCH  45  59
BRANCH  46  70
ATOM     70  C   UNL A   1      47.194  28.091  26.878  1.00  0.00     0.023 A 
ATOM     71  C   UNL A   1      48.258  27.734  27.726  1.00  0.00     0.012 A 
ATOM     72  C   UNL A   1      47.354  27.968  25.484  1.00  0.00     0.148 A 
ATOM     73  C   UNL A   1      49.464  27.272  27.197  1.00  0.00     0.002 A 
ATOM     74  C   UNL A   1      48.537  27.453  24.965  1.00  0.00     0.091 A 
ATOM     75  F   UNL A   1      46.337  28.329  24.689  1.00  0.00    -0.205 F 
ATOM     76  C   UNL A   1      49.598  27.116  25.819  1.00  0.00     0.022 A 
BRANCH  74  77
ATOM     77  S   UNL A   1      48.723  27.078  23.217  1.00  0.00     0.127 S 
ATOM     78  O   UNL A   1      48.014  28.191  22.594  1.00  0.00    -0.237 OA
ATOM     79  O   UNL A   1      50.177  27.102  23.046  1.00  0.00    -0.237 OA
ATOM     80  O   UNL A   1      48.128  25.759  23.042  1.00  0.00    -0.744 OA
ENDBRANCH  74  77
ENDBRANCH  46  70
BRANCH  58  81
ATOM     81  C   UNL A   1      44.805  33.841  30.043  1.00  0.00     0.023 A 
ATOM     82  C   UNL A   1      45.500  33.989  31.259  1.00  0.00     0.012 A 
ATOM     83  C   UNL A   1      44.767  34.910  29.128  1.00  0.00     0.148 A 
ATOM     84  C   UNL A   1      46.123  35.194  31.574  1.00  0.00     0.002 A 
ATOM     85  C   UNL A   1      45.426  36.096  29.432  1.00  0.00     0.091 A 
ATOM     86  F   UNL A   1      44.078  34.757  27.989  1.00  0.00    -0.205 F 
ATOM     87  C   UNL A   1      46.096  36.243  30.657  1.00  0.00     0.022 A 
BRANCH  85  88
ATOM     88  S   UNL A   1      45.507  37.461  28.269  1.00  0.00     0.127 S 
ATOM     89  O   UNL A   1      46.134  36.831  27.109  1.00  0.00    -0.237 OA
ATOM     90  O   UNL A   1      44.096  37.805  28.087  1.00  0.00    -0.237 OA
ATOM     91  O   UNL A   1      46.294  38.495  28.929  1.00  0.00    -0.744 OA
ENDBRANCH  85  88
ENDBRANCH  58  81
ENDBRANCH  32  33
ENDBRANCH  25  27
ENDBRANCH  24  25
ENDBRANCH  23  24
ENDBRANCH   1  23
TORSDOF 18
ENDMDL
MODEL 3
REMARK VINA RESULT:     -10.4      1.317      1.666
REMARK SMILES COc1ncnc(N2CCSC[C@@H]2CC(=O)OCCOC(=O)c2ccc(-c3c4nc(c(-c5cccc(S(=O)(=O)[O-])c5F)c5ccc([nH]5)c(-c5cccc(S(=O)(=O)[O-])c5F)c5nc(c(-c6cccc(S(=O)(=O)[O-])c6F)c6ccc3[nH]6)C=C5)C=C4)cc2)c1[N+](=O)[O-]
REMARK SMILES IDX 18 1 17 2 15 3 16 4 14 5 13 6 8 7 9 8 10 9 12 10 11 11 7 12
REMARK SMILES IDX 3 13 4 14 86 15 5 16 6 17 2 18 1 19 87 20 88 21 89 22 19 23
REMARK SMILES IDX 20 24 21 25 22 26 23 27 24 28 85 29 25 30 84 31 26 32 27 33
REMARK SMILES IDX 28 34 78 35 29 36 83 37 77 38 79 39 30 40 82 41 76 42 75 43
REMARK SMILES IDX 31 45 63 46 43 47 62 48 44 49 47 50 61 51 80 52 45 53 46 54
REMARK SMILES IDX 60 56 81 57 48 58 32 59 33 60 41 61 34 62 36 63 42 64 35 65
REMARK SMILES IDX 37 66 38 67 39 68 40 69 64 70 65 71 73 72 66 73 68 74 74 75
REMARK SMILES IDX 67 76 69 77 70 78 71 79 72 80 49 81 50 82 58 83 51 84 53 85
REMARK SMILES IDX 59 86 52 87 54 88 55 89 56 90 57 91
REMARK H PARENT 79 44 47 55
REMARK Flexibility Score: inf
ROOT
ATOM      1  C   UNL A   1      32.567  29.655  25.061  1.00  0.00     0.274 C 
ENDROOT
BRANCH   1   2
ATOM      2  O   UNL A   1      33.514  28.684  25.558  1.00  0.00    -0.462 OA
BRANCH   2   3
ATOM      3  C   UNL A   1      33.664  27.557  24.820  1.00  0.00     0.308 C 
ATOM      4  O   UNL A   1      33.625  27.521  23.595  1.00  0.00    -0.252 OA
BRANCH   3   5
ATOM      5  C   UNL A   1      33.625  26.298  25.645  1.00  0.00     0.148 C 
BRANCH   5   6
ATOM      6  C   UNL A   1      32.455  25.307  25.627  1.00  0.00     0.105 C 
ATOM      7  N   UNL A   1      32.540  24.285  24.572  1.00  0.00    -0.345 N 
ATOM      8  C   UNL A   1      31.809  24.400  23.299  1.00  0.00     0.129 C 
ATOM      9  C   UNL A   1      30.341  24.788  23.458  1.00  0.00     0.091 C 
ATOM     10  C   UNL A   1      31.053  25.909  25.832  1.00  0.00     0.095 C 
ATOM     11  S   UNL A   1      30.139  26.353  24.342  1.00  0.00    -0.158 SA
BRANCH   7  12
ATOM     12  C   UNL A   1      33.092  23.060  24.894  1.00  0.00     0.215 A 
ATOM     13  C   UNL A   1      34.788  21.416  24.912  1.00  0.00     0.299 A 
ATOM     14  N   UNL A   1      34.053  20.590  25.679  1.00  0.00    -0.196 NA
ATOM     15  C   UNL A   1      34.333  22.635  24.471  1.00  0.00     0.372 A 
ATOM     16  C   UNL A   1      32.849  21.061  26.025  1.00  0.00     0.228 A 
ATOM     17  N   UNL A   1      32.347  22.261  25.691  1.00  0.00    -0.212 NA
BRANCH  13  18
ATOM     18  O   UNL A   1      36.012  20.927  24.530  1.00  0.00    -0.476 OA
ATOM     19  C   UNL A   1      36.958  21.101  25.584  1.00  0.00     0.280 C 
ENDBRANCH  13  18
BRANCH  15  20
ATOM     20  N   UNL A   1      35.209  23.473  23.725  1.00  0.00     0.072 N 
ATOM     21  O   UNL A   1      35.074  23.465  22.491  1.00  0.00    -0.258 OA
ATOM     22  O   UNL A   1      35.993  24.192  24.358  1.00  0.00    -0.258 OA
ENDBRANCH  15  20
ENDBRANCH   7  12
ENDBRANCH   5   6
ENDBRANCH   3   5
ENDBRANCH   2   3
ENDBRANCH   1   2
BRANCH   1  23
ATOM     23  C   UNL A   1      32.090  30.593  26.161  1.00  0.00     0.275 C 
BRANCH  23  24
ATOM     24  O   UNL A   1      33.003  30.524  27.266  1.00  0.00    -0.458 OA
BRANCH  24  25
ATOM     25  C   UNL A   1      33.655  31.672  27.548  1.00  0.00     0.338 C 
ATOM     26  O   UNL A   1      33.299  32.809  27.293  1.00  0.00    -0.246 OA
BRANCH  25  27
ATOM     27  C   UNL A   1      34.924  31.363  28.219  1.00  0.00     0.060 A 
ATOM     28  C   UNL A   1      35.953  32.305  28.265  1.00  0.00     0.016 A 
ATOM     29  C   UNL A   1      35.120  30.067  28.690  1.00  0.00     0.016 A 
ATOM     30  C   UNL A   1      37.212  31.933  28.724  1.00  0.00     0.010 A 
ATOM     31  C   UNL A   1      36.358  29.716  29.218  1.00  0.00     0.010 A 
ATOM     32  C   UNL A   1      37.415  30.641  29.221  1.00  0.00    -0.014 A 
BRANCH  32  33
ATOM     33  C   UNL A   1      38.706  30.270  29.832  1.00  0.00     0.031 A 
ATOM     34  C   UNL A   1      39.600  29.261  29.178  1.00  0.00     0.074 A 
ATOM     35  C   UNL A   1      39.006  30.802  31.032  1.00  0.00     0.049 A 
ATOM     36  N   UNL A   1      40.686  28.706  29.645  1.00  0.00    -0.248 NA
ATOM     37  C   UNL A   1      39.220  28.806  27.831  1.00  0.00     0.031 C 
ATOM     38  C   UNL A   1      38.177  31.775  31.748  1.00  0.00     0.029 A 
ATOM     39  N   UNL A   1      40.061  30.577  31.874  1.00  0.00    -0.354 N 
ATOM     40  C   UNL A   1      41.095  27.798  28.675  1.00  0.00     0.074 A 
ATOM     41  C   UNL A   1      40.144  27.885  27.587  1.00  0.00     0.031 C 
ATOM     42  C   UNL A   1      38.747  32.055  32.928  1.00  0.00     0.029 A 
ATOM     43  C   UNL A   1      39.949  31.244  33.071  1.00  0.00     0.049 A 
ATOM     44  H   UNL A   1      40.823  29.997  31.645  1.00  0.00     0.167 HD
ATOM     45  C   UNL A   1      42.172  26.977  28.699  1.00  0.00     0.034 A 
ATOM     46  C   UNL A   1      40.715  31.183  34.176  1.00  0.00     0.034 A 
ATOM     47  C   UNL A   1      43.121  26.937  29.781  1.00  0.00     0.049 A 
ATOM     48  C   UNL A   1      41.918  30.288  34.158  1.00  0.00     0.074 A 
ATOM     49  C   UNL A   1      44.271  26.177  29.893  1.00  0.00     0.029 A 
ATOM     50  N   UNL A   1      43.026  27.691  30.943  1.00  0.00    -0.354 N 
ATOM     51  N   UNL A   1      42.345  29.505  33.195  1.00  0.00    -0.248 NA
ATOM     52  C   UNL A   1      42.759  30.285  35.360  1.00  0.00     0.031 C 
ATOM     53  C   UNL A   1      44.868  26.468  31.125  1.00  0.00     0.029 A 
ATOM     54  C   UNL A   1      44.096  27.416  31.778  1.00  0.00     0.049 A 
ATOM     55  H   UNL A   1      42.304  28.329  31.144  1.00  0.00     0.167 HD
ATOM     56  C   UNL A   1      43.515  28.928  33.667  1.00  0.00     0.074 A 
ATOM     57  C   UNL A   1      43.744  29.476  34.990  1.00  0.00     0.031 C 
ATOM     58  C   UNL A   1      44.318  28.012  33.072  1.00  0.00     0.034 A 
BRANCH  45  59
ATOM     59  C   UNL A   1      42.404  26.082  27.509  1.00  0.00     0.023 A 
ATOM     60  C   UNL A   1      43.122  26.575  26.400  1.00  0.00     0.012 A 
ATOM     61  C   UNL A   1      41.971  24.741  27.508  1.00  0.00     0.148 A 
ATOM     62  C   UNL A   1      43.388  25.756  25.304  1.00  0.00     0.002 A 
ATOM     63  C   UNL A   1      42.269  23.921  26.425  1.00  0.00     0.091 A 
ATOM     64  F   UNL A   1      41.268  24.296  28.559  1.00  0.00    -0.205 F 
ATOM     65  C   UNL A   1      42.971  24.428  25.320  1.00  0.00     0.022 A 
BRANCH  63  66
ATOM     66  S   UNL A   1      41.832  22.178  26.384  1.00  0.00     0.127 S 
ATOM     67  O   UNL A   1      42.487  21.737  25.153  1.00  0.00    -0.237 OA
ATOM     68  O   UNL A   1      42.446  21.673  27.613  1.00  0.00    -0.237 OA
ATOM     69  O   UNL A   1      40.376  22.131  26.373  1.00  0.00    -0.744 OA
ENDBRANCH  63  66
ENDBRANCH  45  59
BRANCH  46  70
ATOM     70  C   UNL A   1      40.379  32.041  35.344  1.00  0.00     0.023 A 
ATOM     71  C   UNL A   1      41.080  33.246  35.533  1.00  0.00     0.012 A 
ATOM     72  C   UNL A   1      39.313  31.722  36.209  1.00  0.00     0.148 A 
ATOM     73  C   UNL A   1      40.734  34.114  36.569  1.00  0.00     0.002 A 
ATOM     74  C   UNL A   1      38.937  32.618  37.204  1.00  0.00     0.091 A 
ATOM     75  F   UNL A   1      38.668  30.562  36.026  1.00  0.00    -0.205 F 
ATOM     76  C   UNL A   1      39.654  33.808  37.394  1.00  0.00     0.022 A 
BRANCH  74  77
ATOM     77  S   UNL A   1      37.462  32.365  38.200  1.00  0.00     0.127 S 
ATOM     78  O   UNL A   1      37.801  33.082  39.425  1.00  0.00    -0.237 OA
ATOM     79  O   UNL A   1      36.423  32.997  37.385  1.00  0.00    -0.237 OA
ATOM     80  O   UNL A   1      37.324  30.919  38.320  1.00  0.00    -0.744 OA
ENDBRANCH  74  77
ENDBRANCH  46  70
BRANCH  58  81
ATOM     81  C   UNL A   1      45.520  27.556  33.850  1.00  0.00     0.023 A 
ATOM     82  C   UNL A   1      46.725  28.279  33.748  1.00  0.00     0.012 A 
ATOM     83  C   UNL A   1      45.444  26.449  34.715  1.00  0.00     0.148 A 
ATOM     84  C   UNL A   1      47.847  27.888  34.475  1.00  0.00     0.002 A 
ATOM     85  C   UNL A   1      46.556  26.089  35.468  1.00  0.00     0.091 A 
ATOM     86  F   UNL A   1      44.296  25.759  34.777  1.00  0.00    -0.205 F 
ATOM     87  C   UNL A   1      47.760  26.801  35.343  1.00  0.00     0.022 A 
BRANCH  85  88
ATOM     88  S   UNL A   1      46.499  24.754  36.667  1.00  0.00     0.127 S 
ATOM     89  O   UNL A   1      46.229  23.597  35.816  1.00  0.00    -0.237 OA
ATOM     90  O   UNL A   1      47.846  24.787  37.241  1.00  0.00    -0.237 OA
ATOM     91  O   UNL A   1      45.441  25.110  37.604  1.00  0.00    -0.744 OA
ENDBRANCH  85  88
ENDBRANCH  58  81
ENDBRANCH  32  33
ENDBRANCH  25  27
ENDBRANCH  24  25
ENDBRANCH  23  24
ENDBRANCH   1  23
TORSDOF 18
ENDMDL
