MODEL 1
REMARK VINA RESULT:     -12.2      0.000      0.000
REMARK SMILES CC(C)[C@H](NC(=O)[C@H]1CC(=O)N(c2ccc(F)cc2)C1)C(=O)N1CCC[C@@H]1C(=O)OCCOC(=O)c1ccc(-c2c3nc(c(-c4cccc(S(=O)(=O)[O-])c4F)c4ccc([nH]4)c(-c4cccc(S(=O)(=O)[O-])c4F)c4nc(c(-c5cccc(S(=O)(=O)[O-])c5F)c5ccc2[nH]5)C=C4)C=C3)cc1
REMARK SMILES IDX 31 1 30 2 28 3 29 4 27 5 23 6 24 7 25 8 26 9 21 10 22 11
REMARK SMILES IDX 4 12 2 13 1 14 3 15 5 16 6 17 7 19 8 20 9 21 20 22 10 23
REMARK SMILES IDX 12 24 11 25 13 26 14 27 19 28 15 29 18 30 16 31 17 32 32 33
REMARK SMILES IDX 33 34 34 35 35 36 36 37 37 38 98 39 38 40 97 41 39 42 40 43
REMARK SMILES IDX 41 44 91 45 42 46 96 47 90 48 92 49 43 50 95 51 89 52 88 53
REMARK SMILES IDX 44 55 76 56 56 57 75 58 57 59 60 60 74 61 93 62 58 63 59 64
REMARK SMILES IDX 73 66 94 67 61 68 45 69 46 70 54 71 47 72 49 73 55 74 48 75
REMARK SMILES IDX 50 76 51 77 52 78 53 79 77 80 78 81 86 82 79 83 81 84 87 85
REMARK SMILES IDX 80 86 82 87 83 88 84 89 85 90 62 91 63 92 71 93 64 94 66 95
REMARK SMILES IDX 72 96 65 97 67 98 68 99 69 100 70 101
REMARK H PARENT 5 18 92 54 60 65
REMARK Flexibility Score: inf
ROOT
ATOM      1  C   UNL A   1      32.728  29.519  24.797  1.00  0.00     0.274 C 
ENDROOT
BRANCH   1   2
ATOM      2  O   UNL A   1      32.061  28.618  23.889  1.00  0.00    -0.461 OA
BRANCH   2   3
ATOM      3  C   UNL A   1      32.800  27.543  23.501  1.00  0.00     0.328 C 
ATOM      4  O   UNL A   1      34.025  27.563  23.427  1.00  0.00    -0.250 OA
BRANCH   3   5
ATOM      5  C   UNL A   1      31.954  26.346  23.025  1.00  0.00     0.195 C 
ATOM      6  N   UNL A   1      32.437  25.149  23.703  1.00  0.00    -0.327 N 
ATOM      7  C   UNL A   1      32.699  24.079  22.763  1.00  0.00     0.120 C 
ATOM      8  C   UNL A   1      32.908  24.793  21.440  1.00  0.00     0.024 C 
ATOM      9  C   UNL A   1      31.992  26.010  21.534  1.00  0.00     0.039 C 
BRANCH   6  10
ATOM     10  C   UNL A   1      32.297  25.025  25.068  1.00  0.00     0.246 C 
ATOM     11  O   UNL A   1      31.692  25.860  25.738  1.00  0.00    -0.272 OA
BRANCH  10  12
ATOM     12  C   UNL A   1      33.001  23.826  25.742  1.00  0.00     0.174 C 
BRANCH  12  13
ATOM     13  C   UNL A   1      32.095  23.240  26.872  1.00  0.00     0.015 C 
ATOM     14  C   UNL A   1      30.906  22.495  26.250  1.00  0.00     0.010 C 
ATOM     15  C   UNL A   1      32.813  22.323  27.862  1.00  0.00     0.010 C 
ENDBRANCH  12  13
BRANCH  12  16
ATOM     16  N   UNL A   1      34.346  24.213  26.152  1.00  0.00    -0.344 N 
ATOM     17  C   UNL A   1      35.535  23.714  25.714  1.00  0.00     0.226 C 
ATOM     18  H   UNL A   1      34.401  24.923  26.830  1.00  0.00     0.164 HD
ATOM     19  O   UNL A   1      36.562  24.164  26.227  1.00  0.00    -0.275 OA
BRANCH  17  20
ATOM     20  C   UNL A   1      35.574  22.626  24.656  1.00  0.00     0.107 C 
ATOM     21  C   UNL A   1      36.912  21.901  24.671  1.00  0.00     0.116 C 
ATOM     22  C   UNL A   1      34.529  21.563  24.957  1.00  0.00     0.139 C 
ATOM     23  C   UNL A   1      36.575  20.435  24.693  1.00  0.00     0.227 C 
ATOM     24  N   UNL A   1      35.192  20.292  24.805  1.00  0.00    -0.312 N 
ATOM     25  O   UNL A   1      37.427  19.563  24.602  1.00  0.00    -0.274 OA
BRANCH  24  26
ATOM     26  C   UNL A   1      34.500  19.054  24.875  1.00  0.00     0.044 A 
ATOM     27  C   UNL A   1      33.143  19.003  25.229  1.00  0.00     0.029 A 
ATOM     28  C   UNL A   1      35.154  17.845  24.588  1.00  0.00     0.029 A 
ATOM     29  C   UNL A   1      32.456  17.787  25.287  1.00  0.00     0.041 A 
ATOM     30  C   UNL A   1      34.476  16.623  24.675  1.00  0.00     0.041 A 
ATOM     31  C   UNL A   1      33.132  16.607  25.015  1.00  0.00     0.123 A 
ATOM     32  F   UNL A   1      32.477  15.440  25.078  1.00  0.00    -0.207 F 
ENDBRANCH  24  26
ENDBRANCH  17  20
ENDBRANCH  12  16
ENDBRANCH  10  12
ENDBRANCH   6  10
ENDBRANCH   3   5
ENDBRANCH   2   3
ENDBRANCH   1   2
BRANCH   1  33
ATOM     33  C   UNL A   1      31.733  30.312  25.650  1.00  0.00     0.275 C 
BRANCH  33  34
ATOM     34  O   UNL A   1      32.192  30.512  27.000  1.00  0.00    -0.458 OA
BRANCH  34  35
ATOM     35  C   UNL A   1      32.913  31.641  27.190  1.00  0.00     0.338 C 
ATOM     36  O   UNL A   1      32.520  32.791  27.080  1.00  0.00    -0.246 OA
BRANCH  35  37
ATOM     37  C   UNL A   1      34.252  31.320  27.705  1.00  0.00     0.060 A 
ATOM     38  C   UNL A   1      34.511  29.994  28.052  1.00  0.00     0.016 A 
ATOM     39  C   UNL A   1      35.189  32.316  27.972  1.00  0.00     0.016 A 
ATOM     40  C   UNL A   1      35.695  29.650  28.693  1.00  0.00     0.010 A 
ATOM     41  C   UNL A   1      36.388  31.971  28.608  1.00  0.00     0.010 A 
ATOM     42  C   UNL A   1      36.637  30.640  28.990  1.00  0.00    -0.014 A 
BRANCH  42  43
ATOM     43  C   UNL A   1      37.857  30.274  29.743  1.00  0.00     0.031 A 
ATOM     44  C   UNL A   1      38.871  29.354  29.125  1.00  0.00     0.074 A 
ATOM     45  C   UNL A   1      38.062  30.787  30.971  1.00  0.00     0.049 A 
ATOM     46  N   UNL A   1      39.958  28.857  29.650  1.00  0.00    -0.248 NA
ATOM     47  C   UNL A   1      38.630  28.939  27.733  1.00  0.00     0.031 C 
ATOM     48  C   UNL A   1      37.161  31.716  31.654  1.00  0.00     0.029 A 
ATOM     49  N   UNL A   1      39.084  30.592  31.864  1.00  0.00    -0.354 N 
ATOM     50  C   UNL A   1      40.509  28.036  28.675  1.00  0.00     0.074 A 
ATOM     51  C   UNL A   1      39.639  28.104  27.522  1.00  0.00     0.031 C 
ATOM     52  C   UNL A   1      37.666  32.004  32.863  1.00  0.00     0.029 A 
ATOM     53  C   UNL A   1      38.899  31.247  33.058  1.00  0.00     0.049 A 
ATOM     54  H   UNL A   1      39.873  30.036  31.669  1.00  0.00     0.167 HD
ATOM     55  C   UNL A   1      41.645  27.303  28.736  1.00  0.00     0.034 A 
ATOM     56  C   UNL A   1      39.628  31.220  34.192  1.00  0.00     0.034 A 
ATOM     57  C   UNL A   1      42.532  27.284  29.868  1.00  0.00     0.049 A 
ATOM     58  C   UNL A   1      40.881  30.391  34.234  1.00  0.00     0.074 A 
ATOM     59  C   UNL A   1      43.725  26.598  30.010  1.00  0.00     0.029 A 
ATOM     60  N   UNL A   1      42.329  27.984  31.047  1.00  0.00    -0.354 N 
ATOM     61  N   UNL A   1      41.421  29.669  33.283  1.00  0.00    -0.248 NA
ATOM     62  C   UNL A   1      41.635  30.383  35.497  1.00  0.00     0.031 C 
ATOM     63  C   UNL A   1      44.239  26.875  31.281  1.00  0.00     0.029 A 
ATOM     64  C   UNL A   1      43.371  27.743  31.924  1.00  0.00     0.049 A 
ATOM     65  H   UNL A   1      41.557  28.567  31.232  1.00  0.00     0.167 HD
ATOM     66  C   UNL A   1      42.587  29.136  33.821  1.00  0.00     0.074 A 
ATOM     67  C   UNL A   1      42.687  29.638  35.177  1.00  0.00     0.031 C 
ATOM     68  C   UNL A   1      43.482  28.292  33.252  1.00  0.00     0.034 A 
BRANCH  55  69
ATOM     69  C   UNL A   1      42.023  26.483  27.533  1.00  0.00     0.023 A 
ATOM     70  C   UNL A   1      42.745  27.084  26.483  1.00  0.00     0.012 A 
ATOM     71  C   UNL A   1      41.744  25.104  27.484  1.00  0.00     0.148 A 
ATOM     72  C   UNL A   1      43.172  26.326  25.394  1.00  0.00     0.002 A 
ATOM     73  C   UNL A   1      42.204  24.347  26.412  1.00  0.00     0.091 A 
ATOM     74  F   UNL A   1      41.035  24.558  28.483  1.00  0.00    -0.205 F 
ATOM     75  C   UNL A   1      42.912  24.958  25.364  1.00  0.00     0.022 A 
BRANCH  73  76
ATOM     76  S   UNL A   1      41.981  22.567  26.316  1.00  0.00     0.127 S 
ATOM     77  O   UNL A   1      40.523  22.453  26.288  1.00  0.00    -0.237 OA
ATOM     78  O   UNL A   1      42.642  22.240  25.053  1.00  0.00    -0.237 OA
ATOM     79  O   UNL A   1      42.627  22.017  27.500  1.00  0.00    -0.744 OA
ENDBRANCH  73  76
ENDBRANCH  55  69
BRANCH  56  80
ATOM     80  C   UNL A   1      39.194  32.039  35.359  1.00  0.00     0.023 A 
ATOM     81  C   UNL A   1      38.358  31.466  36.335  1.00  0.00     0.012 A 
ATOM     82  C   UNL A   1      39.667  33.355  35.545  1.00  0.00     0.148 A 
ATOM     83  C   UNL A   1      37.993  32.189  37.471  1.00  0.00     0.002 A 
ATOM     84  C   UNL A   1      39.345  34.049  36.706  1.00  0.00     0.091 A 
ATOM     85  F   UNL A   1      40.440  33.893  34.592  1.00  0.00    -0.205 F 
ATOM     86  C   UNL A   1      38.499  33.472  37.665  1.00  0.00     0.022 A 
BRANCH  84  87
ATOM     87  S   UNL A   1      40.071  35.646  37.098  1.00  0.00     0.127 S 
ATOM     88  O   UNL A   1      39.652  36.454  35.956  1.00  0.00    -0.237 OA
ATOM     89  O   UNL A   1      39.415  35.980  38.362  1.00  0.00    -0.237 OA
ATOM     90  O   UNL A   1      41.503  35.405  37.214  1.00  0.00    -0.744 OA
ENDBRANCH  84  87
ENDBRANCH  56  80
BRANCH  68  91
ATOM     91  C   UNL A   1      44.658  27.847  34.079  1.00  0.00     0.023 A 
ATOM     92  C   UNL A   1      45.798  28.672  34.155  1.00  0.00     0.012 A 
ATOM     93  C   UNL A   1      44.586  26.686  34.873  1.00  0.00     0.148 A 
ATOM     94  C   UNL A   1      46.854  28.341  35.001  1.00  0.00     0.002 A 
ATOM     95  C   UNL A   1      45.626  26.384  35.745  1.00  0.00     0.091 A 
ATOM     96  F   UNL A   1      43.499  25.908  34.770  1.00  0.00    -0.205 F 
ATOM     97  C   UNL A   1      46.763  27.206  35.805  1.00  0.00     0.022 A 
BRANCH  95  98
ATOM     98  S   UNL A   1      45.551  25.001  36.888  1.00  0.00     0.127 S 
ATOM     99  O   UNL A   1      45.756  23.863  35.994  1.00  0.00    -0.237 OA
ATOM    100  O   UNL A   1      46.670  25.278  37.789  1.00  0.00    -0.237 OA
ATOM    101  O   UNL A   1      44.239  25.073  37.518  1.00  0.00    -0.744 OA
ENDBRANCH  95  98
ENDBRANCH  68  91
ENDBRANCH  42  43
ENDBRANCH  35  37
ENDBRANCH  34  35
ENDBRANCH  33  34
ENDBRANCH   1  33
TORSDOF 20
ENDMDL
MODEL 2
REMARK VINA RESULT:     -11.6      1.763      2.135
REMARK SMILES CC(C)[C@H](NC(=O)[C@H]1CC(=O)N(c2ccc(F)cc2)C1)C(=O)N1CCC[C@@H]1C(=O)OCCOC(=O)c1ccc(-c2c3nc(c(-c4cccc(S(=O)(=O)[O-])c4F)c4ccc([nH]4)c(-c4cccc(S(=O)(=O)[O-])c4F)c4nc(c(-c5cccc(S(=O)(=O)[O-])c5F)c5ccc2[nH]5)C=C4)C=C3)cc1
REMARK SMILES IDX 31 1 30 2 28 3 29 4 27 5 23 6 24 7 25 8 26 9 21 10 22 11
REMARK SMILES IDX 4 12 2 13 1 14 3 15 5 16 6 17 7 19 8 20 9 21 20 22 10 23
REMARK SMILES IDX 12 24 11 25 13 26 14 27 19 28 15 29 18 30 16 31 17 32 32 33
REMARK SMILES IDX 33 34 34 35 35 36 36 37 37 38 98 39 38 40 97 41 39 42 40 43
REMARK SMILES IDX 41 44 91 45 42 46 96 47 90 48 92 49 43 50 95 51 89 52 88 53
REMARK SMILES IDX 44 55 76 56 56 57 75 58 57 59 60 60 74 61 93 62 58 63 59 64
REMARK SMILES IDX 73 66 94 67 61 68 45 69 46 70 54 71 47 72 49 73 55 74 48 75
REMARK SMILES IDX 50 76 51 77 52 78 53 79 77 80 78 81 86 82 79 83 81 84 87 85
REMARK SMILES IDX 80 86 82 87 83 88 84 89 85 90 62 91 63 92 71 93 64 94 66 95
REMARK SMILES IDX 72 96 65 97 67 98 68 99 69 100 70 101
REMARK H PARENT 5 18 92 54 60 65
REMARK Flexibility Score: inf
ROOT
ATOM      1  C   UNL A   1      32.864  29.524  25.001  1.00  0.00     0.274 C 
ENDROOT
BRANCH   1   2
ATOM      2  O   UNL A   1      32.166  28.772  23.987  1.00  0.00    -0.461 OA
BRANCH   2   3
ATOM      3  C   UNL A   1      32.858  27.718  23.476  1.00  0.00     0.328 C 
ATOM      4  O   UNL A   1      34.083  27.674  23.439  1.00  0.00    -0.250 OA
BRANCH   3   5
ATOM      5  C   UNL A   1      31.964  26.646  22.821  1.00  0.00     0.195 C 
ATOM      6  N   UNL A   1      32.321  25.349  23.382  1.00  0.00    -0.327 N 
ATOM      7  C   UNL A   1      32.569  24.373  22.342  1.00  0.00     0.120 C 
ATOM      8  C   UNL A   1      32.909  25.211  21.123  1.00  0.00     0.024 C 
ATOM      9  C   UNL A   1      32.073  26.476  21.306  1.00  0.00     0.039 C 
BRANCH   6  10
ATOM     10  C   UNL A   1      32.087  25.086  24.714  1.00  0.00     0.246 C 
ATOM     11  O   UNL A   1      31.357  25.800  25.400  1.00  0.00    -0.272 OA
BRANCH  10  12
ATOM     12  C   UNL A   1      32.844  23.893  25.340  1.00  0.00     0.174 C 
BRANCH  12  13
ATOM     13  C   UNL A   1      31.950  23.198  26.416  1.00  0.00     0.015 C 
ATOM     14  C   UNL A   1      31.100  22.103  25.757  1.00  0.00     0.010 C 
ATOM     15  C   UNL A   1      32.712  22.609  27.603  1.00  0.00     0.010 C 
ENDBRANCH  12  13
BRANCH  12  16
ATOM     16  N   UNL A   1      34.156  24.330  25.800  1.00  0.00    -0.344 N 
ATOM     17  C   UNL A   1      35.377  23.828  25.463  1.00  0.00     0.226 C 
ATOM     18  H   UNL A   1      34.161  25.083  26.434  1.00  0.00     0.164 HD
ATOM     19  O   UNL A   1      36.364  24.328  26.004  1.00  0.00    -0.275 OA
BRANCH  17  20
ATOM     20  C   UNL A   1      35.493  22.677  24.480  1.00  0.00     0.107 C 
ATOM     21  C   UNL A   1      36.819  21.949  24.652  1.00  0.00     0.116 C 
ATOM     22  C   UNL A   1      34.417  21.639  24.757  1.00  0.00     0.139 C 
ATOM     23  C   UNL A   1      36.469  20.489  24.735  1.00  0.00     0.227 C 
ATOM     24  N   UNL A   1      35.080  20.358  24.739  1.00  0.00    -0.312 N 
ATOM     25  O   UNL A   1      37.317  19.610  24.768  1.00  0.00    -0.274 OA
BRANCH  24  26
ATOM     26  C   UNL A   1      34.373  19.129  24.826  1.00  0.00     0.044 A 
ATOM     27  C   UNL A   1      34.749  18.022  24.050  1.00  0.00     0.029 A 
ATOM     28  C   UNL A   1      33.278  18.988  25.694  1.00  0.00     0.029 A 
ATOM     29  C   UNL A   1      34.062  16.808  24.144  1.00  0.00     0.041 A 
ATOM     30  C   UNL A   1      32.570  17.782  25.766  1.00  0.00     0.041 A 
ATOM     31  C   UNL A   1      32.975  16.701  24.997  1.00  0.00     0.123 A 
ATOM     32  F   UNL A   1      32.310  15.542  25.081  1.00  0.00    -0.207 F 
ENDBRANCH  24  26
ENDBRANCH  17  20
ENDBRANCH  12  16
ENDBRANCH  10  12
ENDBRANCH   6  10
ENDBRANCH   3   5
ENDBRANCH   2   3
ENDBRANCH   1   2
BRANCH   1  33
ATOM     33  C   UNL A   1      31.898  30.248  25.943  1.00  0.00     0.275 C 
BRANCH  33  34
ATOM     34  O   UNL A   1      32.455  30.467  27.252  1.00  0.00    -0.458 OA
BRANCH  34  35
ATOM     35  C   UNL A   1      33.185  31.600  27.373  1.00  0.00     0.338 C 
ATOM     36  O   UNL A   1      32.786  32.747  27.258  1.00  0.00    -0.246 OA
BRANCH  35  37
ATOM     37  C   UNL A   1      34.551  31.291  27.819  1.00  0.00     0.060 A 
ATOM     38  C   UNL A   1      34.817  29.984  28.230  1.00  0.00     0.016 A 
ATOM     39  C   UNL A   1      35.515  32.287  27.962  1.00  0.00     0.016 A 
ATOM     40  C   UNL A   1      36.037  29.662  28.811  1.00  0.00     0.010 A 
ATOM     41  C   UNL A   1      36.749  31.963  28.539  1.00  0.00     0.010 A 
ATOM     42  C   UNL A   1      37.008  30.654  28.985  1.00  0.00    -0.014 A 
BRANCH  42  43
ATOM     43  C   UNL A   1      38.271  30.315  29.679  1.00  0.00     0.031 A 
ATOM     44  C   UNL A   1      39.221  29.328  29.064  1.00  0.00     0.074 A 
ATOM     45  C   UNL A   1      38.571  30.913  30.847  1.00  0.00     0.049 A 
ATOM     46  N   UNL A   1      40.333  28.846  29.549  1.00  0.00    -0.248 NA
ATOM     47  C   UNL A   1      38.875  28.816  27.727  1.00  0.00     0.031 C 
ATOM     48  C   UNL A   1      37.738  31.913  31.517  1.00  0.00     0.029 A 
ATOM     49  N   UNL A   1      39.650  30.761  31.680  1.00  0.00    -0.354 N 
ATOM     50  C   UNL A   1      40.799  27.941  28.604  1.00  0.00     0.074 A 
ATOM     51  C   UNL A   1      39.851  27.944  27.511  1.00  0.00     0.031 C 
ATOM     52  C   UNL A   1      38.333  32.278  32.664  1.00  0.00     0.029 A 
ATOM     53  C   UNL A   1      39.562  31.508  32.830  1.00  0.00     0.049 A 
ATOM     54  H   UNL A   1      40.412  30.173  31.474  1.00  0.00     0.167 HD
ATOM     55  C   UNL A   1      41.922  27.188  28.643  1.00  0.00     0.034 A 
ATOM     56  C   UNL A   1      40.368  31.548  33.910  1.00  0.00     0.034 A 
ATOM     57  C   UNL A   1      42.886  27.231  29.708  1.00  0.00     0.049 A 
ATOM     58  C   UNL A   1      41.605  30.694  33.929  1.00  0.00     0.074 A 
ATOM     59  C   UNL A   1      44.072  26.529  29.820  1.00  0.00     0.029 A 
ATOM     60  N   UNL A   1      42.780  28.022  30.842  1.00  0.00    -0.354 N 
ATOM     61  N   UNL A   1      42.063  29.890  33.001  1.00  0.00    -0.248 NA
ATOM     62  C   UNL A   1      42.446  30.762  35.134  1.00  0.00     0.031 C 
ATOM     63  C   UNL A   1      44.680  26.888  31.028  1.00  0.00     0.029 A 
ATOM     64  C   UNL A   1      43.876  27.822  31.662  1.00  0.00     0.049 A 
ATOM     65  H   UNL A   1      42.033  28.635  31.035  1.00  0.00     0.167 HD
ATOM     66  C   UNL A   1      43.254  29.371  33.496  1.00  0.00     0.074 A 
ATOM     67  C   UNL A   1      43.458  29.970  34.800  1.00  0.00     0.031 C 
ATOM     68  C   UNL A   1      44.090  28.466  32.933  1.00  0.00     0.034 A 
BRANCH  55  69
ATOM     69  C   UNL A   1      42.199  26.271  27.482  1.00  0.00     0.023 A 
ATOM     70  C   UNL A   1      42.970  26.737  26.399  1.00  0.00     0.012 A 
ATOM     71  C   UNL A   1      41.775  24.929  27.506  1.00  0.00     0.148 A 
ATOM     72  C   UNL A   1      43.303  25.884  25.348  1.00  0.00     0.002 A 
ATOM     73  C   UNL A   1      42.141  24.073  26.473  1.00  0.00     0.091 A 
ATOM     74  F   UNL A   1      41.022  24.513  28.535  1.00  0.00    -0.205 F 
ATOM     75  C   UNL A   1      42.900  24.550  25.391  1.00  0.00     0.022 A 
BRANCH  73  76
ATOM     76  S   UNL A   1      41.731  22.325  26.471  1.00  0.00     0.127 S 
ATOM     77  O   UNL A   1      42.255  21.901  25.173  1.00  0.00    -0.237 OA
ATOM     78  O   UNL A   1      42.483  21.828  27.623  1.00  0.00    -0.237 OA
ATOM     79  O   UNL A   1      40.283  22.251  26.612  1.00  0.00    -0.744 OA
ENDBRANCH  73  76
ENDBRANCH  55  69
BRANCH  56  80
ATOM     80  C   UNL A   1      40.033  32.462  35.038  1.00  0.00     0.023 A 
ATOM     81  C   UNL A   1      40.584  33.756  35.068  1.00  0.00     0.012 A 
ATOM     82  C   UNL A   1      39.113  32.083  36.038  1.00  0.00     0.148 A 
ATOM     83  C   UNL A   1      40.234  34.654  36.077  1.00  0.00     0.002 A 
ATOM     84  C   UNL A   1      38.725  33.002  37.007  1.00  0.00     0.091 A 
ATOM     85  F   UNL A   1      38.617  30.838  36.008  1.00  0.00    -0.205 F 
ATOM     86  C   UNL A   1      39.294  34.284  37.035  1.00  0.00     0.022 A 
BRANCH  84  87
ATOM     87  S   UNL A   1      37.415  32.653  38.186  1.00  0.00     0.127 S 
ATOM     88  O   UNL A   1      37.822  33.459  39.333  1.00  0.00    -0.237 OA
ATOM     89  O   UNL A   1      36.228  33.140  37.481  1.00  0.00    -0.237 OA
ATOM     90  O   UNL A   1      37.441  31.210  38.382  1.00  0.00    -0.744 OA
ENDBRANCH  84  87
ENDBRANCH  56  80
BRANCH  68  91
ATOM     91  C   UNL A   1      45.313  28.055  33.708  1.00  0.00     0.023 A 
ATOM     92  C   UNL A   1      45.286  26.864  34.458  1.00  0.00     0.012 A 
ATOM     93  C   UNL A   1      46.518  28.777  33.594  1.00  0.00     0.148 A 
ATOM     94  C   UNL A   1      46.437  26.402  35.094  1.00  0.00     0.002 A 
ATOM     95  C   UNL A   1      47.672  28.288  34.195  1.00  0.00     0.091 A 
ATOM     96  F   UNL A   1      46.515  29.917  32.888  1.00  0.00    -0.205 F 
ATOM     97  C   UNL A   1      47.631  27.105  34.951  1.00  0.00     0.022 A 
BRANCH  95  98
ATOM     98  S   UNL A   1      49.273  29.073  33.983  1.00  0.00     0.127 S 
ATOM     99  O   UNL A   1      49.028  30.406  34.532  1.00  0.00    -0.237 OA
ATOM    100  O   UNL A   1      50.147  28.229  34.799  1.00  0.00    -0.237 OA
ATOM    101  O   UNL A   1      49.556  29.027  32.554  1.00  0.00    -0.744 OA
ENDBRANCH  95  98
ENDBRANCH  68  91
ENDBRANCH  42  43
ENDBRANCH  35  37
ENDBRANCH  34  35
ENDBRANCH  33  34
ENDBRANCH   1  33
TORSDOF 20
ENDMDL
MODEL 3
REMARK VINA RESULT:     -11.5      2.631      3.507
REMARK SMILES CC(C)[C@H](NC(=O)[C@H]1CC(=O)N(c2ccc(F)cc2)C1)C(=O)N1CCC[C@@H]1C(=O)OCCOC(=O)c1ccc(-c2c3nc(c(-c4cccc(S(=O)(=O)[O-])c4F)c4ccc([nH]4)c(-c4cccc(S(=O)(=O)[O-])c4F)c4nc(c(-c5cccc(S(=O)(=O)[O-])c5F)c5ccc2[nH]5)C=C4)C=C3)cc1
REMARK SMILES IDX 31 1 30 2 28 3 29 4 27 5 23 6 24 7 25 8 26 9 21 10 22 11
REMARK SMILES IDX 4 12 2 13 1 14 3 15 5 16 6 17 7 19 8 20 9 21 20 22 10 23
REMARK SMILES IDX 12 24 11 25 13 26 14 27 19 28 15 29 18 30 16 31 17 32 32 33
REMARK SMILES IDX 33 34 34 35 35 36 36 37 37 38 98 39 38 40 97 41 39 42 40 43
REMARK SMILES IDX 41 44 91 45 42 46 96 47 90 48 92 49 43 50 95 51 89 52 88 53
REMARK SMILES IDX 44 55 76 56 56 57 75 58 57 59 60 60 74 61 93 62 58 63 59 64
REMARK SMILES IDX 73 66 94 67 61 68 45 69 46 70 54 71 47 72 49 73 55 74 48 75
REMARK SMILES IDX 50 76 51 77 52 78 53 79 77 80 78 81 86 82 79 83 81 84 87 85
REMARK SMILES IDX 80 86 82 87 83 88 84 89 85 90 62 91 63 92 71 93 64 94 66 95
REMARK SMILES IDX 72 96 65 97 67 98 68 99 69 100 70 101
REMARK H PARENT 5 18 92 54 60 65
REMARK Flexibility Score: inf
ROOT
ATOM      1  C   UNL A   1      31.834  28.632  27.073  1.00  0.00     0.274 C 
ENDROOT
BRANCH   1   2
ATOM      2  O   UNL A   1      32.038  27.745  25.955  1.00  0.00    -0.461 OA
BRANCH   2   3
ATOM      3  C   UNL A   1      31.108  26.760  25.826  1.00  0.00     0.328 C 
ATOM      4  O   UNL A   1      30.766  26.034  26.756  1.00  0.00    -0.250 OA
BRANCH   3   5
ATOM      5  C   UNL A   1      30.627  26.544  24.378  1.00  0.00     0.195 C 
ATOM      6  N   UNL A   1      31.572  25.658  23.710  1.00  0.00    -0.327 N 
ATOM      7  C   UNL A   1      32.009  26.208  22.444  1.00  0.00     0.120 C 
ATOM      8  C   UNL A   1      31.759  27.699  22.584  1.00  0.00     0.024 C 
ATOM      9  C   UNL A   1      30.528  27.779  23.483  1.00  0.00     0.039 C 
BRANCH   6  10
ATOM     10  C   UNL A   1      31.704  24.351  24.125  1.00  0.00     0.246 C 
ATOM     11  O   UNL A   1      30.729  23.661  24.422  1.00  0.00    -0.272 OA
BRANCH  10  12
ATOM     12  C   UNL A   1      33.140  23.801  24.278  1.00  0.00     0.174 C 
BRANCH  12  13
ATOM     13  C   UNL A   1      33.398  22.679  23.222  1.00  0.00     0.015 C 
ATOM     14  C   UNL A   1      32.694  21.386  23.655  1.00  0.00     0.010 C 
ATOM     15  C   UNL A   1      32.986  23.033  21.793  1.00  0.00     0.010 C 
ENDBRANCH  12  13
BRANCH  12  16
ATOM     16  N   UNL A   1      33.377  23.424  25.666  1.00  0.00    -0.344 N 
ATOM     17  C   UNL A   1      34.561  23.117  26.265  1.00  0.00     0.226 C 
ATOM     18  H   UNL A   1      32.581  23.386  26.243  1.00  0.00     0.164 HD
ATOM     19  O   UNL A   1      34.527  22.787  27.452  1.00  0.00    -0.275 OA
BRANCH  17  20
ATOM     20  C   UNL A   1      35.858  23.158  25.477  1.00  0.00     0.107 C 
ATOM     21  C   UNL A   1      36.699  24.362  25.879  1.00  0.00     0.116 C 
ATOM     22  C   UNL A   1      36.707  21.939  25.800  1.00  0.00     0.139 C 
ATOM     23  C   UNL A   1      38.077  23.819  26.141  1.00  0.00     0.227 C 
ATOM     24  N   UNL A   1      38.044  22.429  26.032  1.00  0.00    -0.312 N 
ATOM     25  O   UNL A   1      39.033  24.542  26.384  1.00  0.00    -0.274 OA
BRANCH  24  26
ATOM     26  C   UNL A   1      39.152  21.564  26.230  1.00  0.00     0.044 A 
ATOM     27  C   UNL A   1      39.216  20.314  25.598  1.00  0.00     0.029 A 
ATOM     28  C   UNL A   1      40.218  21.939  27.064  1.00  0.00     0.029 A 
ATOM     29  C   UNL A   1      40.313  19.466  25.782  1.00  0.00     0.041 A 
ATOM     30  C   UNL A   1      41.302  21.078  27.274  1.00  0.00     0.041 A 
ATOM     31  C   UNL A   1      41.343  19.854  26.624  1.00  0.00     0.123 A 
ATOM     32  F   UNL A   1      42.390  19.039  26.808  1.00  0.00    -0.207 F 
ENDBRANCH  24  26
ENDBRANCH  17  20
ENDBRANCH  12  16
ENDBRANCH  10  12
ENDBRANCH   6  10
ENDBRANCH   3   5
ENDBRANCH   2   3
ENDBRANCH   1   2
BRANCH   1  33
ATOM     33  C   UNL A   1      32.142  30.089  26.712  1.00  0.00     0.275 C 
BRANCH  33  34
ATOM     34  O   UNL A   1      33.553  30.348  26.598  1.00  0.00    -0.458 OA
BRANCH  34  35
ATOM     35  C   UNL A   1      33.995  31.398  27.329  1.00  0.00     0.338 C 
ATOM     36  O   UNL A   1      33.404  32.444  27.543  1.00  0.00    -0.246 OA
BRANCH  35  37
ATOM     37  C   UNL A   1      35.268  31.071  27.987  1.00  0.00     0.060 A 
ATOM     38  C   UNL A   1      35.374  29.827  28.610  1.00  0.00     0.016 A 
ATOM     39  C   UNL A   1      36.288  32.013  28.110  1.00  0.00     0.016 A 
ATOM     40  C   UNL A   1      36.485  29.518  29.384  1.00  0.00     0.010 A 
ATOM     41  C   UNL A   1      37.414  31.700  28.881  1.00  0.00     0.010 A 
ATOM     42  C   UNL A   1      37.508  30.460  29.539  1.00  0.00    -0.014 A 
BRANCH  42  43
ATOM     43  C   UNL A   1      38.648  30.148  30.431  1.00  0.00     0.031 A 
ATOM     44  C   UNL A   1      39.740  29.232  29.958  1.00  0.00     0.074 A 
ATOM     45  C   UNL A   1      38.710  30.708  31.653  1.00  0.00     0.049 A 
ATOM     46  N   UNL A   1      40.774  28.779  30.613  1.00  0.00    -0.248 NA
ATOM     47  C   UNL A   1      39.657  28.762  28.565  1.00  0.00     0.031 C 
ATOM     48  C   UNL A   1      37.723  31.640  32.202  1.00  0.00     0.029 A 
ATOM     49  N   UNL A   1      39.634  30.569  32.656  1.00  0.00    -0.354 N 
ATOM     50  C   UNL A   1      41.442  27.937  29.734  1.00  0.00     0.074 A 
ATOM     51  C   UNL A   1      40.699  27.945  28.493  1.00  0.00     0.031 C 
ATOM     52  C   UNL A   1      38.091  31.981  33.446  1.00  0.00     0.029 A 
ATOM     53  C   UNL A   1      39.311  31.261  33.799  1.00  0.00     0.049 A 
ATOM     54  H   UNL A   1      40.451  30.025  32.567  1.00  0.00     0.167 HD
ATOM     55  C   UNL A   1      42.579  27.234  29.942  1.00  0.00     0.034 A 
ATOM     56  C   UNL A   1      39.914  31.290  35.004  1.00  0.00     0.034 A 
ATOM     57  C   UNL A   1      43.340  27.275  31.161  1.00  0.00     0.049 A 
ATOM     58  C   UNL A   1      41.172  30.492  35.210  1.00  0.00     0.074 A 
ATOM     59  C   UNL A   1      44.524  26.623  31.454  1.00  0.00     0.029 A 
ATOM     60  N   UNL A   1      42.999  28.010  32.285  1.00  0.00    -0.354 N 
ATOM     61  N   UNL A   1      41.825  29.751  34.349  1.00  0.00    -0.248 NA
ATOM     62  C   UNL A   1      41.786  30.546  36.544  1.00  0.00     0.031 C 
ATOM     63  C   UNL A   1      44.894  26.956  32.761  1.00  0.00     0.029 A 
ATOM     64  C   UNL A   1      43.946  27.825  33.277  1.00  0.00     0.049 A 
ATOM     65  H   UNL A   1      42.200  28.581  32.366  1.00  0.00     0.167 HD
ATOM     66  C   UNL A   1      42.937  29.265  35.027  1.00  0.00     0.074 A 
ATOM     67  C   UNL A   1      42.881  29.815  36.366  1.00  0.00     0.031 C 
ATOM     68  C   UNL A   1      43.903  28.422  34.587  1.00  0.00     0.034 A 
BRANCH  55  69
ATOM     69  C   UNL A   1      43.100  26.381  28.817  1.00  0.00     0.023 A 
ATOM     70  C   UNL A   1      42.537  25.110  28.593  1.00  0.00     0.012 A 
ATOM     71  C   UNL A   1      44.079  26.873  27.933  1.00  0.00     0.148 A 
ATOM     72  C   UNL A   1      42.950  24.333  27.512  1.00  0.00     0.002 A 
ATOM     73  C   UNL A   1      44.460  26.109  26.836  1.00  0.00     0.091 A 
ATOM     74  F   UNL A   1      44.618  28.076  28.179  1.00  0.00    -0.205 F 
ATOM     75  C   UNL A   1      43.902  24.837  26.627  1.00  0.00     0.022 A 
BRANCH  73  76
ATOM     76  S   UNL A   1      45.625  26.698  25.602  1.00  0.00     0.127 S 
ATOM     77  O   UNL A   1      46.796  27.004  26.424  1.00  0.00    -0.237 OA
ATOM     78  O   UNL A   1      45.777  25.530  24.735  1.00  0.00    -0.237 OA
ATOM     79  O   UNL A   1      44.992  27.847  24.968  1.00  0.00    -0.744 OA
ENDBRANCH  73  76
ENDBRANCH  55  69
BRANCH  56  80
ATOM     80  C   UNL A   1      39.342  32.139  36.087  1.00  0.00     0.023 A 
ATOM     81  C   UNL A   1      39.615  33.519  36.101  1.00  0.00     0.012 A 
ATOM     82  C   UNL A   1      38.470  31.600  37.055  1.00  0.00     0.148 A 
ATOM     83  C   UNL A   1      39.037  34.347  37.065  1.00  0.00     0.002 A 
ATOM     84  C   UNL A   1      37.854  32.439  37.976  1.00  0.00     0.091 A 
ATOM     85  F   UNL A   1      38.242  30.279  37.041  1.00  0.00    -0.205 F 
ATOM     86  C   UNL A   1      38.145  33.812  37.990  1.00  0.00     0.022 A 
BRANCH  84  87
ATOM     87  S   UNL A   1      36.585  31.852  39.105  1.00  0.00     0.127 S 
ATOM     88  O   UNL A   1      36.500  30.438  38.751  1.00  0.00    -0.237 OA
ATOM     89  O   UNL A   1      37.186  32.125  40.412  1.00  0.00    -0.237 OA
ATOM     90  O   UNL A   1      35.403  32.652  38.814  1.00  0.00    -0.744 OA
ENDBRANCH  84  87
ENDBRANCH  56  80
BRANCH  68  91
ATOM     91  C   UNL A   1      44.993  28.034  35.550  1.00  0.00     0.023 A 
ATOM     92  C   UNL A   1      46.234  28.698  35.490  1.00  0.00     0.012 A 
ATOM     93  C   UNL A   1      44.748  27.110  36.585  1.00  0.00     0.148 A 
ATOM     94  C   UNL A   1      47.220  28.440  36.440  1.00  0.00     0.002 A 
ATOM     95  C   UNL A   1      45.721  26.888  37.553  1.00  0.00     0.091 A 
ATOM     96  F   UNL A   1      43.566  26.478  36.611  1.00  0.00    -0.205 F 
ATOM     97  C   UNL A   1      46.960  27.547  37.477  1.00  0.00     0.022 A 
BRANCH  95  98
ATOM     98  S   UNL A   1      45.437  25.833  38.978  1.00  0.00     0.127 S 
ATOM     99  O   UNL A   1      45.190  24.538  38.346  1.00  0.00    -0.237 OA
ATOM    100  O   UNL A   1      46.708  25.928  39.696  1.00  0.00    -0.237 OA
ATOM    101  O   UNL A   1      44.302  26.411  39.684  1.00  0.00    -0.744 OA
ENDBRANCH  95  98
ENDBRANCH  68  91
ENDBRANCH  42  43
ENDBRANCH  35  37
ENDBRANCH  34  35
ENDBRANCH  33  34
ENDBRANCH   1  33
TORSDOF 20
ENDMDL
