MODEL 1
REMARK VINA RESULT:     -12.7      0.000      0.000
REMARK SMILES Cc1ccc(NC(=O)C[NH+]2CCN(c3ccc(C(=O)OCCOC(=O)c4ccc(-c5c6nc(c(-c7cccc(S(=O)(=O)[O-])c7F)c7ccc([nH]7)c(-c7cccc(S(=O)(=O)[O-])c7F)c7nc(c(-c8cccc(S(=O)(=O)[O-])c8F)c8ccc5[nH]8)C=C7)C=C6)cc4)cc3NS(C)(=O)=O)CC2)cc1
REMARK SMILES IDX 21 1 20 2 18 3 19 4 17 5 14 6 15 7 90 8 16 9 89 10 13 11
REMARK SMILES IDX 10 12 11 13 97 14 12 16 96 17 9 18 7 19 6 20 8 22 5 23 1 24
REMARK SMILES IDX 2 25 3 26 99 27 4 28 98 29 91 30 92 32 93 33 94 34 95 35
REMARK SMILES IDX 22 36 23 37 24 38 25 39 26 40 27 41 88 42 28 43 87 44 29 45
REMARK SMILES IDX 30 46 31 47 81 48 32 49 86 50 80 51 82 52 33 53 85 54 79 55
REMARK SMILES IDX 78 56 34 58 66 59 46 60 65 61 47 62 50 63 64 64 83 65 48 66
REMARK SMILES IDX 49 67 63 69 84 70 51 71 35 72 36 73 44 74 37 75 39 76 45 77
REMARK SMILES IDX 38 78 40 79 41 80 42 81 43 82 67 83 68 84 76 85 69 86 71 87
REMARK SMILES IDX 77 88 70 89 72 90 73 91 74 92 75 93 52 94 53 95 61 96 54 97
REMARK SMILES IDX 56 98 62 99 55 100 57 101 58 102 59 103 60 104
REMARK H PARENT 10 15 6 21 91 31 82 57 50 68
REMARK Flexibility Score: inf
ROOT
ATOM      1  C   UNL A   1      34.223  30.757  27.255  1.00  0.00     0.275 C 
ENDROOT
BRANCH   1   2
ATOM      2  O   UNL A   1      33.704  29.736  26.406  1.00  0.00    -0.458 OA
BRANCH   2   3
ATOM      3  C   UNL A   1      32.428  29.844  25.980  1.00  0.00     0.338 C 
ATOM      4  O   UNL A   1      31.779  30.866  25.851  1.00  0.00    -0.246 OA
BRANCH   3   5
ATOM      5  C   UNL A   1      31.942  28.484  25.667  1.00  0.00     0.062 A 
ATOM      6  C   UNL A   1      31.403  25.811  25.185  1.00  0.00     0.062 A 
ATOM      7  C   UNL A   1      31.227  26.340  26.475  1.00  0.00     0.029 A 
ATOM      8  C   UNL A   1      31.578  26.701  24.064  1.00  0.00     0.073 A 
ATOM      9  C   UNL A   1      31.482  27.682  26.716  1.00  0.00     0.018 A 
ATOM     10  C   UNL A   1      31.989  28.002  24.347  1.00  0.00     0.044 A 
BRANCH   6  11
ATOM     11  N   UNL A   1      31.803  24.472  25.125  1.00  0.00    -0.359 N 
ATOM     12  N   UNL A   1      32.786  21.747  25.776  1.00  0.00    -0.324 N 
ATOM     13  C   UNL A   1      33.255  22.946  26.493  1.00  0.00     0.284 C 
ATOM     14  C   UNL A   1      31.356  22.009  25.426  1.00  0.00     0.284 C 
ATOM     15  H   UNL A   1      32.875  20.919  26.366  1.00  0.00     0.348 HD
ATOM     16  C   UNL A   1      33.125  24.241  25.686  1.00  0.00     0.178 C 
ATOM     17  C   UNL A   1      30.996  23.339  24.678  1.00  0.00     0.178 C 
BRANCH  12  18
ATOM     18  C   UNL A   1      33.613  21.427  24.578  1.00  0.00     0.364 C 
BRANCH  18  19
ATOM     19  C   UNL A   1      34.586  20.235  24.810  1.00  0.00     0.279 C 
ATOM     20  N   UNL A   1      35.935  20.345  25.054  1.00  0.00    -0.321 N 
ATOM     21  H   UNL A   1      36.383  19.481  25.206  1.00  0.00     0.170 HD
ATOM     22  O   UNL A   1      34.142  19.075  24.841  1.00  0.00    -0.268 OA
BRANCH  20  23
ATOM     23  C   UNL A   1      36.792  21.446  25.128  1.00  0.00     0.041 A 
ATOM     24  C   UNL A   1      38.815  24.644  27.069  1.00  0.00     0.044 C 
ATOM     25  C   UNL A   1      38.287  23.585  26.138  1.00  0.00    -0.051 A 
ATOM     26  C   UNL A   1      37.120  23.776  25.406  1.00  0.00     0.005 A 
ATOM     27  C   UNL A   1      38.841  22.314  26.117  1.00  0.00     0.005 A 
ATOM     28  C   UNL A   1      36.383  22.729  24.862  1.00  0.00     0.026 A 
ATOM     29  C   UNL A   1      38.097  21.244  25.598  1.00  0.00     0.026 A 
ENDBRANCH  20  23
ENDBRANCH  18  19
ENDBRANCH  12  18
ENDBRANCH   6  11
BRANCH   8  30
ATOM     30  N   UNL A   1      31.600  26.125  22.711  1.00  0.00    -0.282 N 
ATOM     31  H   UNL A   1      30.740  25.911  22.282  1.00  0.00     0.180 HD
BRANCH  30  32
ATOM     32  S   UNL A   1      33.041  25.808  21.843  1.00  0.00     0.229 S 
ATOM     33  C   UNL A   1      32.558  25.522  20.160  1.00  0.00     0.183 C 
ATOM     34  O   UNL A   1      33.690  27.103  21.692  1.00  0.00    -0.207 OA
ATOM     35  O   UNL A   1      33.653  24.572  22.230  1.00  0.00    -0.207 OA
ENDBRANCH  30  32
ENDBRANCH   8  30
ENDBRANCH   3   5
ENDBRANCH   2   3
ENDBRANCH   1   2
BRANCH   1  36
ATOM     36  C   UNL A   1      33.268  31.837  27.804  1.00  0.00     0.275 C 
BRANCH  36  37
ATOM     37  O   UNL A   1      33.733  33.175  28.124  1.00  0.00    -0.458 OA
BRANCH  37  38
ATOM     38  C   UNL A   1      34.396  33.617  29.222  1.00  0.00     0.338 C 
ATOM     39  O   UNL A   1      33.920  34.443  29.989  1.00  0.00    -0.246 OA
BRANCH  38  40
ATOM     40  C   UNL A   1      35.687  32.989  29.498  1.00  0.00     0.060 A 
ATOM     41  C   UNL A   1      36.807  33.392  28.763  1.00  0.00     0.016 A 
ATOM     42  C   UNL A   1      35.797  32.103  30.559  1.00  0.00     0.016 A 
ATOM     43  C   UNL A   1      38.074  32.993  29.149  1.00  0.00     0.010 A 
ATOM     44  C   UNL A   1      37.049  31.787  31.014  1.00  0.00     0.010 A 
ATOM     45  C   UNL A   1      38.169  32.165  30.253  1.00  0.00    -0.014 A 
BRANCH  45  46
ATOM     46  C   UNL A   1      39.312  31.299  30.435  1.00  0.00     0.031 A 
ATOM     47  C   UNL A   1      39.388  29.975  29.828  1.00  0.00     0.074 A 
ATOM     48  C   UNL A   1      40.293  31.935  31.116  1.00  0.00     0.049 A 
ATOM     49  N   UNL A   1      40.165  29.054  30.269  1.00  0.00    -0.248 NA
ATOM     50  C   UNL A   1      38.534  29.534  28.729  1.00  0.00     0.031 C 
ATOM     51  C   UNL A   1      41.722  31.743  31.114  1.00  0.00     0.029 A 
ATOM     52  N   UNL A   1      40.080  32.963  32.051  1.00  0.00    -0.354 N 
ATOM     53  C   UNL A   1      40.185  28.058  29.316  1.00  0.00     0.074 A 
ATOM     54  C   UNL A   1      39.029  28.312  28.492  1.00  0.00     0.031 C 
ATOM     55  C   UNL A   1      42.252  32.477  32.115  1.00  0.00     0.029 A 
ATOM     56  C   UNL A   1      41.157  32.996  32.931  1.00  0.00     0.049 A 
ATOM     57  H   UNL A   1      39.298  33.560  32.079  1.00  0.00     0.167 HD
ATOM     58  C   UNL A   1      41.318  27.306  29.218  1.00  0.00     0.034 A 
ATOM     59  C   UNL A   1      41.002  32.847  34.283  1.00  0.00     0.034 A 
ATOM     60  C   UNL A   1      42.266  27.707  30.278  1.00  0.00     0.049 A 
ATOM     61  C   UNL A   1      41.622  31.503  34.697  1.00  0.00     0.074 A 
ATOM     62  C   UNL A   1      43.327  28.601  30.263  1.00  0.00     0.029 A 
ATOM     63  N   UNL A   1      41.957  27.491  31.618  1.00  0.00    -0.354 N 
ATOM     64  N   UNL A   1      42.014  30.581  33.860  1.00  0.00    -0.248 NA
ATOM     65  C   UNL A   1      41.764  31.072  36.086  1.00  0.00     0.031 C 
ATOM     66  C   UNL A   1      43.598  28.985  31.604  1.00  0.00     0.029 A 
ATOM     67  C   UNL A   1      42.728  28.306  32.438  1.00  0.00     0.049 A 
ATOM     68  H   UNL A   1      41.284  26.848  31.941  1.00  0.00     0.167 HD
ATOM     69  C   UNL A   1      42.301  29.426  34.534  1.00  0.00     0.074 A 
ATOM     70  C   UNL A   1      42.170  29.801  35.933  1.00  0.00     0.031 C 
ATOM     71  C   UNL A   1      42.571  28.249  33.890  1.00  0.00     0.034 A 
BRANCH  58  72
ATOM     72  C   UNL A   1      41.765  26.515  27.990  1.00  0.00     0.023 A 
ATOM     73  C   UNL A   1      41.635  27.169  26.741  1.00  0.00     0.012 A 
ATOM     74  C   UNL A   1      42.235  25.180  27.935  1.00  0.00     0.148 A 
ATOM     75  C   UNL A   1      41.859  26.528  25.518  1.00  0.00     0.002 A 
ATOM     76  C   UNL A   1      42.442  24.529  26.711  1.00  0.00     0.091 A 
ATOM     77  F   UNL A   1      42.532  24.530  29.061  1.00  0.00    -0.205 F 
ATOM     78  C   UNL A   1      42.244  25.199  25.500  1.00  0.00     0.022 A 
BRANCH  76  79
ATOM     79  S   UNL A   1      42.943  22.798  26.587  1.00  0.00     0.127 S 
ATOM     80  O   UNL A   1      44.340  22.851  27.021  1.00  0.00    -0.237 OA
ATOM     81  O   UNL A   1      42.040  22.141  27.530  1.00  0.00    -0.237 OA
ATOM     82  O   UNL A   1      42.763  22.416  25.191  1.00  0.00    -0.744 OA
ENDBRANCH  76  79
ENDBRANCH  58  72
BRANCH  59  83
ATOM     83  C   UNL A   1      39.666  33.319  34.832  1.00  0.00     0.023 A 
ATOM     84  C   UNL A   1      38.591  32.410  35.022  1.00  0.00     0.012 A 
ATOM     85  C   UNL A   1      39.657  34.478  35.596  1.00  0.00     0.148 A 
ATOM     86  C   UNL A   1      37.711  32.557  36.109  1.00  0.00     0.002 A 
ATOM     87  C   UNL A   1      38.945  34.508  36.775  1.00  0.00     0.091 A 
ATOM     88  F   UNL A   1      40.415  35.527  35.266  1.00  0.00    -0.205 F 
ATOM     89  C   UNL A   1      37.946  33.567  37.041  1.00  0.00     0.022 A 
BRANCH  87  90
ATOM     90  S   UNL A   1      39.739  35.467  38.071  1.00  0.00     0.127 S 
ATOM     91  O   UNL A   1      41.093  34.930  38.068  1.00  0.00    -0.237 OA
ATOM     92  O   UNL A   1      39.686  36.836  37.572  1.00  0.00    -0.237 OA
ATOM     93  O   UNL A   1      38.891  35.164  39.216  1.00  0.00    -0.744 OA
ENDBRANCH  87  90
ENDBRANCH  59  83
BRANCH  71  94
ATOM     94  C   UNL A   1      42.764  26.916  34.577  1.00  0.00     0.023 A 
ATOM     95  C   UNL A   1      41.693  26.160  35.085  1.00  0.00     0.012 A 
ATOM     96  C   UNL A   1      44.051  26.319  34.624  1.00  0.00     0.148 A 
ATOM     97  C   UNL A   1      41.897  24.925  35.706  1.00  0.00     0.002 A 
ATOM     98  C   UNL A   1      44.227  25.033  35.117  1.00  0.00     0.091 A 
ATOM     99  F   UNL A   1      45.126  27.008  34.214  1.00  0.00    -0.205 F 
ATOM    100  C   UNL A   1      43.162  24.350  35.705  1.00  0.00     0.022 A 
BRANCH  98 101
ATOM    101  S   UNL A   1      45.779  24.159  34.873  1.00  0.00     0.127 S 
ATOM    102  O   UNL A   1      45.448  22.815  35.341  1.00  0.00    -0.237 OA
ATOM    103  O   UNL A   1      45.976  24.268  33.426  1.00  0.00    -0.237 OA
ATOM    104  O   UNL A   1      46.760  24.891  35.663  1.00  0.00    -0.744 OA
ENDBRANCH  98 101
ENDBRANCH  71  94
ENDBRANCH  45  46
ENDBRANCH  38  40
ENDBRANCH  37  38
ENDBRANCH  36  37
ENDBRANCH   1  36
TORSDOF 20
ENDMDL
MODEL 2
REMARK VINA RESULT:     -11.8      1.406      2.483
REMARK SMILES Cc1ccc(NC(=O)C[NH+]2CCN(c3ccc(C(=O)OCCOC(=O)c4ccc(-c5c6nc(c(-c7cccc(S(=O)(=O)[O-])c7F)c7ccc([nH]7)c(-c7cccc(S(=O)(=O)[O-])c7F)c7nc(c(-c8cccc(S(=O)(=O)[O-])c8F)c8ccc5[nH]8)C=C7)C=C6)cc4)cc3NS(C)(=O)=O)CC2)cc1
REMARK SMILES IDX 21 1 20 2 18 3 19 4 17 5 14 6 15 7 90 8 16 9 89 10 13 11
REMARK SMILES IDX 10 12 11 13 97 14 12 16 96 17 9 18 7 19 6 20 8 22 5 23 1 24
REMARK SMILES IDX 2 25 3 26 99 27 4 28 98 29 91 30 92 32 93 33 94 34 95 35
REMARK SMILES IDX 22 36 23 37 24 38 25 39 26 40 27 41 88 42 28 43 87 44 29 45
REMARK SMILES IDX 30 46 31 47 81 48 32 49 86 50 80 51 82 52 33 53 85 54 79 55
REMARK SMILES IDX 78 56 34 58 66 59 46 60 65 61 47 62 50 63 64 64 83 65 48 66
REMARK SMILES IDX 49 67 63 69 84 70 51 71 35 72 36 73 44 74 37 75 39 76 45 77
REMARK SMILES IDX 38 78 40 79 41 80 42 81 43 82 67 83 68 84 76 85 69 86 71 87
REMARK SMILES IDX 77 88 70 89 72 90 73 91 74 92 75 93 52 94 53 95 61 96 54 97
REMARK SMILES IDX 56 98 62 99 55 100 57 101 58 102 59 103 60 104
REMARK H PARENT 10 15 6 21 91 31 82 57 50 68
REMARK Flexibility Score: inf
ROOT
ATOM      1  C   UNL A   1      34.362  31.988  27.684  1.00  0.00     0.275 C 
ENDROOT
BRANCH   1   2
ATOM      2  O   UNL A   1      33.449  30.901  27.815  1.00  0.00    -0.458 OA
BRANCH   2   3
ATOM      3  C   UNL A   1      32.322  30.917  27.074  1.00  0.00     0.338 C 
ATOM      4  O   UNL A   1      31.606  31.874  26.842  1.00  0.00    -0.246 OA
BRANCH   3   5
ATOM      5  C   UNL A   1      32.103  29.549  26.560  1.00  0.00     0.062 A 
ATOM      6  C   UNL A   1      32.078  26.916  25.703  1.00  0.00     0.062 A 
ATOM      7  C   UNL A   1      31.770  27.221  27.040  1.00  0.00     0.029 A 
ATOM      8  C   UNL A   1      32.119  27.970  24.720  1.00  0.00     0.073 A 
ATOM      9  C   UNL A   1      31.767  28.541  27.468  1.00  0.00     0.018 A 
ATOM     10  C   UNL A   1      32.277  29.271  25.193  1.00  0.00     0.044 A 
BRANCH   6  11
ATOM     11  N   UNL A   1      32.718  25.690  25.490  1.00  0.00    -0.359 N 
ATOM     12  N   UNL A   1      33.523  23.021  24.469  1.00  0.00    -0.324 N 
ATOM     13  C   UNL A   1      32.126  23.488  24.437  1.00  0.00     0.284 C 
ATOM     14  C   UNL A   1      34.369  24.237  24.260  1.00  0.00     0.284 C 
ATOM     15  H   UNL A   1      33.686  22.328  23.738  1.00  0.00     0.348 HD
ATOM     16  C   UNL A   1      31.805  24.558  25.486  1.00  0.00     0.178 C 
ATOM     17  C   UNL A   1      34.130  25.487  25.174  1.00  0.00     0.178 C 
BRANCH  12  18
ATOM     18  C   UNL A   1      33.866  22.304  25.730  1.00  0.00     0.364 C 
BRANCH  18  19
ATOM     19  C   UNL A   1      35.256  21.606  25.674  1.00  0.00     0.279 C 
ATOM     20  N   UNL A   1      35.474  20.295  25.319  1.00  0.00    -0.321 N 
ATOM     21  H   UNL A   1      36.424  20.037  25.313  1.00  0.00     0.170 HD
ATOM     22  O   UNL A   1      36.284  22.262  25.908  1.00  0.00    -0.268 OA
BRANCH  20  23
ATOM     23  C   UNL A   1      34.606  19.258  24.966  1.00  0.00     0.041 A 
ATOM     24  C   UNL A   1      32.473  15.629  25.572  1.00  0.00     0.044 C 
ATOM     25  C   UNL A   1      33.050  16.935  25.097  1.00  0.00    -0.051 A 
ATOM     26  C   UNL A   1      34.247  16.988  24.390  1.00  0.00     0.005 A 
ATOM     27  C   UNL A   1      32.508  18.145  25.504  1.00  0.00     0.005 A 
ATOM     28  C   UNL A   1      35.016  18.142  24.280  1.00  0.00     0.026 A 
ATOM     29  C   UNL A   1      33.282  19.312  25.426  1.00  0.00     0.026 A 
ENDBRANCH  20  23
ENDBRANCH  18  19
ENDBRANCH  12  18
ENDBRANCH   6  11
BRANCH   8  30
ATOM     30  N   UNL A   1      32.287  27.601  23.305  1.00  0.00    -0.282 N 
ATOM     31  H   UNL A   1      33.181  27.689  22.904  1.00  0.00     0.180 HD
BRANCH  30  32
ATOM     32  S   UNL A   1      31.009  27.027  22.323  1.00  0.00     0.229 S 
ATOM     33  C   UNL A   1      29.672  26.632  23.421  1.00  0.00     0.183 C 
ATOM     34  O   UNL A   1      30.454  28.212  21.683  1.00  0.00    -0.207 OA
ATOM     35  O   UNL A   1      31.314  25.771  21.703  1.00  0.00    -0.207 OA
ENDBRANCH  30  32
ENDBRANCH   8  30
ENDBRANCH   3   5
ENDBRANCH   2   3
ENDBRANCH   1   2
BRANCH   1  36
ATOM     36  C   UNL A   1      33.863  33.425  27.942  1.00  0.00     0.275 C 
BRANCH  36  37
ATOM     37  O   UNL A   1      33.496  33.878  29.271  1.00  0.00    -0.458 OA
BRANCH  37  38
ATOM     38  C   UNL A   1      34.287  34.344  30.271  1.00  0.00     0.338 C 
ATOM     39  O   UNL A   1      33.924  35.223  31.040  1.00  0.00    -0.246 OA
BRANCH  38  40
ATOM     40  C   UNL A   1      35.578  33.678  30.443  1.00  0.00     0.060 A 
ATOM     41  C   UNL A   1      36.670  34.113  29.686  1.00  0.00     0.016 A 
ATOM     42  C   UNL A   1      35.718  32.720  31.435  1.00  0.00     0.016 A 
ATOM     43  C   UNL A   1      37.946  33.668  29.984  1.00  0.00     0.010 A 
ATOM     44  C   UNL A   1      36.984  32.353  31.808  1.00  0.00     0.010 A 
ATOM     45  C   UNL A   1      38.075  32.765  31.024  1.00  0.00    -0.014 A 
BRANCH  45  46
ATOM     46  C   UNL A   1      39.208  31.871  31.093  1.00  0.00     0.031 A 
ATOM     47  C   UNL A   1      39.244  30.605  30.369  1.00  0.00     0.074 A 
ATOM     48  C   UNL A   1      40.219  32.430  31.797  1.00  0.00     0.049 A 
ATOM     49  N   UNL A   1      40.019  29.638  30.702  1.00  0.00    -0.248 NA
ATOM     50  C   UNL A   1      38.352  30.276  29.261  1.00  0.00     0.031 C 
ATOM     51  C   UNL A   1      41.645  32.219  31.734  1.00  0.00     0.029 A 
ATOM     52  N   UNL A   1      40.051  33.373  32.826  1.00  0.00    -0.354 N 
ATOM     53  C   UNL A   1      39.995  28.731  29.664  1.00  0.00     0.074 A 
ATOM     54  C   UNL A   1      38.820  29.073  28.902  1.00  0.00     0.031 C 
ATOM     55  C   UNL A   1      42.216  32.854  32.780  1.00  0.00     0.029 A 
ATOM     56  C   UNL A   1      41.154  33.312  33.672  1.00  0.00     0.049 A 
ATOM     57  H   UNL A   1      39.280  33.976  32.931  1.00  0.00     0.167 HD
ATOM     58  C   UNL A   1      41.112  27.975  29.465  1.00  0.00     0.034 A 
ATOM     59  C   UNL A   1      41.036  33.046  35.009  1.00  0.00     0.034 A 
ATOM     60  C   UNL A   1      42.097  28.267  30.526  1.00  0.00     0.049 A 
ATOM     61  C   UNL A   1      41.645  31.661  35.283  1.00  0.00     0.074 A 
ATOM     62  C   UNL A   1      43.171  29.143  30.559  1.00  0.00     0.029 A 
ATOM     63  N   UNL A   1      41.824  27.936  31.851  1.00  0.00    -0.354 N 
ATOM     64  N   UNL A   1      41.997  30.813  34.355  1.00  0.00    -0.248 NA
ATOM     65  C   UNL A   1      41.821  31.106  36.623  1.00  0.00     0.031 C 
ATOM     66  C   UNL A   1      43.488  29.403  31.919  1.00  0.00     0.029 A 
ATOM     67  C   UNL A   1      42.632  28.664  32.717  1.00  0.00     0.049 A 
ATOM     68  H   UNL A   1      41.150  27.277  32.136  1.00  0.00     0.167 HD
ATOM     69  C   UNL A   1      42.286  29.599  34.916  1.00  0.00     0.074 A 
ATOM     70  C   UNL A   1      42.202  29.848  36.345  1.00  0.00     0.031 C 
ATOM     71  C   UNL A   1      42.517  28.480  34.161  1.00  0.00     0.034 A 
BRANCH  58  72
ATOM     72  C   UNL A   1      41.509  27.290  28.159  1.00  0.00     0.023 A 
ATOM     73  C   UNL A   1      41.290  28.030  26.971  1.00  0.00     0.012 A 
ATOM     74  C   UNL A   1      42.011  25.979  27.977  1.00  0.00     0.148 A 
ATOM     75  C   UNL A   1      41.462  27.488  25.693  1.00  0.00     0.002 A 
ATOM     76  C   UNL A   1      42.166  25.426  26.699  1.00  0.00     0.091 A 
ATOM     77  F   UNL A   1      42.390  25.257  29.034  1.00  0.00    -0.205 F 
ATOM     78  C   UNL A   1      41.881  26.176  25.555  1.00  0.00     0.022 A 
BRANCH  76  79
ATOM     79  S   UNL A   1      42.707  23.726  26.418  1.00  0.00     0.127 S 
ATOM     80  O   UNL A   1      41.511  22.960  26.773  1.00  0.00    -0.237 OA
ATOM     81  O   UNL A   1      43.021  23.728  24.990  1.00  0.00    -0.237 OA
ATOM     82  O   UNL A   1      43.846  23.504  27.301  1.00  0.00    -0.744 OA
ENDBRANCH  76  79
ENDBRANCH  58  72
BRANCH  59  83
ATOM     83  C   UNL A   1      39.724  33.486  35.639  1.00  0.00     0.023 A 
ATOM     84  C   UNL A   1      38.711  32.540  35.952  1.00  0.00     0.012 A 
ATOM     85  C   UNL A   1      39.719  34.678  36.348  1.00  0.00     0.148 A 
ATOM     86  C   UNL A   1      37.910  32.702  37.097  1.00  0.00     0.002 A 
ATOM     87  C   UNL A   1      39.098  34.734  37.576  1.00  0.00     0.091 A 
ATOM     88  F   UNL A   1      40.400  35.742  35.914  1.00  0.00    -0.205 F 
ATOM     89  C   UNL A   1      38.167  33.765  37.962  1.00  0.00     0.022 A 
BRANCH  87  90
ATOM     90  S   UNL A   1      39.942  35.788  38.762  1.00  0.00     0.127 S 
ATOM     91  O   UNL A   1      39.518  37.119  38.351  1.00  0.00    -0.237 OA
ATOM     92  O   UNL A   1      39.368  35.398  40.044  1.00  0.00    -0.237 OA
ATOM     93  O   UNL A   1      41.334  35.418  38.539  1.00  0.00    -0.744 OA
ENDBRANCH  87  90
ENDBRANCH  59  83
BRANCH  71  94
ATOM     94  C   UNL A   1      42.708  27.088  34.721  1.00  0.00     0.023 A 
ATOM     95  C   UNL A   1      41.632  26.263  35.090  1.00  0.00     0.012 A 
ATOM     96  C   UNL A   1      44.006  26.516  34.779  1.00  0.00     0.148 A 
ATOM     97  C   UNL A   1      41.835  24.975  35.595  1.00  0.00     0.002 A 
ATOM     98  C   UNL A   1      44.189  25.191  35.150  1.00  0.00     0.091 A 
ATOM     99  F   UNL A   1      45.083  27.265  34.501  1.00  0.00    -0.205 F 
ATOM    100  C   UNL A   1      43.113  24.430  35.607  1.00  0.00     0.022 A 
BRANCH  98 101
ATOM    101  S   UNL A   1      45.774  24.378  34.907  1.00  0.00     0.127 S 
ATOM    102  O   UNL A   1      46.042  24.650  33.496  1.00  0.00    -0.237 OA
ATOM    103  O   UNL A   1      46.642  25.098  35.841  1.00  0.00    -0.237 OA
ATOM    104  O   UNL A   1      45.549  22.983  35.261  1.00  0.00    -0.744 OA
ENDBRANCH  98 101
ENDBRANCH  71  94
ENDBRANCH  45  46
ENDBRANCH  38  40
ENDBRANCH  37  38
ENDBRANCH  36  37
ENDBRANCH   1  36
TORSDOF 20
ENDMDL
MODEL 3
REMARK VINA RESULT:     -11.5      4.672      9.689
REMARK SMILES Cc1ccc(NC(=O)C[NH+]2CCN(c3ccc(C(=O)OCCOC(=O)c4ccc(-c5c6nc(c(-c7cccc(S(=O)(=O)[O-])c7F)c7ccc([nH]7)c(-c7cccc(S(=O)(=O)[O-])c7F)c7nc(c(-c8cccc(S(=O)(=O)[O-])c8F)c8ccc5[nH]8)C=C7)C=C6)cc4)cc3NS(C)(=O)=O)CC2)cc1
REMARK SMILES IDX 21 1 20 2 18 3 19 4 17 5 14 6 15 7 90 8 16 9 89 10 13 11
REMARK SMILES IDX 10 12 11 13 97 14 12 16 96 17 9 18 7 19 6 20 8 22 5 23 1 24
REMARK SMILES IDX 2 25 3 26 99 27 4 28 98 29 91 30 92 32 93 33 94 34 95 35
REMARK SMILES IDX 22 36 23 37 24 38 25 39 26 40 27 41 88 42 28 43 87 44 29 45
REMARK SMILES IDX 30 46 31 47 81 48 32 49 86 50 80 51 82 52 33 53 85 54 79 55
REMARK SMILES IDX 78 56 34 58 66 59 46 60 65 61 47 62 50 63 64 64 83 65 48 66
REMARK SMILES IDX 49 67 63 69 84 70 51 71 35 72 36 73 44 74 37 75 39 76 45 77
REMARK SMILES IDX 38 78 40 79 41 80 42 81 43 82 67 83 68 84 76 85 69 86 71 87
REMARK SMILES IDX 77 88 70 89 72 90 73 91 74 92 75 93 52 94 53 95 61 96 54 97
REMARK SMILES IDX 56 98 62 99 55 100 57 101 58 102 59 103 60 104
REMARK H PARENT 10 15 6 21 91 31 82 57 50 68
REMARK Flexibility Score: inf
ROOT
ATOM      1  C   UNL A   1      34.609  30.613  27.383  1.00  0.00     0.275 C 
ENDROOT
BRANCH   1   2
ATOM      2  O   UNL A   1      33.946  29.621  26.602  1.00  0.00    -0.458 OA
BRANCH   2   3
ATOM      3  C   UNL A   1      32.621  29.754  26.388  1.00  0.00     0.338 C 
ATOM      4  O   UNL A   1      31.957  30.770  26.486  1.00  0.00    -0.246 OA
BRANCH   3   5
ATOM      5  C   UNL A   1      32.096  28.432  25.984  1.00  0.00     0.062 A 
ATOM      6  C   UNL A   1      31.481  25.816  25.322  1.00  0.00     0.062 A 
ATOM      7  C   UNL A   1      31.323  26.259  26.646  1.00  0.00     0.029 A 
ATOM      8  C   UNL A   1      31.679  26.775  24.264  1.00  0.00     0.073 A 
ATOM      9  C   UNL A   1      31.615  27.574  26.977  1.00  0.00     0.018 A 
ATOM     10  C   UNL A   1      32.127  28.041  24.634  1.00  0.00     0.044 A 
BRANCH   6  11
ATOM     11  N   UNL A   1      31.844  24.472  25.169  1.00  0.00    -0.359 N 
ATOM     12  N   UNL A   1      32.863  21.717  25.597  1.00  0.00    -0.324 N 
ATOM     13  C   UNL A   1      33.455  22.888  26.266  1.00  0.00     0.284 C 
ATOM     14  C   UNL A   1      31.401  22.009  25.469  1.00  0.00     0.284 C 
ATOM     15  H   UNL A   1      33.022  20.871  26.145  1.00  0.00     0.348 HD
ATOM     16  C   UNL A   1      33.230  24.207  25.521  1.00  0.00     0.178 C 
ATOM     17  C   UNL A   1      30.959  23.364  24.818  1.00  0.00     0.178 C 
BRANCH  12  18
ATOM     18  C   UNL A   1      33.496  21.419  24.281  1.00  0.00     0.364 C 
BRANCH  18  19
ATOM     19  C   UNL A   1      32.470  20.975  23.198  1.00  0.00     0.279 C 
ATOM     20  N   UNL A   1      32.130  19.673  22.911  1.00  0.00    -0.321 N 
ATOM     21  H   UNL A   1      31.440  19.587  22.214  1.00  0.00     0.170 HD
ATOM     22  O   UNL A   1      31.844  21.833  22.554  1.00  0.00    -0.268 OA
BRANCH  20  23
ATOM     23  C   UNL A   1      32.575  18.449  23.419  1.00  0.00     0.041 A 
ATOM     24  C   UNL A   1      35.278  15.854  25.430  1.00  0.00     0.044 C 
ATOM     25  C   UNL A   1      34.127  16.523  24.728  1.00  0.00    -0.051 A 
ATOM     26  C   UNL A   1      34.077  16.619  23.341  1.00  0.00     0.005 A 
ATOM     27  C   UNL A   1      33.169  17.229  25.440  1.00  0.00     0.005 A 
ATOM     28  C   UNL A   1      33.282  17.544  22.670  1.00  0.00     0.026 A 
ATOM     29  C   UNL A   1      32.381  18.184  24.782  1.00  0.00     0.026 A 
ENDBRANCH  20  23
ENDBRANCH  18  19
ENDBRANCH  12  18
ENDBRANCH   6  11
BRANCH   8  30
ATOM     30  N   UNL A   1      31.683  26.293  22.874  1.00  0.00    -0.282 N 
ATOM     31  H   UNL A   1      30.816  26.142  22.432  1.00  0.00     0.180 HD
BRANCH  30  32
ATOM     32  S   UNL A   1      33.113  25.980  21.988  1.00  0.00     0.229 S 
ATOM     33  C   UNL A   1      32.599  25.570  20.340  1.00  0.00     0.183 C 
ATOM     34  O   UNL A   1      33.704  27.288  21.738  1.00  0.00    -0.207 OA
ATOM     35  O   UNL A   1      33.786  24.795  22.432  1.00  0.00    -0.207 OA
ENDBRANCH  30  32
ENDBRANCH   8  30
ENDBRANCH   3   5
ENDBRANCH   2   3
ENDBRANCH   1   2
BRANCH   1  36
ATOM     36  C   UNL A   1      35.799  30.198  28.273  1.00  0.00     0.275 C 
BRANCH  36  37
ATOM     37  O   UNL A   1      37.171  30.476  27.891  1.00  0.00    -0.458 OA
BRANCH  37  38
ATOM     38  C   UNL A   1      38.327  30.088  28.486  1.00  0.00     0.338 C 
ATOM     39  O   UNL A   1      38.957  29.105  28.120  1.00  0.00    -0.246 OA
BRANCH  38  40
ATOM     40  C   UNL A   1      38.837  30.958  29.545  1.00  0.00     0.060 A 
ATOM     41  C   UNL A   1      38.662  32.341  29.427  1.00  0.00     0.016 A 
ATOM     42  C   UNL A   1      39.367  30.389  30.693  1.00  0.00     0.016 A 
ATOM     43  C   UNL A   1      38.920  33.170  30.504  1.00  0.00     0.010 A 
ATOM     44  C   UNL A   1      39.526  31.184  31.797  1.00  0.00     0.010 A 
ATOM     45  C   UNL A   1      39.382  32.576  31.664  1.00  0.00    -0.014 A 
BRANCH  45  46
ATOM     46  C   UNL A   1      40.147  33.331  32.631  1.00  0.00     0.031 A 
ATOM     47  C   UNL A   1      39.515  34.038  33.740  1.00  0.00     0.074 A 
ATOM     48  C   UNL A   1      41.474  33.177  32.421  1.00  0.00     0.049 A 
ATOM     49  N   UNL A   1      40.086  35.006  34.360  1.00  0.00    -0.248 NA
ATOM     50  C   UNL A   1      38.152  33.782  34.197  1.00  0.00     0.031 C 
ATOM     51  C   UNL A   1      42.592  33.267  33.327  1.00  0.00     0.029 A 
ATOM     52  N   UNL A   1      42.059  32.908  31.170  1.00  0.00    -0.354 N 
ATOM     53  C   UNL A   1      39.344  35.246  35.496  1.00  0.00     0.074 A 
ATOM     54  C   UNL A   1      38.075  34.607  35.250  1.00  0.00     0.031 C 
ATOM     55  C   UNL A   1      43.731  33.242  32.603  1.00  0.00     0.029 A 
ATOM     56  C   UNL A   1      43.377  33.353  31.190  1.00  0.00     0.049 A 
ATOM     57  H   UNL A   1      41.610  32.478  30.408  1.00  0.00     0.167 HD
ATOM     58  C   UNL A   1      40.000  35.745  36.581  1.00  0.00     0.034 A 
ATOM     59  C   UNL A   1      43.851  34.277  30.298  1.00  0.00     0.034 A 
ATOM     60  C   UNL A   1      41.410  36.005  36.224  1.00  0.00     0.049 A 
ATOM     61  C   UNL A   1      44.149  35.578  31.060  1.00  0.00     0.074 A 
ATOM     62  C   UNL A   1      42.549  35.229  36.380  1.00  0.00     0.029 A 
ATOM     63  N   UNL A   1      41.731  36.983  35.286  1.00  0.00    -0.354 N 
ATOM     64  N   UNL A   1      43.791  35.810  32.294  1.00  0.00    -0.248 NA
ATOM     65  C   UNL A   1      44.799  36.738  30.455  1.00  0.00     0.031 C 
ATOM     66  C   UNL A   1      43.531  35.697  35.466  1.00  0.00     0.029 A 
ATOM     67  C   UNL A   1      43.007  36.776  34.775  1.00  0.00     0.049 A 
ATOM     68  H   UNL A   1      41.135  37.721  35.022  1.00  0.00     0.167 HD
ATOM     69  C   UNL A   1      43.999  37.127  32.602  1.00  0.00     0.074 A 
ATOM     70  C   UNL A   1      44.674  37.655  31.428  1.00  0.00     0.031 C 
ATOM     71  C   UNL A   1      43.554  37.684  33.771  1.00  0.00     0.034 A 
BRANCH  58  72
ATOM     72  C   UNL A   1      39.540  35.640  38.034  1.00  0.00     0.023 A 
ATOM     73  C   UNL A   1      39.320  36.863  38.712  1.00  0.00     0.012 A 
ATOM     74  C   UNL A   1      39.367  34.470  38.812  1.00  0.00     0.148 A 
ATOM     75  C   UNL A   1      39.042  36.935  40.082  1.00  0.00     0.002 A 
ATOM     76  C   UNL A   1      39.107  34.539  40.188  1.00  0.00     0.091 A 
ATOM     77  F   UNL A   1      39.405  33.269  38.230  1.00  0.00    -0.205 F 
ATOM     78  C   UNL A   1      38.956  35.772  40.827  1.00  0.00     0.022 A 
BRANCH  76  79
ATOM     79  S   UNL A   1      38.978  33.078  41.242  1.00  0.00     0.127 S 
ATOM     80  O   UNL A   1      39.415  33.596  42.540  1.00  0.00    -0.237 OA
ATOM     81  O   UNL A   1      37.554  32.761  41.165  1.00  0.00    -0.237 OA
ATOM     82  O   UNL A   1      39.866  32.074  40.667  1.00  0.00    -0.744 OA
ENDBRANCH  76  79
ENDBRANCH  58  72
BRANCH  59  83
ATOM     83  C   UNL A   1      43.156  34.279  28.946  1.00  0.00     0.023 A 
ATOM     84  C   UNL A   1      42.301  35.348  28.565  1.00  0.00     0.012 A 
ATOM     85  C   UNL A   1      43.732  33.534  27.926  1.00  0.00     0.148 A 
ATOM     86  C   UNL A   1      42.250  35.784  27.228  1.00  0.00     0.002 A 
ATOM     87  C   UNL A   1      43.856  34.086  26.670  1.00  0.00     0.091 A 
ATOM     88  F   UNL A   1      44.267  32.334  28.166  1.00  0.00    -0.205 F 
ATOM     89  C   UNL A   1      43.103  35.201  26.291  1.00  0.00     0.022 A 
BRANCH  87  90
ATOM     90  S   UNL A   1      45.364  33.604  25.819  1.00  0.00     0.127 S 
ATOM     91  O   UNL A   1      45.407  34.545  24.708  1.00  0.00    -0.237 OA
ATOM     92  O   UNL A   1      46.413  33.858  26.799  1.00  0.00    -0.237 OA
ATOM     93  O   UNL A   1      45.090  32.206  25.514  1.00  0.00    -0.744 OA
ENDBRANCH  87  90
ENDBRANCH  59  83
BRANCH  71  94
ATOM     94  C   UNL A   1      43.636  39.156  34.109  1.00  0.00     0.023 A 
ATOM     95  C   UNL A   1      42.934  40.140  33.392  1.00  0.00     0.012 A 
ATOM     96  C   UNL A   1      44.345  39.584  35.260  1.00  0.00     0.148 A 
ATOM     97  C   UNL A   1      43.017  41.494  33.731  1.00  0.00     0.002 A 
ATOM     98  C   UNL A   1      44.312  40.910  35.672  1.00  0.00     0.091 A 
ATOM     99  F   UNL A   1      45.088  38.709  35.956  1.00  0.00    -0.205 F 
ATOM    100  C   UNL A   1      43.690  41.878  34.884  1.00  0.00     0.022 A 
BRANCH  98 101
ATOM    101  S   UNL A   1      44.926  41.385  37.293  1.00  0.00     0.127 S 
ATOM    102  O   UNL A   1      44.372  42.728  37.447  1.00  0.00    -0.237 OA
ATOM    103  O   UNL A   1      44.324  40.375  38.166  1.00  0.00    -0.237 OA
ATOM    104  O   UNL A   1      46.377  41.296  37.195  1.00  0.00    -0.744 OA
ENDBRANCH  98 101
ENDBRANCH  71  94
ENDBRANCH  45  46
ENDBRANCH  38  40
ENDBRANCH  37  38
ENDBRANCH  36  37
ENDBRANCH   1  36
TORSDOF 20
ENDMDL
