MODEL 1
REMARK VINA RESULT:     -11.2      0.000      0.000
REMARK SMILES C[C@@](O)(c1cccc(O)c1)[C@@H](F)C(=O)OCCOC(=O)c1ccc(-c2c3nc(c(-c4cccc(S(=O)(=O)[O-])c4F)c4ccc([nH]4)c(-c4cccc(S(=O)(=O)[O-])c4F)c4nc(c(-c5cccc(S(=O)(=O)[O-])c5F)c5ccc2[nH]5)C=C4)C=C3)cc1
REMARK SMILES IDX 16 1 15 2 13 3 14 4 11 5 12 6 2 7 1 8 3 9 4 11 5 12 10 13
REMARK SMILES IDX 6 14 8 15 7 16 9 17 17 19 18 20 19 21 20 22 21 23 22 24
REMARK SMILES IDX 83 25 23 26 82 27 24 28 25 29 26 30 76 31 27 32 81 33 75 34
REMARK SMILES IDX 77 35 28 36 80 37 74 38 73 39 29 41 61 42 41 43 60 44 42 45
REMARK SMILES IDX 45 46 59 47 78 48 43 49 44 50 58 52 79 53 46 54 30 55 31 56
REMARK SMILES IDX 39 57 32 58 34 59 40 60 33 61 35 62 36 63 37 64 38 65 62 66
REMARK SMILES IDX 63 67 71 68 64 69 66 70 72 71 65 72 67 73 68 74 69 75 70 76
REMARK SMILES IDX 47 77 48 78 56 79 49 80 51 81 57 82 50 83 52 84 53 85 54 86
REMARK SMILES IDX 55 87
REMARK H PARENT 3 10 9 18 77 40 45 51
REMARK Flexibility Score: inf
ROOT
ATOM      1  C   UNL A   1      37.684  20.748  25.004  1.00  0.00     0.274 C 
ENDROOT
BRANCH   1   2
ATOM      2  O   UNL A   1      37.302  21.872  25.828  1.00  0.00    -0.460 OA
BRANCH   2   3
ATOM      3  C   UNL A   1      35.997  22.245  25.782  1.00  0.00     0.344 C 
ATOM      4  O   UNL A   1      35.480  23.000  26.602  1.00  0.00    -0.249 OA
BRANCH   3   5
ATOM      5  C   UNL A   1      35.194  21.561  24.678  1.00  0.00     0.311 C 
ATOM      6  F   UNL A   1      34.838  22.461  23.707  1.00  0.00    -0.231 F 
BRANCH   5   7
ATOM      7  C   UNL A   1      33.937  20.746  25.109  1.00  0.00     0.129 C 
ATOM      8  C   UNL A   1      32.664  21.594  24.916  1.00  0.00     0.051 C 
BRANCH   7   9
ATOM      9  O   UNL A   1      34.028  20.345  26.478  1.00  0.00    -0.382 OA
ATOM     10  H   UNL A   1      33.137  20.209  26.836  1.00  0.00     0.212 HD
ENDBRANCH   7   9
BRANCH   7  11
ATOM     11  C   UNL A   1      33.853  19.382  24.383  1.00  0.00    -0.010 A 
ATOM     12  C   UNL A   1      34.708  18.317  24.743  1.00  0.00     0.007 A 
ATOM     13  C   UNL A   1      32.853  19.092  23.434  1.00  0.00     0.053 A 
ATOM     14  C   UNL A   1      34.603  17.053  24.150  1.00  0.00     0.004 A 
ATOM     15  C   UNL A   1      32.735  17.821  22.871  1.00  0.00     0.115 A 
ATOM     16  C   UNL A   1      33.612  16.801  23.210  1.00  0.00     0.046 A 
BRANCH  15  17
ATOM     17  O   UNL A   1      31.714  17.610  21.990  1.00  0.00    -0.508 OA
ATOM     18  H   UNL A   1      31.206  16.824  22.040  1.00  0.00     0.293 HD
ENDBRANCH  15  17
ENDBRANCH   7  11
ENDBRANCH   5   7
ENDBRANCH   3   5
ENDBRANCH   2   3
ENDBRANCH   1   2
BRANCH   1  19
ATOM     19  C   UNL A   1      38.718  19.843  25.680  1.00  0.00     0.275 C 
BRANCH  19  20
ATOM     20  O   UNL A   1      40.011  20.467  25.760  1.00  0.00    -0.458 OA
BRANCH  20  21
ATOM     21  C   UNL A   1      40.524  20.548  27.010  1.00  0.00     0.338 C 
ATOM     22  O   UNL A   1      40.799  19.609  27.741  1.00  0.00    -0.246 OA
BRANCH  21  23
ATOM     23  C   UNL A   1      40.847  21.950  27.327  1.00  0.00     0.060 A 
ATOM     24  C   UNL A   1      40.309  22.958  26.522  1.00  0.00     0.016 A 
ATOM     25  C   UNL A   1      41.728  22.266  28.362  1.00  0.00     0.016 A 
ATOM     26  C   UNL A   1      40.661  24.288  26.736  1.00  0.00     0.010 A 
ATOM     27  C   UNL A   1      42.069  23.605  28.584  1.00  0.00     0.010 A 
ATOM     28  C   UNL A   1      41.548  24.622  27.765  1.00  0.00    -0.014 A 
BRANCH  28  29
ATOM     29  C   UNL A   1      41.942  26.038  27.973  1.00  0.00     0.031 A 
ATOM     30  C   UNL A   1      43.312  26.506  27.577  1.00  0.00     0.074 A 
ATOM     31  C   UNL A   1      41.070  26.896  28.537  1.00  0.00     0.049 A 
ATOM     32  N   UNL A   1      43.865  27.679  27.750  1.00  0.00    -0.248 NA
ATOM     33  C   UNL A   1      44.177  25.526  26.901  1.00  0.00     0.031 C 
ATOM     34  C   UNL A   1      39.710  26.559  28.962  1.00  0.00     0.029 A 
ATOM     35  N   UNL A   1      41.208  28.219  28.872  1.00  0.00    -0.354 N 
ATOM     36  C   UNL A   1      45.154  27.569  27.245  1.00  0.00     0.074 A 
ATOM     37  C   UNL A   1      45.302  26.214  26.756  1.00  0.00     0.031 C 
ATOM     38  C   UNL A   1      39.145  27.642  29.518  1.00  0.00     0.029 A 
ATOM     39  C   UNL A   1      40.113  28.737  29.522  1.00  0.00     0.049 A 
ATOM     40  H   UNL A   1      42.012  28.747  28.666  1.00  0.00     0.167 HD
ATOM     41  C   UNL A   1      46.120  28.515  27.179  1.00  0.00     0.034 A 
ATOM     42  C   UNL A   1      39.918  29.948  30.081  1.00  0.00     0.034 A 
ATOM     43  C   UNL A   1      45.956  29.874  27.626  1.00  0.00     0.049 A 
ATOM     44  C   UNL A   1      41.011  30.979  29.997  1.00  0.00     0.074 A 
ATOM     45  C   UNL A   1      46.862  30.919  27.554  1.00  0.00     0.029 A 
ATOM     46  N   UNL A   1      44.815  30.376  28.231  1.00  0.00    -0.354 N 
ATOM     47  N   UNL A   1      42.185  30.891  29.420  1.00  0.00    -0.248 NA
ATOM     48  C   UNL A   1      40.743  32.283  30.621  1.00  0.00     0.031 C 
ATOM     49  C   UNL A   1      46.272  32.049  28.127  1.00  0.00     0.029 A 
ATOM     50  C   UNL A   1      44.995  31.713  28.546  1.00  0.00     0.049 A 
ATOM     51  H   UNL A   1      43.998  29.859  28.412  1.00  0.00     0.167 HD
ATOM     52  C   UNL A   1      42.786  32.134  29.587  1.00  0.00     0.074 A 
ATOM     53  C   UNL A   1      41.835  32.966  30.297  1.00  0.00     0.031 C 
ATOM     54  C   UNL A   1      44.020  32.544  29.204  1.00  0.00     0.034 A 
BRANCH  41  55
ATOM     55  C   UNL A   1      47.438  28.127  26.565  1.00  0.00     0.023 A 
ATOM     56  C   UNL A   1      48.544  27.872  27.400  1.00  0.00     0.012 A 
ATOM     57  C   UNL A   1      47.567  27.954  25.173  1.00  0.00     0.148 A 
ATOM     58  C   UNL A   1      49.767  27.477  26.858  1.00  0.00     0.002 A 
ATOM     59  C   UNL A   1      48.780  27.525  24.642  1.00  0.00     0.091 A 
ATOM     60  F   UNL A   1      46.512  28.226  24.393  1.00  0.00    -0.205 F 
ATOM     61  C   UNL A   1      49.881  27.293  25.482  1.00  0.00     0.022 A 
BRANCH  59  62
ATOM     62  S   UNL A   1      49.001  27.195  22.890  1.00  0.00     0.127 S 
ATOM     63  O   UNL A   1      50.454  27.066  22.796  1.00  0.00    -0.237 OA
ATOM     64  O   UNL A   1      48.265  25.942  22.713  1.00  0.00    -0.237 OA
ATOM     65  O   UNL A   1      48.424  28.337  22.193  1.00  0.00    -0.744 OA
ENDBRANCH  59  62
ENDBRANCH  41  55
BRANCH  42  66
ATOM     66  C   UNL A   1      38.617  30.260  30.736  1.00  0.00     0.023 A 
ATOM     67  C   UNL A   1      38.382  29.817  32.052  1.00  0.00     0.012 A 
ATOM     68  C   UNL A   1      37.630  31.020  30.080  1.00  0.00     0.148 A 
ATOM     69  C   UNL A   1      37.179  30.107  32.695  1.00  0.00     0.002 A 
ATOM     70  C   UNL A   1      36.454  31.351  30.746  1.00  0.00     0.091 A 
ATOM     71  F   UNL A   1      37.861  31.411  28.819  1.00  0.00    -0.205 F 
ATOM     72  C   UNL A   1      36.221  30.884  32.047  1.00  0.00     0.022 A 
BRANCH  70  73
ATOM     73  S   UNL A   1      35.231  32.457  30.032  1.00  0.00     0.127 S 
ATOM     74  O   UNL A   1      34.309  32.643  31.148  1.00  0.00    -0.237 OA
ATOM     75  O   UNL A   1      36.038  33.631  29.699  1.00  0.00    -0.237 OA
ATOM     76  O   UNL A   1      34.698  31.751  28.874  1.00  0.00    -0.744 OA
ENDBRANCH  70  73
ENDBRANCH  42  66
BRANCH  54  77
ATOM     77  C   UNL A   1      44.415  33.962  29.527  1.00  0.00     0.023 A 
ATOM     78  C   UNL A   1      45.002  34.251  30.774  1.00  0.00     0.012 A 
ATOM     79  C   UNL A   1      44.273  34.989  28.574  1.00  0.00     0.148 A 
ATOM     80  C   UNL A   1      45.419  35.546  31.078  1.00  0.00     0.002 A 
ATOM     81  C   UNL A   1      44.730  36.269  28.869  1.00  0.00     0.091 A 
ATOM     82  F   UNL A   1      43.692  34.700  27.401  1.00  0.00    -0.205 F 
ATOM     83  C   UNL A   1      45.295  36.551  30.122  1.00  0.00     0.022 A 
BRANCH  81  84
ATOM     84  S   UNL A   1      44.687  37.601  27.662  1.00  0.00     0.127 S 
ATOM     85  O   UNL A   1      45.109  38.746  28.467  1.00  0.00    -0.237 OA
ATOM     86  O   UNL A   1      45.671  37.159  26.671  1.00  0.00    -0.237 OA
ATOM     87  O   UNL A   1      43.318  37.647  27.169  1.00  0.00    -0.744 OA
ENDBRANCH  81  84
ENDBRANCH  54  77
ENDBRANCH  28  29
ENDBRANCH  21  23
ENDBRANCH  20  21
ENDBRANCH  19  20
ENDBRANCH   1  19
TORSDOF 18
ENDMDL
MODEL 2
REMARK VINA RESULT:     -11.0      6.088      8.921
REMARK SMILES C[C@@](O)(c1cccc(O)c1)[C@@H](F)C(=O)OCCOC(=O)c1ccc(-c2c3nc(c(-c4cccc(S(=O)(=O)[O-])c4F)c4ccc([nH]4)c(-c4cccc(S(=O)(=O)[O-])c4F)c4nc(c(-c5cccc(S(=O)(=O)[O-])c5F)c5ccc2[nH]5)C=C4)C=C3)cc1
REMARK SMILES IDX 16 1 15 2 13 3 14 4 11 5 12 6 2 7 1 8 3 9 4 11 5 12 10 13
REMARK SMILES IDX 6 14 8 15 7 16 9 17 17 19 18 20 19 21 20 22 21 23 22 24
REMARK SMILES IDX 83 25 23 26 82 27 24 28 25 29 26 30 76 31 27 32 81 33 75 34
REMARK SMILES IDX 77 35 28 36 80 37 74 38 73 39 29 41 61 42 41 43 60 44 42 45
REMARK SMILES IDX 45 46 59 47 78 48 43 49 44 50 58 52 79 53 46 54 30 55 31 56
REMARK SMILES IDX 39 57 32 58 34 59 40 60 33 61 35 62 36 63 37 64 38 65 62 66
REMARK SMILES IDX 63 67 71 68 64 69 66 70 72 71 65 72 67 73 68 74 69 75 70 76
REMARK SMILES IDX 47 77 48 78 56 79 49 80 51 81 57 82 50 83 52 84 53 85 54 86
REMARK SMILES IDX 55 87
REMARK H PARENT 3 10 9 18 77 40 45 51
REMARK Flexibility Score: inf
ROOT
ATOM      1  C   UNL A   1      31.808  28.787  27.103  1.00  0.00     0.274 C 
ENDROOT
BRANCH   1   2
ATOM      2  O   UNL A   1      32.747  28.097  26.248  1.00  0.00    -0.460 OA
BRANCH   2   3
ATOM      3  C   UNL A   1      32.356  26.890  25.764  1.00  0.00     0.344 C 
ATOM      4  O   UNL A   1      33.031  25.869  25.866  1.00  0.00    -0.249 OA
BRANCH   3   5
ATOM      5  C   UNL A   1      31.045  26.929  24.983  1.00  0.00     0.311 C 
ATOM      6  F   UNL A   1      30.575  25.662  24.756  1.00  0.00    -0.231 F 
BRANCH   5   7
ATOM      7  C   UNL A   1      31.034  27.729  23.644  1.00  0.00     0.129 C 
ATOM      8  C   UNL A   1      31.131  26.760  22.448  1.00  0.00     0.051 C 
BRANCH   7   9
ATOM      9  O   UNL A   1      32.124  28.651  23.587  1.00  0.00    -0.382 OA
ATOM     10  H   UNL A   1      32.838  28.277  23.048  1.00  0.00     0.212 HD
ENDBRANCH   7   9
BRANCH   7  11
ATOM     11  C   UNL A   1      29.812  28.673  23.542  1.00  0.00    -0.010 A 
ATOM     12  C   UNL A   1      29.980  30.075  23.534  1.00  0.00     0.007 A 
ATOM     13  C   UNL A   1      28.506  28.194  23.322  1.00  0.00     0.053 A 
ATOM     14  C   UNL A   1      28.897  30.947  23.370  1.00  0.00     0.004 A 
ATOM     15  C   UNL A   1      27.437  29.071  23.128  1.00  0.00     0.115 A 
ATOM     16  C   UNL A   1      27.618  30.445  23.165  1.00  0.00     0.046 A 
BRANCH  15  17
ATOM     17  O   UNL A   1      26.208  28.527  22.881  1.00  0.00    -0.508 OA
ATOM     18  H   UNL A   1      25.441  28.914  23.253  1.00  0.00     0.293 HD
ENDBRANCH  15  17
ENDBRANCH   7  11
ENDBRANCH   5   7
ENDBRANCH   3   5
ENDBRANCH   2   3
ENDBRANCH   1   2
BRANCH   1  19
ATOM     19  C   UNL A   1      31.782  30.298  26.856  1.00  0.00     0.275 C 
BRANCH  19  20
ATOM     20  O   UNL A   1      33.078  30.810  26.502  1.00  0.00    -0.458 OA
BRANCH  20  21
ATOM     21  C   UNL A   1      33.538  31.793  27.310  1.00  0.00     0.338 C 
ATOM     22  O   UNL A   1      32.936  32.805  27.632  1.00  0.00    -0.246 OA
BRANCH  21  23
ATOM     23  C   UNL A   1      34.840  31.403  27.879  1.00  0.00     0.060 A 
ATOM     24  C   UNL A   1      34.997  30.097  28.352  1.00  0.00     0.016 A 
ATOM     25  C   UNL A   1      35.872  32.332  28.011  1.00  0.00     0.016 A 
ATOM     26  C   UNL A   1      36.183  29.716  28.976  1.00  0.00     0.010 A 
ATOM     27  C   UNL A   1      37.068  31.943  28.625  1.00  0.00     0.010 A 
ATOM     28  C   UNL A   1      37.226  30.638  29.122  1.00  0.00    -0.014 A 
BRANCH  28  29
ATOM     29  C   UNL A   1      38.478  30.237  29.811  1.00  0.00     0.031 A 
ATOM     30  C   UNL A   1      39.401  29.237  29.177  1.00  0.00     0.074 A 
ATOM     31  C   UNL A   1      38.771  30.759  31.017  1.00  0.00     0.049 A 
ATOM     32  N   UNL A   1      40.496  28.704  29.657  1.00  0.00    -0.248 NA
ATOM     33  C   UNL A   1      39.046  28.770  27.827  1.00  0.00     0.031 C 
ATOM     34  C   UNL A   1      37.953  31.740  31.733  1.00  0.00     0.029 A 
ATOM     35  N   UNL A   1      39.824  30.519  31.863  1.00  0.00    -0.354 N 
ATOM     36  C   UNL A   1      40.938  27.811  28.691  1.00  0.00     0.074 A 
ATOM     37  C   UNL A   1      39.995  27.872  27.594  1.00  0.00     0.031 C 
ATOM     38  C   UNL A   1      38.524  32.003  32.919  1.00  0.00     0.029 A 
ATOM     39  C   UNL A   1      39.727  31.186  33.062  1.00  0.00     0.049 A 
ATOM     40  H   UNL A   1      40.576  29.927  31.635  1.00  0.00     0.167 HD
ATOM     41  C   UNL A   1      42.039  27.023  28.708  1.00  0.00     0.034 A 
ATOM     42  C   UNL A   1      40.504  31.127  34.161  1.00  0.00     0.034 A 
ATOM     43  C   UNL A   1      42.999  26.995  29.780  1.00  0.00     0.049 A 
ATOM     44  C   UNL A   1      41.718  30.239  34.155  1.00  0.00     0.074 A 
ATOM     45  C   UNL A   1      44.173  26.267  29.865  1.00  0.00     0.029 A 
ATOM     46  N   UNL A   1      42.896  27.723  30.955  1.00  0.00    -0.354 N 
ATOM     47  N   UNL A   1      42.181  29.481  33.190  1.00  0.00    -0.248 NA
ATOM     48  C   UNL A   1      42.532  30.216  35.380  1.00  0.00     0.031 C 
ATOM     49  C   UNL A   1      44.773  26.545  31.097  1.00  0.00     0.029 A 
ATOM     50  C   UNL A   1      43.979  27.456  31.775  1.00  0.00     0.049 A 
ATOM     51  H   UNL A   1      42.160  28.339  31.175  1.00  0.00     0.167 HD
ATOM     52  C   UNL A   1      43.352  28.912  33.680  1.00  0.00     0.074 A 
ATOM     53  C   UNL A   1      43.541  29.433  35.019  1.00  0.00     0.031 C 
ATOM     54  C   UNL A   1      44.184  28.024  33.084  1.00  0.00     0.034 A 
BRANCH  41  55
ATOM     55  C   UNL A   1      42.291  26.147  27.511  1.00  0.00     0.023 A 
ATOM     56  C   UNL A   1      42.977  26.673  26.398  1.00  0.00     0.012 A 
ATOM     57  C   UNL A   1      41.905  24.793  27.508  1.00  0.00     0.148 A 
ATOM     58  C   UNL A   1      43.253  25.872  25.290  1.00  0.00     0.002 A 
ATOM     59  C   UNL A   1      42.215  23.990  26.415  1.00  0.00     0.091 A 
ATOM     60  F   UNL A   1      41.231  24.317  28.565  1.00  0.00    -0.205 F 
ATOM     61  C   UNL A   1      42.882  24.530  25.303  1.00  0.00     0.022 A 
BRANCH  59  62
ATOM     62  S   UNL A   1      41.838  22.234  26.372  1.00  0.00     0.127 S 
ATOM     63  O   UNL A   1      42.594  21.799  25.200  1.00  0.00    -0.237 OA
ATOM     64  O   UNL A   1      42.376  21.768  27.651  1.00  0.00    -0.237 OA
ATOM     65  O   UNL A   1      40.389  22.140  26.257  1.00  0.00    -0.744 OA
ENDBRANCH  59  62
ENDBRANCH  41  55
BRANCH  42  66
ATOM     66  C   UNL A   1      40.173  31.966  35.347  1.00  0.00     0.023 A 
ATOM     67  C   UNL A   1      40.898  33.150  35.581  1.00  0.00     0.012 A 
ATOM     68  C   UNL A   1      39.125  31.617  36.222  1.00  0.00     0.148 A 
ATOM     69  C   UNL A   1      40.600  33.962  36.675  1.00  0.00     0.002 A 
ATOM     70  C   UNL A   1      38.798  32.459  37.280  1.00  0.00     0.091 A 
ATOM     71  F   UNL A   1      38.462  30.474  35.998  1.00  0.00    -0.205 F 
ATOM     72  C   UNL A   1      39.542  33.623  37.516  1.00  0.00     0.022 A 
BRANCH  70  73
ATOM     73  S   UNL A   1      37.369  32.164  38.328  1.00  0.00     0.127 S 
ATOM     74  O   UNL A   1      37.815  32.714  39.605  1.00  0.00    -0.237 OA
ATOM     75  O   UNL A   1      36.328  32.941  37.653  1.00  0.00    -0.237 OA
ATOM     76  O   UNL A   1      37.153  30.723  38.294  1.00  0.00    -0.744 OA
ENDBRANCH  70  73
ENDBRANCH  42  66
BRANCH  54  77
ATOM     77  C   UNL A   1      45.390  27.566  33.862  1.00  0.00     0.023 A 
ATOM     78  C   UNL A   1      46.576  28.322  33.810  1.00  0.00     0.012 A 
ATOM     79  C   UNL A   1      45.326  26.433  34.698  1.00  0.00     0.148 A 
ATOM     80  C   UNL A   1      47.691  27.944  34.559  1.00  0.00     0.002 A 
ATOM     81  C   UNL A   1      46.427  26.088  35.473  1.00  0.00     0.091 A 
ATOM     82  F   UNL A   1      44.195  25.713  34.718  1.00  0.00    -0.205 F 
ATOM     83  C   UNL A   1      47.613  26.836  35.398  1.00  0.00     0.022 A 
BRANCH  81  84
ATOM     84  S   UNL A   1      46.382  24.727  36.647  1.00  0.00     0.127 S 
ATOM     85  O   UNL A   1      46.110  23.587  35.772  1.00  0.00    -0.237 OA
ATOM     86  O   UNL A   1      47.733  24.752  37.210  1.00  0.00    -0.237 OA
ATOM     87  O   UNL A   1      45.329  25.057  37.597  1.00  0.00    -0.744 OA
ENDBRANCH  81  84
ENDBRANCH  54  77
ENDBRANCH  28  29
ENDBRANCH  21  23
ENDBRANCH  20  21
ENDBRANCH  19  20
ENDBRANCH   1  19
TORSDOF 18
ENDMDL
MODEL 3
REMARK VINA RESULT:     -10.9      2.863      5.476
REMARK SMILES C[C@@](O)(c1cccc(O)c1)[C@@H](F)C(=O)OCCOC(=O)c1ccc(-c2c3nc(c(-c4cccc(S(=O)(=O)[O-])c4F)c4ccc([nH]4)c(-c4cccc(S(=O)(=O)[O-])c4F)c4nc(c(-c5cccc(S(=O)(=O)[O-])c5F)c5ccc2[nH]5)C=C4)C=C3)cc1
REMARK SMILES IDX 16 1 15 2 13 3 14 4 11 5 12 6 2 7 1 8 3 9 4 11 5 12 10 13
REMARK SMILES IDX 6 14 8 15 7 16 9 17 17 19 18 20 19 21 20 22 21 23 22 24
REMARK SMILES IDX 83 25 23 26 82 27 24 28 25 29 26 30 76 31 27 32 81 33 75 34
REMARK SMILES IDX 77 35 28 36 80 37 74 38 73 39 29 41 61 42 41 43 60 44 42 45
REMARK SMILES IDX 45 46 59 47 78 48 43 49 44 50 58 52 79 53 46 54 30 55 31 56
REMARK SMILES IDX 39 57 32 58 34 59 40 60 33 61 35 62 36 63 37 64 38 65 62 66
REMARK SMILES IDX 63 67 71 68 64 69 66 70 72 71 65 72 67 73 68 74 69 75 70 76
REMARK SMILES IDX 47 77 48 78 56 79 49 80 51 81 57 82 50 83 52 84 53 85 54 86
REMARK SMILES IDX 55 87
REMARK H PARENT 3 10 9 18 77 40 45 51
REMARK Flexibility Score: inf
ROOT
ATOM      1  C   UNL A   1      41.704  18.783  26.146  1.00  0.00     0.274 C 
ENDROOT
BRANCH   1   2
ATOM      2  O   UNL A   1      42.641  19.817  26.518  1.00  0.00    -0.460 OA
BRANCH   2   3
ATOM      3  C   UNL A   1      43.378  20.361  25.515  1.00  0.00     0.344 C 
ATOM      4  O   UNL A   1      43.802  19.715  24.560  1.00  0.00    -0.249 OA
BRANCH   3   5
ATOM      5  C   UNL A   1      43.726  21.833  25.727  1.00  0.00     0.311 C 
ATOM      6  F   UNL A   1      42.988  22.632  24.893  1.00  0.00    -0.231 F 
BRANCH   5   7
ATOM      7  C   UNL A   1      45.230  22.233  25.627  1.00  0.00     0.129 C 
ATOM      8  C   UNL A   1      45.519  22.862  24.250  1.00  0.00     0.051 C 
BRANCH   7   9
ATOM      9  O   UNL A   1      46.078  21.098  25.810  1.00  0.00    -0.382 OA
ATOM     10  H   UNL A   1      46.589  20.941  25.001  1.00  0.00     0.212 HD
ENDBRANCH   7   9
BRANCH   7  11
ATOM     11  C   UNL A   1      45.665  23.148  26.796  1.00  0.00    -0.010 A 
ATOM     12  C   UNL A   1      46.809  23.970  26.685  1.00  0.00     0.007 A 
ATOM     13  C   UNL A   1      44.887  23.307  27.960  1.00  0.00     0.053 A 
ATOM     14  C   UNL A   1      47.180  24.859  27.701  1.00  0.00     0.004 A 
ATOM     15  C   UNL A   1      45.249  24.218  28.954  1.00  0.00     0.115 A 
ATOM     16  C   UNL A   1      46.398  24.986  28.841  1.00  0.00     0.046 A 
BRANCH  15  17
ATOM     17  O   UNL A   1      44.420  24.342  30.032  1.00  0.00    -0.508 OA
ATOM     18  H   UNL A   1      44.613  23.885  30.827  1.00  0.00     0.293 HD
ENDBRANCH  15  17
ENDBRANCH   7  11
ENDBRANCH   5   7
ENDBRANCH   3   5
ENDBRANCH   2   3
ENDBRANCH   1   2
BRANCH   1  19
ATOM     19  C   UNL A   1      40.283  19.317  25.943  1.00  0.00     0.275 C 
BRANCH  19  20
ATOM     20  O   UNL A   1      39.973  20.385  26.854  1.00  0.00    -0.458 OA
BRANCH  20  21
ATOM     21  C   UNL A   1      39.193  21.362  26.335  1.00  0.00     0.338 C 
ATOM     22  O   UNL A   1      38.140  21.206  25.736  1.00  0.00    -0.246 OA
BRANCH  21  23
ATOM     23  C   UNL A   1      39.722  22.682  26.722  1.00  0.00     0.060 A 
ATOM     24  C   UNL A   1      39.148  23.823  26.156  1.00  0.00     0.016 A 
ATOM     25  C   UNL A   1      40.819  22.792  27.577  1.00  0.00     0.016 A 
ATOM     26  C   UNL A   1      39.677  25.083  26.429  1.00  0.00     0.010 A 
ATOM     27  C   UNL A   1      41.340  24.059  27.861  1.00  0.00     0.010 A 
ATOM     28  C   UNL A   1      40.781  25.210  27.280  1.00  0.00    -0.014 A 
BRANCH  28  29
ATOM     29  C   UNL A   1      41.359  26.551  27.547  1.00  0.00     0.031 A 
ATOM     30  C   UNL A   1      42.697  26.922  26.978  1.00  0.00     0.074 A 
ATOM     31  C   UNL A   1      40.685  27.424  28.320  1.00  0.00     0.049 A 
ATOM     32  N   UNL A   1      43.399  28.011  27.164  1.00  0.00    -0.248 NA
ATOM     33  C   UNL A   1      43.334  25.941  26.086  1.00  0.00     0.031 C 
ATOM     34  C   UNL A   1      39.376  27.178  28.927  1.00  0.00     0.029 A 
ATOM     35  N   UNL A   1      41.020  28.685  28.745  1.00  0.00    -0.354 N 
ATOM     36  C   UNL A   1      44.575  27.831  26.448  1.00  0.00     0.074 A 
ATOM     37  C   UNL A   1      44.494  26.527  25.823  1.00  0.00     0.031 C 
ATOM     38  C   UNL A   1      39.028  28.246  29.662  1.00  0.00     0.029 A 
ATOM     39  C   UNL A   1      40.102  29.235  29.607  1.00  0.00     0.049 A 
ATOM     40  H   UNL A   1      41.839  29.151  28.459  1.00  0.00     0.167 HD
ATOM     41  C   UNL A   1      45.621  28.680  26.312  1.00  0.00     0.034 A 
ATOM     42  C   UNL A   1      40.133  30.393  30.297  1.00  0.00     0.034 A 
ATOM     43  C   UNL A   1      45.681  29.992  26.900  1.00  0.00     0.049 A 
ATOM     44  C   UNL A   1      41.309  31.315  30.130  1.00  0.00     0.074 A 
ATOM     45  C   UNL A   1      46.678  30.946  26.776  1.00  0.00     0.029 A 
ATOM     46  N   UNL A   1      44.710  30.536  27.725  1.00  0.00    -0.354 N 
ATOM     47  N   UNL A   1      42.365  31.176  29.365  1.00  0.00    -0.248 NA
ATOM     48  C   UNL A   1      41.288  32.566  30.903  1.00  0.00     0.031 C 
ATOM     49  C   UNL A   1      46.313  32.061  27.536  1.00  0.00     0.029 A 
ATOM     50  C   UNL A   1      45.085  31.808  28.124  1.00  0.00     0.049 A 
ATOM     51  H   UNL A   1      43.876  30.085  27.988  1.00  0.00     0.167 HD
ATOM     52  C   UNL A   1      43.120  32.329  29.543  1.00  0.00     0.074 A 
ATOM     53  C   UNL A   1      42.389  33.169  30.470  1.00  0.00     0.031 C 
ATOM     54  C   UNL A   1      44.321  32.655  29.004  1.00  0.00     0.034 A 
BRANCH  41  55
ATOM     55  C   UNL A   1      46.778  28.232  25.461  1.00  0.00     0.023 A 
ATOM     56  C   UNL A   1      46.640  28.209  24.059  1.00  0.00     0.012 A 
ATOM     57  C   UNL A   1      48.017  27.894  26.039  1.00  0.00     0.148 A 
ATOM     58  C   UNL A   1      47.709  27.831  23.246  1.00  0.00     0.002 A 
ATOM     59  C   UNL A   1      49.089  27.553  25.221  1.00  0.00     0.091 A 
ATOM     60  F   UNL A   1      48.122  27.897  27.376  1.00  0.00    -0.205 F 
ATOM     61  C   UNL A   1      48.935  27.514  23.826  1.00  0.00     0.022 A 
BRANCH  59  62
ATOM     62  S   UNL A   1      50.724  27.196  25.875  1.00  0.00     0.127 S 
ATOM     63  O   UNL A   1      51.035  28.434  26.585  1.00  0.00    -0.237 OA
ATOM     64  O   UNL A   1      50.469  26.044  26.742  1.00  0.00    -0.237 OA
ATOM     65  O   UNL A   1      51.561  26.906  24.718  1.00  0.00    -0.744 OA
ENDBRANCH  59  62
ENDBRANCH  41  55
BRANCH  42  66
ATOM     66  C   UNL A   1      38.989  30.759  31.180  1.00  0.00     0.023 A 
ATOM     67  C   UNL A   1      39.026  30.401  32.541  1.00  0.00     0.012 A 
ATOM     68  C   UNL A   1      37.888  31.486  30.688  1.00  0.00     0.148 A 
ATOM     69  C   UNL A   1      37.976  30.743  33.393  1.00  0.00     0.002 A 
ATOM     70  C   UNL A   1      36.870  31.870  31.555  1.00  0.00     0.091 A 
ATOM     71  F   UNL A   1      37.859  31.795  29.384  1.00  0.00    -0.205 F 
ATOM     72  C   UNL A   1      36.905  31.488  32.904  1.00  0.00     0.022 A 
BRANCH  70  73
ATOM     73  S   UNL A   1      35.526  32.941  31.033  1.00  0.00     0.127 S 
ATOM     74  O   UNL A   1      34.804  33.147  32.286  1.00  0.00    -0.237 OA
ATOM     75  O   UNL A   1      36.244  34.116  30.538  1.00  0.00    -0.237 OA
ATOM     76  O   UNL A   1      34.815  32.199  30.002  1.00  0.00    -0.744 OA
ENDBRANCH  70  73
ENDBRANCH  42  66
BRANCH  54  77
ATOM     77  C   UNL A   1      44.918  33.985  29.384  1.00  0.00     0.023 A 
ATOM     78  C   UNL A   1      45.854  34.050  30.434  1.00  0.00     0.012 A 
ATOM     79  C   UNL A   1      44.609  35.153  28.659  1.00  0.00     0.148 A 
ATOM     80  C   UNL A   1      46.455  35.261  30.774  1.00  0.00     0.002 A 
ATOM     81  C   UNL A   1      45.244  36.348  28.977  1.00  0.00     0.091 A 
ATOM     82  F   UNL A   1      43.699  35.076  27.677  1.00  0.00    -0.205 F 
ATOM     83  C   UNL A   1      46.161  36.406  30.039  1.00  0.00     0.022 A 
BRANCH  81  84
ATOM     84  S   UNL A   1      44.988  37.851  28.023  1.00  0.00     0.127 S 
ATOM     85  O   UNL A   1      44.535  38.784  29.053  1.00  0.00    -0.237 OA
ATOM     86  O   UNL A   1      46.328  38.124  27.501  1.00  0.00    -0.237 OA
ATOM     87  O   UNL A   1      44.004  37.511  27.004  1.00  0.00    -0.744 OA
ENDBRANCH  81  84
ENDBRANCH  54  77
ENDBRANCH  28  29
ENDBRANCH  21  23
ENDBRANCH  20  21
ENDBRANCH  19  20
ENDBRANCH   1  19
TORSDOF 18
ENDMDL
