MODEL 1
REMARK VINA RESULT:     -12.3      0.000      0.000
REMARK SMILES N#Cc1ccc(C[N@H+]2CCCC[C@H]2C(=O)OCCOC(=O)c2ccc(-c3c4nc(c(-c5cccc(S(=O)(=O)[O-])c5F)c5ccc([nH]5)c(-c5cccc(S(=O)(=O)[O-])c5F)c5nc(c(-c6cccc(S(=O)(=O)[O-])c6F)c6ccc3[nH]6)C=C5)C=C4)cc2)c(F)c1
REMARK SMILES IDX 17 1 16 2 14 3 15 4 13 5 8 6 9 7 10 9 12 10 11 11 7 12 6 13
REMARK SMILES IDX 3 14 4 15 87 16 5 17 85 18 86 19 2 20 1 21 18 22 19 23 20 24
REMARK SMILES IDX 21 25 22 26 23 27 84 28 24 29 83 30 25 31 26 32 27 33 77 34
REMARK SMILES IDX 28 35 82 36 76 37 78 38 29 39 81 40 75 41 74 42 30 44 62 45
REMARK SMILES IDX 42 46 61 47 43 48 46 49 60 50 79 51 44 52 45 53 59 55 80 56
REMARK SMILES IDX 47 57 31 58 32 59 40 60 33 61 35 62 41 63 34 64 36 65 37 66
REMARK SMILES IDX 38 67 39 68 63 69 64 70 72 71 65 72 67 73 73 74 66 75 68 76
REMARK SMILES IDX 69 77 70 78 71 79 48 80 49 81 57 82 50 83 52 84 58 85 51 86
REMARK SMILES IDX 53 87 54 88 55 89 56 90
REMARK H PARENT 8 8 78 43 46 54
REMARK Flexibility Score: inf
ROOT
ATOM      1  C   UNL A   1      31.138  27.266  26.580  1.00  0.00     0.274 C 
ENDROOT
BRANCH   1   2
ATOM      2  O   UNL A   1      31.699  25.988  26.993  1.00  0.00    -0.458 OA
BRANCH   2   3
ATOM      3  C   UNL A   1      31.685  25.100  25.973  1.00  0.00     0.365 C 
ATOM      4  O   UNL A   1      30.625  24.807  25.449  1.00  0.00    -0.245 OA
BRANCH   3   5
ATOM      5  C   UNL A   1      33.007  24.429  25.577  1.00  0.00     0.295 C 
ATOM      6  N   UNL A   1      32.872  23.642  24.312  1.00  0.00    -0.319 N 
ATOM      7  C   UNL A   1      32.643  24.504  23.143  1.00  0.00     0.263 C 
ATOM      8  H   UNL A   1      33.800  23.237  24.196  1.00  0.00     0.349 HD
ATOM      9  C   UNL A   1      33.623  25.676  22.976  1.00  0.00     0.062 C 
ATOM     10  C   UNL A   1      34.125  25.472  25.410  1.00  0.00     0.078 C 
ATOM     11  C   UNL A   1      33.831  26.445  24.273  1.00  0.00     0.013 C 
BRANCH   6  12
ATOM     12  C   UNL A   1      32.112  22.341  24.342  1.00  0.00     0.302 C 
BRANCH  12  13
ATOM     13  C   UNL A   1      32.746  20.981  24.027  1.00  0.00     0.042 A 
ATOM     14  C   UNL A   1      33.450  18.237  23.973  1.00  0.00     0.055 A 
ATOM     15  C   UNL A   1      32.519  18.735  23.065  1.00  0.00     0.020 A 
ATOM     16  C   UNL A   1      34.191  19.138  24.739  1.00  0.00     0.059 A 
ATOM     17  C   UNL A   1      32.202  20.107  23.066  1.00  0.00     0.014 A 
ATOM     18  C   UNL A   1      33.850  20.498  24.740  1.00  0.00     0.133 A 
ATOM     19  F   UNL A   1      34.504  21.306  25.586  1.00  0.00    -0.206 F 
BRANCH  14  20
ATOM     20  C   UNL A   1      33.581  16.824  24.209  1.00  0.00     0.099 C 
ATOM     21  N   UNL A   1      33.624  15.693  24.454  1.00  0.00    -0.192 NA
ENDBRANCH  14  20
ENDBRANCH  12  13
ENDBRANCH   6  12
ENDBRANCH   3   5
ENDBRANCH   2   3
ENDBRANCH   1   2
BRANCH   1  22
ATOM     22  C   UNL A   1      31.726  28.541  27.258  1.00  0.00     0.275 C 
BRANCH  22  23
ATOM     23  O   UNL A   1      32.498  29.431  26.396  1.00  0.00    -0.458 OA
BRANCH  23  24
ATOM     24  C   UNL A   1      32.963  30.589  26.949  1.00  0.00     0.338 C 
ATOM     25  O   UNL A   1      32.262  31.534  27.286  1.00  0.00    -0.246 OA
BRANCH  24  26
ATOM     26  C   UNL A   1      34.439  30.599  27.233  1.00  0.00     0.060 A 
ATOM     27  C   UNL A   1      35.095  29.398  27.408  1.00  0.00     0.016 A 
ATOM     28  C   UNL A   1      35.117  31.741  27.650  1.00  0.00     0.016 A 
ATOM     29  C   UNL A   1      36.257  29.280  28.175  1.00  0.00     0.010 A 
ATOM     30  C   UNL A   1      36.401  31.640  28.248  1.00  0.00     0.010 A 
ATOM     31  C   UNL A   1      36.972  30.394  28.579  1.00  0.00    -0.014 A 
BRANCH  31  32
ATOM     32  C   UNL A   1      38.224  30.225  29.394  1.00  0.00     0.031 A 
ATOM     33  C   UNL A   1      39.367  29.417  28.839  1.00  0.00     0.074 A 
ATOM     34  C   UNL A   1      38.400  30.817  30.600  1.00  0.00     0.049 A 
ATOM     35  N   UNL A   1      40.390  28.888  29.457  1.00  0.00    -0.248 NA
ATOM     36  C   UNL A   1      39.346  29.160  27.391  1.00  0.00     0.031 C 
ATOM     37  C   UNL A   1      37.478  31.756  31.241  1.00  0.00     0.029 A 
ATOM     38  N   UNL A   1      39.423  30.708  31.519  1.00  0.00    -0.354 N 
ATOM     39  C   UNL A   1      41.058  28.129  28.505  1.00  0.00     0.074 A 
ATOM     40  C   UNL A   1      40.345  28.301  27.257  1.00  0.00     0.031 C 
ATOM     41  C   UNL A   1      37.983  32.165  32.413  1.00  0.00     0.029 A 
ATOM     42  C   UNL A   1      39.182  31.392  32.693  1.00  0.00     0.049 A 
ATOM     43  H   UNL A   1      40.246  30.193  31.354  1.00  0.00     0.167 HD
ATOM     44  C   UNL A   1      42.151  27.342  28.665  1.00  0.00     0.034 A 
ATOM     45  C   UNL A   1      39.781  31.338  33.900  1.00  0.00     0.034 A 
ATOM     46  C   UNL A   1      42.884  27.231  29.899  1.00  0.00     0.049 A 
ATOM     47  C   UNL A   1      40.924  30.384  34.096  1.00  0.00     0.074 A 
ATOM     48  C   UNL A   1      44.009  26.471  30.169  1.00  0.00     0.029 A 
ATOM     49  N   UNL A   1      42.565  27.899  31.073  1.00  0.00    -0.354 N 
ATOM     50  N   UNL A   1      41.510  29.612  33.213  1.00  0.00    -0.248 NA
ATOM     51  C   UNL A   1      41.487  30.290  35.449  1.00  0.00     0.031 C 
ATOM     52  C   UNL A   1      44.331  26.633  31.521  1.00  0.00     0.029 A 
ATOM     53  C   UNL A   1      43.453  27.549  32.077  1.00  0.00     0.049 A 
ATOM     54  H   UNL A   1      41.816  28.530  31.177  1.00  0.00     0.167 HD
ATOM     55  C   UNL A   1      42.536  28.969  33.892  1.00  0.00     0.074 A 
ATOM     56  C   UNL A   1      42.498  29.453  35.259  1.00  0.00     0.031 C 
ATOM     57  C   UNL A   1      43.428  28.061  33.425  1.00  0.00     0.034 A 
BRANCH  44  58
ATOM     58  C   UNL A   1      42.560  26.479  27.495  1.00  0.00     0.023 A 
ATOM     59  C   UNL A   1      43.344  26.997  26.445  1.00  0.00     0.012 A 
ATOM     60  C   UNL A   1      42.134  25.135  27.436  1.00  0.00     0.148 A 
ATOM     61  C   UNL A   1      43.635  26.217  25.324  1.00  0.00     0.002 A 
ATOM     62  C   UNL A   1      42.480  24.347  26.346  1.00  0.00     0.091 A 
ATOM     63  F   UNL A   1      41.377  24.659  28.434  1.00  0.00    -0.205 F 
ATOM     64  C   UNL A   1      43.208  24.892  25.278  1.00  0.00     0.022 A 
BRANCH  62  65
ATOM     65  S   UNL A   1      42.051  22.606  26.240  1.00  0.00     0.127 S 
ATOM     66  O   UNL A   1      42.677  22.224  24.975  1.00  0.00    -0.237 OA
ATOM     67  O   UNL A   1      42.701  22.058  27.431  1.00  0.00    -0.237 OA
ATOM     68  O   UNL A   1      40.596  22.547  26.262  1.00  0.00    -0.744 OA
ENDBRANCH  62  65
ENDBRANCH  44  58
BRANCH  45  69
ATOM     69  C   UNL A   1      39.283  32.178  35.032  1.00  0.00     0.023 A 
ATOM     70  C   UNL A   1      38.311  31.652  35.905  1.00  0.00     0.012 A 
ATOM     71  C   UNL A   1      39.786  33.474  35.271  1.00  0.00     0.148 A 
ATOM     72  C   UNL A   1      37.841  32.402  36.985  1.00  0.00     0.002 A 
ATOM     73  C   UNL A   1      39.359  34.192  36.383  1.00  0.00     0.091 A 
ATOM     74  F   UNL A   1      40.698  33.967  34.422  1.00  0.00    -0.205 F 
ATOM     75  C   UNL A   1      38.375  33.664  37.232  1.00  0.00     0.022 A 
BRANCH  73  76
ATOM     76  S   UNL A   1      40.080  35.768  36.857  1.00  0.00     0.127 S 
ATOM     77  O   UNL A   1      39.441  36.013  38.148  1.00  0.00    -0.237 OA
ATOM     78  O   UNL A   1      41.503  35.434  36.926  1.00  0.00    -0.237 OA
ATOM     79  O   UNL A   1      39.729  36.701  35.796  1.00  0.00    -0.744 OA
ENDBRANCH  73  76
ENDBRANCH  45  69
BRANCH  57  80
ATOM     80  C   UNL A   1      44.486  27.576  34.380  1.00  0.00     0.023 A 
ATOM     81  C   UNL A   1      45.665  28.320  34.583  1.00  0.00     0.012 A 
ATOM     82  C   UNL A   1      44.277  26.396  35.122  1.00  0.00     0.148 A 
ATOM     83  C   UNL A   1      46.637  27.875  35.479  1.00  0.00     0.002 A 
ATOM     84  C   UNL A   1      45.221  25.991  36.055  1.00  0.00     0.091 A 
ATOM     85  F   UNL A   1      43.158  25.692  34.898  1.00  0.00    -0.205 F 
ATOM     86  C   UNL A   1      46.410  26.720  36.223  1.00  0.00     0.022 A 
BRANCH  84  87
ATOM     87  S   UNL A   1      44.967  24.576  37.129  1.00  0.00     0.127 S 
ATOM     88  O   UNL A   1      43.772  24.974  37.872  1.00  0.00    -0.237 OA
ATOM     89  O   UNL A   1      44.756  23.494  36.167  1.00  0.00    -0.237 OA
ATOM     90  O   UNL A   1      46.180  24.450  37.928  1.00  0.00    -0.744 OA
ENDBRANCH  84  87
ENDBRANCH  57  80
ENDBRANCH  31  32
ENDBRANCH  24  26
ENDBRANCH  23  24
ENDBRANCH  22  23
ENDBRANCH   1  22
TORSDOF 17
ENDMDL
MODEL 2
REMARK VINA RESULT:     -12.1      0.859      1.437
REMARK SMILES N#Cc1ccc(C[N@H+]2CCCC[C@H]2C(=O)OCCOC(=O)c2ccc(-c3c4nc(c(-c5cccc(S(=O)(=O)[O-])c5F)c5ccc([nH]5)c(-c5cccc(S(=O)(=O)[O-])c5F)c5nc(c(-c6cccc(S(=O)(=O)[O-])c6F)c6ccc3[nH]6)C=C5)C=C4)cc2)c(F)c1
REMARK SMILES IDX 17 1 16 2 14 3 15 4 13 5 8 6 9 7 10 9 12 10 11 11 7 12 6 13
REMARK SMILES IDX 3 14 4 15 87 16 5 17 85 18 86 19 2 20 1 21 18 22 19 23 20 24
REMARK SMILES IDX 21 25 22 26 23 27 84 28 24 29 83 30 25 31 26 32 27 33 77 34
REMARK SMILES IDX 28 35 82 36 76 37 78 38 29 39 81 40 75 41 74 42 30 44 62 45
REMARK SMILES IDX 42 46 61 47 43 48 46 49 60 50 79 51 44 52 45 53 59 55 80 56
REMARK SMILES IDX 47 57 31 58 32 59 40 60 33 61 35 62 41 63 34 64 36 65 37 66
REMARK SMILES IDX 38 67 39 68 63 69 64 70 72 71 65 72 67 73 73 74 66 75 68 76
REMARK SMILES IDX 69 77 70 78 71 79 48 80 49 81 57 82 50 83 52 84 58 85 51 86
REMARK SMILES IDX 53 87 54 88 55 89 56 90
REMARK H PARENT 8 8 78 43 46 54
REMARK Flexibility Score: inf
ROOT
ATOM      1  C   UNL A   1      32.749  28.904  24.492  1.00  0.00     0.274 C 
ENDROOT
BRANCH   1   2
ATOM      2  O   UNL A   1      32.411  27.857  23.540  1.00  0.00    -0.458 OA
BRANCH   2   3
ATOM      3  C   UNL A   1      32.887  26.659  23.947  1.00  0.00     0.365 C 
ATOM      4  O   UNL A   1      33.986  26.598  24.467  1.00  0.00    -0.245 OA
BRANCH   3   5
ATOM      5  C   UNL A   1      32.050  25.407  23.651  1.00  0.00     0.295 C 
ATOM      6  N   UNL A   1      32.199  24.375  24.723  1.00  0.00    -0.319 N 
ATOM      7  C   UNL A   1      31.604  24.806  25.996  1.00  0.00     0.263 C 
ATOM      8  H   UNL A   1      31.625  23.606  24.380  1.00  0.00     0.349 HD
ATOM      9  C   UNL A   1      30.161  25.330  25.914  1.00  0.00     0.062 C 
ATOM     10  C   UNL A   1      30.563  25.764  23.492  1.00  0.00     0.078 C 
ATOM     11  C   UNL A   1      29.972  26.327  24.779  1.00  0.00     0.013 C 
BRANCH   6  12
ATOM     12  C   UNL A   1      33.491  23.605  24.818  1.00  0.00     0.302 C 
BRANCH  12  13
ATOM     13  C   UNL A   1      33.619  22.117  24.466  1.00  0.00     0.042 A 
ATOM     14  C   UNL A   1      33.525  19.285  24.476  1.00  0.00     0.055 A 
ATOM     15  C   UNL A   1      32.529  20.013  23.828  1.00  0.00     0.020 A 
ATOM     16  C   UNL A   1      34.671  19.952  24.910  1.00  0.00     0.059 A 
ATOM     17  C   UNL A   1      32.601  21.419  23.788  1.00  0.00     0.014 A 
ATOM     18  C   UNL A   1      34.717  21.352  24.878  1.00  0.00     0.133 A 
ATOM     19  F   UNL A   1      35.785  21.955  25.421  1.00  0.00    -0.206 F 
BRANCH  14  20
ATOM     20  C   UNL A   1      33.342  17.895  24.799  1.00  0.00     0.099 C 
ATOM     21  N   UNL A   1      33.172  16.764  24.981  1.00  0.00    -0.192 NA
ENDBRANCH  14  20
ENDBRANCH  12  13
ENDBRANCH   6  12
ENDBRANCH   3   5
ENDBRANCH   2   3
ENDBRANCH   1   2
BRANCH   1  22
ATOM     22  C   UNL A   1      31.720  29.171  25.634  1.00  0.00     0.275 C 
BRANCH  22  23
ATOM     23  O   UNL A   1      32.281  29.491  26.943  1.00  0.00    -0.458 OA
BRANCH  23  24
ATOM     24  C   UNL A   1      32.885  30.706  27.086  1.00  0.00     0.338 C 
ATOM     25  O   UNL A   1      32.300  31.781  27.101  1.00  0.00    -0.246 OA
BRANCH  24  26
ATOM     26  C   UNL A   1      34.365  30.644  27.341  1.00  0.00     0.060 A 
ATOM     27  C   UNL A   1      34.945  29.425  27.625  1.00  0.00     0.016 A 
ATOM     28  C   UNL A   1      35.126  31.773  27.630  1.00  0.00     0.016 A 
ATOM     29  C   UNL A   1      36.115  29.304  28.379  1.00  0.00     0.010 A 
ATOM     30  C   UNL A   1      36.415  31.645  28.213  1.00  0.00     0.010 A 
ATOM     31  C   UNL A   1      36.910  30.402  28.657  1.00  0.00    -0.014 A 
BRANCH  31  32
ATOM     32  C   UNL A   1      38.168  30.230  29.462  1.00  0.00     0.031 A 
ATOM     33  C   UNL A   1      39.309  29.427  28.895  1.00  0.00     0.074 A 
ATOM     34  C   UNL A   1      38.351  30.814  30.671  1.00  0.00     0.049 A 
ATOM     35  N   UNL A   1      40.336  28.896  29.504  1.00  0.00    -0.248 NA
ATOM     36  C   UNL A   1      39.279  29.180  27.446  1.00  0.00     0.031 C 
ATOM     37  C   UNL A   1      37.432  31.749  31.324  1.00  0.00     0.029 A 
ATOM     38  N   UNL A   1      39.380  30.702  31.583  1.00  0.00    -0.354 N 
ATOM     39  C   UNL A   1      41.000  28.144  28.542  1.00  0.00     0.074 A 
ATOM     40  C   UNL A   1      40.279  28.323  27.299  1.00  0.00     0.031 C 
ATOM     41  C   UNL A   1      37.944  32.151  32.495  1.00  0.00     0.029 A 
ATOM     42  C   UNL A   1      39.146  31.377  32.763  1.00  0.00     0.049 A 
ATOM     43  H   UNL A   1      40.203  30.189  31.409  1.00  0.00     0.167 HD
ATOM     44  C   UNL A   1      42.095  27.358  28.691  1.00  0.00     0.034 A 
ATOM     45  C   UNL A   1      39.753  31.317  33.965  1.00  0.00     0.034 A 
ATOM     46  C   UNL A   1      42.837  27.241  29.919  1.00  0.00     0.049 A 
ATOM     47  C   UNL A   1      40.899  30.364  34.148  1.00  0.00     0.074 A 
ATOM     48  C   UNL A   1      43.964  26.481  30.177  1.00  0.00     0.029 A 
ATOM     49  N   UNL A   1      42.524  27.901  31.099  1.00  0.00    -0.354 N 
ATOM     50  N   UNL A   1      41.480  29.599  33.256  1.00  0.00    -0.248 NA
ATOM     51  C   UNL A   1      41.470  30.262  35.497  1.00  0.00     0.031 C 
ATOM     52  C   UNL A   1      44.295  26.635  31.527  1.00  0.00     0.029 A 
ATOM     53  C   UNL A   1      43.419  27.546  32.095  1.00  0.00     0.049 A 
ATOM     54  H   UNL A   1      41.775  28.529  31.212  1.00  0.00     0.167 HD
ATOM     55  C   UNL A   1      42.511  28.953  33.925  1.00  0.00     0.074 A 
ATOM     56  C   UNL A   1      42.481  29.428  35.295  1.00  0.00     0.031 C 
ATOM     57  C   UNL A   1      43.401  28.049  33.446  1.00  0.00     0.034 A 
BRANCH  44  58
ATOM     58  C   UNL A   1      42.498  26.503  27.512  1.00  0.00     0.023 A 
ATOM     59  C   UNL A   1      43.254  27.035  26.449  1.00  0.00     0.012 A 
ATOM     60  C   UNL A   1      42.094  25.152  27.459  1.00  0.00     0.148 A 
ATOM     61  C   UNL A   1      43.538  26.261  25.322  1.00  0.00     0.002 A 
ATOM     62  C   UNL A   1      42.434  24.370  26.363  1.00  0.00     0.091 A 
ATOM     63  F   UNL A   1      41.363  24.662  28.470  1.00  0.00    -0.205 F 
ATOM     64  C   UNL A   1      43.133  24.929  25.282  1.00  0.00     0.022 A 
BRANCH  62  65
ATOM     65  S   UNL A   1      42.033  22.622  26.262  1.00  0.00     0.127 S 
ATOM     66  O   UNL A   1      40.572  22.655  26.240  1.00  0.00    -0.237 OA
ATOM     67  O   UNL A   1      42.653  22.240  24.993  1.00  0.00    -0.237 OA
ATOM     68  O   UNL A   1      42.628  22.004  27.438  1.00  0.00    -0.744 OA
ENDBRANCH  62  65
ENDBRANCH  44  58
BRANCH  45  69
ATOM     69  C   UNL A   1      39.261  32.149  35.106  1.00  0.00     0.023 A 
ATOM     70  C   UNL A   1      38.312  31.608  35.994  1.00  0.00     0.012 A 
ATOM     71  C   UNL A   1      39.748  33.453  35.337  1.00  0.00     0.148 A 
ATOM     72  C   UNL A   1      37.848  32.351  37.082  1.00  0.00     0.002 A 
ATOM     73  C   UNL A   1      39.328  34.164  36.456  1.00  0.00     0.091 A 
ATOM     74  F   UNL A   1      40.638  33.960  34.473  1.00  0.00    -0.205 F 
ATOM     75  C   UNL A   1      38.366  33.621  37.321  1.00  0.00     0.022 A 
BRANCH  73  76
ATOM     76  S   UNL A   1      40.033  35.751  36.919  1.00  0.00     0.127 S 
ATOM     77  O   UNL A   1      39.337  36.034  38.172  1.00  0.00    -0.237 OA
ATOM     78  O   UNL A   1      41.450  35.415  37.062  1.00  0.00    -0.237 OA
ATOM     79  O   UNL A   1      39.735  36.655  35.818  1.00  0.00    -0.744 OA
ENDBRANCH  73  76
ENDBRANCH  45  69
BRANCH  57  80
ATOM     80  C   UNL A   1      44.467  27.560  34.391  1.00  0.00     0.023 A 
ATOM     81  C   UNL A   1      45.622  28.330  34.631  1.00  0.00     0.012 A 
ATOM     82  C   UNL A   1      44.287  26.348  35.087  1.00  0.00     0.148 A 
ATOM     83  C   UNL A   1      46.600  27.880  35.518  1.00  0.00     0.002 A 
ATOM     84  C   UNL A   1      45.235  25.936  36.013  1.00  0.00     0.091 A 
ATOM     85  F   UNL A   1      43.191  25.621  34.829  1.00  0.00    -0.205 F 
ATOM     86  C   UNL A   1      46.402  26.692  36.217  1.00  0.00     0.022 A 
BRANCH  84  87
ATOM     87  S   UNL A   1      45.015  24.475  37.032  1.00  0.00     0.127 S 
ATOM     88  O   UNL A   1      46.371  24.254  37.533  1.00  0.00    -0.237 OA
ATOM     89  O   UNL A   1      44.061  24.943  38.038  1.00  0.00    -0.237 OA
ATOM     90  O   UNL A   1      44.504  23.436  36.147  1.00  0.00    -0.744 OA
ENDBRANCH  84  87
ENDBRANCH  57  80
ENDBRANCH  31  32
ENDBRANCH  24  26
ENDBRANCH  23  24
ENDBRANCH  22  23
ENDBRANCH   1  22
TORSDOF 17
ENDMDL
MODEL 3
REMARK VINA RESULT:     -12.0      2.789      4.723
REMARK SMILES N#Cc1ccc(C[N@H+]2CCCC[C@H]2C(=O)OCCOC(=O)c2ccc(-c3c4nc(c(-c5cccc(S(=O)(=O)[O-])c5F)c5ccc([nH]5)c(-c5cccc(S(=O)(=O)[O-])c5F)c5nc(c(-c6cccc(S(=O)(=O)[O-])c6F)c6ccc3[nH]6)C=C5)C=C4)cc2)c(F)c1
REMARK SMILES IDX 17 1 16 2 14 3 15 4 13 5 8 6 9 7 10 9 12 10 11 11 7 12 6 13
REMARK SMILES IDX 3 14 4 15 87 16 5 17 85 18 86 19 2 20 1 21 18 22 19 23 20 24
REMARK SMILES IDX 21 25 22 26 23 27 84 28 24 29 83 30 25 31 26 32 27 33 77 34
REMARK SMILES IDX 28 35 82 36 76 37 78 38 29 39 81 40 75 41 74 42 30 44 62 45
REMARK SMILES IDX 42 46 61 47 43 48 46 49 60 50 79 51 44 52 45 53 59 55 80 56
REMARK SMILES IDX 47 57 31 58 32 59 40 60 33 61 35 62 41 63 34 64 36 65 37 66
REMARK SMILES IDX 38 67 39 68 63 69 64 70 72 71 65 72 67 73 73 74 66 75 68 76
REMARK SMILES IDX 69 77 70 78 71 79 48 80 49 81 57 82 50 83 52 84 58 85 51 86
REMARK SMILES IDX 53 87 54 88 55 89 56 90
REMARK H PARENT 8 8 78 43 46 54
REMARK Flexibility Score: inf
ROOT
ATOM      1  C   UNL A   1      32.335  26.878  26.535  1.00  0.00     0.274 C 
ENDROOT
BRANCH   1   2
ATOM      2  O   UNL A   1      32.706  26.809  25.130  1.00  0.00    -0.458 OA
BRANCH   2   3
ATOM      3  C   UNL A   1      31.778  26.134  24.416  1.00  0.00     0.365 C 
ATOM      4  O   UNL A   1      31.399  25.045  24.806  1.00  0.00    -0.245 OA
BRANCH   3   5
ATOM      5  C   UNL A   1      31.305  26.738  23.086  1.00  0.00     0.295 C 
ATOM      6  N   UNL A   1      31.423  28.229  23.081  1.00  0.00    -0.319 N 
ATOM      7  C   UNL A   1      32.823  28.676  23.101  1.00  0.00     0.263 C 
ATOM      8  H   UNL A   1      31.050  28.484  22.168  1.00  0.00     0.349 HD
ATOM      9  C   UNL A   1      33.743  28.034  22.049  1.00  0.00     0.062 C 
ATOM     10  C   UNL A   1      32.103  26.161  21.905  1.00  0.00     0.078 C 
ATOM     11  C   UNL A   1      33.582  26.522  21.987  1.00  0.00     0.013 C 
BRANCH   6  12
ATOM     12  C   UNL A   1      30.453  29.039  23.903  1.00  0.00     0.302 C 
BRANCH  12  13
ATOM     13  C   UNL A   1      29.398  29.971  23.294  1.00  0.00     0.042 A 
ATOM     14  C   UNL A   1      28.033  31.940  21.781  1.00  0.00     0.055 A 
ATOM     15  C   UNL A   1      28.036  30.613  21.356  1.00  0.00     0.020 A 
ATOM     16  C   UNL A   1      28.503  32.237  23.060  1.00  0.00     0.059 A 
ATOM     17  C   UNL A   1      28.680  29.629  22.133  1.00  0.00     0.014 A 
ATOM     18  C   UNL A   1      29.156  31.250  23.811  1.00  0.00     0.133 A 
ATOM     19  F   UNL A   1      29.704  31.612  24.980  1.00  0.00    -0.206 F 
BRANCH  14  20
ATOM     20  C   UNL A   1      27.659  33.007  20.891  1.00  0.00     0.099 C 
ATOM     21  N   UNL A   1      27.298  33.818  20.147  1.00  0.00    -0.192 NA
ENDBRANCH  14  20
ENDBRANCH  12  13
ENDBRANCH   6  12
ENDBRANCH   3   5
ENDBRANCH   2   3
ENDBRANCH   1   2
BRANCH   1  22
ATOM     22  C   UNL A   1      31.491  28.113  26.978  1.00  0.00     0.275 C 
BRANCH  22  23
ATOM     23  O   UNL A   1      32.212  29.162  27.693  1.00  0.00    -0.458 OA
BRANCH  23  24
ATOM     24  C   UNL A   1      32.860  30.099  26.941  1.00  0.00     0.338 C 
ATOM     25  O   UNL A   1      32.321  30.838  26.127  1.00  0.00    -0.246 OA
BRANCH  24  26
ATOM     26  C   UNL A   1      34.321  30.255  27.256  1.00  0.00     0.060 A 
ATOM     27  C   UNL A   1      35.129  29.136  27.259  1.00  0.00     0.016 A 
ATOM     28  C   UNL A   1      34.843  31.395  27.860  1.00  0.00     0.016 A 
ATOM     29  C   UNL A   1      36.295  29.050  28.024  1.00  0.00     0.010 A 
ATOM     30  C   UNL A   1      36.128  31.368  28.465  1.00  0.00     0.010 A 
ATOM     31  C   UNL A   1      36.856  30.170  28.611  1.00  0.00    -0.014 A 
BRANCH  31  32
ATOM     32  C   UNL A   1      38.118  30.038  29.418  1.00  0.00     0.031 A 
ATOM     33  C   UNL A   1      39.270  29.238  28.869  1.00  0.00     0.074 A 
ATOM     34  C   UNL A   1      38.294  30.657  30.610  1.00  0.00     0.049 A 
ATOM     35  N   UNL A   1      40.307  28.740  29.489  1.00  0.00    -0.248 NA
ATOM     36  C   UNL A   1      39.241  28.952  27.427  1.00  0.00     0.031 C 
ATOM     37  C   UNL A   1      37.362  31.594  31.241  1.00  0.00     0.029 A 
ATOM     38  N   UNL A   1      39.327  30.584  31.522  1.00  0.00    -0.354 N 
ATOM     39  C   UNL A   1      40.980  27.973  28.546  1.00  0.00     0.074 A 
ATOM     40  C   UNL A   1      40.254  28.108  27.301  1.00  0.00     0.031 C 
ATOM     41  C   UNL A   1      37.871  32.035  32.399  1.00  0.00     0.029 A 
ATOM     42  C   UNL A   1      39.085  31.287  32.685  1.00  0.00     0.049 A 
ATOM     43  H   UNL A   1      40.157  30.080  31.360  1.00  0.00     0.167 HD
ATOM     44  C   UNL A   1      42.087  27.207  28.712  1.00  0.00     0.034 A 
ATOM     45  C   UNL A   1      39.695  31.268  33.887  1.00  0.00     0.034 A 
ATOM     46  C   UNL A   1      42.833  27.134  29.941  1.00  0.00     0.049 A 
ATOM     47  C   UNL A   1      40.856  30.338  34.091  1.00  0.00     0.074 A 
ATOM     48  C   UNL A   1      43.972  26.399  30.217  1.00  0.00     0.029 A 
ATOM     49  N   UNL A   1      42.513  27.820  31.105  1.00  0.00    -0.354 N 
ATOM     50  N   UNL A   1      41.446  29.558  33.219  1.00  0.00    -0.248 NA
ATOM     51  C   UNL A   1      41.431  30.280  35.441  1.00  0.00     0.031 C 
ATOM     52  C   UNL A   1      44.304  26.593  31.562  1.00  0.00     0.029 A 
ATOM     53  C   UNL A   1      43.415  27.506  32.107  1.00  0.00     0.049 A 
ATOM     54  H   UNL A   1      41.754  28.440  31.203  1.00  0.00     0.167 HD
ATOM     55  C   UNL A   1      42.489  28.946  33.902  1.00  0.00     0.074 A 
ATOM     56  C   UNL A   1      42.455  29.456  35.259  1.00  0.00     0.031 C 
ATOM     57  C   UNL A   1      43.392  28.044  33.445  1.00  0.00     0.034 A 
BRANCH  44  58
ATOM     58  C   UNL A   1      42.501  26.328  27.556  1.00  0.00     0.023 A 
ATOM     59  C   UNL A   1      43.306  26.826  26.512  1.00  0.00     0.012 A 
ATOM     60  C   UNL A   1      42.058  24.990  27.503  1.00  0.00     0.148 A 
ATOM     61  C   UNL A   1      43.602  26.031  25.402  1.00  0.00     0.002 A 
ATOM     62  C   UNL A   1      42.408  24.186  26.426  1.00  0.00     0.091 A 
ATOM     63  F   UNL A   1      41.281  24.533  28.495  1.00  0.00    -0.205 F 
ATOM     64  C   UNL A   1      43.158  24.712  25.363  1.00  0.00     0.022 A 
BRANCH  62  65
ATOM     65  S   UNL A   1      41.958  22.450  26.330  1.00  0.00     0.127 S 
ATOM     66  O   UNL A   1      42.447  22.091  25.000  1.00  0.00    -0.237 OA
ATOM     67  O   UNL A   1      42.722  21.875  27.437  1.00  0.00    -0.237 OA
ATOM     68  O   UNL A   1      40.512  22.399  26.500  1.00  0.00    -0.744 OA
ENDBRANCH  62  65
ENDBRANCH  44  58
BRANCH  45  69
ATOM     69  C   UNL A   1      39.192  32.122  35.006  1.00  0.00     0.023 A 
ATOM     70  C   UNL A   1      38.192  31.619  35.861  1.00  0.00     0.012 A 
ATOM     71  C   UNL A   1      39.718  33.408  35.252  1.00  0.00     0.148 A 
ATOM     72  C   UNL A   1      37.717  32.383  36.929  1.00  0.00     0.002 A 
ATOM     73  C   UNL A   1      39.284  34.138  36.353  1.00  0.00     0.091 A 
ATOM     74  F   UNL A   1      40.657  33.879  34.420  1.00  0.00    -0.205 F 
ATOM     75  C   UNL A   1      38.272  33.635  37.183  1.00  0.00     0.022 A 
BRANCH  73  76
ATOM     76  S   UNL A   1      40.029  35.701  36.837  1.00  0.00     0.127 S 
ATOM     77  O   UNL A   1      39.660  36.567  35.720  1.00  0.00    -0.237 OA
ATOM     78  O   UNL A   1      39.334  35.983  38.093  1.00  0.00    -0.237 OA
ATOM     79  O   UNL A   1      41.453  35.435  36.981  1.00  0.00    -0.744 OA
ENDBRANCH  73  76
ENDBRANCH  45  69
BRANCH  57  80
ATOM     80  C   UNL A   1      44.467  27.596  34.400  1.00  0.00     0.023 A 
ATOM     81  C   UNL A   1      45.656  28.339  34.542  1.00  0.00     0.012 A 
ATOM     82  C   UNL A   1      44.265  26.455  35.202  1.00  0.00     0.148 A 
ATOM     83  C   UNL A   1      46.643  27.929  35.439  1.00  0.00     0.002 A 
ATOM     84  C   UNL A   1      45.225  26.087  36.134  1.00  0.00     0.091 A 
ATOM     85  F   UNL A   1      43.136  25.750  35.035  1.00  0.00    -0.205 F 
ATOM     86  C   UNL A   1      46.423  26.813  36.242  1.00  0.00     0.022 A 
BRANCH  84  87
ATOM     87  S   UNL A   1      44.983  24.726  37.279  1.00  0.00     0.127 S 
ATOM     88  O   UNL A   1      46.277  24.675  37.959  1.00  0.00    -0.237 OA
ATOM     89  O   UNL A   1      43.878  25.213  38.105  1.00  0.00    -0.237 OA
ATOM     90  O   UNL A   1      44.665  23.561  36.464  1.00  0.00    -0.744 OA
ENDBRANCH  84  87
ENDBRANCH  57  80
ENDBRANCH  31  32
ENDBRANCH  24  26
ENDBRANCH  23  24
ENDBRANCH  22  23
ENDBRANCH   1  22
TORSDOF 17
ENDMDL
