MODEL 1
REMARK VINA RESULT:     -14.3      0.000      0.000
REMARK SMILES Cc1ccc([C@@]23C[C@@H]4C[C@@H](C[C@@](C(=O)N5CCC(C(=O)OCCOC(=O)c6ccc(-c7c8nc(c(-c9cccc(S(=O)(=O)[O-])c9F)c9ccc([nH]9)c(-c9cccc(S(=O)(=O)[O-])c9F)c9nc(c(-c%10cccc(S(=O)(=O)[O-])c%10F)c%10ccc7[nH]%10)C=C9)C=C8)cc6)CC5)(C4)C2)C3)cc1
REMARK SMILES IDX 23 1 22 2 21 3 19 4 20 5 18 6 13 7 14 8 15 9 16 10 91 11
REMARK SMILES IDX 17 12 90 13 12 14 6 15 7 16 93 17 94 18 8 19 10 20 9 21
REMARK SMILES IDX 92 22 11 23 5 24 1 25 2 26 3 27 96 28 4 29 95 30 24 31 25 32
REMARK SMILES IDX 26 33 27 34 28 35 89 36 29 37 88 38 30 39 31 40 32 41 82 42
REMARK SMILES IDX 33 43 87 44 81 45 83 46 34 47 86 48 80 49 79 50 35 52 67 53
REMARK SMILES IDX 47 54 66 55 48 56 51 57 65 58 84 59 49 60 50 61 64 63 85 64
REMARK SMILES IDX 52 65 36 66 37 67 45 68 38 69 40 70 46 71 39 72 41 73 42 74
REMARK SMILES IDX 43 75 44 76 68 77 69 78 77 79 70 80 72 81 78 82 71 83 73 84
REMARK SMILES IDX 74 85 75 86 76 87 53 88 54 89 62 90 55 91 57 92 63 93 56 94
REMARK SMILES IDX 58 95 59 96 60 97 61 98
REMARK H PARENT 83 51 51 62
REMARK Flexibility Score: inf
ROOT
ATOM      1  C   UNL A   1      33.261  30.057  26.306  1.00  0.00     0.275 C 
ENDROOT
BRANCH   1   2
ATOM      2  C   UNL A   1      31.763  30.025  25.995  1.00  0.00     0.274 C 
BRANCH   2   3
ATOM      3  O   UNL A   1      31.505  29.633  24.651  1.00  0.00    -0.462 OA
BRANCH   3   4
ATOM      4  C   UNL A   1      31.329  28.285  24.526  1.00  0.00     0.309 C 
ATOM      5  O   UNL A   1      30.701  27.611  25.332  1.00  0.00    -0.252 OA
BRANCH   4   6
ATOM      6  C   UNL A   1      32.066  27.763  23.312  1.00  0.00     0.103 C 
ATOM      7  C   UNL A   1      32.816  24.088  23.182  1.00  0.00     0.228 C 
ATOM      8  O   UNL A   1      31.738  23.505  23.050  1.00  0.00    -0.274 OA
ATOM      9  N   UNL A   1      33.084  25.277  22.499  1.00  0.00    -0.342 N 
ATOM     10  C   UNL A   1      32.026  25.817  21.661  1.00  0.00     0.120 C 
ATOM     11  C   UNL A   1      34.065  26.302  22.843  1.00  0.00     0.120 C 
ATOM     12  C   UNL A   1      31.202  26.747  22.534  1.00  0.00     0.037 C 
ATOM     13  C   UNL A   1      33.417  27.264  23.816  1.00  0.00     0.037 C 
BRANCH   7  14
ATOM     14  C   UNL A   1      33.912  23.449  24.051  1.00  0.00     0.051 C 
ATOM     15  C   UNL A   1      34.548  21.158  25.005  1.00  0.00    -0.003 C 
ATOM     16  C   UNL A   1      35.942  21.374  24.342  1.00  0.00     0.015 C 
ATOM     17  C   UNL A   1      33.520  21.980  24.213  1.00  0.00     0.028 C 
ATOM     18  C   UNL A   1      34.586  21.767  26.430  1.00  0.00     0.015 C 
ATOM     19  C   UNL A   1      36.347  22.861  24.341  1.00  0.00    -0.009 C 
ATOM     20  C   UNL A   1      34.943  23.272  26.372  1.00  0.00    -0.009 C 
ATOM     21  C   UNL A   1      36.345  23.423  25.764  1.00  0.00     0.007 C 
ATOM     22  C   UNL A   1      35.337  23.641  23.501  1.00  0.00     0.020 C 
ATOM     23  C   UNL A   1      33.926  24.037  25.493  1.00  0.00     0.020 C 
BRANCH  15  24
ATOM     24  C   UNL A   1      34.150  19.670  24.995  1.00  0.00    -0.042 A 
ATOM     25  C   UNL A   1      33.158  15.451  25.224  1.00  0.00     0.044 C 
ATOM     26  C   UNL A   1      33.473  16.913  25.135  1.00  0.00    -0.051 A 
ATOM     27  C   UNL A   1      34.715  17.307  24.651  1.00  0.00     0.004 A 
ATOM     28  C   UNL A   1      32.562  17.896  25.531  1.00  0.00     0.004 A 
ATOM     29  C   UNL A   1      35.039  18.660  24.572  1.00  0.00     0.004 A 
ATOM     30  C   UNL A   1      32.895  19.257  25.459  1.00  0.00     0.004 A 
ENDBRANCH  15  24
ENDBRANCH   7  14
ENDBRANCH   4   6
ENDBRANCH   3   4
ENDBRANCH   2   3
ENDBRANCH   1   2
BRANCH   1  31
ATOM     31  O   UNL A   1      33.720  30.075  27.690  1.00  0.00    -0.458 OA
BRANCH  31  32
ATOM     32  C   UNL A   1      34.610  30.864  28.346  1.00  0.00     0.338 C 
ATOM     33  O   UNL A   1      34.292  31.975  28.749  1.00  0.00    -0.246 OA
BRANCH  32  34
ATOM     34  C   UNL A   1      35.969  30.344  28.580  1.00  0.00     0.060 A 
ATOM     35  C   UNL A   1      36.279  29.696  29.786  1.00  0.00     0.016 A 
ATOM     36  C   UNL A   1      36.907  30.415  27.559  1.00  0.00     0.016 A 
ATOM     37  C   UNL A   1      37.462  28.957  29.895  1.00  0.00     0.010 A 
ATOM     38  C   UNL A   1      38.024  29.611  27.628  1.00  0.00     0.010 A 
ATOM     39  C   UNL A   1      38.299  28.859  28.782  1.00  0.00    -0.014 A 
BRANCH  39  40
ATOM     40  C   UNL A   1      39.653  28.314  28.818  1.00  0.00     0.031 A 
ATOM     41  C   UNL A   1      40.036  26.921  28.499  1.00  0.00     0.074 A 
ATOM     42  C   UNL A   1      40.567  29.277  29.051  1.00  0.00     0.049 A 
ATOM     43  N   UNL A   1      41.071  26.333  29.002  1.00  0.00    -0.248 NA
ATOM     44  C   UNL A   1      39.278  26.056  27.603  1.00  0.00     0.031 C 
ATOM     45  C   UNL A   1      41.998  29.269  28.843  1.00  0.00     0.029 A 
ATOM     46  N   UNL A   1      40.317  30.486  29.719  1.00  0.00    -0.354 N 
ATOM     47  C   UNL A   1      41.240  25.133  28.326  1.00  0.00     0.074 A 
ATOM     48  C   UNL A   1      40.026  24.944  27.573  1.00  0.00     0.031 C 
ATOM     49  C   UNL A   1      42.532  30.245  29.603  1.00  0.00     0.029 A 
ATOM     50  C   UNL A   1      41.462  30.760  30.455  1.00  0.00     0.049 A 
ATOM     51  H   UNL A   1      39.497  31.029  29.673  1.00  0.00     0.167 HD
ATOM     52  C   UNL A   1      42.464  24.531  28.285  1.00  0.00     0.034 A 
ATOM     53  C   UNL A   1      41.451  30.789  31.820  1.00  0.00     0.034 A 
ATOM     54  C   UNL A   1      43.453  25.390  28.931  1.00  0.00     0.049 A 
ATOM     55  C   UNL A   1      42.471  29.827  32.373  1.00  0.00     0.074 A 
ATOM     56  C   UNL A   1      44.238  26.403  28.403  1.00  0.00     0.029 A 
ATOM     57  N   UNL A   1      43.507  25.509  30.308  1.00  0.00    -0.354 N 
ATOM     58  N   UNL A   1      42.856  28.748  31.753  1.00  0.00    -0.248 NA
ATOM     59  C   UNL A   1      43.174  30.038  33.632  1.00  0.00     0.031 C 
ATOM     60  C   UNL A   1      44.704  27.193  29.477  1.00  0.00     0.029 A 
ATOM     61  C   UNL A   1      44.230  26.639  30.654  1.00  0.00     0.049 A 
ATOM     62  H   UNL A   1      43.094  24.885  30.947  1.00  0.00     0.167 HD
ATOM     63  C   UNL A   1      43.848  28.138  32.472  1.00  0.00     0.074 A 
ATOM     64  C   UNL A   1      44.016  28.990  33.637  1.00  0.00     0.031 C 
ATOM     65  C   UNL A   1      44.450  26.988  32.046  1.00  0.00     0.034 A 
BRANCH  52  66
ATOM     66  C   UNL A   1      42.872  23.416  27.330  1.00  0.00     0.023 A 
ATOM     67  C   UNL A   1      43.785  23.758  26.301  1.00  0.00     0.012 A 
ATOM     68  C   UNL A   1      42.425  22.074  27.342  1.00  0.00     0.148 A 
ATOM     69  C   UNL A   1      44.153  22.877  25.283  1.00  0.00     0.002 A 
ATOM     70  C   UNL A   1      42.770  21.194  26.301  1.00  0.00     0.091 A 
ATOM     71  F   UNL A   1      41.697  21.636  28.377  1.00  0.00    -0.205 F 
ATOM     72  C   UNL A   1      43.624  21.601  25.267  1.00  0.00     0.022 A 
BRANCH  70  73
ATOM     73  S   UNL A   1      42.123  19.518  26.148  1.00  0.00     0.127 S 
ATOM     74  O   UNL A   1      42.794  19.042  24.936  1.00  0.00    -0.237 OA
ATOM     75  O   UNL A   1      42.588  18.884  27.381  1.00  0.00    -0.237 OA
ATOM     76  O   UNL A   1      40.678  19.650  26.020  1.00  0.00    -0.744 OA
ENDBRANCH  70  73
ENDBRANCH  52  66
BRANCH  53  77
ATOM     77  C   UNL A   1      40.125  31.099  32.459  1.00  0.00     0.023 A 
ATOM     78  C   UNL A   1      39.306  30.002  32.833  1.00  0.00     0.012 A 
ATOM     79  C   UNL A   1      39.803  32.371  32.971  1.00  0.00     0.148 A 
ATOM     80  C   UNL A   1      38.279  30.144  33.771  1.00  0.00     0.002 A 
ATOM     81  C   UNL A   1      38.773  32.504  33.908  1.00  0.00     0.091 A 
ATOM     82  F   UNL A   1      40.528  33.425  32.580  1.00  0.00    -0.205 F 
ATOM     83  C   UNL A   1      38.026  31.391  34.325  1.00  0.00     0.022 A 
BRANCH  81  84
ATOM     84  S   UNL A   1      38.446  34.068  34.741  1.00  0.00     0.127 S 
ATOM     85  O   UNL A   1      39.738  34.350  35.359  1.00  0.00    -0.237 OA
ATOM     86  O   UNL A   1      38.086  34.952  33.630  1.00  0.00    -0.237 OA
ATOM     87  O   UNL A   1      37.338  33.785  35.641  1.00  0.00    -0.744 OA
ENDBRANCH  81  84
ENDBRANCH  53  77
BRANCH  65  88
ATOM     88  C   UNL A   1      45.348  26.101  32.876  1.00  0.00     0.023 A 
ATOM     89  C   UNL A   1      46.730  26.334  32.976  1.00  0.00     0.012 A 
ATOM     90  C   UNL A   1      44.799  25.113  33.736  1.00  0.00     0.148 A 
ATOM     91  C   UNL A   1      47.541  25.599  33.846  1.00  0.00     0.002 A 
ATOM     92  C   UNL A   1      45.590  24.470  34.682  1.00  0.00     0.091 A 
ATOM     93  F   UNL A   1      43.506  24.775  33.639  1.00  0.00    -0.205 F 
ATOM     94  C   UNL A   1      46.967  24.687  34.721  1.00  0.00     0.022 A 
BRANCH  92  95
ATOM     95  S   UNL A   1      44.837  23.486  35.986  1.00  0.00     0.127 S 
ATOM     96  O   UNL A   1      44.276  22.364  35.237  1.00  0.00    -0.237 OA
ATOM     97  O   UNL A   1      45.987  23.143  36.827  1.00  0.00    -0.237 OA
ATOM     98  O   UNL A   1      43.880  24.380  36.624  1.00  0.00    -0.744 OA
ENDBRANCH  92  95
ENDBRANCH  65  88
ENDBRANCH  39  40
ENDBRANCH  32  34
ENDBRANCH  31  32
ENDBRANCH   1  31
TORSDOF 16
ENDMDL
MODEL 2
REMARK VINA RESULT:     -14.3      1.539      1.968
REMARK SMILES Cc1ccc([C@@]23C[C@@H]4C[C@@H](C[C@@](C(=O)N5CCC(C(=O)OCCOC(=O)c6ccc(-c7c8nc(c(-c9cccc(S(=O)(=O)[O-])c9F)c9ccc([nH]9)c(-c9cccc(S(=O)(=O)[O-])c9F)c9nc(c(-c%10cccc(S(=O)(=O)[O-])c%10F)c%10ccc7[nH]%10)C=C9)C=C8)cc6)CC5)(C4)C2)C3)cc1
REMARK SMILES IDX 23 1 22 2 21 3 19 4 20 5 18 6 13 7 14 8 15 9 16 10 91 11
REMARK SMILES IDX 17 12 90 13 12 14 6 15 7 16 93 17 94 18 8 19 10 20 9 21
REMARK SMILES IDX 92 22 11 23 5 24 1 25 2 26 3 27 96 28 4 29 95 30 24 31 25 32
REMARK SMILES IDX 26 33 27 34 28 35 89 36 29 37 88 38 30 39 31 40 32 41 82 42
REMARK SMILES IDX 33 43 87 44 81 45 83 46 34 47 86 48 80 49 79 50 35 52 67 53
REMARK SMILES IDX 47 54 66 55 48 56 51 57 65 58 84 59 49 60 50 61 64 63 85 64
REMARK SMILES IDX 52 65 36 66 37 67 45 68 38 69 40 70 46 71 39 72 41 73 42 74
REMARK SMILES IDX 43 75 44 76 68 77 69 78 77 79 70 80 72 81 78 82 71 83 73 84
REMARK SMILES IDX 74 85 75 86 76 87 53 88 54 89 62 90 55 91 57 92 63 93 56 94
REMARK SMILES IDX 58 95 59 96 60 97 61 98
REMARK H PARENT 83 51 51 62
REMARK Flexibility Score: inf
ROOT
ATOM      1  C   UNL A   1      33.770  30.117  26.914  1.00  0.00     0.275 C 
ENDROOT
BRANCH   1   2
ATOM      2  C   UNL A   1      32.257  30.342  26.901  1.00  0.00     0.274 C 
BRANCH   2   3
ATOM      3  O   UNL A   1      31.661  29.893  25.688  1.00  0.00    -0.462 OA
BRANCH   3   4
ATOM      4  C   UNL A   1      31.525  28.536  25.644  1.00  0.00     0.309 C 
ATOM      5  O   UNL A   1      31.201  27.861  26.613  1.00  0.00    -0.252 OA
BRANCH   4   6
ATOM      6  C   UNL A   1      31.893  28.009  24.275  1.00  0.00     0.103 C 
ATOM      7  C   UNL A   1      32.441  24.313  23.924  1.00  0.00     0.228 C 
ATOM      8  O   UNL A   1      31.345  23.770  24.079  1.00  0.00    -0.274 OA
ATOM      9  N   UNL A   1      32.564  25.503  23.203  1.00  0.00    -0.342 N 
ATOM     10  C   UNL A   1      31.343  26.094  22.680  1.00  0.00     0.120 C 
ATOM     11  C   UNL A   1      33.639  26.487  23.281  1.00  0.00     0.120 C 
ATOM     12  C   UNL A   1      30.816  27.037  23.746  1.00  0.00     0.037 C 
ATOM     13  C   UNL A   1      33.310  27.454  24.399  1.00  0.00     0.037 C 
BRANCH   7  14
ATOM     14  C   UNL A   1      33.703  23.621  24.466  1.00  0.00     0.051 C 
ATOM     15  C   UNL A   1      34.534  21.268  25.043  1.00  0.00    -0.003 C 
ATOM     16  C   UNL A   1      35.746  21.569  24.109  1.00  0.00     0.015 C 
ATOM     17  C   UNL A   1      33.356  22.136  24.577  1.00  0.00     0.028 C 
ATOM     18  C   UNL A   1      34.890  21.749  26.474  1.00  0.00     0.015 C 
ATOM     19  C   UNL A   1      36.141  23.058  24.153  1.00  0.00    -0.009 C 
ATOM     20  C   UNL A   1      35.225  23.260  26.474  1.00  0.00    -0.009 C 
ATOM     21  C   UNL A   1      36.457  23.491  25.586  1.00  0.00     0.007 C 
ATOM     22  C   UNL A   1      34.969  23.889  23.633  1.00  0.00     0.020 C 
ATOM     23  C   UNL A   1      34.038  24.080  25.916  1.00  0.00     0.020 C 
BRANCH  15  24
ATOM     24  C   UNL A   1      34.143  19.779  24.987  1.00  0.00    -0.042 A 
ATOM     25  C   UNL A   1      33.164  15.552  25.088  1.00  0.00     0.044 C 
ATOM     26  C   UNL A   1      33.475  17.016  25.042  1.00  0.00    -0.051 A 
ATOM     27  C   UNL A   1      34.728  17.426  24.602  1.00  0.00     0.004 A 
ATOM     28  C   UNL A   1      32.549  17.986  25.436  1.00  0.00     0.004 A 
ATOM     29  C   UNL A   1      35.048  18.782  24.564  1.00  0.00     0.004 A 
ATOM     30  C   UNL A   1      32.878  19.350  25.406  1.00  0.00     0.004 A 
ENDBRANCH  15  24
ENDBRANCH   7  14
ENDBRANCH   4   6
ENDBRANCH   3   4
ENDBRANCH   2   3
ENDBRANCH   1   2
BRANCH   1  31
ATOM     31  O   UNL A   1      34.642  31.055  27.613  1.00  0.00    -0.458 OA
BRANCH  31  32
ATOM     32  C   UNL A   1      35.465  30.912  28.684  1.00  0.00     0.338 C 
ATOM     33  O   UNL A   1      35.207  31.450  29.753  1.00  0.00    -0.246 OA
BRANCH  32  34
ATOM     34  C   UNL A   1      36.670  30.077  28.538  1.00  0.00     0.060 A 
ATOM     35  C   UNL A   1      37.377  30.066  27.326  1.00  0.00     0.016 A 
ATOM     36  C   UNL A   1      37.150  29.381  29.639  1.00  0.00     0.016 A 
ATOM     37  C   UNL A   1      38.662  29.513  27.276  1.00  0.00     0.010 A 
ATOM     38  C   UNL A   1      38.450  28.923  29.618  1.00  0.00     0.010 A 
ATOM     39  C   UNL A   1      39.223  29.005  28.449  1.00  0.00    -0.014 A 
BRANCH  39  40
ATOM     40  C   UNL A   1      40.446  28.210  28.498  1.00  0.00     0.031 A 
ATOM     41  C   UNL A   1      40.533  26.742  28.331  1.00  0.00     0.074 A 
ATOM     42  C   UNL A   1      41.541  28.991  28.581  1.00  0.00     0.049 A 
ATOM     43  N   UNL A   1      41.463  26.018  28.860  1.00  0.00    -0.248 NA
ATOM     44  C   UNL A   1      39.569  25.953  27.572  1.00  0.00     0.031 C 
ATOM     45  C   UNL A   1      42.929  28.676  28.323  1.00  0.00     0.029 A 
ATOM     46  N   UNL A   1      41.570  30.290  29.112  1.00  0.00    -0.354 N 
ATOM     47  C   UNL A   1      41.355  24.743  28.324  1.00  0.00     0.074 A 
ATOM     48  C   UNL A   1      40.085  24.719  27.645  1.00  0.00     0.031 C 
ATOM     49  C   UNL A   1      43.686  29.602  28.942  1.00  0.00     0.029 A 
ATOM     50  C   UNL A   1      42.789  30.409  29.767  1.00  0.00     0.049 A 
ATOM     51  H   UNL A   1      40.869  30.977  29.034  1.00  0.00     0.167 HD
ATOM     52  C   UNL A   1      42.436  23.908  28.308  1.00  0.00     0.034 A 
ATOM     53  C   UNL A   1      42.866  30.586  31.119  1.00  0.00     0.034 A 
ATOM     54  C   UNL A   1      43.609  24.618  28.810  1.00  0.00     0.049 A 
ATOM     55  C   UNL A   1      43.712  29.506  31.742  1.00  0.00     0.074 A 
ATOM     56  C   UNL A   1      44.542  25.392  28.138  1.00  0.00     0.029 A 
ATOM     57  N   UNL A   1      43.768  24.872  30.161  1.00  0.00    -0.354 N 
ATOM     58  N   UNL A   1      43.843  28.311  31.239  1.00  0.00    -0.248 NA
ATOM     59  C   UNL A   1      44.517  29.708  32.940  1.00  0.00     0.031 C 
ATOM     60  C   UNL A   1      45.215  26.184  29.093  1.00  0.00     0.029 A 
ATOM     61  C   UNL A   1      44.715  25.866  30.345  1.00  0.00     0.049 A 
ATOM     62  H   UNL A   1      43.281  24.414  30.884  1.00  0.00     0.167 HD
ATOM     63  C   UNL A   1      44.740  27.598  31.986  1.00  0.00     0.074 A 
ATOM     64  C   UNL A   1      45.139  28.520  33.036  1.00  0.00     0.031 C 
ATOM     65  C   UNL A   1      45.082  26.312  31.676  1.00  0.00     0.034 A 
BRANCH  52  66
ATOM     66  C   UNL A   1      42.562  22.638  27.475  1.00  0.00     0.023 A 
ATOM     67  C   UNL A   1      41.638  21.599  27.751  1.00  0.00     0.012 A 
ATOM     68  C   UNL A   1      43.516  22.368  26.466  1.00  0.00     0.148 A 
ATOM     69  C   UNL A   1      41.709  20.337  27.159  1.00  0.00     0.002 A 
ATOM     70  C   UNL A   1      43.608  21.089  25.890  1.00  0.00     0.091 A 
ATOM     71  F   UNL A   1      44.310  23.357  26.035  1.00  0.00    -0.205 F 
ATOM     72  C   UNL A   1      42.712  20.072  26.246  1.00  0.00     0.022 A 
BRANCH  70  73
ATOM     73  S   UNL A   1      44.889  20.607  24.715  1.00  0.00     0.127 S 
ATOM     74  O   UNL A   1      44.662  19.165  24.593  1.00  0.00    -0.237 OA
ATOM     75  O   UNL A   1      44.530  21.376  23.524  1.00  0.00    -0.237 OA
ATOM     76  O   UNL A   1      46.160  20.964  25.329  1.00  0.00    -0.744 OA
ENDBRANCH  70  73
ENDBRANCH  52  66
BRANCH  53  77
ATOM     77  C   UNL A   1      41.665  31.221  31.766  1.00  0.00     0.023 A 
ATOM     78  C   UNL A   1      41.307  32.528  31.343  1.00  0.00     0.012 A 
ATOM     79  C   UNL A   1      40.725  30.487  32.516  1.00  0.00     0.148 A 
ATOM     80  C   UNL A   1      40.024  33.040  31.559  1.00  0.00     0.002 A 
ATOM     81  C   UNL A   1      39.444  31.008  32.729  1.00  0.00     0.091 A 
ATOM     82  F   UNL A   1      41.069  29.279  32.975  1.00  0.00    -0.205 F 
ATOM     83  C   UNL A   1      39.086  32.272  32.232  1.00  0.00     0.022 A 
BRANCH  81  84
ATOM     84  S   UNL A   1      38.145  30.036  33.511  1.00  0.00     0.127 S 
ATOM     85  O   UNL A   1      36.942  30.643  32.948  1.00  0.00    -0.237 OA
ATOM     86  O   UNL A   1      38.432  28.680  33.039  1.00  0.00    -0.237 OA
ATOM     87  O   UNL A   1      38.359  30.212  34.940  1.00  0.00    -0.744 OA
ENDBRANCH  81  84
ENDBRANCH  53  77
BRANCH  65  88
ATOM     88  C   UNL A   1      45.839  25.359  32.571  1.00  0.00     0.023 A 
ATOM     89  C   UNL A   1      47.214  25.515  32.821  1.00  0.00     0.012 A 
ATOM     90  C   UNL A   1      45.153  24.383  33.340  1.00  0.00     0.148 A 
ATOM     91  C   UNL A   1      47.889  24.718  33.750  1.00  0.00     0.002 A 
ATOM     92  C   UNL A   1      45.804  23.678  34.346  1.00  0.00     0.091 A 
ATOM     93  F   UNL A   1      43.861  24.118  33.098  1.00  0.00    -0.205 F 
ATOM     94  C   UNL A   1      47.179  23.818  34.534  1.00  0.00     0.022 A 
BRANCH  92  95
ATOM     95  S   UNL A   1      44.867  22.707  35.535  1.00  0.00     0.127 S 
ATOM     96  O   UNL A   1      44.552  21.504  34.768  1.00  0.00    -0.237 OA
ATOM     97  O   UNL A   1      45.840  22.503  36.612  1.00  0.00    -0.237 OA
ATOM     98  O   UNL A   1      43.741  23.552  35.904  1.00  0.00    -0.744 OA
ENDBRANCH  92  95
ENDBRANCH  65  88
ENDBRANCH  39  40
ENDBRANCH  32  34
ENDBRANCH  31  32
ENDBRANCH   1  31
TORSDOF 16
ENDMDL
MODEL 3
REMARK VINA RESULT:     -14.1      3.910     10.131
REMARK SMILES Cc1ccc([C@@]23C[C@@H]4C[C@@H](C[C@@](C(=O)N5CCC(C(=O)OCCOC(=O)c6ccc(-c7c8nc(c(-c9cccc(S(=O)(=O)[O-])c9F)c9ccc([nH]9)c(-c9cccc(S(=O)(=O)[O-])c9F)c9nc(c(-c%10cccc(S(=O)(=O)[O-])c%10F)c%10ccc7[nH]%10)C=C9)C=C8)cc6)CC5)(C4)C2)C3)cc1
REMARK SMILES IDX 23 1 22 2 21 3 19 4 20 5 18 6 13 7 14 8 15 9 16 10 91 11
REMARK SMILES IDX 17 12 90 13 12 14 6 15 7 16 93 17 94 18 8 19 10 20 9 21
REMARK SMILES IDX 92 22 11 23 5 24 1 25 2 26 3 27 96 28 4 29 95 30 24 31 25 32
REMARK SMILES IDX 26 33 27 34 28 35 89 36 29 37 88 38 30 39 31 40 32 41 82 42
REMARK SMILES IDX 33 43 87 44 81 45 83 46 34 47 86 48 80 49 79 50 35 52 67 53
REMARK SMILES IDX 47 54 66 55 48 56 51 57 65 58 84 59 49 60 50 61 64 63 85 64
REMARK SMILES IDX 52 65 36 66 37 67 45 68 38 69 40 70 46 71 39 72 41 73 42 74
REMARK SMILES IDX 43 75 44 76 68 77 69 78 77 79 70 80 72 81 78 82 71 83 73 84
REMARK SMILES IDX 74 85 75 86 76 87 53 88 54 89 62 90 55 91 57 92 63 93 56 94
REMARK SMILES IDX 58 95 59 96 60 97 61 98
REMARK H PARENT 83 51 51 62
REMARK Flexibility Score: inf
ROOT
ATOM      1  C   UNL A   1      37.955  21.771  25.320  1.00  0.00     0.275 C 
ENDROOT
BRANCH   1   2
ATOM      2  C   UNL A   1      36.648  21.827  24.525  1.00  0.00     0.274 C 
BRANCH   2   3
ATOM      3  O   UNL A   1      35.538  22.169  25.347  1.00  0.00    -0.462 OA
BRANCH   3   4
ATOM      4  C   UNL A   1      34.544  21.235  25.298  1.00  0.00     0.309 C 
ATOM      5  O   UNL A   1      34.612  20.216  24.622  1.00  0.00    -0.252 OA
BRANCH   4   6
ATOM      6  C   UNL A   1      33.358  21.677  26.126  1.00  0.00     0.103 C 
ATOM      7  C   UNL A   1      31.510  24.749  25.014  1.00  0.00     0.228 C 
ATOM      8  O   UNL A   1      30.945  24.466  23.957  1.00  0.00    -0.274 OA
ATOM      9  N   UNL A   1      31.566  23.837  26.072  1.00  0.00    -0.342 N 
ATOM     10  C   UNL A   1      30.967  22.530  25.856  1.00  0.00     0.120 C 
ATOM     11  C   UNL A   1      32.519  23.809  27.176  1.00  0.00     0.120 C 
ATOM     12  C   UNL A   1      32.055  21.632  25.296  1.00  0.00     0.037 C 
ATOM     13  C   UNL A   1      33.736  23.028  26.726  1.00  0.00     0.037 C 
BRANCH   7  14
ATOM     14  C   UNL A   1      32.091  26.160  25.199  1.00  0.00     0.051 C 
ATOM     15  C   UNL A   1      31.627  28.567  24.454  1.00  0.00    -0.003 C 
ATOM     16  C   UNL A   1      31.643  28.939  25.968  1.00  0.00     0.015 C 
ATOM     17  C   UNL A   1      31.231  27.087  24.338  1.00  0.00     0.028 C 
ATOM     18  C   UNL A   1      33.076  28.673  23.910  1.00  0.00     0.015 C 
ATOM     19  C   UNL A   1      32.639  28.067  26.757  1.00  0.00    -0.009 C 
ATOM     20  C   UNL A   1      34.024  27.739  24.699  1.00  0.00    -0.009 C 
ATOM     21  C   UNL A   1      34.046  28.185  26.168  1.00  0.00     0.007 C 
ATOM     22  C   UNL A   1      32.187  26.610  26.668  1.00  0.00     0.020 C 
ATOM     23  C   UNL A   1      33.533  26.275  24.621  1.00  0.00     0.020 C 
BRANCH  15  24
ATOM     24  C   UNL A   1      30.625  29.440  23.675  1.00  0.00    -0.042 A 
ATOM     25  C   UNL A   1      28.014  32.091  21.441  1.00  0.00     0.044 C 
ATOM     26  C   UNL A   1      28.903  31.153  22.198  1.00  0.00    -0.051 A 
ATOM     27  C   UNL A   1      29.102  31.362  23.557  1.00  0.00     0.004 A 
ATOM     28  C   UNL A   1      29.549  30.078  21.580  1.00  0.00     0.004 A 
ATOM     29  C   UNL A   1      29.937  30.513  24.282  1.00  0.00     0.004 A 
ATOM     30  C   UNL A   1      30.396  29.231  22.310  1.00  0.00     0.004 A 
ENDBRANCH  15  24
ENDBRANCH   7  14
ENDBRANCH   4   6
ENDBRANCH   3   4
ENDBRANCH   2   3
ENDBRANCH   1   2
BRANCH   1  31
ATOM     31  O   UNL A   1      38.357  22.903  26.147  1.00  0.00    -0.458 OA
BRANCH  31  32
ATOM     32  C   UNL A   1      39.497  23.172  26.833  1.00  0.00     0.338 C 
ATOM     33  O   UNL A   1      40.392  22.342  26.920  1.00  0.00    -0.246 OA
BRANCH  32  34
ATOM     34  C   UNL A   1      39.643  24.498  27.460  1.00  0.00     0.060 A 
ATOM     35  C   UNL A   1      40.335  25.521  26.794  1.00  0.00     0.016 A 
ATOM     36  C   UNL A   1      39.006  24.751  28.668  1.00  0.00     0.016 A 
ATOM     37  C   UNL A   1      40.228  26.841  27.245  1.00  0.00     0.010 A 
ATOM     38  C   UNL A   1      38.820  26.059  29.058  1.00  0.00     0.010 A 
ATOM     39  C   UNL A   1      39.405  27.114  28.340  1.00  0.00    -0.014 A 
BRANCH  39  40
ATOM     40  C   UNL A   1      39.374  28.392  29.045  1.00  0.00     0.031 A 
ATOM     41  C   UNL A   1      38.474  29.527  28.745  1.00  0.00     0.074 A 
ATOM     42  C   UNL A   1      40.186  28.382  30.122  1.00  0.00     0.049 A 
ATOM     43  N   UNL A   1      38.774  30.760  28.992  1.00  0.00    -0.248 NA
ATOM     44  C   UNL A   1      37.165  29.380  28.119  1.00  0.00     0.031 C 
ATOM     45  C   UNL A   1      40.222  29.265  31.266  1.00  0.00     0.029 A 
ATOM     46  N   UNL A   1      41.315  27.563  30.276  1.00  0.00    -0.354 N 
ATOM     47  C   UNL A   1      37.630  31.517  28.785  1.00  0.00     0.074 A 
ATOM     48  C   UNL A   1      36.707  30.640  28.110  1.00  0.00     0.031 C 
ATOM     49  C   UNL A   1      41.434  29.148  31.842  1.00  0.00     0.029 A 
ATOM     50  C   UNL A   1      42.256  28.330  30.951  1.00  0.00     0.049 A 
ATOM     51  H   UNL A   1      41.419  26.633  29.969  1.00  0.00     0.167 HD
ATOM     52  C   UNL A   1      37.484  32.728  29.398  1.00  0.00     0.034 A 
ATOM     53  C   UNL A   1      43.438  28.693  30.374  1.00  0.00     0.034 A 
ATOM     54  C   UNL A   1      38.611  32.958  30.298  1.00  0.00     0.049 A 
ATOM     55  C   UNL A   1      43.595  30.192  30.395  1.00  0.00     0.074 A 
ATOM     56  C   UNL A   1      38.775  32.611  31.630  1.00  0.00     0.029 A 
ATOM     57  N   UNL A   1      39.858  33.303  29.811  1.00  0.00    -0.354 N 
ATOM     58  N   UNL A   1      42.591  31.022  30.386  1.00  0.00    -0.248 NA
ATOM     59  C   UNL A   1      44.884  30.863  30.485  1.00  0.00     0.031 C 
ATOM     60  C   UNL A   1      40.155  32.670  31.925  1.00  0.00     0.029 A 
ATOM     61  C   UNL A   1      40.821  33.084  30.783  1.00  0.00     0.049 A 
ATOM     62  H   UNL A   1      40.037  33.653  28.908  1.00  0.00     0.167 HD
ATOM     63  C   UNL A   1      43.058  32.304  30.498  1.00  0.00     0.074 A 
ATOM     64  C   UNL A   1      44.501  32.150  30.564  1.00  0.00     0.031 C 
ATOM     65  C   UNL A   1      42.219  33.381  30.531  1.00  0.00     0.034 A 
BRANCH  52  66
ATOM     66  C   UNL A   1      36.179  33.503  29.531  1.00  0.00     0.023 A 
ATOM     67  C   UNL A   1      35.596  33.983  28.332  1.00  0.00     0.012 A 
ATOM     68  C   UNL A   1      35.489  33.817  30.726  1.00  0.00     0.148 A 
ATOM     69  C   UNL A   1      34.472  34.811  28.307  1.00  0.00     0.002 A 
ATOM     70  C   UNL A   1      34.375  34.674  30.706  1.00  0.00     0.091 A 
ATOM     71  F   UNL A   1      35.885  33.257  31.876  1.00  0.00    -0.205 F 
ATOM     72  C   UNL A   1      33.876  35.179  29.498  1.00  0.00     0.022 A 
BRANCH  70  73
ATOM     73  S   UNL A   1      33.530  35.255  32.190  1.00  0.00     0.127 S 
ATOM     74  O   UNL A   1      33.226  33.998  32.878  1.00  0.00    -0.237 OA
ATOM     75  O   UNL A   1      34.558  36.065  32.843  1.00  0.00    -0.237 OA
ATOM     76  O   UNL A   1      32.357  35.986  31.730  1.00  0.00    -0.744 OA
ENDBRANCH  70  73
ENDBRANCH  52  66
BRANCH  53  77
ATOM     77  C   UNL A   1      43.937  27.790  29.278  1.00  0.00     0.023 A 
ATOM     78  C   UNL A   1      44.252  26.451  29.626  1.00  0.00     0.012 A 
ATOM     79  C   UNL A   1      43.811  28.107  27.912  1.00  0.00     0.148 A 
ATOM     80  C   UNL A   1      44.327  25.443  28.660  1.00  0.00     0.002 A 
ATOM     81  C   UNL A   1      43.888  27.092  26.951  1.00  0.00     0.091 A 
ATOM     82  F   UNL A   1      43.575  29.377  27.564  1.00  0.00    -0.205 F 
ATOM     83  C   UNL A   1      44.123  25.760  27.325  1.00  0.00     0.022 A 
BRANCH  81  84
ATOM     84  S   UNL A   1      43.544  27.407  25.211  1.00  0.00     0.127 S 
ATOM     85  O   UNL A   1      43.017  26.117  24.776  1.00  0.00    -0.237 OA
ATOM     86  O   UNL A   1      42.557  28.488  25.272  1.00  0.00    -0.237 OA
ATOM     87  O   UNL A   1      44.822  27.816  24.648  1.00  0.00    -0.744 OA
ENDBRANCH  81  84
ENDBRANCH  53  77
BRANCH  65  88
ATOM     88  C   UNL A   1      42.631  34.827  30.381  1.00  0.00     0.023 A 
ATOM     89  C   UNL A   1      43.232  35.537  31.435  1.00  0.00     0.012 A 
ATOM     90  C   UNL A   1      42.599  35.464  29.113  1.00  0.00     0.148 A 
ATOM     91  C   UNL A   1      43.735  36.829  31.260  1.00  0.00     0.002 A 
ATOM     92  C   UNL A   1      43.207  36.699  28.918  1.00  0.00     0.091 A 
ATOM     93  F   UNL A   1      41.966  34.886  28.082  1.00  0.00    -0.205 F 
ATOM     94  C   UNL A   1      43.749  37.400  29.994  1.00  0.00     0.022 A 
BRANCH  92  95
ATOM     95  S   UNL A   1      43.465  37.339  27.256  1.00  0.00     0.127 S 
ATOM     96  O   UNL A   1      44.244  36.270  26.635  1.00  0.00    -0.237 OA
ATOM     97  O   UNL A   1      42.096  37.466  26.751  1.00  0.00    -0.237 OA
ATOM     98  O   UNL A   1      44.149  38.610  27.447  1.00  0.00    -0.744 OA
ENDBRANCH  92  95
ENDBRANCH  65  88
ENDBRANCH  39  40
ENDBRANCH  32  34
ENDBRANCH  31  32
ENDBRANCH   1  31
TORSDOF 16
ENDMDL
