MODEL 1
REMARK VINA RESULT:      -9.7      0.000      0.000
REMARK SMILES O=C(OCCOC(=O)[C@@H](CCOCCO)c1cccc(F)c1)c1ccc(-c2c3nc(c(-c4cccc(S(=O)(=O)[O-])c4F)c4ccc([nH]4)c(-c4cccc(S(=O)(=O)[O-])c4F)c4nc(c(-c5cccc(S(=O)(=O)[O-])c5F)c5ccc2[nH]5)C=C4)C=C3)cc1
REMARK SMILES IDX 6 1 5 2 4 3 3 4 2 5 1 6 23 7 24 8 85 9 25 10 84 11 26 12
REMARK SMILES IDX 27 13 28 14 78 15 29 16 83 17 77 18 79 19 30 20 82 21 76 22
REMARK SMILES IDX 75 23 31 25 63 26 43 27 62 28 44 29 47 30 61 31 80 32 45 33
REMARK SMILES IDX 46 34 60 36 81 37 48 38 32 39 33 40 41 41 34 42 36 43 42 44
REMARK SMILES IDX 35 45 37 46 38 47 39 48 40 49 64 50 65 51 73 52 66 53 68 54
REMARK SMILES IDX 74 55 67 56 69 57 70 58 71 59 72 60 49 61 50 62 58 63 51 64
REMARK SMILES IDX 53 65 59 66 52 67 54 68 55 69 56 70 57 71 7 72 8 73 9 74
REMARK SMILES IDX 10 75 11 76 12 77 13 78 14 79 15 80 16 82 17 83 22 84 18 85
REMARK SMILES IDX 20 86 19 87 21 88
REMARK H PARENT 79 24 47 35 15 81
REMARK Flexibility Score: inf
ROOT
ATOM      1  O   UNL A   1      34.346  32.838  30.974  1.00  0.00    -0.462 OA
ENDROOT
BRANCH   1   2
ATOM      2  C   UNL A   1      34.461  33.957  30.091  1.00  0.00     0.274 C 
BRANCH   2   3
ATOM      3  C   UNL A   1      34.467  33.523  28.615  1.00  0.00     0.275 C 
BRANCH   3   4
ATOM      4  O   UNL A   1      33.834  32.243  28.363  1.00  0.00    -0.458 OA
BRANCH   4   5
ATOM      5  C   UNL A   1      34.210  31.164  27.625  1.00  0.00     0.338 C 
ATOM      6  O   UNL A   1      33.472  30.817  26.702  1.00  0.00    -0.246 OA
BRANCH   5   7
ATOM      7  C   UNL A   1      35.410  30.296  27.906  1.00  0.00     0.060 A 
ATOM      8  C   UNL A   1      36.514  30.131  27.067  1.00  0.00     0.016 A 
ATOM      9  C   UNL A   1      35.488  29.726  29.200  1.00  0.00     0.016 A 
ATOM     10  C   UNL A   1      37.740  29.642  27.579  1.00  0.00     0.010 A 
ATOM     11  C   UNL A   1      36.711  29.243  29.711  1.00  0.00     0.010 A 
ATOM     12  C   UNL A   1      37.880  29.277  28.929  1.00  0.00    -0.014 A 
BRANCH  12  13
ATOM     13  C   UNL A   1      39.176  28.719  29.441  1.00  0.00     0.031 A 
ATOM     14  C   UNL A   1      39.674  29.353  30.703  1.00  0.00     0.074 A 
ATOM     15  C   UNL A   1      39.915  27.733  28.870  1.00  0.00     0.049 A 
ATOM     16  N   UNL A   1      40.698  29.029  31.440  1.00  0.00    -0.248 NA
ATOM     17  C   UNL A   1      38.925  30.531  31.181  1.00  0.00     0.031 C 
ATOM     18  C   UNL A   1      39.657  27.083  27.598  1.00  0.00     0.029 A 
ATOM     19  N   UNL A   1      41.073  27.090  29.279  1.00  0.00    -0.354 N 
ATOM     20  C   UNL A   1      40.722  29.968  32.457  1.00  0.00     0.074 A 
ATOM     21  C   UNL A   1      39.652  30.905  32.215  1.00  0.00     0.031 C 
ATOM     22  C   UNL A   1      40.566  26.139  27.330  1.00  0.00     0.029 A 
ATOM     23  C   UNL A   1      41.517  26.102  28.413  1.00  0.00     0.049 A 
ATOM     24  H   UNL A   1      41.541  27.317  30.115  1.00  0.00     0.167 HD
ATOM     25  C   UNL A   1      41.549  30.033  33.521  1.00  0.00     0.034 A 
ATOM     26  C   UNL A   1      42.559  25.245  28.454  1.00  0.00     0.034 A 
ATOM     27  C   UNL A   1      42.646  29.141  33.725  1.00  0.00     0.049 A 
ATOM     28  C   UNL A   1      43.467  25.330  29.642  1.00  0.00     0.074 A 
ATOM     29  C   UNL A   1      43.551  29.122  34.765  1.00  0.00     0.029 A 
ATOM     30  N   UNL A   1      43.009  28.132  32.845  1.00  0.00    -0.354 N 
ATOM     31  N   UNL A   1      43.384  26.144  30.665  1.00  0.00    -0.248 NA
ATOM     32  C   UNL A   1      44.593  24.389  29.702  1.00  0.00     0.031 C 
ATOM     33  C   UNL A   1      44.491  28.124  34.494  1.00  0.00     0.029 A 
ATOM     34  C   UNL A   1      44.135  27.484  33.315  1.00  0.00     0.049 A 
ATOM     35  H   UNL A   1      42.535  27.909  32.011  1.00  0.00     0.167 HD
ATOM     36  C   UNL A   1      44.431  25.802  31.505  1.00  0.00     0.074 A 
ATOM     37  C   UNL A   1      45.130  24.697  30.876  1.00  0.00     0.031 C 
ATOM     38  C   UNL A   1      44.782  26.361  32.684  1.00  0.00     0.034 A 
BRANCH  25  39
ATOM     39  C   UNL A   1      41.268  31.136  34.498  1.00  0.00     0.023 A 
ATOM     40  C   UNL A   1      42.222  32.160  34.688  1.00  0.00     0.012 A 
ATOM     41  C   UNL A   1      40.114  31.101  35.298  1.00  0.00     0.148 A 
ATOM     42  C   UNL A   1      42.063  33.091  35.711  1.00  0.00     0.002 A 
ATOM     43  C   UNL A   1      39.937  32.066  36.278  1.00  0.00     0.091 A 
ATOM     44  F   UNL A   1      39.241  30.099  35.118  1.00  0.00    -0.205 F 
ATOM     45  C   UNL A   1      40.919  33.046  36.502  1.00  0.00     0.022 A 
BRANCH  43  46
ATOM     46  S   UNL A   1      38.475  32.131  37.315  1.00  0.00     0.127 S 
ATOM     47  O   UNL A   1      37.870  30.826  37.057  1.00  0.00    -0.237 OA
ATOM     48  O   UNL A   1      39.060  32.283  38.646  1.00  0.00    -0.237 OA
ATOM     49  O   UNL A   1      37.700  33.274  36.851  1.00  0.00    -0.744 OA
ENDBRANCH  43  46
ENDBRANCH  25  39
BRANCH  26  50
ATOM     50  C   UNL A   1      42.751  24.197  27.395  1.00  0.00     0.023 A 
ATOM     51  C   UNL A   1      43.644  24.451  26.331  1.00  0.00     0.012 A 
ATOM     52  C   UNL A   1      42.101  22.944  27.445  1.00  0.00     0.148 A 
ATOM     53  C   UNL A   1      43.873  23.494  25.338  1.00  0.00     0.002 A 
ATOM     54  C   UNL A   1      42.364  21.979  26.473  1.00  0.00     0.091 A 
ATOM     55  F   UNL A   1      41.257  22.710  28.459  1.00  0.00    -0.205 F 
ATOM     56  C   UNL A   1      43.242  22.258  25.414  1.00  0.00     0.022 A 
BRANCH  54  57
ATOM     57  S   UNL A   1      41.675  20.316  26.504  1.00  0.00     0.127 S 
ATOM     58  O   UNL A   1      42.235  19.779  27.739  1.00  0.00    -0.237 OA
ATOM     59  O   UNL A   1      40.242  20.593  26.553  1.00  0.00    -0.237 OA
ATOM     60  O   UNL A   1      42.142  19.666  25.282  1.00  0.00    -0.744 OA
ENDBRANCH  54  57
ENDBRANCH  26  50
BRANCH  38  61
ATOM     61  C   UNL A   1      45.943  25.770  33.423  1.00  0.00     0.023 A 
ATOM     62  C   UNL A   1      47.225  26.332  33.291  1.00  0.00     0.012 A 
ATOM     63  C   UNL A   1      45.702  24.776  34.389  1.00  0.00     0.148 A 
ATOM     64  C   UNL A   1      48.257  25.914  34.127  1.00  0.00     0.002 A 
ATOM     65  C   UNL A   1      46.718  24.413  35.259  1.00  0.00     0.091 A 
ATOM     66  F   UNL A   1      44.473  24.244  34.466  1.00  0.00    -0.205 F 
ATOM     67  C   UNL A   1      47.998  24.974  35.124  1.00  0.00     0.022 A 
BRANCH  65  68
ATOM     68  S   UNL A   1      46.430  23.324  36.655  1.00  0.00     0.127 S 
ATOM     69  O   UNL A   1      47.747  23.303  37.291  1.00  0.00    -0.237 OA
ATOM     70  O   UNL A   1      45.401  24.049  37.401  1.00  0.00    -0.237 OA
ATOM     71  O   UNL A   1      45.991  22.053  36.096  1.00  0.00    -0.744 OA
ENDBRANCH  65  68
ENDBRANCH  38  61
ENDBRANCH  12  13
ENDBRANCH   5   7
ENDBRANCH   4   5
ENDBRANCH   3   4
ENDBRANCH   2   3
ENDBRANCH   1   2
BRANCH   1  72
ATOM     72  C   UNL A   1      35.333  32.660  31.907  1.00  0.00     0.313 C 
ATOM     73  O   UNL A   1      35.605  31.569  32.393  1.00  0.00    -0.252 OA
BRANCH  72  74
ATOM     74  C   UNL A   1      36.048  33.985  32.264  1.00  0.00     0.131 C 
BRANCH  74  75
ATOM     75  C   UNL A   1      35.604  34.410  33.646  1.00  0.00     0.048 C 
BRANCH  75  76
ATOM     76  C   UNL A   1      34.555  35.512  33.738  1.00  0.00     0.161 C 
BRANCH  76  77
ATOM     77  O   UNL A   1      34.558  36.887  33.380  1.00  0.00    -0.379 OA
BRANCH  77  78
ATOM     78  C   UNL A   1      33.718  37.474  32.405  1.00  0.00     0.188 C 
BRANCH  78  79
ATOM     79  C   UNL A   1      32.608  36.485  32.008  1.00  0.00     0.184 C 
BRANCH  79  80
ATOM     80  O   UNL A   1      32.262  36.649  30.631  1.00  0.00    -0.394 OA
ATOM     81  H   UNL A   1      33.004  37.055  30.157  1.00  0.00     0.210 HD
ENDBRANCH  79  80
ENDBRANCH  78  79
ENDBRANCH  77  78
ENDBRANCH  76  77
ENDBRANCH  75  76
ENDBRANCH  74  75
BRANCH  74  82
ATOM     82  C   UNL A   1      37.578  34.036  32.184  1.00  0.00    -0.031 A 
ATOM     83  C   UNL A   1      38.390  34.128  33.323  1.00  0.00     0.005 A 
ATOM     84  C   UNL A   1      38.226  34.088  30.928  1.00  0.00     0.043 A 
ATOM     85  C   UNL A   1      39.754  34.432  33.211  1.00  0.00     0.003 A 
ATOM     86  C   UNL A   1      39.575  34.399  30.827  1.00  0.00     0.123 A 
ATOM     87  C   UNL A   1      40.340  34.601  31.959  1.00  0.00     0.039 A 
ATOM     88  F   UNL A   1      40.102  34.585  29.613  1.00  0.00    -0.207 F 
ENDBRANCH  74  82
ENDBRANCH  72  74
ENDBRANCH   1  72
TORSDOF 21
ENDMDL
MODEL 2
REMARK VINA RESULT:      -9.6      5.899     11.734
REMARK SMILES O=C(OCCOC(=O)[C@@H](CCOCCO)c1cccc(F)c1)c1ccc(-c2c3nc(c(-c4cccc(S(=O)(=O)[O-])c4F)c4ccc([nH]4)c(-c4cccc(S(=O)(=O)[O-])c4F)c4nc(c(-c5cccc(S(=O)(=O)[O-])c5F)c5ccc2[nH]5)C=C4)C=C3)cc1
REMARK SMILES IDX 6 1 5 2 4 3 3 4 2 5 1 6 23 7 24 8 85 9 25 10 84 11 26 12
REMARK SMILES IDX 27 13 28 14 78 15 29 16 83 17 77 18 79 19 30 20 82 21 76 22
REMARK SMILES IDX 75 23 31 25 63 26 43 27 62 28 44 29 47 30 61 31 80 32 45 33
REMARK SMILES IDX 46 34 60 36 81 37 48 38 32 39 33 40 41 41 34 42 36 43 42 44
REMARK SMILES IDX 35 45 37 46 38 47 39 48 40 49 64 50 65 51 73 52 66 53 68 54
REMARK SMILES IDX 74 55 67 56 69 57 70 58 71 59 72 60 49 61 50 62 58 63 51 64
REMARK SMILES IDX 53 65 59 66 52 67 54 68 55 69 56 70 57 71 7 72 8 73 9 74
REMARK SMILES IDX 10 75 11 76 12 77 13 78 14 79 15 80 16 82 17 83 22 84 18 85
REMARK SMILES IDX 20 86 19 87 21 88
REMARK H PARENT 79 24 47 35 15 81
REMARK Flexibility Score: inf
ROOT
ATOM      1  O   UNL A   1      35.221  23.631  24.997  1.00  0.00    -0.462 OA
ENDROOT
BRANCH   1   2
ATOM      2  C   UNL A   1      35.988  22.639  24.311  1.00  0.00     0.274 C 
BRANCH   2   3
ATOM      3  C   UNL A   1      36.411  21.493  25.248  1.00  0.00     0.275 C 
BRANCH   3   4
ATOM      4  O   UNL A   1      37.748  20.986  25.008  1.00  0.00    -0.458 OA
BRANCH   4   5
ATOM      5  C   UNL A   1      38.909  21.092  25.710  1.00  0.00     0.338 C 
ATOM      6  O   UNL A   1      39.645  20.106  25.751  1.00  0.00    -0.246 OA
BRANCH   5   7
ATOM      7  C   UNL A   1      39.324  22.291  26.523  1.00  0.00     0.060 A 
ATOM      8  C   UNL A   1      40.380  22.334  27.436  1.00  0.00     0.016 A 
ATOM      9  C   UNL A   1      38.683  23.516  26.215  1.00  0.00     0.016 A 
ATOM     10  C   UNL A   1      40.940  23.573  27.831  1.00  0.00     0.010 A 
ATOM     11  C   UNL A   1      39.243  24.751  26.606  1.00  0.00     0.010 A 
ATOM     12  C   UNL A   1      40.436  24.794  27.350  1.00  0.00    -0.014 A 
BRANCH  12  13
ATOM     13  C   UNL A   1      41.015  26.098  27.816  1.00  0.00     0.031 A 
ATOM     14  C   UNL A   1      42.424  26.349  27.377  1.00  0.00     0.074 A 
ATOM     15  C   UNL A   1      40.395  27.031  28.586  1.00  0.00     0.049 A 
ATOM     16  N   UNL A   1      43.158  27.415  27.530  1.00  0.00    -0.248 NA
ATOM     17  C   UNL A   1      43.103  25.232  26.694  1.00  0.00     0.031 C 
ATOM     18  C   UNL A   1      39.084  26.917  29.197  1.00  0.00     0.029 A 
ATOM     19  N   UNL A   1      40.791  28.288  29.014  1.00  0.00    -0.354 N 
ATOM     20  C   UNL A   1      44.384  27.090  26.975  1.00  0.00     0.074 A 
ATOM     21  C   UNL A   1      44.318  25.717  26.535  1.00  0.00     0.031 C 
ATOM     22  C   UNL A   1      38.757  28.019  29.880  1.00  0.00     0.029 A 
ATOM     23  C   UNL A   1      39.850  28.955  29.783  1.00  0.00     0.049 A 
ATOM     24  H   UNL A   1      41.669  28.674  28.791  1.00  0.00     0.167 HD
ATOM     25  C   UNL A   1      45.471  27.874  26.821  1.00  0.00     0.034 A 
ATOM     26  C   UNL A   1      39.831  30.177  30.356  1.00  0.00     0.034 A 
ATOM     27  C   UNL A   1      45.555  29.214  27.312  1.00  0.00     0.049 A 
ATOM     28  C   UNL A   1      41.043  31.037  30.174  1.00  0.00     0.074 A 
ATOM     29  C   UNL A   1      46.611  30.095  27.215  1.00  0.00     0.029 A 
ATOM     30  N   UNL A   1      44.553  29.848  28.031  1.00  0.00    -0.354 N 
ATOM     31  N   UNL A   1      42.143  30.753  29.521  1.00  0.00    -0.248 NA
ATOM     32  C   UNL A   1      41.022  32.374  30.779  1.00  0.00     0.031 C 
ATOM     33  C   UNL A   1      46.263  31.254  27.914  1.00  0.00     0.029 A 
ATOM     34  C   UNL A   1      44.968  31.114  28.394  1.00  0.00     0.049 A 
ATOM     35  H   UNL A   1      43.676  29.456  28.249  1.00  0.00     0.167 HD
ATOM     36  C   UNL A   1      42.940  31.881  29.616  1.00  0.00     0.074 A 
ATOM     37  C   UNL A   1      42.191  32.861  30.381  1.00  0.00     0.031 C 
ATOM     38  C   UNL A   1      44.182  32.080  29.120  1.00  0.00     0.034 A 
BRANCH  25  39
ATOM     39  C   UNL A   1      46.631  27.248  26.105  1.00  0.00     0.023 A 
ATOM     40  C   UNL A   1      47.498  26.382  26.807  1.00  0.00     0.012 A 
ATOM     41  C   UNL A   1      46.920  27.597  24.775  1.00  0.00     0.148 A 
ATOM     42  C   UNL A   1      48.675  25.930  26.215  1.00  0.00     0.002 A 
ATOM     43  C   UNL A   1      48.066  27.098  24.175  1.00  0.00     0.091 A 
ATOM     44  F   UNL A   1      46.097  28.447  24.144  1.00  0.00    -0.205 F 
ATOM     45  C   UNL A   1      48.956  26.285  24.899  1.00  0.00     0.022 A 
BRANCH  43  46
ATOM     46  S   UNL A   1      48.494  27.449  22.470  1.00  0.00     0.127 S 
ATOM     47  O   UNL A   1      49.739  28.198  22.625  1.00  0.00    -0.237 OA
ATOM     48  O   UNL A   1      48.653  26.104  21.919  1.00  0.00    -0.237 OA
ATOM     49  O   UNL A   1      47.379  28.209  21.921  1.00  0.00    -0.744 OA
ENDBRANCH  43  46
ENDBRANCH  25  39
BRANCH  26  50
ATOM     50  C   UNL A   1      38.612  30.684  31.074  1.00  0.00     0.023 A 
ATOM     51  C   UNL A   1      38.529  30.534  32.476  1.00  0.00     0.012 A 
ATOM     52  C   UNL A   1      37.560  31.347  30.404  1.00  0.00     0.148 A 
ATOM     53  C   UNL A   1      37.427  31.014  33.188  1.00  0.00     0.002 A 
ATOM     54  C   UNL A   1      36.482  31.859  31.126  1.00  0.00     0.091 A 
ATOM     55  F   UNL A   1      37.648  31.487  29.074  1.00  0.00    -0.205 F 
ATOM     56  C   UNL A   1      36.410  31.683  32.517  1.00  0.00     0.022 A 
BRANCH  54  57
ATOM     57  S   UNL A   1      35.146  32.811  30.385  1.00  0.00     0.127 S 
ATOM     58  O   UNL A   1      34.282  33.065  31.533  1.00  0.00    -0.237 OA
ATOM     59  O   UNL A   1      35.861  33.984  29.888  1.00  0.00    -0.237 OA
ATOM     60  O   UNL A   1      34.565  31.953  29.355  1.00  0.00    -0.744 OA
ENDBRANCH  54  57
ENDBRANCH  26  50
BRANCH  38  61
ATOM     61  C   UNL A   1      44.813  33.422  29.329  1.00  0.00     0.023 A 
ATOM     62  C   UNL A   1      45.727  33.618  30.379  1.00  0.00     0.012 A 
ATOM     63  C   UNL A   1      44.632  34.420  28.354  1.00  0.00     0.148 A 
ATOM     64  C   UNL A   1      46.463  34.797  30.451  1.00  0.00     0.002 A 
ATOM     65  C   UNL A   1      45.415  35.562  28.396  1.00  0.00     0.091 A 
ATOM     66  F   UNL A   1      43.732  34.207  27.382  1.00  0.00    -0.205 F 
ATOM     67  C   UNL A   1      46.325  35.756  29.448  1.00  0.00     0.022 A 
BRANCH  65  68
ATOM     68  S   UNL A   1      45.404  36.772  27.072  1.00  0.00     0.127 S 
ATOM     69  O   UNL A   1      46.260  37.822  27.623  1.00  0.00    -0.237 OA
ATOM     70  O   UNL A   1      45.994  36.019  25.965  1.00  0.00    -0.237 OA
ATOM     71  O   UNL A   1      44.010  37.147  26.875  1.00  0.00    -0.744 OA
ENDBRANCH  65  68
ENDBRANCH  38  61
ENDBRANCH  12  13
ENDBRANCH   5   7
ENDBRANCH   4   5
ENDBRANCH   3   4
ENDBRANCH   2   3
ENDBRANCH   1   2
BRANCH   1  72
ATOM     72  C   UNL A   1      34.249  24.287  24.288  1.00  0.00     0.313 C 
ATOM     73  O   UNL A   1      34.332  24.508  23.086  1.00  0.00    -0.252 OA
BRANCH  72  74
ATOM     74  C   UNL A   1      33.054  24.703  25.179  1.00  0.00     0.131 C 
BRANCH  74  75
ATOM     75  C   UNL A   1      32.985  23.754  26.356  1.00  0.00     0.048 C 
BRANCH  75  76
ATOM     76  C   UNL A   1      32.320  22.402  26.129  1.00  0.00     0.161 C 
BRANCH  76  77
ATOM     77  O   UNL A   1      32.488  21.390  25.146  1.00  0.00    -0.379 OA
BRANCH  77  78
ATOM     78  C   UNL A   1      32.897  20.062  25.410  1.00  0.00     0.188 C 
BRANCH  78  79
ATOM     79  C   UNL A   1      32.276  19.107  24.376  1.00  0.00     0.184 C 
BRANCH  79  80
ATOM     80  O   UNL A   1      32.159  17.790  24.920  1.00  0.00    -0.394 OA
ATOM     81  H   UNL A   1      32.701  17.176  24.400  1.00  0.00     0.210 HD
ENDBRANCH  79  80
ENDBRANCH  78  79
ENDBRANCH  77  78
ENDBRANCH  76  77
ENDBRANCH  75  76
ENDBRANCH  74  75
BRANCH  74  82
ATOM     82  C   UNL A   1      32.987  26.147  25.687  1.00  0.00    -0.031 A 
ATOM     83  C   UNL A   1      34.027  27.066  25.485  1.00  0.00     0.005 A 
ATOM     84  C   UNL A   1      31.892  26.578  26.471  1.00  0.00     0.043 A 
ATOM     85  C   UNL A   1      34.051  28.285  26.176  1.00  0.00     0.003 A 
ATOM     86  C   UNL A   1      31.930  27.783  27.159  1.00  0.00     0.123 A 
ATOM     87  C   UNL A   1      33.015  28.630  27.041  1.00  0.00     0.039 A 
ATOM     88  F   UNL A   1      30.936  28.072  28.005  1.00  0.00    -0.207 F 
ENDBRANCH  74  82
ENDBRANCH  72  74
ENDBRANCH   1  72
TORSDOF 21
ENDMDL
MODEL 3
REMARK VINA RESULT:      -9.5      1.858      2.174
REMARK SMILES O=C(OCCOC(=O)[C@@H](CCOCCO)c1cccc(F)c1)c1ccc(-c2c3nc(c(-c4cccc(S(=O)(=O)[O-])c4F)c4ccc([nH]4)c(-c4cccc(S(=O)(=O)[O-])c4F)c4nc(c(-c5cccc(S(=O)(=O)[O-])c5F)c5ccc2[nH]5)C=C4)C=C3)cc1
REMARK SMILES IDX 6 1 5 2 4 3 3 4 2 5 1 6 23 7 24 8 85 9 25 10 84 11 26 12
REMARK SMILES IDX 27 13 28 14 78 15 29 16 83 17 77 18 79 19 30 20 82 21 76 22
REMARK SMILES IDX 75 23 31 25 63 26 43 27 62 28 44 29 47 30 61 31 80 32 45 33
REMARK SMILES IDX 46 34 60 36 81 37 48 38 32 39 33 40 41 41 34 42 36 43 42 44
REMARK SMILES IDX 35 45 37 46 38 47 39 48 40 49 64 50 65 51 73 52 66 53 68 54
REMARK SMILES IDX 74 55 67 56 69 57 70 58 71 59 72 60 49 61 50 62 58 63 51 64
REMARK SMILES IDX 53 65 59 66 52 67 54 68 55 69 56 70 57 71 7 72 8 73 9 74
REMARK SMILES IDX 10 75 11 76 12 77 13 78 14 79 15 80 16 82 17 83 22 84 18 85
REMARK SMILES IDX 20 86 19 87 21 88
REMARK H PARENT 79 24 47 35 15 81
REMARK Flexibility Score: inf
ROOT
ATOM      1  O   UNL A   1      34.343  32.866  30.768  1.00  0.00    -0.462 OA
ENDROOT
BRANCH   1   2
ATOM      2  C   UNL A   1      34.365  33.935  29.820  1.00  0.00     0.274 C 
BRANCH   2   3
ATOM      3  C   UNL A   1      34.264  33.419  28.373  1.00  0.00     0.275 C 
BRANCH   3   4
ATOM      4  O   UNL A   1      33.868  32.029  28.258  1.00  0.00    -0.458 OA
BRANCH   4   5
ATOM      5  C   UNL A   1      34.409  30.974  27.591  1.00  0.00     0.338 C 
ATOM      6  O   UNL A   1      33.778  30.515  26.638  1.00  0.00    -0.246 OA
BRANCH   5   7
ATOM      7  C   UNL A   1      35.675  30.256  27.983  1.00  0.00     0.060 A 
ATOM      8  C   UNL A   1      36.906  30.356  27.332  1.00  0.00     0.016 A 
ATOM      9  C   UNL A   1      35.644  29.545  29.207  1.00  0.00     0.016 A 
ATOM     10  C   UNL A   1      38.102  29.985  27.993  1.00  0.00     0.010 A 
ATOM     11  C   UNL A   1      36.836  29.179  29.868  1.00  0.00     0.010 A 
ATOM     12  C   UNL A   1      38.090  29.476  29.303  1.00  0.00    -0.014 A 
BRANCH  12  13
ATOM     13  C   UNL A   1      39.365  29.047  29.970  1.00  0.00     0.031 A 
ATOM     14  C   UNL A   1      39.644  29.721  31.278  1.00  0.00     0.074 A 
ATOM     15  C   UNL A   1      40.261  28.141  29.498  1.00  0.00     0.049 A 
ATOM     16  N   UNL A   1      40.600  29.497  32.133  1.00  0.00    -0.248 NA
ATOM     17  C   UNL A   1      38.731  30.817  31.654  1.00  0.00     0.031 C 
ATOM     18  C   UNL A   1      40.221  27.475  28.209  1.00  0.00     0.029 A 
ATOM     19  N   UNL A   1      41.419  27.615  30.046  1.00  0.00    -0.354 N 
ATOM     20  C   UNL A   1      40.410  30.429  33.139  1.00  0.00     0.074 A 
ATOM     21  C   UNL A   1      39.289  31.256  32.765  1.00  0.00     0.031 C 
ATOM     22  C   UNL A   1      41.244  26.627  28.058  1.00  0.00     0.029 A 
ATOM     23  C   UNL A   1      42.059  26.679  29.247  1.00  0.00     0.049 A 
ATOM     24  H   UNL A   1      41.759  27.883  30.930  1.00  0.00     0.167 HD
ATOM     25  C   UNL A   1      41.094  30.571  34.293  1.00  0.00     0.034 A 
ATOM     26  C   UNL A   1      43.169  25.930  29.417  1.00  0.00     0.034 A 
ATOM     27  C   UNL A   1      42.242  29.790  34.633  1.00  0.00     0.049 A 
ATOM     28  C   UNL A   1      43.916  26.099  30.703  1.00  0.00     0.074 A 
ATOM     29  C   UNL A   1      43.014  29.857  35.773  1.00  0.00     0.029 A 
ATOM     30  N   UNL A   1      42.805  28.826  33.810  1.00  0.00    -0.354 N 
ATOM     31  N   UNL A   1      43.632  26.896  31.704  1.00  0.00    -0.248 NA
ATOM     32  C   UNL A   1      45.114  25.274  30.903  1.00  0.00     0.031 C 
ATOM     33  C   UNL A   1      44.074  28.959  35.623  1.00  0.00     0.029 A 
ATOM     34  C   UNL A   1      43.926  28.292  34.414  1.00  0.00     0.049 A 
ATOM     35  H   UNL A   1      42.458  28.562  32.927  1.00  0.00     0.167 HD
ATOM     36  C   UNL A   1      44.599  26.656  32.664  1.00  0.00     0.074 A 
ATOM     37  C   UNL A   1      45.475  25.628  32.131  1.00  0.00     0.031 C 
ATOM     38  C   UNL A   1      44.751  27.241  33.873  1.00  0.00     0.034 A 
BRANCH  25  39
ATOM     39  C   UNL A   1      40.591  31.636  35.222  1.00  0.00     0.023 A 
ATOM     40  C   UNL A   1      41.324  32.834  35.372  1.00  0.00     0.012 A 
ATOM     41  C   UNL A   1      39.457  31.408  36.019  1.00  0.00     0.148 A 
ATOM     42  C   UNL A   1      40.974  33.757  36.354  1.00  0.00     0.002 A 
ATOM     43  C   UNL A   1      39.083  32.358  36.957  1.00  0.00     0.091 A 
ATOM     44  F   UNL A   1      38.800  30.247  35.879  1.00  0.00    -0.205 F 
ATOM     45  C   UNL A   1      39.852  33.521  37.143  1.00  0.00     0.022 A 
BRANCH  43  46
ATOM     46  S   UNL A   1      37.626  32.177  37.986  1.00  0.00     0.127 S 
ATOM     47  O   UNL A   1      37.395  30.735  37.922  1.00  0.00    -0.237 OA
ATOM     48  O   UNL A   1      38.109  32.664  39.277  1.00  0.00    -0.237 OA
ATOM     49  O   UNL A   1      36.591  32.996  37.370  1.00  0.00    -0.744 OA
ENDBRANCH  43  46
ENDBRANCH  25  39
BRANCH  26  50
ATOM     50  C   UNL A   1      43.587  24.911  28.396  1.00  0.00     0.023 A 
ATOM     51  C   UNL A   1      42.906  23.675  28.340  1.00  0.00     0.012 A 
ATOM     52  C   UNL A   1      44.611  25.159  27.456  1.00  0.00     0.148 A 
ATOM     53  C   UNL A   1      43.244  22.708  27.390  1.00  0.00     0.002 A 
ATOM     54  C   UNL A   1      44.916  24.206  26.484  1.00  0.00     0.091 A 
ATOM     55  F   UNL A   1      45.250  26.335  27.514  1.00  0.00    -0.205 F 
ATOM     56  C   UNL A   1      44.240  22.976  26.457  1.00  0.00     0.022 A 
BRANCH  54  57
ATOM     57  S   UNL A   1      46.126  24.465  25.176  1.00  0.00     0.127 S 
ATOM     58  O   UNL A   1      47.385  24.251  25.881  1.00  0.00    -0.237 OA
ATOM     59  O   UNL A   1      45.769  23.409  24.232  1.00  0.00    -0.237 OA
ATOM     60  O   UNL A   1      45.913  25.828  24.697  1.00  0.00    -0.744 OA
ENDBRANCH  54  57
ENDBRANCH  26  50
BRANCH  38  61
ATOM     61  C   UNL A   1      45.869  26.764  34.748  1.00  0.00     0.023 A 
ATOM     62  C   UNL A   1      47.092  27.457  34.774  1.00  0.00     0.012 A 
ATOM     63  C   UNL A   1      45.617  25.740  35.679  1.00  0.00     0.148 A 
ATOM     64  C   UNL A   1      48.052  27.139  35.730  1.00  0.00     0.002 A 
ATOM     65  C   UNL A   1      46.551  25.473  36.667  1.00  0.00     0.091 A 
ATOM     66  F   UNL A   1      44.450  25.083  35.605  1.00  0.00    -0.205 F 
ATOM     67  C   UNL A   1      47.773  26.166  36.689  1.00  0.00     0.022 A 
BRANCH  65  68
ATOM     68  S   UNL A   1      46.211  24.344  38.018  1.00  0.00     0.127 S 
ATOM     69  O   UNL A   1      45.758  23.152  37.302  1.00  0.00    -0.237 OA
ATOM     70  O   UNL A   1      47.525  24.217  38.649  1.00  0.00    -0.237 OA
ATOM     71  O   UNL A   1      45.201  24.991  38.845  1.00  0.00    -0.744 OA
ENDBRANCH  65  68
ENDBRANCH  38  61
ENDBRANCH  12  13
ENDBRANCH   5   7
ENDBRANCH   4   5
ENDBRANCH   3   4
ENDBRANCH   2   3
ENDBRANCH   1   2
BRANCH   1  72
ATOM     72  C   UNL A   1      35.304  32.863  31.746  1.00  0.00     0.313 C 
ATOM     73  O   UNL A   1      35.528  31.894  32.460  1.00  0.00    -0.252 OA
BRANCH  72  74
ATOM     74  C   UNL A   1      36.056  34.213  31.831  1.00  0.00     0.131 C 
BRANCH  74  75
ATOM     75  C   UNL A   1      36.078  34.655  33.278  1.00  0.00     0.048 C 
BRANCH  75  76
ATOM     76  C   UNL A   1      34.793  35.237  33.853  1.00  0.00     0.161 C 
BRANCH  76  77
ATOM     77  O   UNL A   1      34.153  36.498  33.718  1.00  0.00    -0.379 OA
BRANCH  77  78
ATOM     78  C   UNL A   1      34.264  37.348  32.593  1.00  0.00     0.188 C 
BRANCH  78  79
ATOM     79  C   UNL A   1      33.195  36.979  31.549  1.00  0.00     0.184 C 
BRANCH  79  80
ATOM     80  O   UNL A   1      33.368  37.753  30.361  1.00  0.00    -0.394 OA
ATOM     81  H   UNL A   1      33.278  38.695  30.572  1.00  0.00     0.210 HD
ENDBRANCH  79  80
ENDBRANCH  78  79
ENDBRANCH  77  78
ENDBRANCH  76  77
ENDBRANCH  75  76
ENDBRANCH  74  75
BRANCH  74  82
ATOM     82  C   UNL A   1      37.472  34.300  31.251  1.00  0.00    -0.031 A 
ATOM     83  C   UNL A   1      37.766  33.957  29.924  1.00  0.00     0.005 A 
ATOM     84  C   UNL A   1      38.563  34.648  32.081  1.00  0.00     0.043 A 
ATOM     85  C   UNL A   1      39.093  33.799  29.501  1.00  0.00     0.003 A 
ATOM     86  C   UNL A   1      39.873  34.478  31.656  1.00  0.00     0.123 A 
ATOM     87  C   UNL A   1      40.148  34.028  30.379  1.00  0.00     0.039 A 
ATOM     88  F   UNL A   1      40.864  34.676  32.531  1.00  0.00    -0.207 F 
ENDBRANCH  74  82
ENDBRANCH  72  74
ENDBRANCH   1  72
TORSDOF 21
ENDMDL
