MODEL 1
REMARK VINA RESULT:     -13.7      0.000      0.000
REMARK SMILES O=C(OCCOC(=O)[C@H]1Cc2c([nH]c3ccccc23)[C@H](c2c[nH]c3ccccc23)[NH2+]1)c1ccc(-c2c3nc(c(-c4cccc(S(=O)(=O)[O-])c4F)c4ccc([nH]4)c(-c4cccc(S(=O)(=O)[O-])c4F)c4nc(c(-c5cccc(S(=O)(=O)[O-])c5F)c5ccc2[nH]5)C=C4)C=C3)cc1
REMARK SMILES IDX 4 1 3 2 2 3 1 4 31 5 32 6 93 7 33 8 92 9 34 10 35 11 36 12
REMARK SMILES IDX 86 13 37 14 91 15 85 16 87 17 38 18 90 19 84 20 83 21 39 23
REMARK SMILES IDX 71 24 51 25 70 26 52 27 55 28 69 29 88 30 53 31 54 32 68 34
REMARK SMILES IDX 89 35 56 36 40 37 41 38 49 39 42 40 44 41 50 42 43 43 45 44
REMARK SMILES IDX 46 45 47 46 48 47 72 48 73 49 81 50 74 51 76 52 82 53 75 54
REMARK SMILES IDX 77 55 78 56 79 57 80 58 57 59 58 60 66 61 59 62 61 63 67 64
REMARK SMILES IDX 60 65 62 66 63 67 64 68 65 69 5 70 6 71 7 72 8 73 9 74 10 75
REMARK SMILES IDX 30 76 11 77 20 78 12 81 19 82 13 83 14 84 18 85 15 87 17 88
REMARK SMILES IDX 16 89 21 90 22 91 29 92 23 93 24 94 28 95 25 97 27 98 26 99
REMARK H PARENT 87 22 55 33 30 79 30 80 13 86 23 96
REMARK Flexibility Score: inf
ROOT
ATOM      1  C   UNL A   1      31.483  32.380  26.996  1.00  0.00     0.275 C 
ENDROOT
BRANCH   1   2
ATOM      2  O   UNL A   1      32.325  33.537  27.096  1.00  0.00    -0.458 OA
BRANCH   2   3
ATOM      3  C   UNL A   1      33.098  33.957  28.127  1.00  0.00     0.338 C 
ATOM      4  O   UNL A   1      32.792  35.008  28.691  1.00  0.00    -0.246 OA
BRANCH   3   5
ATOM      5  C   UNL A   1      34.371  33.285  28.544  1.00  0.00     0.060 A 
ATOM      6  C   UNL A   1      35.642  33.475  27.990  1.00  0.00     0.016 A 
ATOM      7  C   UNL A   1      34.256  32.361  29.593  1.00  0.00     0.016 A 
ATOM      8  C   UNL A   1      36.783  32.857  28.540  1.00  0.00     0.010 A 
ATOM      9  C   UNL A   1      35.391  31.749  30.141  1.00  0.00     0.010 A 
ATOM     10  C   UNL A   1      36.679  32.012  29.648  1.00  0.00    -0.014 A 
BRANCH  10  11
ATOM     11  C   UNL A   1      37.867  31.348  30.267  1.00  0.00     0.031 A 
ATOM     12  C   UNL A   1      38.387  31.871  31.579  1.00  0.00     0.074 A 
ATOM     13  C   UNL A   1      38.530  30.323  29.683  1.00  0.00     0.049 A 
ATOM     14  N   UNL A   1      39.403  31.443  32.281  1.00  0.00    -0.248 NA
ATOM     15  C   UNL A   1      37.656  32.989  32.199  1.00  0.00     0.031 C 
ATOM     16  C   UNL A   1      38.141  29.636  28.454  1.00  0.00     0.029 A 
ATOM     17  N   UNL A   1      39.718  29.709  30.024  1.00  0.00    -0.354 N 
ATOM     18  C   UNL A   1      39.376  32.178  33.456  1.00  0.00     0.074 A 
ATOM     19  C   UNL A   1      38.350  33.184  33.308  1.00  0.00     0.031 C 
ATOM     20  C   UNL A   1      39.123  28.790  28.086  1.00  0.00     0.029 A 
ATOM     21  C   UNL A   1      40.210  28.867  29.045  1.00  0.00     0.049 A 
ATOM     22  H   UNL A   1      40.173  29.857  30.884  1.00  0.00     0.167 HD
ATOM     23  C   UNL A   1      40.053  31.957  34.605  1.00  0.00     0.034 A 
ATOM     24  C   UNL A   1      41.403  28.248  28.925  1.00  0.00     0.034 A 
ATOM     25  C   UNL A   1      41.072  30.963  34.766  1.00  0.00     0.049 A 
ATOM     26  C   UNL A   1      42.323  28.230  30.107  1.00  0.00     0.074 A 
ATOM     27  C   UNL A   1      41.749  30.596  35.915  1.00  0.00     0.029 A 
ATOM     28  N   UNL A   1      41.589  30.199  33.734  1.00  0.00    -0.354 N 
ATOM     29  N   UNL A   1      42.176  28.812  31.267  1.00  0.00    -0.248 NA
ATOM     30  C   UNL A   1      43.504  27.357  30.006  1.00  0.00     0.031 C 
ATOM     31  C   UNL A   1      42.704  29.634  35.568  1.00  0.00     0.029 A 
ATOM     32  C   UNL A   1      42.601  29.385  34.210  1.00  0.00     0.049 A 
ATOM     33  H   UNL A   1      41.282  30.230  32.799  1.00  0.00     0.167 HD
ATOM     34  C   UNL A   1      43.173  28.285  32.073  1.00  0.00     0.074 A 
ATOM     35  C   UNL A   1      43.959  27.390  31.249  1.00  0.00     0.031 C 
ATOM     36  C   UNL A   1      43.372  28.484  33.397  1.00  0.00     0.034 A 
BRANCH  23  37
ATOM     37  C   UNL A   1      39.604  32.751  35.795  1.00  0.00     0.023 A 
ATOM     38  C   UNL A   1      40.150  34.037  35.997  1.00  0.00     0.012 A 
ATOM     39  C   UNL A   1      38.679  32.234  36.715  1.00  0.00     0.148 A 
ATOM     40  C   UNL A   1      39.818  34.780  37.125  1.00  0.00     0.002 A 
ATOM     41  C   UNL A   1      38.325  32.996  37.820  1.00  0.00     0.091 A 
ATOM     42  F   UNL A   1      38.192  31.002  36.507  1.00  0.00    -0.205 F 
ATOM     43  C   UNL A   1      38.902  34.260  38.034  1.00  0.00     0.022 A 
BRANCH  41  44
ATOM     44  S   UNL A   1      37.128  32.441  39.036  1.00  0.00     0.127 S 
ATOM     45  O   UNL A   1      37.449  33.297  40.177  1.00  0.00    -0.237 OA
ATOM     46  O   UNL A   1      35.861  32.753  38.375  1.00  0.00    -0.237 OA
ATOM     47  O   UNL A   1      37.385  31.022  39.237  1.00  0.00    -0.744 OA
ENDBRANCH  41  44
ENDBRANCH  23  37
BRANCH  24  48
ATOM     48  C   UNL A   1      41.822  27.520  27.694  1.00  0.00     0.023 A 
ATOM     49  C   UNL A   1      42.267  28.217  26.557  1.00  0.00     0.012 A 
ATOM     50  C   UNL A   1      41.652  26.127  27.614  1.00  0.00     0.148 A 
ATOM     51  C   UNL A   1      42.542  27.532  25.367  1.00  0.00     0.002 A 
ATOM     52  C   UNL A   1      41.975  25.444  26.442  1.00  0.00     0.091 A 
ATOM     53  F   UNL A   1      41.140  25.483  28.674  1.00  0.00    -0.205 F 
ATOM     54  C   UNL A   1      42.412  26.146  25.312  1.00  0.00     0.022 A 
BRANCH  52  55
ATOM     55  S   UNL A   1      42.037  23.646  26.407  1.00  0.00     0.127 S 
ATOM     56  O   UNL A   1      42.672  23.380  25.122  1.00  0.00    -0.237 OA
ATOM     57  O   UNL A   1      42.854  23.343  27.582  1.00  0.00    -0.237 OA
ATOM     58  O   UNL A   1      40.639  23.243  26.538  1.00  0.00    -0.744 OA
ENDBRANCH  52  55
ENDBRANCH  24  48
BRANCH  36  59
ATOM     59  C   UNL A   1      44.431  27.653  34.059  1.00  0.00     0.023 A 
ATOM     60  C   UNL A   1      45.761  28.108  34.117  1.00  0.00     0.012 A 
ATOM     61  C   UNL A   1      44.088  26.419  34.645  1.00  0.00     0.148 A 
ATOM     62  C   UNL A   1      46.745  27.327  34.720  1.00  0.00     0.002 A 
ATOM     63  C   UNL A   1      45.061  25.675  35.296  1.00  0.00     0.091 A 
ATOM     64  F   UNL A   1      42.821  25.992  34.545  1.00  0.00    -0.205 F 
ATOM     65  C   UNL A   1      46.393  26.119  35.320  1.00  0.00     0.022 A 
BRANCH  63  66
ATOM     66  S   UNL A   1      44.676  24.162  36.180  1.00  0.00     0.127 S 
ATOM     67  O   UNL A   1      46.004  23.586  36.381  1.00  0.00    -0.237 OA
ATOM     68  O   UNL A   1      44.041  24.671  37.396  1.00  0.00    -0.237 OA
ATOM     69  O   UNL A   1      43.789  23.401  35.310  1.00  0.00    -0.744 OA
ENDBRANCH  63  66
ENDBRANCH  36  59
ENDBRANCH  10  11
ENDBRANCH   3   5
ENDBRANCH   2   3
ENDBRANCH   1   2
BRANCH   1  70
ATOM     70  C   UNL A   1      32.179  31.112  26.505  1.00  0.00     0.274 C 
BRANCH  70  71
ATOM     71  O   UNL A   1      32.629  30.260  27.563  1.00  0.00    -0.458 OA
BRANCH  71  72
ATOM     72  C   UNL A   1      33.553  29.307  27.215  1.00  0.00     0.365 C 
ATOM     73  O   UNL A   1      34.655  29.199  27.745  1.00  0.00    -0.245 OA
BRANCH  72  74
ATOM     74  C   UNL A   1      33.084  28.465  26.018  1.00  0.00     0.298 C 
ATOM     75  C   UNL A   1      33.875  27.134  25.990  1.00  0.00     0.115 C 
ATOM     76  N   UNL A   1      31.618  28.235  26.080  1.00  0.00    -0.323 N 
ATOM     77  C   UNL A   1      33.228  26.173  25.049  1.00  0.00    -0.006 A 
ATOM     78  C   UNL A   1      31.065  27.554  24.908  1.00  0.00     0.264 C 
ATOM     79  H   UNL A   1      31.155  29.139  26.173  1.00  0.00     0.347 HD
ATOM     80  H   UNL A   1      31.452  27.623  26.879  1.00  0.00     0.347 HD
ATOM     81  C   UNL A   1      31.931  26.370  24.621  1.00  0.00     0.083 A 
ATOM     82  C   UNL A   1      33.718  25.013  24.396  1.00  0.00     0.003 A 
ATOM     83  N   UNL A   1      31.562  25.290  23.871  1.00  0.00    -0.353 N 
ATOM     84  C   UNL A   1      32.652  24.475  23.668  1.00  0.00     0.046 A 
ATOM     85  C   UNL A   1      34.971  24.375  24.327  1.00  0.00     0.010 A 
ATOM     86  H   UNL A   1      30.654  25.119  23.529  1.00  0.00     0.166 HD
ATOM     87  C   UNL A   1      32.775  23.324  22.883  1.00  0.00     0.026 A 
ATOM     88  C   UNL A   1      35.118  23.242  23.520  1.00  0.00     0.001 A 
ATOM     89  C   UNL A   1      34.033  22.723  22.813  1.00  0.00     0.002 A 
BRANCH  78  90
ATOM     90  C   UNL A   1      30.885  28.465  23.715  1.00  0.00     0.041 A 
ATOM     91  C   UNL A   1      31.920  28.768  22.838  1.00  0.00     0.093 A 
ATOM     92  C   UNL A   1      29.705  29.087  23.148  1.00  0.00     0.009 A 
ATOM     93  N   UNL A   1      31.478  29.666  21.910  1.00  0.00    -0.361 N 
ATOM     94  C   UNL A   1      30.118  29.821  22.035  1.00  0.00     0.046 A 
ATOM     95  C   UNL A   1      28.312  29.084  23.420  1.00  0.00     0.011 A 
ATOM     96  H   UNL A   1      32.045  30.130  21.253  1.00  0.00     0.166 HD
ATOM     97  C   UNL A   1      29.234  30.539  21.222  1.00  0.00     0.026 A 
ATOM     98  C   UNL A   1      27.411  29.752  22.583  1.00  0.00     0.001 A 
ATOM     99  C   UNL A   1      27.871  30.469  21.491  1.00  0.00     0.002 A 
ENDBRANCH  78  90
ENDBRANCH  72  74
ENDBRANCH  71  72
ENDBRANCH  70  71
ENDBRANCH   1  70
TORSDOF 15
ENDMDL
MODEL 2
REMARK VINA RESULT:     -13.3      1.560      7.530
REMARK SMILES O=C(OCCOC(=O)[C@H]1Cc2c([nH]c3ccccc23)[C@H](c2c[nH]c3ccccc23)[NH2+]1)c1ccc(-c2c3nc(c(-c4cccc(S(=O)(=O)[O-])c4F)c4ccc([nH]4)c(-c4cccc(S(=O)(=O)[O-])c4F)c4nc(c(-c5cccc(S(=O)(=O)[O-])c5F)c5ccc2[nH]5)C=C4)C=C3)cc1
REMARK SMILES IDX 4 1 3 2 2 3 1 4 31 5 32 6 93 7 33 8 92 9 34 10 35 11 36 12
REMARK SMILES IDX 86 13 37 14 91 15 85 16 87 17 38 18 90 19 84 20 83 21 39 23
REMARK SMILES IDX 71 24 51 25 70 26 52 27 55 28 69 29 88 30 53 31 54 32 68 34
REMARK SMILES IDX 89 35 56 36 40 37 41 38 49 39 42 40 44 41 50 42 43 43 45 44
REMARK SMILES IDX 46 45 47 46 48 47 72 48 73 49 81 50 74 51 76 52 82 53 75 54
REMARK SMILES IDX 77 55 78 56 79 57 80 58 57 59 58 60 66 61 59 62 61 63 67 64
REMARK SMILES IDX 60 65 62 66 63 67 64 68 65 69 5 70 6 71 7 72 8 73 9 74 10 75
REMARK SMILES IDX 30 76 11 77 20 78 12 81 19 82 13 83 14 84 18 85 15 87 17 88
REMARK SMILES IDX 16 89 21 90 22 91 29 92 23 93 24 94 28 95 25 97 27 98 26 99
REMARK H PARENT 87 22 55 33 30 79 30 80 13 86 23 96
REMARK Flexibility Score: inf
ROOT
ATOM      1  C   UNL A   1      31.878  32.629  27.243  1.00  0.00     0.275 C 
ENDROOT
BRANCH   1   2
ATOM      2  O   UNL A   1      32.292  33.989  27.442  1.00  0.00    -0.458 OA
BRANCH   2   3
ATOM      3  C   UNL A   1      32.976  34.542  28.473  1.00  0.00     0.338 C 
ATOM      4  O   UNL A   1      32.607  35.640  28.891  1.00  0.00    -0.246 OA
BRANCH   3   5
ATOM      5  C   UNL A   1      34.226  33.956  29.057  1.00  0.00     0.060 A 
ATOM      6  C   UNL A   1      35.539  34.184  28.631  1.00  0.00     0.016 A 
ATOM      7  C   UNL A   1      34.041  33.077  30.134  1.00  0.00     0.016 A 
ATOM      8  C   UNL A   1      36.641  33.652  29.329  1.00  0.00     0.010 A 
ATOM      9  C   UNL A   1      35.137  32.550  30.830  1.00  0.00     0.010 A 
ATOM     10  C   UNL A   1      36.457  32.855  30.462  1.00  0.00    -0.014 A 
BRANCH  10  11
ATOM     11  C   UNL A   1      37.601  32.282  31.237  1.00  0.00     0.031 A 
ATOM     12  C   UNL A   1      38.222  30.995  30.765  1.00  0.00     0.074 A 
ATOM     13  C   UNL A   1      38.079  32.842  32.372  1.00  0.00     0.049 A 
ATOM     14  N   UNL A   1      39.216  30.330  31.292  1.00  0.00    -0.248 NA
ATOM     15  C   UNL A   1      37.686  30.398  29.530  1.00  0.00     0.031 C 
ATOM     16  C   UNL A   1      37.659  34.117  32.946  1.00  0.00     0.029 A 
ATOM     17  N   UNL A   1      39.001  32.374  33.287  1.00  0.00    -0.354 N 
ATOM     18  C   UNL A   1      39.477  29.295  30.409  1.00  0.00     0.074 A 
ATOM     19  C   UNL A   1      38.442  29.320  29.402  1.00  0.00     0.031 C 
ATOM     20  C   UNL A   1      38.225  34.268  34.159  1.00  0.00     0.029 A 
ATOM     21  C   UNL A   1      39.048  33.110  34.455  1.00  0.00     0.049 A 
ATOM     22  H   UNL A   1      39.571  31.589  33.123  1.00  0.00     0.167 HD
ATOM     23  C   UNL A   1      40.551  28.474  30.364  1.00  0.00     0.034 A 
ATOM     24  C   UNL A   1      39.665  32.869  35.631  1.00  0.00     0.034 A 
ATOM     25  C   UNL A   1      41.584  28.439  31.355  1.00  0.00     0.049 A 
ATOM     26  C   UNL A   1      40.670  31.761  35.700  1.00  0.00     0.074 A 
ATOM     27  C   UNL A   1      42.762  27.713  31.352  1.00  0.00     0.029 A 
ATOM     28  N   UNL A   1      41.546  29.137  32.550  1.00  0.00    -0.354 N 
ATOM     29  N   UNL A   1      41.003  30.901  34.774  1.00  0.00    -0.248 NA
ATOM     30  C   UNL A   1      41.476  31.681  36.928  1.00  0.00     0.031 C 
ATOM     31  C   UNL A   1      43.418  27.944  32.566  1.00  0.00     0.029 A 
ATOM     32  C   UNL A   1      42.662  28.834  33.310  1.00  0.00     0.049 A 
ATOM     33  H   UNL A   1      40.831  29.756  32.820  1.00  0.00     0.167 HD
ATOM     34  C   UNL A   1      42.133  30.259  35.257  1.00  0.00     0.074 A 
ATOM     35  C   UNL A   1      42.385  30.781  36.584  1.00  0.00     0.031 C 
ATOM     36  C   UNL A   1      42.923  29.363  34.621  1.00  0.00     0.034 A 
BRANCH  23  37
ATOM     37  C   UNL A   1      40.689  27.640  29.126  1.00  0.00     0.023 A 
ATOM     38  C   UNL A   1      39.984  26.418  29.050  1.00  0.00     0.012 A 
ATOM     39  C   UNL A   1      41.515  28.036  28.063  1.00  0.00     0.148 A 
ATOM     40  C   UNL A   1      40.138  25.577  27.953  1.00  0.00     0.002 A 
ATOM     41  C   UNL A   1      41.636  27.208  26.955  1.00  0.00     0.091 A 
ATOM     42  F   UNL A   1      42.186  29.191  28.172  1.00  0.00    -0.205 F 
ATOM     43  C   UNL A   1      40.961  25.975  26.904  1.00  0.00     0.022 A 
BRANCH  41  44
ATOM     44  S   UNL A   1      42.640  27.636  25.531  1.00  0.00     0.127 S 
ATOM     45  O   UNL A   1      43.962  27.788  26.138  1.00  0.00    -0.237 OA
ATOM     46  O   UNL A   1      42.486  26.451  24.687  1.00  0.00    -0.237 OA
ATOM     47  O   UNL A   1      42.067  28.859  24.986  1.00  0.00    -0.744 OA
ENDBRANCH  41  44
ENDBRANCH  23  37
BRANCH  24  48
ATOM     48  C   UNL A   1      39.446  33.699  36.850  1.00  0.00     0.023 A 
ATOM     49  C   UNL A   1      40.007  34.983  36.962  1.00  0.00     0.012 A 
ATOM     50  C   UNL A   1      38.779  33.149  37.959  1.00  0.00     0.148 A 
ATOM     51  C   UNL A   1      39.898  35.703  38.157  1.00  0.00     0.002 A 
ATOM     52  C   UNL A   1      38.630  33.891  39.129  1.00  0.00     0.091 A 
ATOM     53  F   UNL A   1      38.327  31.888  37.872  1.00  0.00    -0.205 F 
ATOM     54  C   UNL A   1      39.197  35.166  39.236  1.00  0.00     0.022 A 
BRANCH  52  55
ATOM     55  S   UNL A   1      37.544  33.326  40.449  1.00  0.00     0.127 S 
ATOM     56  O   UNL A   1      37.488  34.489  41.327  1.00  0.00    -0.237 OA
ATOM     57  O   UNL A   1      36.308  33.029  39.726  1.00  0.00    -0.237 OA
ATOM     58  O   UNL A   1      38.219  32.144  40.978  1.00  0.00    -0.744 OA
ENDBRANCH  52  55
ENDBRANCH  24  48
BRANCH  36  59
ATOM     59  C   UNL A   1      44.185  28.952  35.319  1.00  0.00     0.023 A 
ATOM     60  C   UNL A   1      45.394  29.624  35.060  1.00  0.00     0.012 A 
ATOM     61  C   UNL A   1      44.157  27.900  36.256  1.00  0.00     0.148 A 
ATOM     62  C   UNL A   1      46.567  29.229  35.700  1.00  0.00     0.002 A 
ATOM     63  C   UNL A   1      45.316  27.553  36.933  1.00  0.00     0.091 A 
ATOM     64  F   UNL A   1      42.999  27.253  36.458  1.00  0.00    -0.205 F 
ATOM     65  C   UNL A   1      46.526  28.205  36.645  1.00  0.00     0.022 A 
BRANCH  63  66
ATOM     66  S   UNL A   1      45.331  26.318  38.234  1.00  0.00     0.127 S 
ATOM     67  O   UNL A   1      44.331  26.846  39.160  1.00  0.00    -0.237 OA
ATOM     68  O   UNL A   1      44.921  25.110  37.516  1.00  0.00    -0.237 OA
ATOM     69  O   UNL A   1      46.697  26.283  38.741  1.00  0.00    -0.744 OA
ENDBRANCH  63  66
ENDBRANCH  36  59
ENDBRANCH  10  11
ENDBRANCH   3   5
ENDBRANCH   2   3
ENDBRANCH   1   2
BRANCH   1  70
ATOM     70  C   UNL A   1      33.010  31.637  26.985  1.00  0.00     0.274 C 
BRANCH  70  71
ATOM     71  O   UNL A   1      32.758  30.331  27.510  1.00  0.00    -0.458 OA
BRANCH  71  72
ATOM     72  C   UNL A   1      33.655  29.356  27.155  1.00  0.00     0.365 C 
ATOM     73  O   UNL A   1      34.768  29.236  27.659  1.00  0.00    -0.245 OA
BRANCH  72  74
ATOM     74  C   UNL A   1      33.141  28.504  25.984  1.00  0.00     0.298 C 
ATOM     75  C   UNL A   1      33.895  27.151  25.968  1.00  0.00     0.115 C 
ATOM     76  N   UNL A   1      31.671  28.316  26.077  1.00  0.00    -0.323 N 
ATOM     77  C   UNL A   1      33.205  26.190  25.058  1.00  0.00    -0.006 A 
ATOM     78  C   UNL A   1      31.078  27.628  24.928  1.00  0.00     0.264 C 
ATOM     79  H   UNL A   1      31.235  29.234  26.159  1.00  0.00     0.347 HD
ATOM     80  H   UNL A   1      31.503  27.724  26.890  1.00  0.00     0.347 HD
ATOM     81  C   UNL A   1      31.906  26.415  24.650  1.00  0.00     0.083 A 
ATOM     82  C   UNL A   1      33.651  25.005  24.420  1.00  0.00     0.003 A 
ATOM     83  N   UNL A   1      31.493  25.331  23.928  1.00  0.00    -0.353 N 
ATOM     84  C   UNL A   1      32.558  24.482  23.722  1.00  0.00     0.046 A 
ATOM     85  C   UNL A   1      34.884  24.331  24.342  1.00  0.00     0.010 A 
ATOM     86  H   UNL A   1      30.575  25.179  23.606  1.00  0.00     0.166 HD
ATOM     87  C   UNL A   1      32.634  23.313  22.959  1.00  0.00     0.026 A 
ATOM     88  C   UNL A   1      34.985  23.179  23.555  1.00  0.00     0.001 A 
ATOM     89  C   UNL A   1      33.874  22.677  22.878  1.00  0.00     0.002 A 
BRANCH  78  90
ATOM     90  C   UNL A   1      30.901  28.519  23.721  1.00  0.00     0.041 A 
ATOM     91  C   UNL A   1      31.931  28.786  22.826  1.00  0.00     0.093 A 
ATOM     92  C   UNL A   1      29.726  29.155  23.157  1.00  0.00     0.009 A 
ATOM     93  N   UNL A   1      31.494  29.675  21.887  1.00  0.00    -0.361 N 
ATOM     94  C   UNL A   1      30.140  29.859  22.025  1.00  0.00     0.046 A 
ATOM     95  C   UNL A   1      28.337  29.184  23.446  1.00  0.00     0.011 A 
ATOM     96  H   UNL A   1      32.062  30.116  21.214  1.00  0.00     0.166 HD
ATOM     97  C   UNL A   1      29.260  30.579  21.209  1.00  0.00     0.026 A 
ATOM     98  C   UNL A   1      27.438  29.854  22.607  1.00  0.00     0.001 A 
ATOM     99  C   UNL A   1      27.899  30.541  21.497  1.00  0.00     0.002 A 
ENDBRANCH  78  90
ENDBRANCH  72  74
ENDBRANCH  71  72
ENDBRANCH  70  71
ENDBRANCH   1  70
TORSDOF 15
ENDMDL
MODEL 3
REMARK VINA RESULT:     -13.0      1.583      1.963
REMARK SMILES O=C(OCCOC(=O)[C@H]1Cc2c([nH]c3ccccc23)[C@H](c2c[nH]c3ccccc23)[NH2+]1)c1ccc(-c2c3nc(c(-c4cccc(S(=O)(=O)[O-])c4F)c4ccc([nH]4)c(-c4cccc(S(=O)(=O)[O-])c4F)c4nc(c(-c5cccc(S(=O)(=O)[O-])c5F)c5ccc2[nH]5)C=C4)C=C3)cc1
REMARK SMILES IDX 4 1 3 2 2 3 1 4 31 5 32 6 93 7 33 8 92 9 34 10 35 11 36 12
REMARK SMILES IDX 86 13 37 14 91 15 85 16 87 17 38 18 90 19 84 20 83 21 39 23
REMARK SMILES IDX 71 24 51 25 70 26 52 27 55 28 69 29 88 30 53 31 54 32 68 34
REMARK SMILES IDX 89 35 56 36 40 37 41 38 49 39 42 40 44 41 50 42 43 43 45 44
REMARK SMILES IDX 46 45 47 46 48 47 72 48 73 49 81 50 74 51 76 52 82 53 75 54
REMARK SMILES IDX 77 55 78 56 79 57 80 58 57 59 58 60 66 61 59 62 61 63 67 64
REMARK SMILES IDX 60 65 62 66 63 67 64 68 65 69 5 70 6 71 7 72 8 73 9 74 10 75
REMARK SMILES IDX 30 76 11 77 20 78 12 81 19 82 13 83 14 84 18 85 15 87 17 88
REMARK SMILES IDX 16 89 21 90 22 91 29 92 23 93 24 94 28 95 25 97 27 98 26 99
REMARK H PARENT 87 22 55 33 30 79 30 80 13 86 23 96
REMARK Flexibility Score: inf
ROOT
ATOM      1  C   UNL A   1      31.493  32.460  26.968  1.00  0.00     0.275 C 
ENDROOT
BRANCH   1   2
ATOM      2  O   UNL A   1      32.391  33.574  27.076  1.00  0.00    -0.458 OA
BRANCH   2   3
ATOM      3  C   UNL A   1      33.165  33.963  28.119  1.00  0.00     0.338 C 
ATOM      4  O   UNL A   1      32.888  35.021  28.683  1.00  0.00    -0.246 OA
BRANCH   3   5
ATOM      5  C   UNL A   1      34.408  33.245  28.550  1.00  0.00     0.060 A 
ATOM      6  C   UNL A   1      35.689  33.380  28.002  1.00  0.00     0.016 A 
ATOM      7  C   UNL A   1      34.250  32.336  29.606  1.00  0.00     0.016 A 
ATOM      8  C   UNL A   1      36.801  32.722  28.564  1.00  0.00     0.010 A 
ATOM      9  C   UNL A   1      35.357  31.685  30.167  1.00  0.00     0.010 A 
ATOM     10  C   UNL A   1      36.657  31.893  29.679  1.00  0.00    -0.014 A 
BRANCH  10  11
ATOM     11  C   UNL A   1      37.815  31.188  30.312  1.00  0.00     0.031 A 
ATOM     12  C   UNL A   1      38.304  31.660  31.655  1.00  0.00     0.074 A 
ATOM     13  C   UNL A   1      38.477  30.171  29.714  1.00  0.00     0.049 A 
ATOM     14  N   UNL A   1      39.291  31.192  32.372  1.00  0.00    -0.248 NA
ATOM     15  C   UNL A   1      37.573  32.771  32.288  1.00  0.00     0.031 C 
ATOM     16  C   UNL A   1      38.114  29.530  28.454  1.00  0.00     0.029 A 
ATOM     17  N   UNL A   1      39.644  29.524  30.071  1.00  0.00    -0.354 N 
ATOM     18  C   UNL A   1      39.241  31.890  33.568  1.00  0.00     0.074 A 
ATOM     19  C   UNL A   1      38.238  32.919  33.422  1.00  0.00     0.031 C 
ATOM     20  C   UNL A   1      39.092  28.678  28.088  1.00  0.00     0.029 A 
ATOM     21  C   UNL A   1      40.151  28.705  29.080  1.00  0.00     0.049 A 
ATOM     22  H   UNL A   1      40.076  29.637  30.948  1.00  0.00     0.167 HD
ATOM     23  C   UNL A   1      39.879  31.621  34.729  1.00  0.00     0.034 A 
ATOM     24  C   UNL A   1      41.337  28.069  28.976  1.00  0.00     0.034 A 
ATOM     25  C   UNL A   1      40.876  30.604  34.888  1.00  0.00     0.049 A 
ATOM     26  C   UNL A   1      42.220  27.997  30.183  1.00  0.00     0.074 A 
ATOM     27  C   UNL A   1      41.512  30.189  36.044  1.00  0.00     0.029 A 
ATOM     28  N   UNL A   1      41.411  29.864  33.848  1.00  0.00    -0.354 N 
ATOM     29  N   UNL A   1      42.048  28.545  31.357  1.00  0.00    -0.248 NA
ATOM     30  C   UNL A   1      43.388  27.107  30.089  1.00  0.00     0.031 C 
ATOM     31  C   UNL A   1      42.461  29.221  35.695  1.00  0.00     0.029 A 
ATOM     32  C   UNL A   1      42.394  29.017  34.327  1.00  0.00     0.049 A 
ATOM     33  H   UNL A   1      41.133  29.930  32.906  1.00  0.00     0.167 HD
ATOM     34  C   UNL A   1      43.012  27.975  32.174  1.00  0.00     0.074 A 
ATOM     35  C   UNL A   1      43.806  27.092  31.346  1.00  0.00     0.031 C 
ATOM     36  C   UNL A   1      43.174  28.128  33.510  1.00  0.00     0.034 A 
BRANCH  23  37
ATOM     37  C   UNL A   1      39.408  32.385  35.930  1.00  0.00     0.023 A 
ATOM     38  C   UNL A   1      38.380  31.831  36.725  1.00  0.00     0.012 A 
ATOM     39  C   UNL A   1      39.947  33.638  36.260  1.00  0.00     0.148 A 
ATOM     40  C   UNL A   1      37.861  32.537  37.806  1.00  0.00     0.002 A 
ATOM     41  C   UNL A   1      39.449  34.320  37.362  1.00  0.00     0.091 A 
ATOM     42  F   UNL A   1      40.908  34.146  35.476  1.00  0.00    -0.205 F 
ATOM     43  C   UNL A   1      38.399  33.779  38.126  1.00  0.00     0.022 A 
BRANCH  41  44
ATOM     44  S   UNL A   1      40.091  35.911  37.887  1.00  0.00     0.127 S 
ATOM     45  O   UNL A   1      39.227  36.215  39.027  1.00  0.00    -0.237 OA
ATOM     46  O   UNL A   1      41.471  35.578  38.237  1.00  0.00    -0.237 OA
ATOM     47  O   UNL A   1      39.943  36.803  36.746  1.00  0.00    -0.744 OA
ENDBRANCH  41  44
ENDBRANCH  23  37
BRANCH  24  48
ATOM     48  C   UNL A   1      41.780  27.373  27.735  1.00  0.00     0.023 A 
ATOM     49  C   UNL A   1      42.228  28.099  26.618  1.00  0.00     0.012 A 
ATOM     50  C   UNL A   1      41.631  25.979  27.625  1.00  0.00     0.148 A 
ATOM     51  C   UNL A   1      42.525  27.443  25.417  1.00  0.00     0.002 A 
ATOM     52  C   UNL A   1      41.977  25.326  26.443  1.00  0.00     0.091 A 
ATOM     53  F   UNL A   1      41.117  25.306  28.666  1.00  0.00    -0.205 F 
ATOM     54  C   UNL A   1      42.416  26.056  25.333  1.00  0.00     0.022 A 
BRANCH  52  55
ATOM     55  S   UNL A   1      42.065  23.529  26.372  1.00  0.00     0.127 S 
ATOM     56  O   UNL A   1      40.660  23.145  26.419  1.00  0.00    -0.237 OA
ATOM     57  O   UNL A   1      42.731  23.304  25.088  1.00  0.00    -0.237 OA
ATOM     58  O   UNL A   1      42.877  23.170  27.531  1.00  0.00    -0.744 OA
ENDBRANCH  52  55
ENDBRANCH  24  48
BRANCH  36  59
ATOM     59  C   UNL A   1      44.198  27.258  34.175  1.00  0.00     0.023 A 
ATOM     60  C   UNL A   1      43.852  25.975  34.636  1.00  0.00     0.012 A 
ATOM     61  C   UNL A   1      45.520  27.720  34.322  1.00  0.00     0.148 A 
ATOM     62  C   UNL A   1      44.803  25.175  35.267  1.00  0.00     0.002 A 
ATOM     63  C   UNL A   1      46.476  26.896  34.897  1.00  0.00     0.091 A 
ATOM     64  F   UNL A   1      45.815  28.961  33.906  1.00  0.00    -0.205 F 
ATOM     65  C   UNL A   1      46.116  25.629  35.385  1.00  0.00     0.022 A 
BRANCH  63  66
ATOM     66  S   UNL A   1      48.206  27.360  34.996  1.00  0.00     0.127 S 
ATOM     67  O   UNL A   1      48.777  26.235  35.735  1.00  0.00    -0.237 OA
ATOM     68  O   UNL A   1      48.588  27.421  33.584  1.00  0.00    -0.237 OA
ATOM     69  O   UNL A   1      48.240  28.643  35.685  1.00  0.00    -0.744 OA
ENDBRANCH  63  66
ENDBRANCH  36  59
ENDBRANCH  10  11
ENDBRANCH   3   5
ENDBRANCH   2   3
ENDBRANCH   1   2
BRANCH   1  70
ATOM     70  C   UNL A   1      32.127  31.161  26.473  1.00  0.00     0.274 C 
BRANCH  70  71
ATOM     71  O   UNL A   1      32.626  30.330  27.526  1.00  0.00    -0.458 OA
BRANCH  71  72
ATOM     72  C   UNL A   1      33.563  29.396  27.162  1.00  0.00     0.365 C 
ATOM     73  O   UNL A   1      34.677  29.312  27.671  1.00  0.00    -0.245 OA
BRANCH  72  74
ATOM     74  C   UNL A   1      33.090  28.543  25.974  1.00  0.00     0.298 C 
ATOM     75  C   UNL A   1      33.886  27.215  25.951  1.00  0.00     0.115 C 
ATOM     76  N   UNL A   1      31.625  28.307  26.048  1.00  0.00    -0.323 N 
ATOM     77  C   UNL A   1      33.238  26.244  25.021  1.00  0.00    -0.006 A 
ATOM     78  C   UNL A   1      31.067  27.616  24.884  1.00  0.00     0.264 C 
ATOM     79  H   UNL A   1      31.159  29.210  26.137  1.00  0.00     0.347 HD
ATOM     80  H   UNL A   1      31.467  27.700  26.852  1.00  0.00     0.347 HD
ATOM     81  C   UNL A   1      31.937  26.433  24.601  1.00  0.00     0.083 A 
ATOM     82  C   UNL A   1      33.728  25.082  24.374  1.00  0.00     0.003 A 
ATOM     83  N   UNL A   1      31.567  25.345  23.861  1.00  0.00    -0.353 N 
ATOM     84  C   UNL A   1      32.660  24.534  23.658  1.00  0.00     0.046 A 
ATOM     85  C   UNL A   1      34.983  24.449  24.302  1.00  0.00     0.010 A 
ATOM     86  H   UNL A   1      30.658  25.168  23.527  1.00  0.00     0.166 HD
ATOM     87  C   UNL A   1      32.782  23.377  22.881  1.00  0.00     0.026 A 
ATOM     88  C   UNL A   1      35.130  23.311  23.502  1.00  0.00     0.001 A 
ATOM     89  C   UNL A   1      34.043  22.782  22.806  1.00  0.00     0.002 A 
BRANCH  78  90
ATOM     90  C   UNL A   1      30.875  28.516  23.687  1.00  0.00     0.041 A 
ATOM     91  C   UNL A   1      31.900  28.807  22.793  1.00  0.00     0.093 A 
ATOM     92  C   UNL A   1      29.690  29.139  23.130  1.00  0.00     0.009 A 
ATOM     93  N   UNL A   1      31.449  29.699  21.863  1.00  0.00    -0.361 N 
ATOM     94  C   UNL A   1      30.092  29.861  22.005  1.00  0.00     0.046 A 
ATOM     95  C   UNL A   1      28.302  29.144  23.420  1.00  0.00     0.011 A 
ATOM     96  H   UNL A   1      32.009  30.154  21.194  1.00  0.00     0.166 HD
ATOM     97  C   UNL A   1      29.200  30.575  21.197  1.00  0.00     0.026 A 
ATOM     98  C   UNL A   1      27.392  29.808  22.589  1.00  0.00     0.001 A 
ATOM     99  C   UNL A   1      27.840  30.514  21.485  1.00  0.00     0.002 A 
ENDBRANCH  78  90
ENDBRANCH  72  74
ENDBRANCH  71  72
ENDBRANCH  70  71
ENDBRANCH   1  70
TORSDOF 15
ENDMDL
