MODEL 1
REMARK VINA RESULT:     -12.3      0.000      0.000
REMARK SMILES Cc1ccc(Nc2c(F)cccc2I)c(CC(=O)OCCOC(=O)c2ccc(-c3c4nc(c(-c5cccc(S(=O)(=O)[O-])c5F)c5ccc([nH]5)c(-c5cccc(S(=O)(=O)[O-])c5F)c5nc(c(-c6cccc(S(=O)(=O)[O-])c6F)c6ccc3[nH]6)C=C5)C=C4)cc2)c1
REMARK SMILES IDX 20 1 19 2 17 3 18 4 16 5 15 6 1 7 2 8 3 9 88 10 4 11 5 12
REMARK SMILES IDX 6 13 7 15 8 16 13 17 9 18 10 19 12 20 14 21 11 22 21 23
REMARK SMILES IDX 22 24 23 25 24 26 25 27 26 28 87 29 27 30 86 31 28 32 29 33
REMARK SMILES IDX 30 34 80 35 31 36 85 37 79 38 81 39 32 40 84 41 78 42 77 43
REMARK SMILES IDX 33 45 65 46 45 47 64 48 46 49 49 50 63 51 82 52 47 53 48 54
REMARK SMILES IDX 62 56 83 57 50 58 34 59 35 60 43 61 36 62 38 63 44 64 37 65
REMARK SMILES IDX 39 66 40 67 41 68 42 69 66 70 67 71 75 72 68 73 70 74 76 75
REMARK SMILES IDX 69 76 71 77 72 78 73 79 74 80 51 81 52 82 60 83 53 84 55 85
REMARK SMILES IDX 61 86 54 87 56 88 57 89 58 90 59 91
REMARK H PARENT 6 14 81 44 49 55
REMARK Flexibility Score: inf
ROOT
ATOM      1  C   UNL A   1      32.909  30.594  27.194  1.00  0.00     0.274 C 
ENDROOT
BRANCH   1   2
ATOM      2  O   UNL A   1      32.732  30.107  25.874  1.00  0.00    -0.462 OA
BRANCH   2   3
ATOM      3  C   UNL A   1      31.905  29.050  25.719  1.00  0.00     0.310 C 
ATOM      4  O   UNL A   1      31.340  28.492  26.651  1.00  0.00    -0.252 OA
BRANCH   3   5
ATOM      5  C   UNL A   1      31.797  28.766  24.245  1.00  0.00     0.160 C 
BRANCH   5   6
ATOM      6  C   UNL A   1      30.404  28.720  23.683  1.00  0.00    -0.013 A 
ATOM      7  C   UNL A   1      27.947  31.562  23.395  1.00  0.00     0.044 C 
ATOM      8  C   UNL A   1      28.494  30.172  23.328  1.00  0.00    -0.051 A 
ATOM      9  C   UNL A   1      27.681  29.041  23.322  1.00  0.00     0.005 A 
ATOM     10  C   UNL A   1      29.860  29.997  23.459  1.00  0.00     0.009 A 
ATOM     11  C   UNL A   1      28.244  27.757  23.355  1.00  0.00     0.026 A 
ATOM     12  C   UNL A   1      29.623  27.561  23.468  1.00  0.00     0.042 A 
BRANCH  12  13
ATOM     13  N   UNL A   1      30.163  26.255  23.531  1.00  0.00    -0.352 N 
ATOM     14  H   UNL A   1      29.837  25.650  22.826  1.00  0.00     0.167 HD
BRANCH  13  15
ATOM     15  C   UNL A   1      31.097  25.651  24.430  1.00  0.00     0.088 A 
ATOM     16  C   UNL A   1      30.741  25.316  25.748  1.00  0.00     0.147 A 
ATOM     17  C   UNL A   1      32.321  25.119  23.969  1.00  0.00     0.040 A 
ATOM     18  F   UNL A   1      29.602  25.778  26.286  1.00  0.00    -0.205 F 
ATOM     19  C   UNL A   1      31.547  24.504  26.556  1.00  0.00     0.041 A 
ATOM     20  C   UNL A   1      33.080  24.221  24.739  1.00  0.00     0.017 A 
ATOM     21  I   UNL A   1      33.296  25.822  22.248  1.00  0.00    -0.042 I 
ATOM     22  C   UNL A   1      32.698  23.921  26.039  1.00  0.00     0.004 A 
ENDBRANCH  13  15
ENDBRANCH  12  13
ENDBRANCH   5   6
ENDBRANCH   3   5
ENDBRANCH   2   3
ENDBRANCH   1   2
BRANCH   1  23
ATOM     23  C   UNL A   1      34.356  31.017  27.539  1.00  0.00     0.275 C 
BRANCH  23  24
ATOM     24  O   UNL A   1      35.402  30.014  27.845  1.00  0.00    -0.458 OA
BRANCH  24  25
ATOM     25  C   UNL A   1      36.328  29.797  28.834  1.00  0.00     0.338 C 
ATOM     26  O   UNL A   1      36.032  29.935  30.012  1.00  0.00    -0.246 OA
BRANCH  25  27
ATOM     27  C   UNL A   1      37.592  29.159  28.458  1.00  0.00     0.060 A 
ATOM     28  C   UNL A   1      38.407  29.514  27.369  1.00  0.00     0.016 A 
ATOM     29  C   UNL A   1      38.062  28.285  29.385  1.00  0.00     0.016 A 
ATOM     30  C   UNL A   1      39.712  28.995  27.314  1.00  0.00     0.010 A 
ATOM     31  C   UNL A   1      39.400  28.271  29.581  1.00  0.00     0.010 A 
ATOM     32  C   UNL A   1      40.184  28.348  28.448  1.00  0.00    -0.014 A 
BRANCH  32  33
ATOM     33  C   UNL A   1      41.295  27.420  28.596  1.00  0.00     0.031 A 
ATOM     34  C   UNL A   1      41.127  25.996  28.347  1.00  0.00     0.074 A 
ATOM     35  C   UNL A   1      42.499  28.051  28.708  1.00  0.00     0.049 A 
ATOM     36  N   UNL A   1      41.749  25.094  29.013  1.00  0.00    -0.248 NA
ATOM     37  C   UNL A   1      40.247  25.466  27.306  1.00  0.00     0.031 C 
ATOM     38  C   UNL A   1      43.867  27.625  28.496  1.00  0.00     0.029 A 
ATOM     39  N   UNL A   1      42.661  29.411  29.046  1.00  0.00    -0.354 N 
ATOM     40  C   UNL A   1      41.645  23.939  28.270  1.00  0.00     0.074 A 
ATOM     41  C   UNL A   1      40.564  24.164  27.336  1.00  0.00     0.031 C 
ATOM     42  C   UNL A   1      44.691  28.568  29.017  1.00  0.00     0.029 A 
ATOM     43  C   UNL A   1      43.864  29.567  29.698  1.00  0.00     0.049 A 
ATOM     44  H   UNL A   1      42.020  30.131  28.847  1.00  0.00     0.167 HD
ATOM     45  C   UNL A   1      42.668  23.041  28.304  1.00  0.00     0.034 A 
ATOM     46  C   UNL A   1      43.769  29.865  31.027  1.00  0.00     0.034 A 
ATOM     47  C   UNL A   1      43.811  23.624  29.032  1.00  0.00     0.049 A 
ATOM     48  C   UNL A   1      44.247  28.699  31.845  1.00  0.00     0.074 A 
ATOM     49  C   UNL A   1      44.948  24.274  28.578  1.00  0.00     0.029 A 
ATOM     50  N   UNL A   1      43.706  23.927  30.384  1.00  0.00    -0.354 N 
ATOM     51  N   UNL A   1      44.439  27.507  31.358  1.00  0.00    -0.248 NA
ATOM     52  C   UNL A   1      44.542  28.780  33.266  1.00  0.00     0.031 C 
ATOM     53  C   UNL A   1      45.494  25.019  29.655  1.00  0.00     0.029 A 
ATOM     54  C   UNL A   1      44.696  24.823  30.770  1.00  0.00     0.049 A 
ATOM     55  H   UNL A   1      43.023  23.555  30.989  1.00  0.00     0.167 HD
ATOM     56  C   UNL A   1      44.733  26.640  32.362  1.00  0.00     0.074 A 
ATOM     57  C   UNL A   1      44.878  27.504  33.525  1.00  0.00     0.031 C 
ATOM     58  C   UNL A   1      44.764  25.290  32.154  1.00  0.00     0.034 A 
BRANCH  45  59
ATOM     59  C   UNL A   1      42.808  21.849  27.379  1.00  0.00     0.023 A 
ATOM     60  C   UNL A   1      41.923  20.764  27.582  1.00  0.00     0.012 A 
ATOM     61  C   UNL A   1      43.714  21.725  26.299  1.00  0.00     0.148 A 
ATOM     62  C   UNL A   1      41.969  19.597  26.819  1.00  0.00     0.002 A 
ATOM     63  C   UNL A   1      43.784  20.539  25.553  1.00  0.00     0.091 A 
ATOM     64  F   UNL A   1      44.477  22.772  25.958  1.00  0.00    -0.205 F 
ATOM     65  C   UNL A   1      42.912  19.476  25.814  1.00  0.00     0.022 A 
BRANCH  63  66
ATOM     66  S   UNL A   1      45.005  20.257  24.259  1.00  0.00     0.127 S 
ATOM     67  O   UNL A   1      46.263  20.538  24.955  1.00  0.00    -0.237 OA
ATOM     68  O   UNL A   1      44.798  18.848  23.930  1.00  0.00    -0.237 OA
ATOM     69  O   UNL A   1      44.692  21.206  23.198  1.00  0.00    -0.744 OA
ENDBRANCH  63  66
ENDBRANCH  45  59
BRANCH  46  70
ATOM     70  C   UNL A   1      42.559  30.719  31.376  1.00  0.00     0.023 A 
ATOM     71  C   UNL A   1      42.360  31.928  30.655  1.00  0.00     0.012 A 
ATOM     72  C   UNL A   1      41.484  30.245  32.156  1.00  0.00     0.148 A 
ATOM     73  C   UNL A   1      41.117  32.578  30.633  1.00  0.00     0.002 A 
ATOM     74  C   UNL A   1      40.259  30.922  32.161  1.00  0.00     0.091 A 
ATOM     75  F   UNL A   1      41.632  29.106  32.848  1.00  0.00    -0.205 F 
ATOM     76  C   UNL A   1      40.060  32.065  31.374  1.00  0.00     0.022 A 
BRANCH  74  77
ATOM     77  S   UNL A   1      38.920  30.355  33.224  1.00  0.00     0.127 S 
ATOM     78  O   UNL A   1      37.756  31.084  32.716  1.00  0.00    -0.237 OA
ATOM     79  O   UNL A   1      38.874  28.918  32.989  1.00  0.00    -0.237 OA
ATOM     80  O   UNL A   1      39.363  30.792  34.545  1.00  0.00    -0.744 OA
ENDBRANCH  74  77
ENDBRANCH  46  70
BRANCH  58  81
ATOM     81  C   UNL A   1      44.859  24.270  33.257  1.00  0.00     0.023 A 
ATOM     82  C   UNL A   1      43.809  23.383  33.551  1.00  0.00     0.012 A 
ATOM     83  C   UNL A   1      46.079  24.077  33.949  1.00  0.00     0.148 A 
ATOM     84  C   UNL A   1      43.924  22.417  34.551  1.00  0.00     0.002 A 
ATOM     85  C   UNL A   1      46.234  23.021  34.834  1.00  0.00     0.091 A 
ATOM     86  F   UNL A   1      47.098  24.931  33.771  1.00  0.00    -0.205 F 
ATOM     87  C   UNL A   1      45.146  22.219  35.176  1.00  0.00     0.022 A 
BRANCH  85  88
ATOM     88  S   UNL A   1      47.862  22.555  35.430  1.00  0.00     0.127 S 
ATOM     89  O   UNL A   1      47.599  21.249  36.029  1.00  0.00    -0.237 OA
ATOM     90  O   UNL A   1      48.645  22.514  34.193  1.00  0.00    -0.237 OA
ATOM     91  O   UNL A   1      48.252  23.616  36.348  1.00  0.00    -0.744 OA
ENDBRANCH  85  88
ENDBRANCH  58  81
ENDBRANCH  32  33
ENDBRANCH  25  27
ENDBRANCH  24  25
ENDBRANCH  23  24
ENDBRANCH   1  23
TORSDOF 17
ENDMDL
MODEL 2
REMARK VINA RESULT:     -12.3      4.538     10.424
REMARK SMILES Cc1ccc(Nc2c(F)cccc2I)c(CC(=O)OCCOC(=O)c2ccc(-c3c4nc(c(-c5cccc(S(=O)(=O)[O-])c5F)c5ccc([nH]5)c(-c5cccc(S(=O)(=O)[O-])c5F)c5nc(c(-c6cccc(S(=O)(=O)[O-])c6F)c6ccc3[nH]6)C=C5)C=C4)cc2)c1
REMARK SMILES IDX 20 1 19 2 17 3 18 4 16 5 15 6 1 7 2 8 3 9 88 10 4 11 5 12
REMARK SMILES IDX 6 13 7 15 8 16 13 17 9 18 10 19 12 20 14 21 11 22 21 23
REMARK SMILES IDX 22 24 23 25 24 26 25 27 26 28 87 29 27 30 86 31 28 32 29 33
REMARK SMILES IDX 30 34 80 35 31 36 85 37 79 38 81 39 32 40 84 41 78 42 77 43
REMARK SMILES IDX 33 45 65 46 45 47 64 48 46 49 49 50 63 51 82 52 47 53 48 54
REMARK SMILES IDX 62 56 83 57 50 58 34 59 35 60 43 61 36 62 38 63 44 64 37 65
REMARK SMILES IDX 39 66 40 67 41 68 42 69 66 70 67 71 75 72 68 73 70 74 76 75
REMARK SMILES IDX 69 76 71 77 72 78 73 79 74 80 51 81 52 82 60 83 53 84 55 85
REMARK SMILES IDX 61 86 54 87 56 88 57 89 58 90 59 91
REMARK H PARENT 6 14 81 44 49 55
REMARK Flexibility Score: inf
ROOT
ATOM      1  C   UNL A   1      36.319  23.115  25.567  1.00  0.00     0.274 C 
ENDROOT
BRANCH   1   2
ATOM      2  O   UNL A   1      35.436  22.744  26.614  1.00  0.00    -0.462 OA
BRANCH   2   3
ATOM      3  C   UNL A   1      34.696  21.629  26.422  1.00  0.00     0.310 C 
ATOM      4  O   UNL A   1      33.960  21.151  27.276  1.00  0.00    -0.252 OA
BRANCH   3   5
ATOM      5  C   UNL A   1      34.920  21.170  25.006  1.00  0.00     0.160 C 
BRANCH   5   6
ATOM      6  C   UNL A   1      33.834  20.319  24.410  1.00  0.00    -0.013 A 
ATOM      7  C   UNL A   1      33.856  16.585  23.902  1.00  0.00     0.044 C 
ATOM      8  C   UNL A   1      33.387  18.003  23.842  1.00  0.00    -0.051 A 
ATOM      9  C   UNL A   1      32.457  18.451  22.907  1.00  0.00     0.005 A 
ATOM     10  C   UNL A   1      34.035  18.944  24.624  1.00  0.00     0.009 A 
ATOM     11  C   UNL A   1      32.120  19.810  22.828  1.00  0.00     0.026 A 
ATOM     12  C   UNL A   1      32.749  20.771  23.623  1.00  0.00     0.042 A 
BRANCH  12  13
ATOM     13  N   UNL A   1      32.414  22.140  23.502  1.00  0.00    -0.352 N 
ATOM     14  H   UNL A   1      32.409  22.473  22.576  1.00  0.00     0.167 HD
BRANCH  13  15
ATOM     15  C   UNL A   1      32.079  23.130  24.478  1.00  0.00     0.088 A 
ATOM     16  C   UNL A   1      31.359  22.807  25.640  1.00  0.00     0.147 A 
ATOM     17  C   UNL A   1      32.677  24.410  24.460  1.00  0.00     0.040 A 
ATOM     18  F   UNL A   1      30.743  21.620  25.755  1.00  0.00    -0.205 F 
ATOM     19  C   UNL A   1      31.240  23.695  26.717  1.00  0.00     0.041 A 
ATOM     20  C   UNL A   1      32.649  25.261  25.579  1.00  0.00     0.017 A 
ATOM     21  I   UNL A   1      33.400  25.308  22.706  1.00  0.00    -0.042 I 
ATOM     22  C   UNL A   1      31.920  24.907  26.706  1.00  0.00     0.004 A 
ENDBRANCH  13  15
ENDBRANCH  12  13
ENDBRANCH   5   6
ENDBRANCH   3   5
ENDBRANCH   2   3
ENDBRANCH   1   2
BRANCH   1  23
ATOM     23  C   UNL A   1      37.559  23.919  26.023  1.00  0.00     0.275 C 
BRANCH  23  24
ATOM     24  O   UNL A   1      38.817  23.242  26.416  1.00  0.00    -0.458 OA
BRANCH  24  25
ATOM     25  C   UNL A   1      40.055  23.611  26.878  1.00  0.00     0.338 C 
ATOM     26  O   UNL A   1      41.004  22.844  26.810  1.00  0.00    -0.246 OA
BRANCH  25  27
ATOM     27  C   UNL A   1      40.265  25.019  27.219  1.00  0.00     0.060 A 
ATOM     28  C   UNL A   1      40.534  26.060  26.313  1.00  0.00     0.016 A 
ATOM     29  C   UNL A   1      39.975  25.320  28.512  1.00  0.00     0.016 A 
ATOM     30  C   UNL A   1      40.429  27.386  26.767  1.00  0.00     0.010 A 
ATOM     31  C   UNL A   1      39.372  26.510  28.736  1.00  0.00     0.010 A 
ATOM     32  C   UNL A   1      39.852  27.584  28.015  1.00  0.00    -0.014 A 
BRANCH  32  33
ATOM     33  C   UNL A   1      39.921  28.736  28.900  1.00  0.00     0.031 A 
ATOM     34  C   UNL A   1      38.822  29.686  28.989  1.00  0.00     0.074 A 
ATOM     35  C   UNL A   1      40.954  28.660  29.788  1.00  0.00     0.049 A 
ATOM     36  N   UNL A   1      38.999  30.942  29.178  1.00  0.00    -0.248 NA
ATOM     37  C   UNL A   1      37.417  29.293  28.889  1.00  0.00     0.031 C 
ATOM     38  C   UNL A   1      41.222  29.302  31.057  1.00  0.00     0.029 A 
ATOM     39  N   UNL A   1      42.067  27.805  29.647  1.00  0.00    -0.354 N 
ATOM     40  C   UNL A   1      37.779  31.437  29.583  1.00  0.00     0.074 A 
ATOM     41  C   UNL A   1      36.802  30.440  29.211  1.00  0.00     0.031 C 
ATOM     42  C   UNL A   1      42.519  29.077  31.382  1.00  0.00     0.029 A 
ATOM     43  C   UNL A   1      43.155  28.390  30.257  1.00  0.00     0.049 A 
ATOM     44  H   UNL A   1      42.067  26.934  29.189  1.00  0.00     0.167 HD
ATOM     45  C   UNL A   1      37.753  32.481  30.459  1.00  0.00     0.034 A 
ATOM     46  C   UNL A   1      44.133  28.822  29.407  1.00  0.00     0.034 A 
ATOM     47  C   UNL A   1      39.118  32.747  30.950  1.00  0.00     0.049 A 
ATOM     48  C   UNL A   1      44.178  30.325  29.406  1.00  0.00     0.074 A 
ATOM     49  C   UNL A   1      39.770  32.337  32.103  1.00  0.00     0.029 A 
ATOM     50  N   UNL A   1      40.108  33.185  30.080  1.00  0.00    -0.354 N 
ATOM     51  N   UNL A   1      43.242  31.074  29.913  1.00  0.00    -0.248 NA
ATOM     52  C   UNL A   1      45.271  31.096  28.839  1.00  0.00     0.031 C 
ATOM     53  C   UNL A   1      41.168  32.477  31.895  1.00  0.00     0.029 A 
ATOM     54  C   UNL A   1      41.372  32.975  30.620  1.00  0.00     0.049 A 
ATOM     55  H   UNL A   1      39.939  33.590  29.198  1.00  0.00     0.167 HD
ATOM     56  C   UNL A   1      43.497  32.380  29.638  1.00  0.00     0.074 A 
ATOM     57  C   UNL A   1      44.827  32.348  29.046  1.00  0.00     0.031 C 
ATOM     58  C   UNL A   1      42.565  33.353  29.863  1.00  0.00     0.034 A 
BRANCH  45  59
ATOM     59  C   UNL A   1      36.513  32.984  31.170  1.00  0.00     0.023 A 
ATOM     60  C   UNL A   1      36.283  32.512  32.484  1.00  0.00     0.012 A 
ATOM     61  C   UNL A   1      35.574  33.914  30.665  1.00  0.00     0.148 A 
ATOM     62  C   UNL A   1      35.163  32.874  33.233  1.00  0.00     0.002 A 
ATOM     63  C   UNL A   1      34.431  34.254  31.404  1.00  0.00     0.091 A 
ATOM     64  F   UNL A   1      35.809  34.514  29.490  1.00  0.00    -0.205 F 
ATOM     65  C   UNL A   1      34.226  33.733  32.687  1.00  0.00     0.022 A 
BRANCH  63  66
ATOM     66  S   UNL A   1      33.124  35.320  30.769  1.00  0.00     0.127 S 
ATOM     67  O   UNL A   1      32.750  34.642  29.525  1.00  0.00    -0.237 OA
ATOM     68  O   UNL A   1      32.117  35.248  31.824  1.00  0.00    -0.237 OA
ATOM     69  O   UNL A   1      33.737  36.628  30.567  1.00  0.00    -0.744 OA
ENDBRANCH  63  66
ENDBRANCH  45  59
BRANCH  46  70
ATOM     70  C   UNL A   1      44.287  27.960  28.163  1.00  0.00     0.023 A 
ATOM     71  C   UNL A   1      43.778  28.460  26.933  1.00  0.00     0.012 A 
ATOM     72  C   UNL A   1      45.149  26.846  28.103  1.00  0.00     0.148 A 
ATOM     73  C   UNL A   1      44.189  27.937  25.698  1.00  0.00     0.002 A 
ATOM     74  C   UNL A   1      45.522  26.303  26.867  1.00  0.00     0.091 A 
ATOM     75  F   UNL A   1      45.652  26.349  29.241  1.00  0.00    -0.205 F 
ATOM     76  C   UNL A   1      45.075  26.867  25.664  1.00  0.00     0.022 A 
BRANCH  74  77
ATOM     77  S   UNL A   1      46.556  24.830  26.805  1.00  0.00     0.127 S 
ATOM     78  O   UNL A   1      47.904  25.357  27.028  1.00  0.00    -0.237 OA
ATOM     79  O   UNL A   1      46.050  24.003  27.893  1.00  0.00    -0.237 OA
ATOM     80  O   UNL A   1      46.326  24.344  25.448  1.00  0.00    -0.744 OA
ENDBRANCH  74  77
ENDBRANCH  46  70
BRANCH  58  81
ATOM     81  C   UNL A   1      42.694  34.772  29.378  1.00  0.00     0.023 A 
ATOM     82  C   UNL A   1      41.930  35.272  28.309  1.00  0.00     0.012 A 
ATOM     83  C   UNL A   1      43.499  35.698  30.084  1.00  0.00     0.148 A 
ATOM     84  C   UNL A   1      42.033  36.600  27.893  1.00  0.00     0.002 A 
ATOM     85  C   UNL A   1      43.483  37.046  29.759  1.00  0.00     0.091 A 
ATOM     86  F   UNL A   1      44.308  35.277  31.067  1.00  0.00    -0.205 F 
ATOM     87  C   UNL A   1      42.790  37.494  28.634  1.00  0.00     0.022 A 
BRANCH  85  88
ATOM     88  S   UNL A   1      44.203  38.265  30.863  1.00  0.00     0.127 S 
ATOM     89  O   UNL A   1      43.730  37.806  32.167  1.00  0.00    -0.237 OA
ATOM     90  O   UNL A   1      45.637  38.083  30.633  1.00  0.00    -0.237 OA
ATOM     91  O   UNL A   1      43.684  39.547  30.406  1.00  0.00    -0.744 OA
ENDBRANCH  85  88
ENDBRANCH  58  81
ENDBRANCH  32  33
ENDBRANCH  25  27
ENDBRANCH  24  25
ENDBRANCH  23  24
ENDBRANCH   1  23
TORSDOF 17
ENDMDL
MODEL 3
REMARK VINA RESULT:     -12.2      2.074      2.902
REMARK SMILES Cc1ccc(Nc2c(F)cccc2I)c(CC(=O)OCCOC(=O)c2ccc(-c3c4nc(c(-c5cccc(S(=O)(=O)[O-])c5F)c5ccc([nH]5)c(-c5cccc(S(=O)(=O)[O-])c5F)c5nc(c(-c6cccc(S(=O)(=O)[O-])c6F)c6ccc3[nH]6)C=C5)C=C4)cc2)c1
REMARK SMILES IDX 20 1 19 2 17 3 18 4 16 5 15 6 1 7 2 8 3 9 88 10 4 11 5 12
REMARK SMILES IDX 6 13 7 15 8 16 13 17 9 18 10 19 12 20 14 21 11 22 21 23
REMARK SMILES IDX 22 24 23 25 24 26 25 27 26 28 87 29 27 30 86 31 28 32 29 33
REMARK SMILES IDX 30 34 80 35 31 36 85 37 79 38 81 39 32 40 84 41 78 42 77 43
REMARK SMILES IDX 33 45 65 46 45 47 64 48 46 49 49 50 63 51 82 52 47 53 48 54
REMARK SMILES IDX 62 56 83 57 50 58 34 59 35 60 43 61 36 62 38 63 44 64 37 65
REMARK SMILES IDX 39 66 40 67 41 68 42 69 66 70 67 71 75 72 68 73 70 74 76 75
REMARK SMILES IDX 69 76 71 77 72 78 73 79 74 80 51 81 52 82 60 83 53 84 55 85
REMARK SMILES IDX 61 86 54 87 56 88 57 89 58 90 59 91
REMARK H PARENT 6 14 81 44 49 55
REMARK Flexibility Score: inf
ROOT
ATOM      1  C   UNL A   1      32.520  28.584  27.512  1.00  0.00     0.274 C 
ENDROOT
BRANCH   1   2
ATOM      2  O   UNL A   1      31.568  28.580  26.461  1.00  0.00    -0.462 OA
BRANCH   2   3
ATOM      3  C   UNL A   1      31.623  29.606  25.583  1.00  0.00     0.310 C 
ATOM      4  O   UNL A   1      31.756  30.776  25.919  1.00  0.00    -0.252 OA
BRANCH   3   5
ATOM      5  C   UNL A   1      31.547  29.026  24.197  1.00  0.00     0.160 C 
BRANCH   5   6
ATOM      6  C   UNL A   1      30.170  28.909  23.606  1.00  0.00    -0.013 A 
ATOM      7  C   UNL A   1      27.562  31.612  23.301  1.00  0.00     0.044 C 
ATOM      8  C   UNL A   1      28.188  30.256  23.229  1.00  0.00    -0.051 A 
ATOM      9  C   UNL A   1      27.441  29.081  23.194  1.00  0.00     0.005 A 
ATOM     10  C   UNL A   1      29.560  30.156  23.386  1.00  0.00     0.009 A 
ATOM     11  C   UNL A   1      28.075  27.830  23.223  1.00  0.00     0.026 A 
ATOM     12  C   UNL A   1      29.460  27.710  23.362  1.00  0.00     0.042 A 
BRANCH  12  13
ATOM     13  N   UNL A   1      30.072  26.436  23.420  1.00  0.00    -0.352 N 
ATOM     14  H   UNL A   1      29.785  25.819  22.708  1.00  0.00     0.167 HD
BRANCH  13  15
ATOM     15  C   UNL A   1      31.030  25.879  24.323  1.00  0.00     0.088 A 
ATOM     16  C   UNL A   1      30.686  25.526  25.639  1.00  0.00     0.147 A 
ATOM     17  C   UNL A   1      32.282  25.409  23.866  1.00  0.00     0.040 A 
ATOM     18  F   UNL A   1      29.523  25.930  26.173  1.00  0.00    -0.205 F 
ATOM     19  C   UNL A   1      31.529  24.755  26.450  1.00  0.00     0.041 A 
ATOM     20  C   UNL A   1      33.081  24.549  24.639  1.00  0.00     0.017 A 
ATOM     21  I   UNL A   1      33.227  26.162  22.149  1.00  0.00    -0.042 I 
ATOM     22  C   UNL A   1      32.710  24.230  25.937  1.00  0.00     0.004 A 
ENDBRANCH  13  15
ENDBRANCH  12  13
ENDBRANCH   5   6
ENDBRANCH   3   5
ENDBRANCH   2   3
ENDBRANCH   1   2
BRANCH   1  23
ATOM     23  C   UNL A   1      33.991  28.712  27.052  1.00  0.00     0.275 C 
BRANCH  23  24
ATOM     24  O   UNL A   1      34.732  29.989  27.176  1.00  0.00    -0.458 OA
BRANCH  24  25
ATOM     25  C   UNL A   1      35.357  30.695  28.173  1.00  0.00     0.338 C 
ATOM     26  O   UNL A   1      34.790  31.618  28.738  1.00  0.00    -0.246 OA
BRANCH  25  27
ATOM     27  C   UNL A   1      36.611  30.160  28.706  1.00  0.00     0.060 A 
ATOM     28  C   UNL A   1      36.745  29.338  29.839  1.00  0.00     0.016 A 
ATOM     29  C   UNL A   1      37.679  30.345  27.888  1.00  0.00     0.016 A 
ATOM     30  C   UNL A   1      37.972  28.685  30.050  1.00  0.00     0.010 A 
ATOM     31  C   UNL A   1      38.573  29.332  27.818  1.00  0.00     0.010 A 
ATOM     32  C   UNL A   1      38.893  28.716  29.010  1.00  0.00    -0.014 A 
BRANCH  32  33
ATOM     33  C   UNL A   1      40.326  28.471  29.029  1.00  0.00     0.031 A 
ATOM     34  C   UNL A   1      40.886  27.228  28.518  1.00  0.00     0.074 A 
ATOM     35  C   UNL A   1      41.051  29.594  29.299  1.00  0.00     0.049 A 
ATOM     36  N   UNL A   1      41.917  26.665  29.032  1.00  0.00    -0.248 NA
ATOM     37  C   UNL A   1      40.333  26.517  27.366  1.00  0.00     0.031 C 
ATOM     38  C   UNL A   1      42.431  29.965  29.066  1.00  0.00     0.029 A 
ATOM     39  N   UNL A   1      40.525  30.764  29.884  1.00  0.00    -0.354 N 
ATOM     40  C   UNL A   1      42.365  25.768  28.088  1.00  0.00     0.074 A 
ATOM     41  C   UNL A   1      41.265  25.574  27.170  1.00  0.00     0.031 C 
ATOM     42  C   UNL A   1      42.696  31.087  29.780  1.00  0.00     0.029 A 
ATOM     43  C   UNL A   1      41.521  31.391  30.599  1.00  0.00     0.049 A 
ATOM     44  H   UNL A   1      39.597  31.081  29.796  1.00  0.00     0.167 HD
ATOM     45  C   UNL A   1      43.703  25.523  27.998  1.00  0.00     0.034 A 
ATOM     46  C   UNL A   1      41.368  31.361  31.956  1.00  0.00     0.034 A 
ATOM     47  C   UNL A   1      44.436  26.467  28.862  1.00  0.00     0.049 A 
ATOM     48  C   UNL A   1      42.418  30.475  32.566  1.00  0.00     0.074 A 
ATOM     49  C   UNL A   1      45.060  27.671  28.577  1.00  0.00     0.029 A 
ATOM     50  N   UNL A   1      44.274  26.431  30.242  1.00  0.00    -0.354 N 
ATOM     51  N   UNL A   1      43.155  29.652  31.877  1.00  0.00    -0.248 NA
ATOM     52  C   UNL A   1      42.717  30.444  33.988  1.00  0.00     0.031 C 
ATOM     53  C   UNL A   1      45.218  28.388  29.793  1.00  0.00     0.029 A 
ATOM     54  C   UNL A   1      44.697  27.622  30.821  1.00  0.00     0.049 A 
ATOM     55  H   UNL A   1      43.910  25.665  30.743  1.00  0.00     0.167 HD
ATOM     56  C   UNL A   1      43.907  28.894  32.717  1.00  0.00     0.074 A 
ATOM     57  C   UNL A   1      43.665  29.492  34.023  1.00  0.00     0.031 C 
ATOM     58  C   UNL A   1      44.603  27.807  32.269  1.00  0.00     0.034 A 
BRANCH  45  59
ATOM     59  C   UNL A   1      44.369  24.751  26.877  1.00  0.00     0.023 A 
ATOM     60  C   UNL A   1      45.286  25.454  26.061  1.00  0.00     0.012 A 
ATOM     61  C   UNL A   1      44.194  23.377  26.583  1.00  0.00     0.148 A 
ATOM     62  C   UNL A   1      45.942  24.866  24.979  1.00  0.00     0.002 A 
ATOM     63  C   UNL A   1      44.826  22.794  25.475  1.00  0.00     0.091 A 
ATOM     64  F   UNL A   1      43.456  22.618  27.404  1.00  0.00    -0.205 F 
ATOM     65  C   UNL A   1      45.699  23.539  24.674  1.00  0.00     0.022 A 
BRANCH  63  66
ATOM     66  S   UNL A   1      44.542  21.091  24.959  1.00  0.00     0.127 S 
ATOM     67  O   UNL A   1      44.491  21.216  23.500  1.00  0.00    -0.237 OA
ATOM     68  O   UNL A   1      45.727  20.405  25.466  1.00  0.00    -0.237 OA
ATOM     69  O   UNL A   1      43.275  20.695  25.561  1.00  0.00    -0.744 OA
ENDBRANCH  63  66
ENDBRANCH  45  59
BRANCH  46  70
ATOM     70  C   UNL A   1      39.917  31.406  32.409  1.00  0.00     0.023 A 
ATOM     71  C   UNL A   1      39.328  30.207  32.896  1.00  0.00     0.012 A 
ATOM     72  C   UNL A   1      39.223  32.611  32.644  1.00  0.00     0.148 A 
ATOM     73  C   UNL A   1      38.156  30.221  33.667  1.00  0.00     0.002 A 
ATOM     74  C   UNL A   1      38.032  32.611  33.380  1.00  0.00     0.091 A 
ATOM     75  F   UNL A   1      39.748  33.762  32.204  1.00  0.00    -0.205 F 
ATOM     76  C   UNL A   1      37.516  31.427  33.924  1.00  0.00     0.022 A 
BRANCH  74  77
ATOM     77  S   UNL A   1      37.111  34.143  33.604  1.00  0.00     0.127 S 
ATOM     78  O   UNL A   1      36.861  34.588  32.232  1.00  0.00    -0.237 OA
ATOM     79  O   UNL A   1      35.915  33.728  34.326  1.00  0.00    -0.237 OA
ATOM     80  O   UNL A   1      38.063  34.976  34.334  1.00  0.00    -0.744 OA
ENDBRANCH  74  77
ENDBRANCH  46  70
BRANCH  58  81
ATOM     81  C   UNL A   1      45.266  26.800  33.171  1.00  0.00     0.023 A 
ATOM     82  C   UNL A   1      46.642  26.838  33.456  1.00  0.00     0.012 A 
ATOM     83  C   UNL A   1      44.486  25.855  33.881  1.00  0.00     0.148 A 
ATOM     84  C   UNL A   1      47.236  25.921  34.323  1.00  0.00     0.002 A 
ATOM     85  C   UNL A   1      45.059  25.047  34.851  1.00  0.00     0.091 A 
ATOM     86  F   UNL A   1      43.181  25.714  33.606  1.00  0.00    -0.205 F 
ATOM     87  C   UNL A   1      46.441  25.041  35.041  1.00  0.00     0.022 A 
BRANCH  85  88
ATOM     88  S   UNL A   1      44.033  24.120  35.996  1.00  0.00     0.127 S 
ATOM     89  O   UNL A   1      43.329  23.208  35.098  1.00  0.00    -0.237 OA
ATOM     90  O   UNL A   1      45.030  23.482  36.859  1.00  0.00    -0.237 OA
ATOM     91  O   UNL A   1      43.214  25.119  36.670  1.00  0.00    -0.744 OA
ENDBRANCH  85  88
ENDBRANCH  58  81
ENDBRANCH  32  33
ENDBRANCH  25  27
ENDBRANCH  24  25
ENDBRANCH  23  24
ENDBRANCH   1  23
TORSDOF 17
ENDMDL
