MODEL 1
REMARK VINA RESULT:     -11.8      0.000      0.000
REMARK SMILES C[N@H+](Cc1ccc2nsnc2c1)Cc1ccccc1C(=O)OCCOC(=O)c1ccc(-c2c3nc(c(-c4cccc(S(=O)(=O)[O-])c4F)c4ccc([nH]4)c(-c4cccc(S(=O)(=O)[O-])c4F)c4nc(c(-c5cccc(S(=O)(=O)[O-])c5F)c5ccc2[nH]5)C=C4)C=C3)cc1
REMARK SMILES IDX 23 1 22 2 20 3 21 4 19 5 14 6 15 7 16 8 18 9 17 10 13 11
REMARK SMILES IDX 2 12 1 13 3 15 4 16 5 17 12 18 6 19 11 20 7 21 10 22 8 23
REMARK SMILES IDX 9 24 24 25 25 26 26 27 27 28 28 29 29 30 90 31 30 32 89 33
REMARK SMILES IDX 31 34 32 35 33 36 83 37 34 38 88 39 82 40 84 41 35 42 87 43
REMARK SMILES IDX 81 44 80 45 36 47 68 48 48 49 67 50 49 51 52 52 66 53 85 54
REMARK SMILES IDX 50 55 51 56 65 58 86 59 53 60 37 61 38 62 46 63 39 64 41 65
REMARK SMILES IDX 47 66 40 67 42 68 43 69 44 70 45 71 69 72 70 73 78 74 71 75
REMARK SMILES IDX 73 76 79 77 72 78 74 79 75 80 76 81 77 82 54 83 55 84 63 85
REMARK SMILES IDX 56 86 58 87 64 88 57 89 59 90 60 91 61 92 62 93
REMARK H PARENT 2 14 84 46 52 57
REMARK Flexibility Score: inf
ROOT
ATOM      1  C   UNL A   1      35.415  21.731  26.058  1.00  0.00     0.275 C 
ENDROOT
BRANCH   1   2
ATOM      2  O   UNL A   1      34.876  22.889  25.378  1.00  0.00    -0.458 OA
BRANCH   2   3
ATOM      3  C   UNL A   1      33.921  23.563  26.069  1.00  0.00     0.338 C 
ATOM      4  O   UNL A   1      33.622  23.328  27.233  1.00  0.00    -0.246 OA
BRANCH   3   5
ATOM      5  C   UNL A   1      33.371  24.760  25.358  1.00  0.00     0.068 A 
ATOM      6  C   UNL A   1      32.480  24.755  24.269  1.00  0.00     0.021 A 
ATOM      7  C   UNL A   1      32.129  26.005  23.693  1.00  0.00     0.010 A 
ATOM      8  C   UNL A   1      32.574  27.218  24.222  1.00  0.00     0.001 A 
ATOM      9  C   UNL A   1      33.731  26.000  25.930  1.00  0.00     0.016 A 
ATOM     10  C   UNL A   1      33.358  27.216  25.361  1.00  0.00     0.001 A 
BRANCH   6  11
ATOM     11  C   UNL A   1      31.799  23.547  23.660  1.00  0.00     0.300 C 
BRANCH  11  12
ATOM     12  N   UNL A   1      32.657  22.566  22.988  1.00  0.00    -0.330 N 
ATOM     13  C   UNL A   1      33.272  23.183  21.814  1.00  0.00     0.333 C 
ATOM     14  H   UNL A   1      33.373  22.309  23.667  1.00  0.00     0.348 HD
BRANCH  12  15
ATOM     15  C   UNL A   1      32.036  21.266  22.677  1.00  0.00     0.299 C 
BRANCH  15  16
ATOM     16  C   UNL A   1      32.518  20.128  23.574  1.00  0.00     0.009 A 
ATOM     17  C   UNL A   1      32.486  20.289  24.992  1.00  0.00     0.012 A 
ATOM     18  C   UNL A   1      32.856  18.889  22.984  1.00  0.00     0.041 A 
ATOM     19  C   UNL A   1      32.667  19.231  25.910  1.00  0.00     0.032 A 
ATOM     20  C   UNL A   1      32.971  17.779  23.856  1.00  0.00     0.105 A 
ATOM     21  C   UNL A   1      32.857  17.950  25.345  1.00  0.00     0.104 A 
ATOM     22  N   UNL A   1      33.153  16.503  23.478  1.00  0.00    -0.173 NA
ATOM     23  N   UNL A   1      32.935  16.791  26.015  1.00  0.00    -0.173 NA
ATOM     24  S   UNL A   1      33.078  15.596  24.872  1.00  0.00     0.069 S 
ENDBRANCH  15  16
ENDBRANCH  12  15
ENDBRANCH  11  12
ENDBRANCH   6  11
ENDBRANCH   3   5
ENDBRANCH   2   3
ENDBRANCH   1   2
BRANCH   1  25
ATOM     25  C   UNL A   1      36.327  20.906  25.153  1.00  0.00     0.275 C 
BRANCH  25  26
ATOM     26  O   UNL A   1      37.579  21.584  24.980  1.00  0.00    -0.458 OA
BRANCH  26  27
ATOM     27  C   UNL A   1      38.600  21.090  25.710  1.00  0.00     0.338 C 
ATOM     28  O   UNL A   1      39.041  19.945  25.704  1.00  0.00    -0.246 OA
BRANCH  27  29
ATOM     29  C   UNL A   1      39.279  22.215  26.353  1.00  0.00     0.060 A 
ATOM     30  C   UNL A   1      38.837  23.483  25.992  1.00  0.00     0.016 A 
ATOM     31  C   UNL A   1      40.349  22.067  27.226  1.00  0.00     0.016 A 
ATOM     32  C   UNL A   1      39.443  24.625  26.481  1.00  0.00     0.010 A 
ATOM     33  C   UNL A   1      40.971  23.217  27.727  1.00  0.00     0.010 A 
ATOM     34  C   UNL A   1      40.531  24.501  27.341  1.00  0.00    -0.014 A 
BRANCH  34  35
ATOM     35  C   UNL A   1      41.291  25.722  27.687  1.00  0.00     0.031 A 
ATOM     36  C   UNL A   1      40.609  26.778  28.507  1.00  0.00     0.074 A 
ATOM     37  C   UNL A   1      42.588  25.846  27.349  1.00  0.00     0.049 A 
ATOM     38  N   UNL A   1      41.011  27.982  28.805  1.00  0.00    -0.248 NA
ATOM     39  C   UNL A   1      39.290  26.428  29.063  1.00  0.00     0.031 C 
ATOM     40  C   UNL A   1      43.379  24.835  26.647  1.00  0.00     0.029 A 
ATOM     41  N   UNL A   1      43.468  26.878  27.554  1.00  0.00    -0.354 N 
ATOM     42  C   UNL A   1      39.964  28.564  29.507  1.00  0.00     0.074 A 
ATOM     43  C   UNL A   1      38.917  27.572  29.616  1.00  0.00     0.031 C 
ATOM     44  C   UNL A   1      44.628  25.299  26.474  1.00  0.00     0.029 A 
ATOM     45  C   UNL A   1      44.704  26.661  26.989  1.00  0.00     0.049 A 
ATOM     46  H   UNL A   1      43.238  27.693  28.056  1.00  0.00     0.167 HD
ATOM     47  C   UNL A   1      39.885  29.817  30.011  1.00  0.00     0.034 A 
ATOM     48  C   UNL A   1      45.759  27.491  26.866  1.00  0.00     0.034 A 
ATOM     49  C   UNL A   1      40.963  30.765  29.948  1.00  0.00     0.049 A 
ATOM     50  C   UNL A   1      45.643  28.884  27.425  1.00  0.00     0.074 A 
ATOM     51  C   UNL A   1      40.999  32.063  30.420  1.00  0.00     0.029 A 
ATOM     52  N   UNL A   1      42.206  30.505  29.388  1.00  0.00    -0.354 N 
ATOM     53  N   UNL A   1      44.646  29.431  28.079  1.00  0.00    -0.248 NA
ATOM     54  C   UNL A   1      46.800  29.771  27.241  1.00  0.00     0.031 C 
ATOM     55  C   UNL A   1      42.262  32.594  30.132  1.00  0.00     0.029 A 
ATOM     56  C   UNL A   1      43.020  31.618  29.504  1.00  0.00     0.049 A 
ATOM     57  H   UNL A   1      42.470  29.654  28.970  1.00  0.00     0.167 HD
ATOM     58  C   UNL A   1      45.060  30.717  28.403  1.00  0.00     0.074 A 
ATOM     59  C   UNL A   1      46.412  30.856  27.899  1.00  0.00     0.031 C 
ATOM     60  C   UNL A   1      44.381  31.704  29.039  1.00  0.00     0.034 A 
BRANCH  47  61
ATOM     61  C   UNL A   1      38.587  30.228  30.650  1.00  0.00     0.023 A 
ATOM     62  C   UNL A   1      38.310  29.875  31.986  1.00  0.00     0.012 A 
ATOM     63  C   UNL A   1      37.640  30.975  29.921  1.00  0.00     0.148 A 
ATOM     64  C   UNL A   1      37.094  30.228  32.574  1.00  0.00     0.002 A 
ATOM     65  C   UNL A   1      36.451  31.361  30.527  1.00  0.00     0.091 A 
ATOM     66  F   UNL A   1      37.910  31.276  28.643  1.00  0.00    -0.205 F 
ATOM     67  C   UNL A   1      36.171  30.977  31.849  1.00  0.00     0.022 A 
BRANCH  65  68
ATOM     68  S   UNL A   1      35.230  32.384  29.699  1.00  0.00     0.127 S 
ATOM     69  O   UNL A   1      36.049  33.498  29.225  1.00  0.00    -0.237 OA
ATOM     70  O   UNL A   1      34.745  31.493  28.645  1.00  0.00    -0.237 OA
ATOM     71  O   UNL A   1      34.238  32.723  30.710  1.00  0.00    -0.744 OA
ENDBRANCH  65  68
ENDBRANCH  47  61
BRANCH  48  72
ATOM     72  C   UNL A   1      47.002  27.028  26.182  1.00  0.00     0.023 A 
ATOM     73  C   UNL A   1      47.167  27.265  24.803  1.00  0.00     0.012 A 
ATOM     74  C   UNL A   1      48.031  26.378  26.892  1.00  0.00     0.148 A 
ATOM     75  C   UNL A   1      48.323  26.843  24.142  1.00  0.00     0.002 A 
ATOM     76  C   UNL A   1      49.204  26.014  26.239  1.00  0.00     0.091 A 
ATOM     77  F   UNL A   1      47.848  26.133  28.197  1.00  0.00    -0.205 F 
ATOM     78  C   UNL A   1      49.345  26.230  24.861  1.00  0.00     0.022 A 
BRANCH  76  79
ATOM     79  S   UNL A   1      50.620  25.340  27.117  1.00  0.00     0.127 S 
ATOM     80  O   UNL A   1      51.009  26.463  27.966  1.00  0.00    -0.237 OA
ATOM     81  O   UNL A   1      50.028  24.207  27.829  1.00  0.00    -0.237 OA
ATOM     82  O   UNL A   1      51.576  24.963  26.085  1.00  0.00    -0.744 OA
ENDBRANCH  76  79
ENDBRANCH  48  72
BRANCH  60  83
ATOM     83  C   UNL A   1      45.102  33.007  29.256  1.00  0.00     0.023 A 
ATOM     84  C   UNL A   1      45.940  33.163  30.378  1.00  0.00     0.012 A 
ATOM     85  C   UNL A   1      45.005  34.046  28.310  1.00  0.00     0.148 A 
ATOM     86  C   UNL A   1      46.646  34.349  30.570  1.00  0.00     0.002 A 
ATOM     87  C   UNL A   1      45.750  35.205  28.483  1.00  0.00     0.091 A 
ATOM     88  F   UNL A   1      44.186  33.882  27.261  1.00  0.00    -0.205 F 
ATOM     89  C   UNL A   1      46.562  35.364  29.618  1.00  0.00     0.022 A 
BRANCH  87  90
ATOM     90  S   UNL A   1      45.777  36.515  27.256  1.00  0.00     0.127 S 
ATOM     91  O   UNL A   1      46.570  37.540  27.931  1.00  0.00    -0.237 OA
ATOM     92  O   UNL A   1      46.447  35.872  26.126  1.00  0.00    -0.237 OA
ATOM     93  O   UNL A   1      44.383  36.859  27.010  1.00  0.00    -0.744 OA
ENDBRANCH  87  90
ENDBRANCH  60  83
ENDBRANCH  34  35
ENDBRANCH  27  29
ENDBRANCH  26  27
ENDBRANCH  25  26
ENDBRANCH   1  25
TORSDOF 18
ENDMDL
MODEL 2
REMARK VINA RESULT:     -11.8      1.722      8.207
REMARK SMILES C[N@H+](Cc1ccc2nsnc2c1)Cc1ccccc1C(=O)OCCOC(=O)c1ccc(-c2c3nc(c(-c4cccc(S(=O)(=O)[O-])c4F)c4ccc([nH]4)c(-c4cccc(S(=O)(=O)[O-])c4F)c4nc(c(-c5cccc(S(=O)(=O)[O-])c5F)c5ccc2[nH]5)C=C4)C=C3)cc1
REMARK SMILES IDX 23 1 22 2 20 3 21 4 19 5 14 6 15 7 16 8 18 9 17 10 13 11
REMARK SMILES IDX 2 12 1 13 3 15 4 16 5 17 12 18 6 19 11 20 7 21 10 22 8 23
REMARK SMILES IDX 9 24 24 25 25 26 26 27 27 28 28 29 29 30 90 31 30 32 89 33
REMARK SMILES IDX 31 34 32 35 33 36 83 37 34 38 88 39 82 40 84 41 35 42 87 43
REMARK SMILES IDX 81 44 80 45 36 47 68 48 48 49 67 50 49 51 52 52 66 53 85 54
REMARK SMILES IDX 50 55 51 56 65 58 86 59 53 60 37 61 38 62 46 63 39 64 41 65
REMARK SMILES IDX 47 66 40 67 42 68 43 69 44 70 45 71 69 72 70 73 78 74 71 75
REMARK SMILES IDX 73 76 79 77 72 78 74 79 75 80 76 81 77 82 54 83 55 84 63 85
REMARK SMILES IDX 56 86 58 87 64 88 57 89 59 90 60 91 61 92 62 93
REMARK H PARENT 2 14 84 46 52 57
REMARK Flexibility Score: inf
ROOT
ATOM      1  C   UNL A   1      36.692  20.261  25.003  1.00  0.00     0.275 C 
ENDROOT
BRANCH   1   2
ATOM      2  O   UNL A   1      36.537  21.563  25.616  1.00  0.00    -0.458 OA
BRANCH   2   3
ATOM      3  C   UNL A   1      36.129  22.546  24.771  1.00  0.00     0.338 C 
ATOM      4  O   UNL A   1      36.545  22.684  23.629  1.00  0.00    -0.246 OA
BRANCH   3   5
ATOM      5  C   UNL A   1      34.978  23.358  25.277  1.00  0.00     0.068 A 
ATOM      6  C   UNL A   1      33.743  22.869  25.740  1.00  0.00     0.021 A 
ATOM      7  C   UNL A   1      32.753  23.815  26.117  1.00  0.00     0.010 A 
ATOM      8  C   UNL A   1      33.001  25.189  26.116  1.00  0.00     0.001 A 
ATOM      9  C   UNL A   1      35.234  24.744  25.374  1.00  0.00     0.016 A 
ATOM     10  C   UNL A   1      34.256  25.653  25.767  1.00  0.00     0.001 A 
BRANCH   6  11
ATOM     11  C   UNL A   1      33.358  21.416  25.934  1.00  0.00     0.300 C 
BRANCH  11  12
ATOM     12  N   UNL A   1      32.528  20.802  24.893  1.00  0.00    -0.330 N 
ATOM     13  C   UNL A   1      32.435  19.363  25.133  1.00  0.00     0.333 C 
ATOM     14  H   UNL A   1      31.608  21.233  24.978  1.00  0.00     0.348 HD
BRANCH  12  15
ATOM     15  C   UNL A   1      32.895  21.116  23.501  1.00  0.00     0.299 C 
BRANCH  15  16
ATOM     16  C   UNL A   1      32.391  22.477  23.027  1.00  0.00     0.009 A 
ATOM     17  C   UNL A   1      31.078  22.905  23.387  1.00  0.00     0.012 A 
ATOM     18  C   UNL A   1      33.287  23.342  22.358  1.00  0.00     0.041 A 
ATOM     19  C   UNL A   1      30.605  24.225  23.220  1.00  0.00     0.032 A 
ATOM     20  C   UNL A   1      32.892  24.697  22.235  1.00  0.00     0.105 A 
ATOM     21  C   UNL A   1      31.532  25.150  22.690  1.00  0.00     0.104 A 
ATOM     22  N   UNL A   1      33.653  25.693  21.754  1.00  0.00    -0.173 NA
ATOM     23  N   UNL A   1      31.345  26.471  22.553  1.00  0.00    -0.173 NA
ATOM     24  S   UNL A   1      32.768  27.088  21.961  1.00  0.00     0.069 S 
ENDBRANCH  15  16
ENDBRANCH  12  15
ENDBRANCH  11  12
ENDBRANCH   6  11
ENDBRANCH   3   5
ENDBRANCH   2   3
ENDBRANCH   1   2
BRANCH   1  25
ATOM     25  C   UNL A   1      38.121  19.736  25.124  1.00  0.00     0.275 C 
BRANCH  25  26
ATOM     26  O   UNL A   1      39.021  20.829  25.357  1.00  0.00    -0.458 OA
BRANCH  26  27
ATOM     27  C   UNL A   1      39.892  20.644  26.370  1.00  0.00     0.338 C 
ATOM     28  O   UNL A   1      40.448  19.600  26.699  1.00  0.00    -0.246 OA
BRANCH  27  29
ATOM     29  C   UNL A   1      40.271  21.959  26.884  1.00  0.00     0.060 A 
ATOM     30  C   UNL A   1      39.699  23.054  26.245  1.00  0.00     0.016 A 
ATOM     31  C   UNL A   1      41.194  22.146  27.905  1.00  0.00     0.016 A 
ATOM     32  C   UNL A   1      40.030  24.349  26.596  1.00  0.00     0.010 A 
ATOM     33  C   UNL A   1      41.537  23.454  28.268  1.00  0.00     0.010 A 
ATOM     34  C   UNL A   1      40.969  24.560  27.602  1.00  0.00    -0.014 A 
BRANCH  34  35
ATOM     35  C   UNL A   1      41.460  25.939  27.821  1.00  0.00     0.031 A 
ATOM     36  C   UNL A   1      42.806  26.312  27.272  1.00  0.00     0.074 A 
ATOM     37  C   UNL A   1      40.684  26.860  28.421  1.00  0.00     0.049 A 
ATOM     38  N   UNL A   1      43.505  27.397  27.461  1.00  0.00    -0.248 NA
ATOM     39  C   UNL A   1      43.453  25.323  26.392  1.00  0.00     0.031 C 
ATOM     40  C   UNL A   1      39.318  26.636  28.897  1.00  0.00     0.029 A 
ATOM     41  N   UNL A   1      40.935  28.173  28.732  1.00  0.00    -0.354 N 
ATOM     42  C   UNL A   1      44.707  27.187  26.799  1.00  0.00     0.074 A 
ATOM     43  C   UNL A   1      44.634  25.883  26.178  1.00  0.00     0.031 C 
ATOM     44  C   UNL A   1      38.853  27.770  29.445  1.00  0.00     0.029 A 
ATOM     45  C   UNL A   1      39.908  28.776  29.421  1.00  0.00     0.049 A 
ATOM     46  H   UNL A   1      41.767  28.636  28.487  1.00  0.00     0.167 HD
ATOM     47  C   UNL A   1      45.777  28.012  26.721  1.00  0.00     0.034 A 
ATOM     48  C   UNL A   1      39.851  29.990  30.004  1.00  0.00     0.034 A 
ATOM     49  C   UNL A   1      45.803  29.331  27.290  1.00  0.00     0.049 A 
ATOM     50  C   UNL A   1      41.058  30.885  29.914  1.00  0.00     0.074 A 
ATOM     51  C   UNL A   1      46.830  30.256  27.279  1.00  0.00     0.029 A 
ATOM     52  N   UNL A   1      44.740  29.918  27.962  1.00  0.00    -0.354 N 
ATOM     53  N   UNL A   1      42.196  30.677  29.294  1.00  0.00    -0.248 NA
ATOM     54  C   UNL A   1      40.972  32.186  30.591  1.00  0.00     0.031 C 
ATOM     55  C   UNL A   1      46.391  31.398  27.958  1.00  0.00     0.029 A 
ATOM     56  C   UNL A   1      45.084  31.195  28.369  1.00  0.00     0.049 A 
ATOM     57  H   UNL A   1      43.869  29.489  28.126  1.00  0.00     0.167 HD
ATOM     58  C   UNL A   1      42.953  31.826  29.487  1.00  0.00     0.074 A 
ATOM     59  C   UNL A   1      42.131  32.739  30.257  1.00  0.00     0.031 C 
ATOM     60  C   UNL A   1      44.221  32.098  29.088  1.00  0.00     0.034 A 
BRANCH  47  61
ATOM     61  C   UNL A   1      47.000  27.497  26.013  1.00  0.00     0.023 A 
ATOM     62  C   UNL A   1      47.154  27.691  24.627  1.00  0.00     0.012 A 
ATOM     63  C   UNL A   1      48.006  26.821  26.733  1.00  0.00     0.148 A 
ATOM     64  C   UNL A   1      48.273  27.189  23.961  1.00  0.00     0.002 A 
ATOM     65  C   UNL A   1      49.138  26.364  26.071  1.00  0.00     0.091 A 
ATOM     66  F   UNL A   1      47.828  26.621  28.047  1.00  0.00    -0.205 F 
ATOM     67  C   UNL A   1      49.268  26.535  24.683  1.00  0.00     0.022 A 
BRANCH  65  68
ATOM     68  S   UNL A   1      50.504  25.570  26.925  1.00  0.00     0.127 S 
ATOM     69  O   UNL A   1      50.957  26.636  27.815  1.00  0.00    -0.237 OA
ATOM     70  O   UNL A   1      49.840  24.454  27.599  1.00  0.00    -0.237 OA
ATOM     71  O   UNL A   1      51.450  25.175  25.890  1.00  0.00    -0.744 OA
ENDBRANCH  65  68
ENDBRANCH  47  61
BRANCH  48  72
ATOM     72  C   UNL A   1      38.617  30.419  30.726  1.00  0.00     0.023 A 
ATOM     73  C   UNL A   1      38.479  30.133  32.098  1.00  0.00     0.012 A 
ATOM     74  C   UNL A   1      37.592  31.129  30.068  1.00  0.00     0.148 A 
ATOM     75  C   UNL A   1      37.333  30.527  32.795  1.00  0.00     0.002 A 
ATOM     76  C   UNL A   1      36.483  31.569  30.782  1.00  0.00     0.091 A 
ATOM     77  F   UNL A   1      37.725  31.368  28.757  1.00  0.00    -0.205 F 
ATOM     78  C   UNL A   1      36.343  31.254  32.142  1.00  0.00     0.022 A 
BRANCH  76  79
ATOM     79  S   UNL A   1      35.227  32.624  30.047  1.00  0.00     0.127 S 
ATOM     80  O   UNL A   1      34.686  31.761  29.000  1.00  0.00    -0.237 OA
ATOM     81  O   UNL A   1      34.327  32.859  31.176  1.00  0.00    -0.237 OA
ATOM     82  O   UNL A   1      35.935  33.812  29.588  1.00  0.00    -0.744 OA
ENDBRANCH  76  79
ENDBRANCH  48  72
BRANCH  60  83
ATOM     83  C   UNL A   1      44.781  33.449  29.444  1.00  0.00     0.023 A 
ATOM     84  C   UNL A   1      45.512  33.609  30.637  1.00  0.00     0.012 A 
ATOM     85  C   UNL A   1      44.645  34.536  28.560  1.00  0.00     0.148 A 
ATOM     86  C   UNL A   1      46.072  34.844  30.959  1.00  0.00     0.002 A 
ATOM     87  C   UNL A   1      45.248  35.749  28.864  1.00  0.00     0.091 A 
ATOM     88  F   UNL A   1      43.928  34.365  27.440  1.00  0.00    -0.205 F 
ATOM     89  C   UNL A   1      45.952  35.909  30.069  1.00  0.00     0.022 A 
BRANCH  87  90
ATOM     90  S   UNL A   1      45.226  37.139  27.727  1.00  0.00     0.127 S 
ATOM     91  O   UNL A   1      45.950  38.157  28.486  1.00  0.00    -0.237 OA
ATOM     92  O   UNL A   1      45.951  36.609  26.572  1.00  0.00    -0.237 OA
ATOM     93  O   UNL A   1      43.820  37.424  27.474  1.00  0.00    -0.744 OA
ENDBRANCH  87  90
ENDBRANCH  60  83
ENDBRANCH  34  35
ENDBRANCH  27  29
ENDBRANCH  26  27
ENDBRANCH  25  26
ENDBRANCH   1  25
TORSDOF 18
ENDMDL
MODEL 3
REMARK VINA RESULT:     -11.5      1.725      7.764
REMARK SMILES C[N@H+](Cc1ccc2nsnc2c1)Cc1ccccc1C(=O)OCCOC(=O)c1ccc(-c2c3nc(c(-c4cccc(S(=O)(=O)[O-])c4F)c4ccc([nH]4)c(-c4cccc(S(=O)(=O)[O-])c4F)c4nc(c(-c5cccc(S(=O)(=O)[O-])c5F)c5ccc2[nH]5)C=C4)C=C3)cc1
REMARK SMILES IDX 23 1 22 2 20 3 21 4 19 5 14 6 15 7 16 8 18 9 17 10 13 11
REMARK SMILES IDX 2 12 1 13 3 15 4 16 5 17 12 18 6 19 11 20 7 21 10 22 8 23
REMARK SMILES IDX 9 24 24 25 25 26 26 27 27 28 28 29 29 30 90 31 30 32 89 33
REMARK SMILES IDX 31 34 32 35 33 36 83 37 34 38 88 39 82 40 84 41 35 42 87 43
REMARK SMILES IDX 81 44 80 45 36 47 68 48 48 49 67 50 49 51 52 52 66 53 85 54
REMARK SMILES IDX 50 55 51 56 65 58 86 59 53 60 37 61 38 62 46 63 39 64 41 65
REMARK SMILES IDX 47 66 40 67 42 68 43 69 44 70 45 71 69 72 70 73 78 74 71 75
REMARK SMILES IDX 73 76 79 77 72 78 74 79 75 80 76 81 77 82 54 83 55 84 63 85
REMARK SMILES IDX 56 86 58 87 64 88 57 89 59 90 60 91 61 92 62 93
REMARK H PARENT 2 14 84 46 52 57
REMARK Flexibility Score: inf
ROOT
ATOM      1  C   UNL A   1      36.256  20.403  25.116  1.00  0.00     0.275 C 
ENDROOT
BRANCH   1   2
ATOM      2  O   UNL A   1      35.977  21.669  24.472  1.00  0.00    -0.458 OA
BRANCH   2   3
ATOM      3  C   UNL A   1      35.818  22.717  25.321  1.00  0.00     0.338 C 
ATOM      4  O   UNL A   1      36.633  23.620  25.456  1.00  0.00    -0.246 OA
BRANCH   3   5
ATOM      5  C   UNL A   1      34.468  22.794  25.963  1.00  0.00     0.068 A 
ATOM      6  C   UNL A   1      33.288  23.297  25.383  1.00  0.00     0.021 A 
ATOM      7  C   UNL A   1      32.119  23.342  26.188  1.00  0.00     0.010 A 
ATOM      8  C   UNL A   1      32.094  22.836  27.489  1.00  0.00     0.001 A 
ATOM      9  C   UNL A   1      34.392  22.205  27.244  1.00  0.00     0.016 A 
ATOM     10  C   UNL A   1      33.229  22.241  28.010  1.00  0.00     0.001 A 
BRANCH   6  11
ATOM     11  C   UNL A   1      33.107  23.758  23.951  1.00  0.00     0.300 C 
BRANCH  11  12
ATOM     12  N   UNL A   1      33.089  22.721  22.914  1.00  0.00    -0.330 N 
ATOM     13  C   UNL A   1      33.465  23.310  21.631  1.00  0.00     0.333 C 
ATOM     14  H   UNL A   1      33.781  22.028  23.200  1.00  0.00     0.348 HD
BRANCH  12  15
ATOM     15  C   UNL A   1      31.858  21.917  22.823  1.00  0.00     0.299 C 
BRANCH  15  16
ATOM     16  C   UNL A   1      32.092  20.417  22.993  1.00  0.00     0.009 A 
ATOM     17  C   UNL A   1      32.029  19.562  21.852  1.00  0.00     0.012 A 
ATOM     18  C   UNL A   1      32.502  19.927  24.254  1.00  0.00     0.041 A 
ATOM     19  C   UNL A   1      32.467  18.220  21.847  1.00  0.00     0.032 A 
ATOM     20  C   UNL A   1      33.024  18.612  24.288  1.00  0.00     0.105 A 
ATOM     21  C   UNL A   1      33.023  17.748  23.057  1.00  0.00     0.104 A 
ATOM     22  N   UNL A   1      33.583  18.019  25.355  1.00  0.00    -0.173 NA
ATOM     23  N   UNL A   1      33.604  16.555  23.252  1.00  0.00    -0.173 NA
ATOM     24  S   UNL A   1      34.150  16.549  24.819  1.00  0.00     0.069 S 
ENDBRANCH  15  16
ENDBRANCH  12  15
ENDBRANCH  11  12
ENDBRANCH   6  11
ENDBRANCH   3   5
ENDBRANCH   2   3
ENDBRANCH   1   2
BRANCH   1  25
ATOM     25  C   UNL A   1      37.730  20.019  25.011  1.00  0.00     0.275 C 
BRANCH  25  26
ATOM     26  O   UNL A   1      38.550  21.151  25.334  1.00  0.00    -0.458 OA
BRANCH  26  27
ATOM     27  C   UNL A   1      39.580  20.890  26.166  1.00  0.00     0.338 C 
ATOM     28  O   UNL A   1      40.193  19.834  26.292  1.00  0.00    -0.246 OA
BRANCH  27  29
ATOM     29  C   UNL A   1      40.027  22.158  26.740  1.00  0.00     0.060 A 
ATOM     30  C   UNL A   1      39.444  23.307  26.215  1.00  0.00     0.016 A 
ATOM     31  C   UNL A   1      41.019  22.254  27.707  1.00  0.00     0.016 A 
ATOM     32  C   UNL A   1      39.831  24.567  26.630  1.00  0.00     0.010 A 
ATOM     33  C   UNL A   1      41.420  23.527  28.133  1.00  0.00     0.010 A 
ATOM     34  C   UNL A   1      40.840  24.688  27.583  1.00  0.00    -0.014 A 
BRANCH  34  35
ATOM     35  C   UNL A   1      41.381  26.037  27.859  1.00  0.00     0.031 A 
ATOM     36  C   UNL A   1      42.741  26.382  27.330  1.00  0.00     0.074 A 
ATOM     37  C   UNL A   1      40.637  26.961  28.495  1.00  0.00     0.049 A 
ATOM     38  N   UNL A   1      43.480  27.431  27.566  1.00  0.00    -0.248 NA
ATOM     39  C   UNL A   1      43.355  25.407  26.412  1.00  0.00     0.031 C 
ATOM     40  C   UNL A   1      39.261  26.768  28.957  1.00  0.00     0.029 A 
ATOM     41  N   UNL A   1      40.935  28.249  28.861  1.00  0.00    -0.354 N 
ATOM     42  C   UNL A   1      44.676  27.205  26.899  1.00  0.00     0.074 A 
ATOM     43  C   UNL A   1      44.557  25.931  26.224  1.00  0.00     0.031 C 
ATOM     44  C   UNL A   1      38.836  27.896  29.551  1.00  0.00     0.029 A 
ATOM     45  C   UNL A   1      39.929  28.862  29.572  1.00  0.00     0.049 A 
ATOM     46  H   UNL A   1      41.785  28.691  28.637  1.00  0.00     0.167 HD
ATOM     47  C   UNL A   1      45.776  27.992  26.858  1.00  0.00     0.034 A 
ATOM     48  C   UNL A   1      39.914  30.052  30.204  1.00  0.00     0.034 A 
ATOM     49  C   UNL A   1      45.849  29.284  27.482  1.00  0.00     0.049 A 
ATOM     50  C   UNL A   1      41.154  30.904  30.154  1.00  0.00     0.074 A 
ATOM     51  C   UNL A   1      46.909  30.169  27.511  1.00  0.00     0.029 A 
ATOM     52  N   UNL A   1      44.805  29.882  28.174  1.00  0.00    -0.354 N 
ATOM     53  N   UNL A   1      42.286  30.680  29.530  1.00  0.00    -0.248 NA
ATOM     54  C   UNL A   1      41.113  32.179  30.884  1.00  0.00     0.031 C 
ATOM     55  C   UNL A   1      46.511  31.299  28.236  1.00  0.00     0.029 A 
ATOM     56  C   UNL A   1      45.195  31.127  28.634  1.00  0.00     0.049 A 
ATOM     57  H   UNL A   1      43.918  29.479  28.317  1.00  0.00     0.167 HD
ATOM     58  C   UNL A   1      43.084  31.790  29.772  1.00  0.00     0.074 A 
ATOM     59  C   UNL A   1      42.294  32.701  30.577  1.00  0.00     0.031 C 
ATOM     60  C   UNL A   1      44.363  32.031  29.388  1.00  0.00     0.034 A 
BRANCH  47  61
ATOM     61  C   UNL A   1      46.982  27.461  26.133  1.00  0.00     0.023 A 
ATOM     62  C   UNL A   1      47.897  26.619  26.795  1.00  0.00     0.012 A 
ATOM     63  C   UNL A   1      47.205  27.797  24.782  1.00  0.00     0.148 A 
ATOM     64  C   UNL A   1      49.033  26.148  26.135  1.00  0.00     0.002 A 
ATOM     65  C   UNL A   1      48.314  27.289  24.119  1.00  0.00     0.091 A 
ATOM     66  F   UNL A   1      46.338  28.623  24.178  1.00  0.00    -0.205 F 
ATOM     67  C   UNL A   1      49.236  26.474  24.797  1.00  0.00     0.022 A 
BRANCH  65  68
ATOM     68  S   UNL A   1      48.626  27.597  22.377  1.00  0.00     0.127 S 
ATOM     69  O   UNL A   1      48.714  26.238  21.846  1.00  0.00    -0.237 OA
ATOM     70  O   UNL A   1      47.427  28.332  21.975  1.00  0.00    -0.237 OA
ATOM     71  O   UNL A   1      49.858  28.372  22.321  1.00  0.00    -0.744 OA
ENDBRANCH  65  68
ENDBRANCH  47  61
BRANCH  48  72
ATOM     72  C   UNL A   1      38.694  30.497  30.940  1.00  0.00     0.023 A 
ATOM     73  C   UNL A   1      38.585  30.246  32.322  1.00  0.00     0.012 A 
ATOM     74  C   UNL A   1      37.654  31.186  30.285  1.00  0.00     0.148 A 
ATOM     75  C   UNL A   1      37.453  30.655  33.032  1.00  0.00     0.002 A 
ATOM     76  C   UNL A   1      36.558  31.641  31.010  1.00  0.00     0.091 A 
ATOM     77  F   UNL A   1      37.758  31.390  28.965  1.00  0.00    -0.205 F 
ATOM     78  C   UNL A   1      36.447  31.362  32.380  1.00  0.00     0.022 A 
BRANCH  76  79
ATOM     79  S   UNL A   1      35.283  32.673  30.273  1.00  0.00     0.127 S 
ATOM     80  O   UNL A   1      34.780  31.812  29.206  1.00  0.00    -0.237 OA
ATOM     81  O   UNL A   1      34.362  32.867  31.393  1.00  0.00    -0.237 OA
ATOM     82  O   UNL A   1      35.965  33.887  29.842  1.00  0.00    -0.744 OA
ENDBRANCH  76  79
ENDBRANCH  48  72
BRANCH  60  83
ATOM     83  C   UNL A   1      44.972  33.344  29.801  1.00  0.00     0.023 A 
ATOM     84  C   UNL A   1      45.730  33.421  30.985  1.00  0.00     0.012 A 
ATOM     85  C   UNL A   1      44.852  34.480  28.977  1.00  0.00     0.148 A 
ATOM     86  C   UNL A   1      46.334  34.620  31.359  1.00  0.00     0.002 A 
ATOM     87  C   UNL A   1      45.498  35.657  29.331  1.00  0.00     0.091 A 
ATOM     88  F   UNL A   1      44.108  34.389  27.865  1.00  0.00    -0.205 F 
ATOM     89  C   UNL A   1      46.230  35.733  30.527  1.00  0.00     0.022 A 
BRANCH  87  90
ATOM     90  S   UNL A   1      45.497  37.104  28.268  1.00  0.00     0.127 S 
ATOM     91  O   UNL A   1      44.082  37.472  28.267  1.00  0.00    -0.237 OA
ATOM     92  O   UNL A   1      46.366  38.028  28.996  1.00  0.00    -0.237 OA
ATOM     93  O   UNL A   1      46.032  36.659  26.988  1.00  0.00    -0.744 OA
ENDBRANCH  87  90
ENDBRANCH  60  83
ENDBRANCH  34  35
ENDBRANCH  27  29
ENDBRANCH  26  27
ENDBRANCH  25  26
ENDBRANCH   1  25
TORSDOF 18
ENDMDL
