MODEL 1
REMARK VINA RESULT:     -10.6      0.000      0.000
REMARK SMILES C[C@H](O)C[C@@H](Cc1cccc(Br)c1)C(=O)OCCOC(=O)c1ccc(-c2c3nc(c(-c4cccc(S(=O)(=O)[O-])c4F)c4ccc([nH]4)c(-c4cccc(S(=O)(=O)[O-])c4F)c4nc(c(-c5cccc(S(=O)(=O)[O-])c5F)c5ccc2[nH]5)C=C4)C=C3)cc1
REMARK SMILES IDX 17 1 16 2 14 3 15 4 5 5 4 6 2 7 1 8 3 9 6 11 7 12 8 13 13 14
REMARK SMILES IDX 9 15 11 16 10 17 12 18 18 19 19 20 20 21 21 22 22 23 23 24
REMARK SMILES IDX 84 25 24 26 83 27 25 28 26 29 27 30 77 31 28 32 82 33 76 34
REMARK SMILES IDX 78 35 29 36 81 37 75 38 74 39 30 41 62 42 42 43 61 44 43 45
REMARK SMILES IDX 46 46 60 47 79 48 44 49 45 50 59 52 80 53 47 54 31 55 32 56
REMARK SMILES IDX 40 57 33 58 35 59 41 60 34 61 36 62 37 63 38 64 39 65 63 66
REMARK SMILES IDX 64 67 72 68 65 69 67 70 73 71 66 72 68 73 69 74 70 75 71 76
REMARK SMILES IDX 48 77 49 78 57 79 50 80 52 81 58 82 51 83 53 84 54 85 55 86
REMARK SMILES IDX 56 87
REMARK H PARENT 3 10 78 40 46 51
REMARK Flexibility Score: inf
ROOT
ATOM      1  C   UNL A   1      31.384  29.084  25.197  1.00  0.00     0.274 C 
ENDROOT
BRANCH   1   2
ATOM      2  O   UNL A   1      31.616  28.996  23.777  1.00  0.00    -0.462 OA
BRANCH   2   3
ATOM      3  C   UNL A   1      32.856  28.596  23.392  1.00  0.00     0.309 C 
ATOM      4  O   UNL A   1      33.714  29.329  22.915  1.00  0.00    -0.252 OA
BRANCH   3   5
ATOM      5  C   UNL A   1      33.069  27.097  23.546  1.00  0.00     0.106 C 
BRANCH   5   6
ATOM      6  C   UNL A   1      33.653  26.423  22.287  1.00  0.00     0.047 C 
BRANCH   6   7
ATOM      7  C   UNL A   1      32.700  25.445  21.591  1.00  0.00     0.112 C 
ATOM      8  C   UNL A   1      32.909  24.023  22.096  1.00  0.00     0.038 C 
BRANCH   7   9
ATOM      9  O   UNL A   1      32.933  25.440  20.187  1.00  0.00    -0.393 OA
ATOM     10  H   UNL A   1      33.348  26.277  19.925  1.00  0.00     0.210 HD
ENDBRANCH   7   9
ENDBRANCH   6   7
ENDBRANCH   5   6
BRANCH   5  11
ATOM     11  C   UNL A   1      33.779  26.824  24.886  1.00  0.00     0.051 C 
BRANCH  11  12
ATOM     12  C   UNL A   1      33.665  25.432  25.466  1.00  0.00    -0.046 A 
ATOM     13  C   UNL A   1      34.771  24.584  25.602  1.00  0.00     0.004 A 
ATOM     14  C   UNL A   1      32.403  24.947  25.849  1.00  0.00     0.019 A 
ATOM     15  C   UNL A   1      34.638  23.313  26.163  1.00  0.00     0.001 A 
ATOM     16  C   UNL A   1      32.269  23.664  26.382  1.00  0.00     0.018 A 
ATOM     17  C   UNL A   1      33.384  22.850  26.555  1.00  0.00     0.016 A 
ATOM     18  Br  UNL A   1      30.558  23.022  26.863  1.00  0.00    -0.051 Br
ENDBRANCH  11  12
ENDBRANCH   5  11
ENDBRANCH   3   5
ENDBRANCH   2   3
ENDBRANCH   1   2
BRANCH   1  19
ATOM     19  C   UNL A   1      31.561  30.517  25.704  1.00  0.00     0.275 C 
BRANCH  19  20
ATOM     20  O   UNL A   1      32.294  30.544  26.940  1.00  0.00    -0.458 OA
BRANCH  20  21
ATOM     21  C   UNL A   1      32.979  31.686  27.170  1.00  0.00     0.338 C 
ATOM     22  O   UNL A   1      32.572  32.833  27.047  1.00  0.00    -0.246 OA
BRANCH  21  23
ATOM     23  C   UNL A   1      34.295  31.361  27.735  1.00  0.00     0.060 A 
ATOM     24  C   UNL A   1      34.556  30.033  28.076  1.00  0.00     0.016 A 
ATOM     25  C   UNL A   1      35.226  32.363  28.009  1.00  0.00     0.016 A 
ATOM     26  C   UNL A   1      35.740  29.696  28.719  1.00  0.00     0.010 A 
ATOM     27  C   UNL A   1      36.423  32.022  28.644  1.00  0.00     0.010 A 
ATOM     28  C   UNL A   1      36.678  30.691  29.020  1.00  0.00    -0.014 A 
BRANCH  28  29
ATOM     29  C   UNL A   1      37.902  30.336  29.772  1.00  0.00     0.031 A 
ATOM     30  C   UNL A   1      38.905  29.400  29.163  1.00  0.00     0.074 A 
ATOM     31  C   UNL A   1      38.105  30.854  30.997  1.00  0.00     0.049 A 
ATOM     32  N   UNL A   1      39.997  28.909  29.686  1.00  0.00    -0.248 NA
ATOM     33  C   UNL A   1      38.644  28.956  27.784  1.00  0.00     0.031 C 
ATOM     34  C   UNL A   1      37.202  31.782  31.680  1.00  0.00     0.029 A 
ATOM     35  N   UNL A   1      39.126  30.657  31.892  1.00  0.00    -0.354 N 
ATOM     36  C   UNL A   1      40.530  28.063  28.723  1.00  0.00     0.074 A 
ATOM     37  C   UNL A   1      39.645  28.110  27.580  1.00  0.00     0.031 C 
ATOM     38  C   UNL A   1      37.698  32.056  32.897  1.00  0.00     0.029 A 
ATOM     39  C   UNL A   1      38.932  31.300  33.091  1.00  0.00     0.049 A 
ATOM     40  H   UNL A   1      39.919  30.109  31.694  1.00  0.00     0.167 HD
ATOM     41  C   UNL A   1      41.662  27.323  28.783  1.00  0.00     0.034 A 
ATOM     42  C   UNL A   1      39.654  31.261  34.227  1.00  0.00     0.034 A 
ATOM     43  C   UNL A   1      42.562  27.318  29.905  1.00  0.00     0.049 A 
ATOM     44  C   UNL A   1      40.913  30.436  34.265  1.00  0.00     0.074 A 
ATOM     45  C   UNL A   1      43.760  26.639  30.043  1.00  0.00     0.029 A 
ATOM     46  N   UNL A   1      42.364  28.026  31.080  1.00  0.00    -0.354 N 
ATOM     47  N   UNL A   1      41.454  29.717  33.311  1.00  0.00    -0.248 NA
ATOM     48  C   UNL A   1      41.672  30.436  35.523  1.00  0.00     0.031 C 
ATOM     49  C   UNL A   1      44.282  26.930  31.309  1.00  0.00     0.029 A 
ATOM     50  C   UNL A   1      43.414  27.798  31.953  1.00  0.00     0.049 A 
ATOM     51  H   UNL A   1      41.591  28.606  31.266  1.00  0.00     0.167 HD
ATOM     52  C   UNL A   1      42.628  29.198  33.845  1.00  0.00     0.074 A 
ATOM     53  C   UNL A   1      42.732  29.706  35.197  1.00  0.00     0.031 C 
ATOM     54  C   UNL A   1      43.527  28.359  33.275  1.00  0.00     0.034 A 
BRANCH  41  55
ATOM     55  C   UNL A   1      42.009  26.479  27.589  1.00  0.00     0.023 A 
ATOM     56  C   UNL A   1      42.626  27.076  26.472  1.00  0.00     0.012 A 
ATOM     57  C   UNL A   1      41.774  25.090  27.591  1.00  0.00     0.148 A 
ATOM     58  C   UNL A   1      42.985  26.308  25.365  1.00  0.00     0.002 A 
ATOM     59  C   UNL A   1      42.166  24.325  26.498  1.00  0.00     0.091 A 
ATOM     60  F   UNL A   1      41.160  24.546  28.652  1.00  0.00    -0.205 F 
ATOM     61  C   UNL A   1      42.764  24.932  25.383  1.00  0.00     0.022 A 
BRANCH  59  62
ATOM     62  S   UNL A   1      41.982  22.538  26.458  1.00  0.00     0.127 S 
ATOM     63  O   UNL A   1      40.528  22.391  26.448  1.00  0.00    -0.237 OA
ATOM     64  O   UNL A   1      42.638  22.185  25.199  1.00  0.00    -0.237 OA
ATOM     65  O   UNL A   1      42.657  22.041  27.650  1.00  0.00    -0.744 OA
ENDBRANCH  59  62
ENDBRANCH  41  55
BRANCH  42  66
ATOM     66  C   UNL A   1      39.217  32.058  35.408  1.00  0.00     0.023 A 
ATOM     67  C   UNL A   1      38.360  31.473  36.359  1.00  0.00     0.012 A 
ATOM     68  C   UNL A   1      39.682  33.371  35.616  1.00  0.00     0.148 A 
ATOM     69  C   UNL A   1      37.959  32.189  37.487  1.00  0.00     0.002 A 
ATOM     70  C   UNL A   1      39.322  34.060  36.769  1.00  0.00     0.091 A 
ATOM     71  F   UNL A   1      40.477  33.921  34.687  1.00  0.00    -0.205 F 
ATOM     72  C   UNL A   1      38.449  33.475  37.700  1.00  0.00     0.022 A 
BRANCH  70  73
ATOM     73  S   UNL A   1      40.019  35.663  37.180  1.00  0.00     0.127 S 
ATOM     74  O   UNL A   1      39.646  36.460  36.015  1.00  0.00    -0.237 OA
ATOM     75  O   UNL A   1      39.304  36.002  38.412  1.00  0.00    -0.237 OA
ATOM     76  O   UNL A   1      41.445  35.429  37.365  1.00  0.00    -0.744 OA
ENDBRANCH  70  73
ENDBRANCH  42  66
BRANCH  54  77
ATOM     77  C   UNL A   1      44.715  27.945  34.103  1.00  0.00     0.023 A 
ATOM     78  C   UNL A   1      45.868  28.754  34.110  1.00  0.00     0.012 A 
ATOM     79  C   UNL A   1      44.661  26.807  34.930  1.00  0.00     0.148 A 
ATOM     80  C   UNL A   1      46.959  28.424  34.911  1.00  0.00     0.002 A 
ATOM     81  C   UNL A   1      45.738  26.507  35.758  1.00  0.00     0.091 A 
ATOM     82  F   UNL A   1      43.563  26.037  34.891  1.00  0.00    -0.205 F 
ATOM     83  C   UNL A   1      46.890  27.309  35.744  1.00  0.00     0.022 A 
BRANCH  81  84
ATOM     84  S   UNL A   1      45.691  25.140  36.922  1.00  0.00     0.127 S 
ATOM     85  O   UNL A   1      44.348  25.273  37.485  1.00  0.00    -0.237 OA
ATOM     86  O   UNL A   1      45.875  23.977  36.052  1.00  0.00    -0.237 OA
ATOM     87  O   UNL A   1      46.789  25.373  37.850  1.00  0.00    -0.744 OA
ENDBRANCH  81  84
ENDBRANCH  54  77
ENDBRANCH  28  29
ENDBRANCH  21  23
ENDBRANCH  20  21
ENDBRANCH  19  20
ENDBRANCH   1  19
TORSDOF 19
ENDMDL
MODEL 2
REMARK VINA RESULT:     -10.5      5.025     10.006
REMARK SMILES C[C@H](O)C[C@@H](Cc1cccc(Br)c1)C(=O)OCCOC(=O)c1ccc(-c2c3nc(c(-c4cccc(S(=O)(=O)[O-])c4F)c4ccc([nH]4)c(-c4cccc(S(=O)(=O)[O-])c4F)c4nc(c(-c5cccc(S(=O)(=O)[O-])c5F)c5ccc2[nH]5)C=C4)C=C3)cc1
REMARK SMILES IDX 17 1 16 2 14 3 15 4 5 5 4 6 2 7 1 8 3 9 6 11 7 12 8 13 13 14
REMARK SMILES IDX 9 15 11 16 10 17 12 18 18 19 19 20 20 21 21 22 22 23 23 24
REMARK SMILES IDX 84 25 24 26 83 27 25 28 26 29 27 30 77 31 28 32 82 33 76 34
REMARK SMILES IDX 78 35 29 36 81 37 75 38 74 39 30 41 62 42 42 43 61 44 43 45
REMARK SMILES IDX 46 46 60 47 79 48 44 49 45 50 59 52 80 53 47 54 31 55 32 56
REMARK SMILES IDX 40 57 33 58 35 59 41 60 34 61 36 62 37 63 38 64 39 65 63 66
REMARK SMILES IDX 64 67 72 68 65 69 67 70 73 71 66 72 68 73 69 74 70 75 71 76
REMARK SMILES IDX 48 77 49 78 57 79 50 80 52 81 58 82 51 83 53 84 54 85 55 86
REMARK SMILES IDX 56 87
REMARK H PARENT 3 10 78 40 46 51
REMARK Flexibility Score: inf
ROOT
ATOM      1  C   UNL A   1      35.232  20.355  25.056  1.00  0.00     0.274 C 
ENDROOT
BRANCH   1   2
ATOM      2  O   UNL A   1      34.691  21.679  24.874  1.00  0.00    -0.462 OA
BRANCH   2   3
ATOM      3  C   UNL A   1      33.828  22.114  25.828  1.00  0.00     0.309 C 
ATOM      4  O   UNL A   1      33.644  21.570  26.910  1.00  0.00    -0.252 OA
BRANCH   3   5
ATOM      5  C   UNL A   1      33.034  23.338  25.395  1.00  0.00     0.106 C 
BRANCH   5   6
ATOM      6  C   UNL A   1      31.531  23.057  25.185  1.00  0.00     0.047 C 
BRANCH   6   7
ATOM      7  C   UNL A   1      31.009  23.408  23.786  1.00  0.00     0.112 C 
ATOM      8  C   UNL A   1      32.153  23.776  22.851  1.00  0.00     0.038 C 
BRANCH   7   9
ATOM      9  O   UNL A   1      30.132  24.526  23.851  1.00  0.00    -0.393 OA
ATOM     10  H   UNL A   1      30.630  25.339  23.669  1.00  0.00     0.210 HD
ENDBRANCH   7   9
ENDBRANCH   6   7
ENDBRANCH   5   6
BRANCH   5  11
ATOM     11  C   UNL A   1      33.408  24.528  26.298  1.00  0.00     0.051 C 
BRANCH  11  12
ATOM     12  C   UNL A   1      32.932  25.901  25.879  1.00  0.00    -0.046 A 
ATOM     13  C   UNL A   1      31.881  26.560  26.529  1.00  0.00     0.004 A 
ATOM     14  C   UNL A   1      33.531  26.530  24.774  1.00  0.00     0.019 A 
ATOM     15  C   UNL A   1      31.480  27.837  26.133  1.00  0.00     0.001 A 
ATOM     16  C   UNL A   1      33.106  27.794  24.363  1.00  0.00     0.018 A 
ATOM     17  C   UNL A   1      32.093  28.457  25.047  1.00  0.00     0.016 A 
ATOM     18  Br  UNL A   1      33.906  28.608  22.856  1.00  0.00    -0.051 Br
ENDBRANCH  11  12
ENDBRANCH   5  11
ENDBRANCH   3   5
ENDBRANCH   2   3
ENDBRANCH   1   2
BRANCH   1  19
ATOM     19  C   UNL A   1      36.748  20.340  24.848  1.00  0.00     0.275 C 
BRANCH  19  20
ATOM     20  O   UNL A   1      37.394  21.335  25.659  1.00  0.00    -0.458 OA
BRANCH  20  21
ATOM     21  C   UNL A   1      38.692  21.083  25.941  1.00  0.00     0.338 C 
ATOM     22  O   UNL A   1      39.322  20.066  25.689  1.00  0.00    -0.246 OA
BRANCH  21  23
ATOM     23  C   UNL A   1      39.314  22.291  26.500  1.00  0.00     0.060 A 
ATOM     24  C   UNL A   1      38.838  23.534  26.077  1.00  0.00     0.016 A 
ATOM     25  C   UNL A   1      40.409  22.203  27.359  1.00  0.00     0.016 A 
ATOM     26  C   UNL A   1      39.469  24.701  26.487  1.00  0.00     0.010 A 
ATOM     27  C   UNL A   1      41.036  23.378  27.782  1.00  0.00     0.010 A 
ATOM     28  C   UNL A   1      40.581  24.631  27.333  1.00  0.00    -0.014 A 
BRANCH  28  29
ATOM     29  C   UNL A   1      41.294  25.874  27.704  1.00  0.00     0.031 A 
ATOM     30  C   UNL A   1      40.574  26.943  28.474  1.00  0.00     0.074 A 
ATOM     31  C   UNL A   1      42.582  26.035  27.349  1.00  0.00     0.049 A 
ATOM     32  N   UNL A   1      40.995  28.128  28.827  1.00  0.00    -0.248 NA
ATOM     33  C   UNL A   1      39.197  26.640  28.898  1.00  0.00     0.031 C 
ATOM     34  C   UNL A   1      43.381  25.057  26.611  1.00  0.00     0.029 A 
ATOM     35  N   UNL A   1      43.436  27.091  27.543  1.00  0.00    -0.354 N 
ATOM     36  C   UNL A   1      39.925  28.732  29.473  1.00  0.00     0.074 A 
ATOM     37  C   UNL A   1      38.834  27.782  29.469  1.00  0.00     0.031 C 
ATOM     38  C   UNL A   1      44.604  25.568  26.395  1.00  0.00     0.029 A 
ATOM     39  C   UNL A   1      44.662  26.918  26.948  1.00  0.00     0.049 A 
ATOM     40  H   UNL A   1      43.193  27.894  28.059  1.00  0.00     0.167 HD
ATOM     41  C   UNL A   1      39.862  29.964  30.031  1.00  0.00     0.034 A 
ATOM     42  C   UNL A   1      45.705  27.764  26.837  1.00  0.00     0.034 A 
ATOM     43  C   UNL A   1      40.965  30.886  30.074  1.00  0.00     0.049 A 
ATOM     44  C   UNL A   1      45.611  29.125  27.473  1.00  0.00     0.074 A 
ATOM     45  C   UNL A   1      41.016  32.140  30.658  1.00  0.00     0.029 A 
ATOM     46  N   UNL A   1      42.211  30.654  29.512  1.00  0.00    -0.354 N 
ATOM     47  N   UNL A   1      44.625  29.644  28.164  1.00  0.00    -0.248 NA
ATOM     48  C   UNL A   1      46.779  30.005  27.335  1.00  0.00     0.031 C 
ATOM     49  C   UNL A   1      42.293  32.670  30.439  1.00  0.00     0.029 A 
ATOM     50  C   UNL A   1      43.038  31.743  29.729  1.00  0.00     0.049 A 
ATOM     51  H   UNL A   1      42.469  29.836  29.030  1.00  0.00     0.167 HD
ATOM     52  C   UNL A   1      45.062  30.902  28.563  1.00  0.00     0.074 A 
ATOM     53  C   UNL A   1      46.410  31.056  28.059  1.00  0.00     0.031 C 
ATOM     54  C   UNL A   1      44.398  31.853  29.266  1.00  0.00     0.034 A 
BRANCH  41  55
ATOM     55  C   UNL A   1      38.565  30.377  30.668  1.00  0.00     0.023 A 
ATOM     56  C   UNL A   1      38.322  30.058  32.019  1.00  0.00     0.012 A 
ATOM     57  C   UNL A   1      37.610  31.124  29.950  1.00  0.00     0.148 A 
ATOM     58  C   UNL A   1      37.140  30.457  32.641  1.00  0.00     0.002 A 
ATOM     59  C   UNL A   1      36.449  31.548  30.586  1.00  0.00     0.091 A 
ATOM     60  F   UNL A   1      37.848  31.392  28.658  1.00  0.00    -0.205 F 
ATOM     61  C   UNL A   1      36.209  31.210  31.927  1.00  0.00     0.022 A 
BRANCH  59  62
ATOM     62  S   UNL A   1      35.224  32.577  29.768  1.00  0.00     0.127 S 
ATOM     63  O   UNL A   1      34.692  31.659  28.762  1.00  0.00    -0.237 OA
ATOM     64  O   UNL A   1      34.299  32.887  30.858  1.00  0.00    -0.237 OA
ATOM     65  O   UNL A   1      35.952  33.726  29.248  1.00  0.00    -0.744 OA
ENDBRANCH  59  62
ENDBRANCH  41  55
BRANCH  42  66
ATOM     66  C   UNL A   1      46.937  27.326  26.124  1.00  0.00     0.023 A 
ATOM     67  C   UNL A   1      47.100  27.647  24.762  1.00  0.00     0.012 A 
ATOM     68  C   UNL A   1      47.966  26.638  26.796  1.00  0.00     0.148 A 
ATOM     69  C   UNL A   1      48.257  27.274  24.079  1.00  0.00     0.002 A 
ATOM     70  C   UNL A   1      49.140  26.317  26.123  1.00  0.00     0.091 A 
ATOM     71  F   UNL A   1      47.783  26.319  28.086  1.00  0.00    -0.205 F 
ATOM     72  C   UNL A   1      49.282  26.622  24.761  1.00  0.00     0.022 A 
BRANCH  70  73
ATOM     73  S   UNL A   1      50.556  25.600  26.965  1.00  0.00     0.127 S 
ATOM     74  O   UNL A   1      49.990  24.372  27.512  1.00  0.00    -0.237 OA
ATOM     75  O   UNL A   1      51.501  25.406  25.863  1.00  0.00    -0.237 OA
ATOM     76  O   UNL A   1      50.975  26.601  27.937  1.00  0.00    -0.744 OA
ENDBRANCH  70  73
ENDBRANCH  42  66
BRANCH  54  77
ATOM     77  C   UNL A   1      45.123  33.143  29.548  1.00  0.00     0.023 A 
ATOM     78  C   UNL A   1      45.886  33.264  30.725  1.00  0.00     0.012 A 
ATOM     79  C   UNL A   1      45.112  34.198  28.616  1.00  0.00     0.148 A 
ATOM     80  C   UNL A   1      46.612  34.426  30.982  1.00  0.00     0.002 A 
ATOM     81  C   UNL A   1      45.871  35.338  28.859  1.00  0.00     0.091 A 
ATOM     82  F   UNL A   1      44.360  34.073  27.512  1.00  0.00    -0.205 F 
ATOM     83  C   UNL A   1      46.615  35.457  30.044  1.00  0.00     0.022 A 
BRANCH  81  84
ATOM     84  S   UNL A   1      45.997  36.671  27.662  1.00  0.00     0.127 S 
ATOM     85  O   UNL A   1      44.682  37.299  27.774  1.00  0.00    -0.237 OA
ATOM     86  O   UNL A   1      47.102  37.471  28.195  1.00  0.00    -0.237 OA
ATOM     87  O   UNL A   1      46.284  36.031  26.386  1.00  0.00    -0.744 OA
ENDBRANCH  81  84
ENDBRANCH  54  77
ENDBRANCH  28  29
ENDBRANCH  21  23
ENDBRANCH  20  21
ENDBRANCH  19  20
ENDBRANCH   1  19
TORSDOF 19
ENDMDL
MODEL 3
REMARK VINA RESULT:     -10.2      1.958      8.177
REMARK SMILES C[C@H](O)C[C@@H](Cc1cccc(Br)c1)C(=O)OCCOC(=O)c1ccc(-c2c3nc(c(-c4cccc(S(=O)(=O)[O-])c4F)c4ccc([nH]4)c(-c4cccc(S(=O)(=O)[O-])c4F)c4nc(c(-c5cccc(S(=O)(=O)[O-])c5F)c5ccc2[nH]5)C=C4)C=C3)cc1
REMARK SMILES IDX 17 1 16 2 14 3 15 4 5 5 4 6 2 7 1 8 3 9 6 11 7 12 8 13 13 14
REMARK SMILES IDX 9 15 11 16 10 17 12 18 18 19 19 20 20 21 21 22 22 23 23 24
REMARK SMILES IDX 84 25 24 26 83 27 25 28 26 29 27 30 77 31 28 32 82 33 76 34
REMARK SMILES IDX 78 35 29 36 81 37 75 38 74 39 30 41 62 42 42 43 61 44 43 45
REMARK SMILES IDX 46 46 60 47 79 48 44 49 45 50 59 52 80 53 47 54 31 55 32 56
REMARK SMILES IDX 40 57 33 58 35 59 41 60 34 61 36 62 37 63 38 64 39 65 63 66
REMARK SMILES IDX 64 67 72 68 65 69 67 70 73 71 66 72 68 73 69 74 70 75 71 76
REMARK SMILES IDX 48 77 49 78 57 79 50 80 52 81 58 82 51 83 53 84 54 85 55 86
REMARK SMILES IDX 56 87
REMARK H PARENT 3 10 78 40 46 51
REMARK Flexibility Score: inf
ROOT
ATOM      1  C   UNL A   1      31.594  29.982  26.027  1.00  0.00     0.274 C 
ENDROOT
BRANCH   1   2
ATOM      2  O   UNL A   1      31.871  28.756  25.321  1.00  0.00    -0.462 OA
BRANCH   2   3
ATOM      3  C   UNL A   1      31.482  28.708  24.021  1.00  0.00     0.309 C 
ATOM      4  O   UNL A   1      32.236  28.785  23.058  1.00  0.00    -0.252 OA
BRANCH   3   5
ATOM      5  C   UNL A   1      29.972  28.617  23.857  1.00  0.00     0.106 C 
BRANCH   5   6
ATOM      6  C   UNL A   1      29.346  29.858  23.188  1.00  0.00     0.047 C 
BRANCH   6   7
ATOM      7  C   UNL A   1      28.171  29.550  22.253  1.00  0.00     0.112 C 
ATOM      8  C   UNL A   1      28.046  30.607  21.163  1.00  0.00     0.038 C 
BRANCH   7   9
ATOM      9  O   UNL A   1      26.948  29.540  22.980  1.00  0.00    -0.393 OA
ATOM     10  H   UNL A   1      26.957  28.809  23.618  1.00  0.00     0.210 HD
ENDBRANCH   7   9
ENDBRANCH   6   7
ENDBRANCH   5   6
BRANCH   5  11
ATOM     11  C   UNL A   1      29.611  27.241  23.267  1.00  0.00     0.051 C 
BRANCH  11  12
ATOM     12  C   UNL A   1      30.056  26.013  24.030  1.00  0.00    -0.046 A 
ATOM     13  C   UNL A   1      29.876  25.884  25.413  1.00  0.00     0.004 A 
ATOM     14  C   UNL A   1      30.711  24.976  23.344  1.00  0.00     0.019 A 
ATOM     15  C   UNL A   1      30.277  24.729  26.085  1.00  0.00     0.001 A 
ATOM     16  C   UNL A   1      31.137  23.836  24.025  1.00  0.00     0.018 A 
ATOM     17  C   UNL A   1      30.910  23.700  25.391  1.00  0.00     0.016 A 
ATOM     18  Br  UNL A   1      32.042  22.466  23.088  1.00  0.00    -0.051 Br
ENDBRANCH  11  12
ENDBRANCH   5  11
ENDBRANCH   3   5
ENDBRANCH   2   3
ENDBRANCH   1   2
BRANCH   1  19
ATOM     19  C   UNL A   1      32.843  30.860  26.132  1.00  0.00     0.275 C 
BRANCH  19  20
ATOM     20  O   UNL A   1      33.045  31.318  27.479  1.00  0.00    -0.458 OA
BRANCH  20  21
ATOM     21  C   UNL A   1      33.971  32.294  27.615  1.00  0.00     0.338 C 
ATOM     22  O   UNL A   1      33.806  33.497  27.471  1.00  0.00    -0.246 OA
BRANCH  21  23
ATOM     23  C   UNL A   1      35.226  31.712  28.106  1.00  0.00     0.060 A 
ATOM     24  C   UNL A   1      35.220  30.375  28.509  1.00  0.00     0.016 A 
ATOM     25  C   UNL A   1      36.371  32.494  28.254  1.00  0.00     0.016 A 
ATOM     26  C   UNL A   1      36.351  29.814  29.088  1.00  0.00     0.010 A 
ATOM     27  C   UNL A   1      37.514  31.926  28.824  1.00  0.00     0.010 A 
ATOM     28  C   UNL A   1      37.503  30.589  29.261  1.00  0.00    -0.014 A 
BRANCH  28  29
ATOM     29  C   UNL A   1      38.678  30.007  29.947  1.00  0.00     0.031 A 
ATOM     30  C   UNL A   1      39.035  30.465  31.331  1.00  0.00     0.074 A 
ATOM     31  C   UNL A   1      39.417  29.071  29.324  1.00  0.00     0.049 A 
ATOM     32  N   UNL A   1      40.062  30.135  32.068  1.00  0.00    -0.248 NA
ATOM     33  C   UNL A   1      38.117  31.424  31.968  1.00  0.00     0.031 C 
ATOM     34  C   UNL A   1      39.155  28.544  27.984  1.00  0.00     0.029 A 
ATOM     35  N   UNL A   1      40.551  28.414  29.728  1.00  0.00    -0.354 N 
ATOM     36  C   UNL A   1      39.943  30.877  33.236  1.00  0.00     0.074 A 
ATOM     37  C   UNL A   1      38.740  31.672  33.113  1.00  0.00     0.031 C 
ATOM     38  C   UNL A   1      40.115  27.660  27.667  1.00  0.00     0.029 A 
ATOM     39  C   UNL A   1      41.075  27.585  28.765  1.00  0.00     0.049 A 
ATOM     40  H   UNL A   1      40.951  28.526  30.621  1.00  0.00     0.167 HD
ATOM     41  C   UNL A   1      40.756  30.886  34.317  1.00  0.00     0.034 A 
ATOM     42  C   UNL A   1      42.215  26.867  28.759  1.00  0.00     0.034 A 
ATOM     43  C   UNL A   1      41.925  30.057  34.452  1.00  0.00     0.049 A 
ATOM     44  C   UNL A   1      43.098  26.888  29.977  1.00  0.00     0.074 A 
ATOM     45  C   UNL A   1      42.788  29.958  35.529  1.00  0.00     0.029 A 
ATOM     46  N   UNL A   1      42.392  29.186  33.481  1.00  0.00    -0.354 N 
ATOM     47  N   UNL A   1      42.920  27.521  31.112  1.00  0.00    -0.248 NA
ATOM     48  C   UNL A   1      44.323  26.079  29.925  1.00  0.00     0.031 C 
ATOM     49  C   UNL A   1      43.785  29.031  35.204  1.00  0.00     0.029 A 
ATOM     50  C   UNL A   1      43.536  28.548  33.929  1.00  0.00     0.049 A 
ATOM     51  H   UNL A   1      41.973  29.043  32.602  1.00  0.00     0.167 HD
ATOM     52  C   UNL A   1      43.997  27.170  31.917  1.00  0.00     0.074 A 
ATOM     53  C   UNL A   1      44.808  26.248  31.150  1.00  0.00     0.031 C 
ATOM     54  C   UNL A   1      44.299  27.589  33.170  1.00  0.00     0.034 A 
BRANCH  41  55
ATOM     55  C   UNL A   1      40.395  31.798  35.456  1.00  0.00     0.023 A 
ATOM     56  C   UNL A   1      41.129  32.985  35.655  1.00  0.00     0.012 A 
ATOM     57  C   UNL A   1      39.302  31.511  36.296  1.00  0.00     0.148 A 
ATOM     58  C   UNL A   1      40.793  33.862  36.685  1.00  0.00     0.002 A 
ATOM     59  C   UNL A   1      38.951  32.406  37.300  1.00  0.00     0.091 A 
ATOM     60  F   UNL A   1      38.635  30.362  36.107  1.00  0.00    -0.205 F 
ATOM     61  C   UNL A   1      39.699  33.578  37.500  1.00  0.00     0.022 A 
BRANCH  59  62
ATOM     62  S   UNL A   1      37.519  32.157  38.355  1.00  0.00     0.127 S 
ATOM     63  O   UNL A   1      38.003  32.671  39.635  1.00  0.00    -0.237 OA
ATOM     64  O   UNL A   1      36.506  32.992  37.708  1.00  0.00    -0.237 OA
ATOM     65  O   UNL A   1      37.238  30.728  38.316  1.00  0.00    -0.744 OA
ENDBRANCH  59  62
ENDBRANCH  41  55
BRANCH  42  66
ATOM     66  C   UNL A   1      42.560  26.042  27.567  1.00  0.00     0.023 A 
ATOM     67  C   UNL A   1      43.368  26.593  26.554  1.00  0.00     0.012 A 
ATOM     68  C   UNL A   1      42.134  24.704  27.455  1.00  0.00     0.148 A 
ATOM     69  C   UNL A   1      43.729  25.831  25.442  1.00  0.00     0.002 A 
ATOM     70  C   UNL A   1      42.542  23.934  26.372  1.00  0.00     0.091 A 
ATOM     71  F   UNL A   1      41.344  24.204  28.417  1.00  0.00    -0.205 F 
ATOM     72  C   UNL A   1      43.329  24.500  25.357  1.00  0.00     0.022 A 
BRANCH  70  73
ATOM     73  S   UNL A   1      42.181  22.178  26.259  1.00  0.00     0.127 S 
ATOM     74  O   UNL A   1      42.706  21.682  27.527  1.00  0.00    -0.237 OA
ATOM     75  O   UNL A   1      40.721  22.171  26.151  1.00  0.00    -0.237 OA
ATOM     76  O   UNL A   1      42.868  21.719  25.059  1.00  0.00    -0.744 OA
ENDBRANCH  70  73
ENDBRANCH  42  66
BRANCH  54  77
ATOM     77  C   UNL A   1      45.552  27.045  33.804  1.00  0.00     0.023 A 
ATOM     78  C   UNL A   1      46.756  27.766  33.684  1.00  0.00     0.012 A 
ATOM     79  C   UNL A   1      45.520  25.870  34.579  1.00  0.00     0.148 A 
ATOM     80  C   UNL A   1      47.916  27.313  34.309  1.00  0.00     0.002 A 
ATOM     81  C   UNL A   1      46.672  25.447  35.233  1.00  0.00     0.091 A 
ATOM     82  F   UNL A   1      44.369  25.186  34.660  1.00  0.00    -0.205 F 
ATOM     83  C   UNL A   1      47.872  26.162  35.093  1.00  0.00     0.022 A 
BRANCH  81  84
ATOM     84  S   UNL A   1      46.676  24.025  36.330  1.00  0.00     0.127 S 
ATOM     85  O   UNL A   1      45.652  24.397  37.305  1.00  0.00    -0.237 OA
ATOM     86  O   UNL A   1      46.294  22.932  35.434  1.00  0.00    -0.237 OA
ATOM     87  O   UNL A   1      48.034  23.928  36.848  1.00  0.00    -0.744 OA
ENDBRANCH  81  84
ENDBRANCH  54  77
ENDBRANCH  28  29
ENDBRANCH  21  23
ENDBRANCH  20  21
ENDBRANCH  19  20
ENDBRANCH   1  19
TORSDOF 19
ENDMDL
