MODEL 1
REMARK VINA RESULT:     -11.9      0.000      0.000
REMARK SMILES Cc1cccc(CS[C@@H]2CC[C@]([NH3+])(C(=O)OCCOC(=O)c3ccc(-c4c5nc(c(-c6cccc(S(=O)(=O)[O-])c6F)c6ccc([nH]6)c(-c6cccc(S(=O)(=O)[O-])c6F)c6nc(c(-c7cccc(S(=O)(=O)[O-])c7F)c7ccc4[nH]7)C=C6)C=C5)cc3)C2)c1
REMARK SMILES IDX 17 1 16 2 14 3 15 4 12 5 9 6 10 7 85 8 11 9 8 10 7 11 6 12
REMARK SMILES IDX 1 13 2 14 3 15 86 16 4 17 5 18 13 19 18 23 19 24 20 25 21 26
REMARK SMILES IDX 22 27 23 28 84 29 24 30 83 31 25 32 26 33 27 34 77 35 28 36
REMARK SMILES IDX 82 37 76 38 78 39 29 40 81 41 75 42 74 43 30 45 62 46 42 47
REMARK SMILES IDX 61 48 43 49 46 50 60 51 79 52 44 53 45 54 59 56 80 57 47 58
REMARK SMILES IDX 31 59 32 60 40 61 33 62 35 63 41 64 34 65 36 66 37 67 38 68
REMARK SMILES IDX 39 69 63 70 64 71 72 72 65 73 67 74 73 75 66 76 68 77 69 78
REMARK SMILES IDX 70 79 71 80 48 81 49 82 57 83 50 84 52 85 58 86 51 87 53 88
REMARK SMILES IDX 54 89 55 90 56 91
REMARK H PARENT 13 20 13 21 13 22 78 44 46 55
REMARK Flexibility Score: inf
ROOT
ATOM      1  C   UNL A   1      37.271  21.644  24.847  1.00  0.00     0.274 C 
ENDROOT
BRANCH   1   2
ATOM      2  O   UNL A   1      36.183  22.573  24.948  1.00  0.00    -0.457 OA
BRANCH   2   3
ATOM      3  C   UNL A   1      35.651  23.033  23.795  1.00  0.00     0.368 C 
ATOM      4  O   UNL A   1      36.218  22.943  22.707  1.00  0.00    -0.245 OA
BRANCH   3   5
ATOM      5  C   UNL A   1      34.161  23.495  23.898  1.00  0.00     0.193 C 
ATOM      6  C   UNL A   1      32.061  23.937  24.954  1.00  0.00     0.054 C 
ATOM      7  C   UNL A   1      31.834  22.658  24.160  1.00  0.00     0.022 C 
ATOM      8  C   UNL A   1      33.565  23.848  25.291  1.00  0.00     0.095 C 
ATOM      9  C   UNL A   1      33.136  22.467  23.357  1.00  0.00     0.082 C 
BRANCH   6  10
ATOM     10  S   UNL A   1      30.776  24.461  26.138  1.00  0.00    -0.154 SA
BRANCH  10  11
ATOM     11  C   UNL A   1      30.511  26.213  25.785  1.00  0.00     0.105 C 
BRANCH  11  12
ATOM     12  C   UNL A   1      31.705  27.120  25.901  1.00  0.00    -0.038 A 
ATOM     13  C   UNL A   1      34.055  28.652  23.385  1.00  0.00     0.044 C 
ATOM     14  C   UNL A   1      33.466  28.298  24.705  1.00  0.00    -0.051 A 
ATOM     15  C   UNL A   1      33.935  28.833  25.905  1.00  0.00     0.003 A 
ATOM     16  C   UNL A   1      32.353  27.465  24.716  1.00  0.00     0.008 A 
ATOM     17  C   UNL A   1      33.271  28.543  27.097  1.00  0.00     0.001 A 
ATOM     18  C   UNL A   1      32.151  27.704  27.093  1.00  0.00     0.004 A 
ENDBRANCH  11  12
ENDBRANCH  10  11
ENDBRANCH   6  10
BRANCH   5  19
ATOM     19  N   UNL A   1      34.103  24.722  23.017  1.00  0.00    -0.343 N 
ATOM     20  H   UNL A   1      33.712  25.502  23.545  1.00  0.00     0.345 HD
ATOM     21  H   UNL A   1      33.513  24.531  22.206  1.00  0.00     0.345 HD
ATOM     22  H   UNL A   1      35.044  24.961  22.704  1.00  0.00     0.345 HD
ENDBRANCH   5  19
ENDBRANCH   3   5
ENDBRANCH   2   3
ENDBRANCH   1   2
BRANCH   1  23
ATOM     23  C   UNL A   1      38.514  21.736  25.766  1.00  0.00     0.275 C 
BRANCH  23  24
ATOM     24  O   UNL A   1      38.840  22.941  26.508  1.00  0.00    -0.458 OA
BRANCH  24  25
ATOM     25  C   UNL A   1      40.073  23.436  26.821  1.00  0.00     0.338 C 
ATOM     26  O   UNL A   1      41.107  22.844  26.599  1.00  0.00    -0.246 OA
BRANCH  25  27
ATOM     27  C   UNL A   1      40.052  24.760  27.449  1.00  0.00     0.060 A 
ATOM     28  C   UNL A   1      40.430  25.894  26.720  1.00  0.00     0.016 A 
ATOM     29  C   UNL A   1      39.438  24.857  28.688  1.00  0.00     0.016 A 
ATOM     30  C   UNL A   1      40.041  27.156  27.176  1.00  0.00     0.010 A 
ATOM     31  C   UNL A   1      38.936  26.077  29.066  1.00  0.00     0.010 A 
ATOM     32  C   UNL A   1      39.255  27.239  28.331  1.00  0.00    -0.014 A 
BRANCH  32  33
ATOM     33  C   UNL A   1      39.101  28.453  29.132  1.00  0.00     0.031 A 
ATOM     34  C   UNL A   1      38.095  29.516  28.922  1.00  0.00     0.074 A 
ATOM     35  C   UNL A   1      40.022  28.490  30.125  1.00  0.00     0.049 A 
ATOM     36  N   UNL A   1      37.973  30.527  29.714  1.00  0.00    -0.248 NA
ATOM     37  C   UNL A   1      37.197  29.594  27.768  1.00  0.00     0.031 C 
ATOM     38  C   UNL A   1      40.123  29.331  31.296  1.00  0.00     0.029 A 
ATOM     39  N   UNL A   1      41.224  27.763  30.124  1.00  0.00    -0.354 N 
ATOM     40  C   UNL A   1      37.101  31.428  29.142  1.00  0.00     0.074 A 
ATOM     41  C   UNL A   1      36.539  30.744  27.999  1.00  0.00     0.031 C 
ATOM     42  C   UNL A   1      41.394  29.288  31.738  1.00  0.00     0.029 A 
ATOM     43  C   UNL A   1      42.178  28.533  30.770  1.00  0.00     0.049 A 
ATOM     44  H   UNL A   1      41.365  26.869  29.737  1.00  0.00     0.167 HD
ATOM     45  C   UNL A   1      37.040  32.705  29.615  1.00  0.00     0.034 A 
ATOM     46  C   UNL A   1      43.323  28.915  30.136  1.00  0.00     0.034 A 
ATOM     47  C   UNL A   1      38.227  33.015  30.427  1.00  0.00     0.049 A 
ATOM     48  C   UNL A   1      43.393  30.425  30.069  1.00  0.00     0.074 A 
ATOM     49  C   UNL A   1      38.617  32.634  31.699  1.00  0.00     0.029 A 
ATOM     50  N   UNL A   1      39.360  33.560  29.825  1.00  0.00    -0.354 N 
ATOM     51  N   UNL A   1      42.372  31.218  30.267  1.00  0.00    -0.248 NA
ATOM     52  C   UNL A   1      44.622  31.151  29.791  1.00  0.00     0.031 C 
ATOM     53  C   UNL A   1      40.032  32.761  31.774  1.00  0.00     0.029 A 
ATOM     54  C   UNL A   1      40.502  33.276  30.575  1.00  0.00     0.049 A 
ATOM     55  H   UNL A   1      39.354  34.075  28.985  1.00  0.00     0.167 HD
ATOM     56  C   UNL A   1      42.755  32.521  30.092  1.00  0.00     0.074 A 
ATOM     57  C   UNL A   1      44.192  32.422  29.863  1.00  0.00     0.031 C 
ATOM     58  C   UNL A   1      41.859  33.562  30.077  1.00  0.00     0.034 A 
BRANCH  45  59
ATOM     59  C   UNL A   1      35.823  33.608  29.551  1.00  0.00     0.023 A 
ATOM     60  C   UNL A   1      35.465  34.023  28.245  1.00  0.00     0.012 A 
ATOM     61  C   UNL A   1      35.083  34.175  30.614  1.00  0.00     0.148 A 
ATOM     62  C   UNL A   1      34.478  34.979  27.997  1.00  0.00     0.002 A 
ATOM     63  C   UNL A   1      34.113  35.162  30.367  1.00  0.00     0.091 A 
ATOM     64  F   UNL A   1      35.296  33.753  31.865  1.00  0.00    -0.205 F 
ATOM     65  C   UNL A   1      33.813  35.564  29.060  1.00  0.00     0.022 A 
BRANCH  63  66
ATOM     66  S   UNL A   1      33.230  36.044  31.671  1.00  0.00     0.127 S 
ATOM     67  O   UNL A   1      32.366  34.994  32.215  1.00  0.00    -0.237 OA
ATOM     68  O   UNL A   1      34.312  36.458  32.564  1.00  0.00    -0.237 OA
ATOM     69  O   UNL A   1      32.519  37.134  31.017  1.00  0.00    -0.744 OA
ENDBRANCH  63  66
ENDBRANCH  45  59
BRANCH  46  70
ATOM     70  C   UNL A   1      43.841  27.946  29.101  1.00  0.00     0.023 A 
ATOM     71  C   UNL A   1      44.128  26.621  29.533  1.00  0.00     0.012 A 
ATOM     72  C   UNL A   1      43.772  28.171  27.717  1.00  0.00     0.148 A 
ATOM     73  C   UNL A   1      44.216  25.551  28.635  1.00  0.00     0.002 A 
ATOM     74  C   UNL A   1      43.876  27.092  26.824  1.00  0.00     0.091 A 
ATOM     75  F   UNL A   1      43.533  29.411  27.270  1.00  0.00    -0.205 F 
ATOM     76  C   UNL A   1      44.067  25.782  27.278  1.00  0.00     0.022 A 
BRANCH  74  77
ATOM     77  S   UNL A   1      43.560  27.353  25.078  1.00  0.00     0.127 S 
ATOM     78  O   UNL A   1      42.515  28.376  25.056  1.00  0.00    -0.237 OA
ATOM     79  O   UNL A   1      44.849  27.834  24.608  1.00  0.00    -0.237 OA
ATOM     80  O   UNL A   1      43.139  26.032  24.629  1.00  0.00    -0.744 OA
ENDBRANCH  74  77
ENDBRANCH  46  70
BRANCH  58  81
ATOM     81  C   UNL A   1      42.222  34.945  29.568  1.00  0.00     0.023 A 
ATOM     82  C   UNL A   1      41.560  35.541  28.473  1.00  0.00     0.012 A 
ATOM     83  C   UNL A   1      43.148  35.759  30.257  1.00  0.00     0.148 A 
ATOM     84  C   UNL A   1      41.880  36.819  28.007  1.00  0.00     0.002 A 
ATOM     85  C   UNL A   1      43.360  37.083  29.876  1.00  0.00     0.091 A 
ATOM     86  F   UNL A   1      43.845  35.258  31.287  1.00  0.00    -0.205 F 
ATOM     87  C   UNL A   1      42.769  37.602  28.723  1.00  0.00     0.022 A 
BRANCH  85  88
ATOM     88  S   UNL A   1      44.237  38.205  30.970  1.00  0.00     0.127 S 
ATOM     89  O   UNL A   1      43.422  38.153  32.181  1.00  0.00    -0.237 OA
ATOM     90  O   UNL A   1      45.551  37.571  31.093  1.00  0.00    -0.237 OA
ATOM     91  O   UNL A   1      44.250  39.469  30.246  1.00  0.00    -0.744 OA
ENDBRANCH  85  88
ENDBRANCH  58  81
ENDBRANCH  32  33
ENDBRANCH  25  27
ENDBRANCH  24  25
ENDBRANCH  23  24
ENDBRANCH   1  23
TORSDOF 18
ENDMDL
MODEL 2
REMARK VINA RESULT:     -11.8      1.685      2.214
REMARK SMILES Cc1cccc(CS[C@@H]2CC[C@]([NH3+])(C(=O)OCCOC(=O)c3ccc(-c4c5nc(c(-c6cccc(S(=O)(=O)[O-])c6F)c6ccc([nH]6)c(-c6cccc(S(=O)(=O)[O-])c6F)c6nc(c(-c7cccc(S(=O)(=O)[O-])c7F)c7ccc4[nH]7)C=C6)C=C5)cc3)C2)c1
REMARK SMILES IDX 17 1 16 2 14 3 15 4 12 5 9 6 10 7 85 8 11 9 8 10 7 11 6 12
REMARK SMILES IDX 1 13 2 14 3 15 86 16 4 17 5 18 13 19 18 23 19 24 20 25 21 26
REMARK SMILES IDX 22 27 23 28 84 29 24 30 83 31 25 32 26 33 27 34 77 35 28 36
REMARK SMILES IDX 82 37 76 38 78 39 29 40 81 41 75 42 74 43 30 45 62 46 42 47
REMARK SMILES IDX 61 48 43 49 46 50 60 51 79 52 44 53 45 54 59 56 80 57 47 58
REMARK SMILES IDX 31 59 32 60 40 61 33 62 35 63 41 64 34 65 36 66 37 67 38 68
REMARK SMILES IDX 39 69 63 70 64 71 72 72 65 73 67 74 73 75 66 76 68 77 69 78
REMARK SMILES IDX 70 79 71 80 48 81 49 82 57 83 50 84 52 85 58 86 51 87 53 88
REMARK SMILES IDX 54 89 55 90 56 91
REMARK H PARENT 13 20 13 21 13 22 78 44 46 55
REMARK Flexibility Score: inf
ROOT
ATOM      1  C   UNL A   1      37.400  22.070  25.184  1.00  0.00     0.274 C 
ENDROOT
BRANCH   1   2
ATOM      2  O   UNL A   1      36.075  22.091  24.634  1.00  0.00    -0.457 OA
BRANCH   2   3
ATOM      3  C   UNL A   1      35.811  23.017  23.687  1.00  0.00     0.368 C 
ATOM      4  O   UNL A   1      36.448  23.112  22.639  1.00  0.00    -0.245 OA
BRANCH   3   5
ATOM      5  C   UNL A   1      34.494  23.830  23.914  1.00  0.00     0.193 C 
ATOM      6  C   UNL A   1      32.775  25.417  23.422  1.00  0.00     0.054 C 
ATOM      7  C   UNL A   1      33.628  26.089  24.490  1.00  0.00     0.022 C 
ATOM      8  C   UNL A   1      33.803  24.518  22.703  1.00  0.00     0.095 C 
ATOM      9  C   UNL A   1      34.634  25.002  24.917  1.00  0.00     0.082 C 
BRANCH   6  10
ATOM     10  S   UNL A   1      31.515  26.419  22.565  1.00  0.00    -0.154 SA
BRANCH  10  11
ATOM     11  C   UNL A   1      31.167  27.787  23.692  1.00  0.00     0.105 C 
BRANCH  11  12
ATOM     12  C   UNL A   1      29.865  28.513  23.501  1.00  0.00    -0.038 A 
ATOM     13  C   UNL A   1      28.903  32.157  23.487  1.00  0.00     0.044 C 
ATOM     14  C   UNL A   1      28.755  30.677  23.428  1.00  0.00    -0.051 A 
ATOM     15  C   UNL A   1      27.540  30.055  23.139  1.00  0.00     0.003 A 
ATOM     16  C   UNL A   1      29.899  29.905  23.590  1.00  0.00     0.008 A 
ATOM     17  C   UNL A   1      27.492  28.668  22.996  1.00  0.00     0.001 A 
ATOM     18  C   UNL A   1      28.652  27.902  23.159  1.00  0.00     0.004 A 
ENDBRANCH  11  12
ENDBRANCH  10  11
ENDBRANCH   6  10
BRANCH   5  19
ATOM     19  N   UNL A   1      33.544  22.816  24.507  1.00  0.00    -0.343 N 
ATOM     20  H   UNL A   1      33.044  22.338  23.758  1.00  0.00     0.345 HD
ATOM     21  H   UNL A   1      32.873  23.292  25.112  1.00  0.00     0.345 HD
ATOM     22  H   UNL A   1      34.070  22.134  25.054  1.00  0.00     0.345 HD
ENDBRANCH   5  19
ENDBRANCH   3   5
ENDBRANCH   2   3
ENDBRANCH   1   2
BRANCH   1  23
ATOM     23  C   UNL A   1      38.014  23.307  25.886  1.00  0.00     0.275 C 
BRANCH  23  24
ATOM     24  O   UNL A   1      39.280  23.245  26.594  1.00  0.00    -0.458 OA
BRANCH  24  25
ATOM     25  C   UNL A   1      40.263  24.189  26.656  1.00  0.00     0.338 C 
ATOM     26  O   UNL A   1      41.350  24.058  26.134  1.00  0.00    -0.246 OA
BRANCH  25  27
ATOM     27  C   UNL A   1      39.899  25.395  27.404  1.00  0.00     0.060 A 
ATOM     28  C   UNL A   1      39.204  25.292  28.616  1.00  0.00     0.016 A 
ATOM     29  C   UNL A   1      40.464  26.589  26.983  1.00  0.00     0.016 A 
ATOM     30  C   UNL A   1      39.210  26.377  29.497  1.00  0.00     0.010 A 
ATOM     31  C   UNL A   1      40.589  27.603  27.899  1.00  0.00     0.010 A 
ATOM     32  C   UNL A   1      39.942  27.518  29.151  1.00  0.00    -0.014 A 
BRANCH  32  33
ATOM     33  C   UNL A   1      39.739  28.835  29.753  1.00  0.00     0.031 A 
ATOM     34  C   UNL A   1      38.621  29.762  29.471  1.00  0.00     0.074 A 
ATOM     35  C   UNL A   1      40.732  29.117  30.630  1.00  0.00     0.049 A 
ATOM     36  N   UNL A   1      38.470  30.881  30.096  1.00  0.00    -0.248 NA
ATOM     37  C   UNL A   1      37.627  29.567  28.416  1.00  0.00     0.031 C 
ATOM     38  C   UNL A   1      40.851  30.153  31.631  1.00  0.00     0.029 A 
ATOM     39  N   UNL A   1      41.995  28.500  30.630  1.00  0.00    -0.354 N 
ATOM     40  C   UNL A   1      37.470  31.597  29.472  1.00  0.00     0.074 A 
ATOM     41  C   UNL A   1      36.883  30.683  28.518  1.00  0.00     0.031 C 
ATOM     42  C   UNL A   1      42.152  30.289  31.946  1.00  0.00     0.029 A 
ATOM     43  C   UNL A   1      42.922  29.444  31.042  1.00  0.00     0.049 A 
ATOM     44  H   UNL A   1      42.188  27.567  30.383  1.00  0.00     0.167 HD
ATOM     45  C   UNL A   1      37.328  32.927  29.733  1.00  0.00     0.034 A 
ATOM     46  C   UNL A   1      43.967  29.801  30.244  1.00  0.00     0.034 A 
ATOM     47  C   UNL A   1      38.543  33.467  30.361  1.00  0.00     0.049 A 
ATOM     48  C   UNL A   1      43.886  31.278  29.923  1.00  0.00     0.074 A 
ATOM     49  C   UNL A   1      39.074  33.344  31.633  1.00  0.00     0.029 A 
ATOM     50  N   UNL A   1      39.563  33.989  29.568  1.00  0.00    -0.354 N 
ATOM     51  N   UNL A   1      42.813  32.009  30.088  1.00  0.00    -0.248 NA
ATOM     52  C   UNL A   1      45.012  32.042  29.409  1.00  0.00     0.031 C 
ATOM     53  C   UNL A   1      40.471  33.595  31.546  1.00  0.00     0.029 A 
ATOM     54  C   UNL A   1      40.787  33.931  30.238  1.00  0.00     0.049 A 
ATOM     55  H   UNL A   1      39.438  34.349  28.660  1.00  0.00     0.167 HD
ATOM     56  C   UNL A   1      43.053  33.288  29.665  1.00  0.00     0.074 A 
ATOM     57  C   UNL A   1      44.469  33.268  29.314  1.00  0.00     0.031 C 
ATOM     58  C   UNL A   1      42.064  34.236  29.567  1.00  0.00     0.034 A 
BRANCH  45  59
ATOM     59  C   UNL A   1      36.028  33.704  29.643  1.00  0.00     0.023 A 
ATOM     60  C   UNL A   1      35.629  34.035  28.323  1.00  0.00     0.012 A 
ATOM     61  C   UNL A   1      35.238  34.235  30.688  1.00  0.00     0.148 A 
ATOM     62  C   UNL A   1      34.554  34.881  28.046  1.00  0.00     0.002 A 
ATOM     63  C   UNL A   1      34.176  35.113  30.410  1.00  0.00     0.091 A 
ATOM     64  F   UNL A   1      35.493  33.882  31.951  1.00  0.00    -0.205 F 
ATOM     65  C   UNL A   1      33.836  35.437  29.090  1.00  0.00     0.022 A 
BRANCH  63  66
ATOM     66  S   UNL A   1      33.213  35.952  31.686  1.00  0.00     0.127 S 
ATOM     67  O   UNL A   1      34.263  36.498  32.548  1.00  0.00    -0.237 OA
ATOM     68  O   UNL A   1      32.479  36.959  30.919  1.00  0.00    -0.237 OA
ATOM     69  O   UNL A   1      32.386  34.929  32.312  1.00  0.00    -0.744 OA
ENDBRANCH  63  66
ENDBRANCH  45  59
BRANCH  46  70
ATOM     70  C   UNL A   1      44.487  28.713  29.337  1.00  0.00     0.023 A 
ATOM     71  C   UNL A   1      44.864  27.483  29.942  1.00  0.00     0.012 A 
ATOM     72  C   UNL A   1      44.341  28.726  27.940  1.00  0.00     0.148 A 
ATOM     73  C   UNL A   1      44.967  26.295  29.208  1.00  0.00     0.002 A 
ATOM     74  C   UNL A   1      44.460  27.531  27.211  1.00  0.00     0.091 A 
ATOM     75  F   UNL A   1      44.015  29.873  27.329  1.00  0.00    -0.205 F 
ATOM     76  C   UNL A   1      44.742  26.314  27.841  1.00  0.00     0.022 A 
BRANCH  74  77
ATOM     77  S   UNL A   1      44.049  27.514  25.465  1.00  0.00     0.127 S 
ATOM     78  O   UNL A   1      42.908  28.422  25.360  1.00  0.00    -0.237 OA
ATOM     79  O   UNL A   1      45.265  28.041  24.865  1.00  0.00    -0.237 OA
ATOM     80  O   UNL A   1      43.744  26.110  25.223  1.00  0.00    -0.744 OA
ENDBRANCH  74  77
ENDBRANCH  46  70
BRANCH  58  81
ATOM     81  C   UNL A   1      42.247  35.535  28.805  1.00  0.00     0.023 A 
ATOM     82  C   UNL A   1      41.634  35.766  27.555  1.00  0.00     0.012 A 
ATOM     83  C   UNL A   1      42.931  36.630  29.379  1.00  0.00     0.148 A 
ATOM     84  C   UNL A   1      41.789  36.965  26.853  1.00  0.00     0.002 A 
ATOM     85  C   UNL A   1      42.962  37.869  28.740  1.00  0.00     0.091 A 
ATOM     86  F   UNL A   1      43.571  36.483  30.548  1.00  0.00    -0.205 F 
ATOM     87  C   UNL A   1      42.438  38.028  27.456  1.00  0.00     0.022 A 
BRANCH  85  88
ATOM     88  S   UNL A   1      43.495  39.330  29.637  1.00  0.00     0.127 S 
ATOM     89  O   UNL A   1      44.618  39.796  28.827  1.00  0.00    -0.237 OA
ATOM     90  O   UNL A   1      42.309  40.188  29.585  1.00  0.00    -0.237 OA
ATOM     91  O   UNL A   1      43.812  38.834  30.969  1.00  0.00    -0.744 OA
ENDBRANCH  85  88
ENDBRANCH  58  81
ENDBRANCH  32  33
ENDBRANCH  25  27
ENDBRANCH  24  25
ENDBRANCH  23  24
ENDBRANCH   1  23
TORSDOF 18
ENDMDL
MODEL 3
REMARK VINA RESULT:     -11.5      4.068     10.536
REMARK SMILES Cc1cccc(CS[C@@H]2CC[C@]([NH3+])(C(=O)OCCOC(=O)c3ccc(-c4c5nc(c(-c6cccc(S(=O)(=O)[O-])c6F)c6ccc([nH]6)c(-c6cccc(S(=O)(=O)[O-])c6F)c6nc(c(-c7cccc(S(=O)(=O)[O-])c7F)c7ccc4[nH]7)C=C6)C=C5)cc3)C2)c1
REMARK SMILES IDX 17 1 16 2 14 3 15 4 12 5 9 6 10 7 85 8 11 9 8 10 7 11 6 12
REMARK SMILES IDX 1 13 2 14 3 15 86 16 4 17 5 18 13 19 18 23 19 24 20 25 21 26
REMARK SMILES IDX 22 27 23 28 84 29 24 30 83 31 25 32 26 33 27 34 77 35 28 36
REMARK SMILES IDX 82 37 76 38 78 39 29 40 81 41 75 42 74 43 30 45 62 46 42 47
REMARK SMILES IDX 61 48 43 49 46 50 60 51 79 52 44 53 45 54 59 56 80 57 47 58
REMARK SMILES IDX 31 59 32 60 40 61 33 62 35 63 41 64 34 65 36 66 37 67 38 68
REMARK SMILES IDX 39 69 63 70 64 71 72 72 65 73 67 74 73 75 66 76 68 77 69 78
REMARK SMILES IDX 70 79 71 80 48 81 49 82 57 83 50 84 52 85 58 86 51 87 53 88
REMARK SMILES IDX 54 89 55 90 56 91
REMARK H PARENT 13 20 13 21 13 22 78 44 46 55
REMARK Flexibility Score: inf
ROOT
ATOM      1  C   UNL A   1      33.124  36.739  31.630  1.00  0.00     0.274 C 
ENDROOT
BRANCH   1   2
ATOM      2  O   UNL A   1      33.624  36.842  30.290  1.00  0.00    -0.457 OA
BRANCH   2   3
ATOM      3  C   UNL A   1      33.040  36.068  29.349  1.00  0.00     0.368 C 
ATOM      4  O   UNL A   1      32.033  36.406  28.727  1.00  0.00    -0.245 OA
BRANCH   3   5
ATOM      5  C   UNL A   1      33.857  34.798  28.944  1.00  0.00     0.193 C 
ATOM      6  C   UNL A   1      34.210  32.546  28.221  1.00  0.00     0.054 C 
ATOM      7  C   UNL A   1      34.505  32.524  29.714  1.00  0.00     0.022 C 
ATOM      8  C   UNL A   1      33.168  33.679  28.112  1.00  0.00     0.095 C 
ATOM      9  C   UNL A   1      34.433  34.003  30.143  1.00  0.00     0.082 C 
BRANCH   6  10
ATOM     10  S   UNL A   1      34.089  30.955  27.338  1.00  0.00    -0.154 SA
BRANCH  10  11
ATOM     11  C   UNL A   1      32.315  30.670  27.142  1.00  0.00     0.105 C 
BRANCH  11  12
ATOM     12  C   UNL A   1      31.897  29.344  26.571  1.00  0.00    -0.038 A 
ATOM     13  C   UNL A   1      30.874  28.209  23.126  1.00  0.00     0.044 C 
ATOM     14  C   UNL A   1      31.161  28.146  24.585  1.00  0.00    -0.051 A 
ATOM     15  C   UNL A   1      31.122  26.954  25.308  1.00  0.00     0.003 A 
ATOM     16  C   UNL A   1      31.560  29.317  25.217  1.00  0.00     0.008 A 
ATOM     17  C   UNL A   1      31.504  26.947  26.650  1.00  0.00     0.001 A 
ATOM     18  C   UNL A   1      31.906  28.133  27.274  1.00  0.00     0.004 A 
ENDBRANCH  11  12
ENDBRANCH  10  11
ENDBRANCH   6  10
BRANCH   5  19
ATOM     19  N   UNL A   1      35.017  35.354  28.150  1.00  0.00    -0.343 N 
ATOM     20  H   UNL A   1      35.887  34.938  28.481  1.00  0.00     0.345 HD
ATOM     21  H   UNL A   1      35.058  36.367  28.272  1.00  0.00     0.345 HD
ATOM     22  H   UNL A   1      34.888  35.136  27.162  1.00  0.00     0.345 HD
ENDBRANCH   5  19
ENDBRANCH   3   5
ENDBRANCH   2   3
ENDBRANCH   1   2
BRANCH   1  23
ATOM     23  C   UNL A   1      34.068  36.741  32.858  1.00  0.00     0.275 C 
BRANCH  23  24
ATOM     24  O   UNL A   1      35.254  35.906  32.924  1.00  0.00    -0.458 OA
BRANCH  24  25
ATOM     25  C   UNL A   1      35.496  34.840  33.741  1.00  0.00     0.338 C 
ATOM     26  O   UNL A   1      34.872  34.622  34.758  1.00  0.00    -0.246 OA
BRANCH  25  27
ATOM     27  C   UNL A   1      36.577  33.962  33.287  1.00  0.00     0.060 A 
ATOM     28  C   UNL A   1      36.706  32.669  33.811  1.00  0.00     0.016 A 
ATOM     29  C   UNL A   1      37.302  34.379  32.182  1.00  0.00     0.016 A 
ATOM     30  C   UNL A   1      37.464  31.726  33.113  1.00  0.00     0.010 A 
ATOM     31  C   UNL A   1      37.930  33.424  31.423  1.00  0.00     0.010 A 
ATOM     32  C   UNL A   1      38.041  32.097  31.894  1.00  0.00    -0.014 A 
BRANCH  32  33
ATOM     33  C   UNL A   1      39.145  31.381  31.257  1.00  0.00     0.031 A 
ATOM     34  C   UNL A   1      39.073  30.042  30.632  1.00  0.00     0.074 A 
ATOM     35  C   UNL A   1      40.283  32.114  31.310  1.00  0.00     0.049 A 
ATOM     36  N   UNL A   1      40.076  29.502  30.026  1.00  0.00    -0.248 NA
ATOM     37  C   UNL A   1      37.912  29.154  30.702  1.00  0.00     0.031 C 
ATOM     38  C   UNL A   1      41.546  31.958  30.626  1.00  0.00     0.029 A 
ATOM     39  N   UNL A   1      40.517  33.158  32.222  1.00  0.00    -0.354 N 
ATOM     40  C   UNL A   1      39.758  28.191  29.738  1.00  0.00     0.074 A 
ATOM     41  C   UNL A   1      38.354  28.061  30.055  1.00  0.00     0.031 C 
ATOM     42  C   UNL A   1      42.481  32.651  31.303  1.00  0.00     0.029 A 
ATOM     43  C   UNL A   1      41.869  33.150  32.527  1.00  0.00     0.049 A 
ATOM     44  H   UNL A   1      39.845  33.781  32.579  1.00  0.00     0.167 HD
ATOM     45  C   UNL A   1      40.743  27.318  29.387  1.00  0.00     0.034 A 
ATOM     46  C   UNL A   1      42.301  32.986  33.809  1.00  0.00     0.034 A 
ATOM     47  C   UNL A   1      42.064  27.847  29.759  1.00  0.00     0.049 A 
ATOM     48  C   UNL A   1      43.149  31.737  33.909  1.00  0.00     0.074 A 
ATOM     49  C   UNL A   1      42.856  28.849  29.227  1.00  0.00     0.029 A 
ATOM     50  N   UNL A   1      42.602  27.557  31.012  1.00  0.00    -0.354 N 
ATOM     51  N   UNL A   1      43.174  30.790  33.006  1.00  0.00    -0.248 NA
ATOM     52  C   UNL A   1      44.044  31.471  35.024  1.00  0.00     0.031 C 
ATOM     53  C   UNL A   1      43.734  29.298  30.252  1.00  0.00     0.029 A 
ATOM     54  C   UNL A   1      43.525  28.534  31.390  1.00  0.00     0.049 A 
ATOM     55  H   UNL A   1      42.363  26.771  31.555  1.00  0.00     0.167 HD
ATOM     56  C   UNL A   1      44.005  29.781  33.413  1.00  0.00     0.074 A 
ATOM     57  C   UNL A   1      44.577  30.295  34.652  1.00  0.00     0.031 C 
ATOM     58  C   UNL A   1      44.103  28.585  32.745  1.00  0.00     0.034 A 
BRANCH  45  59
ATOM     59  C   UNL A   1      40.559  26.097  28.506  1.00  0.00     0.023 A 
ATOM     60  C   UNL A   1      39.378  26.106  27.722  1.00  0.00     0.012 A 
ATOM     61  C   UNL A   1      41.337  24.917  28.453  1.00  0.00     0.148 A 
ATOM     62  C   UNL A   1      38.955  25.006  26.975  1.00  0.00     0.002 A 
ATOM     63  C   UNL A   1      40.894  23.798  27.727  1.00  0.00     0.091 A 
ATOM     64  F   UNL A   1      42.515  24.875  29.083  1.00  0.00    -0.205 F 
ATOM     65  C   UNL A   1      39.704  23.842  26.990  1.00  0.00     0.022 A 
BRANCH  63  66
ATOM     66  S   UNL A   1      41.747  22.206  27.725  1.00  0.00     0.127 S 
ATOM     67  O   UNL A   1      42.427  22.229  26.429  1.00  0.00    -0.237 OA
ATOM     68  O   UNL A   1      42.641  22.324  28.876  1.00  0.00    -0.237 OA
ATOM     69  O   UNL A   1      40.712  21.189  27.849  1.00  0.00    -0.744 OA
ENDBRANCH  63  66
ENDBRANCH  45  59
BRANCH  46  70
ATOM     70  C   UNL A   1      41.383  33.534  34.874  1.00  0.00     0.023 A 
ATOM     71  C   UNL A   1      41.088  34.925  34.828  1.00  0.00     0.012 A 
ATOM     72  C   UNL A   1      40.582  32.733  35.702  1.00  0.00     0.148 A 
ATOM     73  C   UNL A   1      39.971  35.468  35.476  1.00  0.00     0.002 A 
ATOM     74  C   UNL A   1      39.472  33.290  36.358  1.00  0.00     0.091 A 
ATOM     75  F   UNL A   1      40.847  31.423  35.795  1.00  0.00    -0.205 F 
ATOM     76  C   UNL A   1      39.147  34.644  36.225  1.00  0.00     0.022 A 
BRANCH  74  77
ATOM     77  S   UNL A   1      38.325  32.219  37.227  1.00  0.00     0.127 S 
ATOM     78  O   UNL A   1      38.384  30.961  36.484  1.00  0.00    -0.237 OA
ATOM     79  O   UNL A   1      38.930  32.139  38.547  1.00  0.00    -0.237 OA
ATOM     80  O   UNL A   1      37.065  32.943  37.115  1.00  0.00    -0.744 OA
ENDBRANCH  74  77
ENDBRANCH  46  70
BRANCH  58  81
ATOM     81  C   UNL A   1      44.758  27.360  33.354  1.00  0.00     0.023 A 
ATOM     82  C   UNL A   1      46.158  27.179  33.358  1.00  0.00     0.012 A 
ATOM     83  C   UNL A   1      44.003  26.406  34.072  1.00  0.00     0.148 A 
ATOM     84  C   UNL A   1      46.770  26.060  33.929  1.00  0.00     0.002 A 
ATOM     85  C   UNL A   1      44.629  25.369  34.761  1.00  0.00     0.091 A 
ATOM     86  F   UNL A   1      42.665  26.485  34.090  1.00  0.00    -0.205 F 
ATOM     87  C   UNL A   1      46.005  25.160  34.651  1.00  0.00     0.022 A 
BRANCH  85  88
ATOM     88  S   UNL A   1      43.709  24.403  35.964  1.00  0.00     0.127 S 
ATOM     89  O   UNL A   1      44.751  23.559  36.543  1.00  0.00    -0.237 OA
ATOM     90  O   UNL A   1      43.184  25.430  36.866  1.00  0.00    -0.237 OA
ATOM     91  O   UNL A   1      42.688  23.729  35.172  1.00  0.00    -0.744 OA
ENDBRANCH  85  88
ENDBRANCH  58  81
ENDBRANCH  32  33
ENDBRANCH  25  27
ENDBRANCH  24  25
ENDBRANCH  23  24
ENDBRANCH   1  23
TORSDOF 18
ENDMDL
