MODEL 1
REMARK VINA RESULT:      -9.3      0.000      0.000
REMARK SMILES CC(C)C(=O)Nc1ccc2[nH]cc([C@@H](C(=O)OCCOC(=O)c3ccc(-c4c5nc(c(-c6cccc(S(=O)(=O)[O-])c6F)c6ccc([nH]6)c(-c6cccc(S(=O)(=O)[O-])c6F)c6nc(c(-c7cccc(S(=O)(=O)[O-])c7F)c7ccc4[nH]7)C=C6)C=C5)cc3)[NH+]3CC[NH+](CCC#N)CC3)c2c1
REMARK SMILES IDX 18 1 17 2 15 3 16 4 14 5 13 6 7 7 8 8 97 9 9 10 96 11 10 12
REMARK SMILES IDX 11 13 12 14 6 16 4 17 5 18 2 20 1 21 3 22 86 23 87 24 95 25
REMARK SMILES IDX 88 27 94 28 89 29 90 31 91 32 92 33 93 34 19 35 20 36 21 37
REMARK SMILES IDX 22 38 23 39 24 40 85 41 25 42 84 43 26 44 27 45 28 46 78 47
REMARK SMILES IDX 29 48 83 49 77 50 79 51 30 52 82 53 76 54 75 55 31 57 63 58
REMARK SMILES IDX 43 59 62 60 44 61 47 62 61 63 80 64 45 65 46 66 60 68 81 69
REMARK SMILES IDX 48 70 32 71 33 72 41 73 34 74 36 75 42 76 35 77 37 78 38 79
REMARK SMILES IDX 39 80 40 81 64 82 65 83 73 84 66 85 68 86 74 87 67 88 69 89
REMARK SMILES IDX 70 90 71 91 72 92 49 93 50 94 58 95 51 96 53 97 59 98 52 99
REMARK SMILES IDX 54 100 55 101 56 102 57 103
REMARK H PARENT 11 15 6 19 86 26 89 30 79 56 47 67
REMARK Flexibility Score: inf
ROOT
ATOM      1  C   UNL A   1      43.830  29.714  26.679  1.00  0.00     0.274 C 
ENDROOT
BRANCH   1   2
ATOM      2  O   UNL A   1      42.438  29.718  27.061  1.00  0.00    -0.457 OA
BRANCH   2   3
ATOM      3  C   UNL A   1      41.610  28.957  26.299  1.00  0.00     0.370 C 
ATOM      4  O   UNL A   1      41.802  28.742  25.102  1.00  0.00    -0.245 OA
BRANCH   3   5
ATOM      5  C   UNL A   1      40.417  28.348  27.060  1.00  0.00     0.328 C 
BRANCH   5   6
ATOM      6  C   UNL A   1      39.889  28.973  28.334  1.00  0.00     0.046 A 
ATOM      7  C   UNL A   1      36.225  29.905  28.137  1.00  0.00     0.041 A 
ATOM      8  C   UNL A   1      35.927  29.652  29.472  1.00  0.00     0.028 A 
ATOM      9  C   UNL A   1      37.476  29.613  27.606  1.00  0.00     0.037 A 
ATOM     10  C   UNL A   1      36.940  29.318  30.374  1.00  0.00     0.029 A 
ATOM     11  C   UNL A   1      38.519  29.337  28.506  1.00  0.00     0.011 A 
ATOM     12  C   UNL A   1      38.241  29.267  29.869  1.00  0.00     0.046 A 
ATOM     13  N   UNL A   1      39.442  29.116  30.513  1.00  0.00    -0.361 N 
ATOM     14  C   UNL A   1      40.462  29.060  29.595  1.00  0.00     0.094 A 
ATOM     15  H   UNL A   1      39.558  29.057  31.488  1.00  0.00     0.166 HD
BRANCH   7  16
ATOM     16  N   UNL A   1      35.316  30.567  27.314  1.00  0.00    -0.326 N 
ATOM     17  C   UNL A   1      34.083  30.077  26.967  1.00  0.00     0.226 C 
ATOM     18  O   UNL A   1      33.260  30.879  26.510  1.00  0.00    -0.274 OA
ATOM     19  H   UNL A   1      35.577  31.446  26.957  1.00  0.00     0.169 HD
BRANCH  17  20
ATOM     20  C   UNL A   1      33.674  28.606  27.169  1.00  0.00     0.072 C 
ATOM     21  C   UNL A   1      32.236  28.406  27.635  1.00  0.00     0.018 C 
ATOM     22  C   UNL A   1      34.034  27.686  26.004  1.00  0.00     0.018 C 
ENDBRANCH  17  20
ENDBRANCH   7  16
ENDBRANCH   5   6
BRANCH   5  23
ATOM     23  N   UNL A   1      40.749  26.950  27.388  1.00  0.00    -0.310 N 
ATOM     24  C   UNL A   1      39.595  26.060  27.412  1.00  0.00     0.325 C 
ATOM     25  C   UNL A   1      42.004  26.400  26.896  1.00  0.00     0.325 C 
ATOM     26  H   UNL A   1      41.027  27.024  28.368  1.00  0.00     0.349 HD
ATOM     27  C   UNL A   1      39.605  24.812  26.498  1.00  0.00     0.324 C 
ATOM     28  C   UNL A   1      41.910  25.239  25.882  1.00  0.00     0.324 C 
ATOM     29  N   UNL A   1      40.900  24.216  26.151  1.00  0.00    -0.325 N 
ATOM     30  H   UNL A   1      40.761  23.735  25.263  1.00  0.00     0.348 HD
BRANCH  29  31
ATOM     31  C   UNL A   1      41.323  23.088  26.986  1.00  0.00     0.278 C 
BRANCH  31  32
ATOM     32  C   UNL A   1      42.740  22.532  26.859  1.00  0.00     0.181 C 
BRANCH  32  33
ATOM     33  C   UNL A   1      42.744  21.205  26.120  1.00  0.00     0.068 C 
ATOM     34  N   UNL A   1      42.748  20.104  25.505  1.00  0.00    -0.198 NA
ENDBRANCH  32  33
ENDBRANCH  31  32
ENDBRANCH  29  31
ENDBRANCH   5  23
ENDBRANCH   3   5
ENDBRANCH   2   3
ENDBRANCH   1   2
BRANCH   1  35
ATOM     35  C   UNL A   1      44.418  31.117  26.852  1.00  0.00     0.275 C 
BRANCH  35  36
ATOM     36  O   UNL A   1      43.724  32.103  26.057  1.00  0.00    -0.458 OA
BRANCH  36  37
ATOM     37  C   UNL A   1      44.461  33.212  25.743  1.00  0.00     0.338 C 
ATOM     38  O   UNL A   1      45.041  33.378  24.680  1.00  0.00    -0.246 OA
BRANCH  37  39
ATOM     39  C   UNL A   1      44.456  34.251  26.821  1.00  0.00     0.060 A 
ATOM     40  C   UNL A   1      45.487  34.373  27.734  1.00  0.00     0.016 A 
ATOM     41  C   UNL A   1      43.307  35.028  27.034  1.00  0.00     0.016 A 
ATOM     42  C   UNL A   1      45.242  35.025  28.964  1.00  0.00     0.010 A 
ATOM     43  C   UNL A   1      43.116  35.754  28.237  1.00  0.00     0.010 A 
ATOM     44  C   UNL A   1      44.002  35.622  29.318  1.00  0.00    -0.014 A 
BRANCH  44  45
ATOM     45  C   UNL A   1      43.534  35.855  30.783  1.00  0.00     0.031 A 
ATOM     46  C   UNL A   1      43.930  37.116  31.591  1.00  0.00     0.074 A 
ATOM     47  C   UNL A   1      42.607  35.099  31.429  1.00  0.00     0.049 A 
ATOM     48  N   UNL A   1      43.947  37.301  32.897  1.00  0.00    -0.248 NA
ATOM     49  C   UNL A   1      44.329  38.327  30.850  1.00  0.00     0.031 C 
ATOM     50  C   UNL A   1      41.917  33.930  30.900  1.00  0.00     0.029 A 
ATOM     51  N   UNL A   1      42.057  35.229  32.702  1.00  0.00    -0.354 N 
ATOM     52  C   UNL A   1      44.495  38.566  33.125  1.00  0.00     0.074 A 
ATOM     53  C   UNL A   1      44.742  39.139  31.819  1.00  0.00     0.031 C 
ATOM     54  C   UNL A   1      40.962  33.538  31.748  1.00  0.00     0.029 A 
ATOM     55  C   UNL A   1      41.164  34.224  33.013  1.00  0.00     0.049 A 
ATOM     56  H   UNL A   1      42.282  35.963  33.317  1.00  0.00     0.167 HD
ATOM     57  C   UNL A   1      44.761  39.203  34.299  1.00  0.00     0.034 A 
ATOM     58  C   UNL A   1      40.668  33.753  34.178  1.00  0.00     0.034 A 
ATOM     59  C   UNL A   1      44.342  38.753  35.608  1.00  0.00     0.049 A 
ATOM     60  C   UNL A   1      41.060  34.367  35.482  1.00  0.00     0.074 A 
ATOM     61  C   UNL A   1      44.565  39.355  36.840  1.00  0.00     0.029 A 
ATOM     62  N   UNL A   1      43.568  37.636  35.859  1.00  0.00    -0.354 N 
ATOM     63  N   UNL A   1      41.762  35.446  35.704  1.00  0.00    -0.248 NA
ATOM     64  C   UNL A   1      40.613  33.674  36.701  1.00  0.00     0.031 C 
ATOM     65  C   UNL A   1      43.939  38.592  37.834  1.00  0.00     0.029 A 
ATOM     66  C   UNL A   1      43.309  37.529  37.219  1.00  0.00     0.049 A 
ATOM     67  H   UNL A   1      43.248  37.005  35.173  1.00  0.00     0.167 HD
ATOM     68  C   UNL A   1      41.854  35.556  37.086  1.00  0.00     0.074 A 
ATOM     69  C   UNL A   1      41.094  34.462  37.652  1.00  0.00     0.031 C 
ATOM     70  C   UNL A   1      42.540  36.470  37.812  1.00  0.00     0.034 A 
BRANCH  57  71
ATOM     71  C   UNL A   1      45.562  40.490  34.279  1.00  0.00     0.023 A 
ATOM     72  C   UNL A   1      46.958  40.468  34.102  1.00  0.00     0.012 A 
ATOM     73  C   UNL A   1      44.884  41.731  34.237  1.00  0.00     0.148 A 
ATOM     74  C   UNL A   1      47.665  41.656  33.895  1.00  0.00     0.002 A 
ATOM     75  C   UNL A   1      45.589  42.903  33.984  1.00  0.00     0.091 A 
ATOM     76  F   UNL A   1      43.554  41.737  34.411  1.00  0.00    -0.205 F 
ATOM     77  C   UNL A   1      46.981  42.868  33.818  1.00  0.00     0.022 A 
BRANCH  75  78
ATOM     78  S   UNL A   1      44.772  44.490  33.751  1.00  0.00     0.127 S 
ATOM     79  O   UNL A   1      44.787  44.619  32.295  1.00  0.00    -0.237 OA
ATOM     80  O   UNL A   1      43.448  44.249  34.327  1.00  0.00    -0.237 OA
ATOM     81  O   UNL A   1      45.576  45.462  34.479  1.00  0.00    -0.744 OA
ENDBRANCH  75  78
ENDBRANCH  57  71
BRANCH  58  82
ATOM     82  C   UNL A   1      39.864  32.492  34.153  1.00  0.00     0.023 A 
ATOM     83  C   UNL A   1      38.479  32.527  33.919  1.00  0.00     0.012 A 
ATOM     84  C   UNL A   1      40.513  31.243  34.265  1.00  0.00     0.148 A 
ATOM     85  C   UNL A   1      37.764  31.337  33.765  1.00  0.00     0.002 A 
ATOM     86  C   UNL A   1      39.817  30.075  33.994  1.00  0.00     0.091 A 
ATOM     87  F   UNL A   1      41.819  31.225  34.564  1.00  0.00    -0.205 F 
ATOM     88  C   UNL A   1      38.437  30.116  33.765  1.00  0.00     0.022 A 
BRANCH  86  89
ATOM     89  S   UNL A   1      40.690  28.530  33.708  1.00  0.00     0.127 S 
ATOM     90  O   UNL A   1      41.138  28.181  35.053  1.00  0.00    -0.237 OA
ATOM     91  O   UNL A   1      39.633  27.674  33.166  1.00  0.00    -0.237 OA
ATOM     92  O   UNL A   1      41.733  28.857  32.744  1.00  0.00    -0.744 OA
ENDBRANCH  86  89
ENDBRANCH  58  82
BRANCH  70  93
ATOM     93  C   UNL A   1      42.488  36.338  39.310  1.00  0.00     0.023 A 
ATOM     94  C   UNL A   1      43.487  35.596  39.974  1.00  0.00     0.012 A 
ATOM     95  C   UNL A   1      41.449  36.919  40.061  1.00  0.00     0.148 A 
ATOM     96  C   UNL A   1      43.427  35.396  41.353  1.00  0.00     0.002 A 
ATOM     97  C   UNL A   1      41.415  36.747  41.441  1.00  0.00     0.091 A 
ATOM     98  F   UNL A   1      40.494  37.600  39.412  1.00  0.00    -0.205 F 
ATOM     99  C   UNL A   1      42.395  35.975  42.087  1.00  0.00     0.022 A 
BRANCH  97 100
ATOM    100  S   UNL A   1      40.152  37.502  42.473  1.00  0.00     0.127 S 
ATOM    101  O   UNL A   1      40.937  37.961  43.618  1.00  0.00    -0.237 OA
ATOM    102  O   UNL A   1      39.643  38.571  41.614  1.00  0.00    -0.237 OA
ATOM    103  O   UNL A   1      39.188  36.446  42.755  1.00  0.00    -0.744 OA
ENDBRANCH  97 100
ENDBRANCH  70  93
ENDBRANCH  44  45
ENDBRANCH  37  39
ENDBRANCH  36  37
ENDBRANCH  35  36
ENDBRANCH   1  35
TORSDOF 21
ENDMDL
MODEL 2
REMARK VINA RESULT:      -9.2      1.642      2.122
REMARK SMILES CC(C)C(=O)Nc1ccc2[nH]cc([C@@H](C(=O)OCCOC(=O)c3ccc(-c4c5nc(c(-c6cccc(S(=O)(=O)[O-])c6F)c6ccc([nH]6)c(-c6cccc(S(=O)(=O)[O-])c6F)c6nc(c(-c7cccc(S(=O)(=O)[O-])c7F)c7ccc4[nH]7)C=C6)C=C5)cc3)[NH+]3CC[NH+](CCC#N)CC3)c2c1
REMARK SMILES IDX 18 1 17 2 15 3 16 4 14 5 13 6 7 7 8 8 97 9 9 10 96 11 10 12
REMARK SMILES IDX 11 13 12 14 6 16 4 17 5 18 2 20 1 21 3 22 86 23 87 24 95 25
REMARK SMILES IDX 88 27 94 28 89 29 90 31 91 32 92 33 93 34 19 35 20 36 21 37
REMARK SMILES IDX 22 38 23 39 24 40 85 41 25 42 84 43 26 44 27 45 28 46 78 47
REMARK SMILES IDX 29 48 83 49 77 50 79 51 30 52 82 53 76 54 75 55 31 57 63 58
REMARK SMILES IDX 43 59 62 60 44 61 47 62 61 63 80 64 45 65 46 66 60 68 81 69
REMARK SMILES IDX 48 70 32 71 33 72 41 73 34 74 36 75 42 76 35 77 37 78 38 79
REMARK SMILES IDX 39 80 40 81 64 82 65 83 73 84 66 85 68 86 74 87 67 88 69 89
REMARK SMILES IDX 70 90 71 91 72 92 49 93 50 94 58 95 51 96 53 97 59 98 52 99
REMARK SMILES IDX 54 100 55 101 56 102 57 103
REMARK H PARENT 11 15 6 19 86 26 89 30 79 56 47 67
REMARK Flexibility Score: inf
ROOT
ATOM      1  C   UNL A   1      44.212  29.685  26.649  1.00  0.00     0.274 C 
ENDROOT
BRANCH   1   2
ATOM      2  O   UNL A   1      42.826  29.623  27.050  1.00  0.00    -0.457 OA
BRANCH   2   3
ATOM      3  C   UNL A   1      42.015  28.864  26.269  1.00  0.00     0.370 C 
ATOM      4  O   UNL A   1      42.083  28.847  25.040  1.00  0.00    -0.245 OA
BRANCH   3   5
ATOM      5  C   UNL A   1      41.013  27.988  27.046  1.00  0.00     0.328 C 
BRANCH   5   6
ATOM      6  C   UNL A   1      40.546  28.365  28.436  1.00  0.00     0.046 A 
ATOM      7  C   UNL A   1      37.110  29.956  28.483  1.00  0.00     0.041 A 
ATOM      8  C   UNL A   1      36.715  29.441  29.712  1.00  0.00     0.028 A 
ATOM      9  C   UNL A   1      38.314  29.585  27.894  1.00  0.00     0.037 A 
ATOM     10  C   UNL A   1      37.615  28.719  30.500  1.00  0.00     0.029 A 
ATOM     11  C   UNL A   1      39.253  28.914  28.696  1.00  0.00     0.011 A 
ATOM     12  C   UNL A   1      38.908  28.562  29.998  1.00  0.00     0.046 A 
ATOM     13  N   UNL A   1      40.036  28.046  30.582  1.00  0.00    -0.361 N 
ATOM     14  C   UNL A   1      41.069  28.036  29.679  1.00  0.00     0.094 A 
ATOM     15  H   UNL A   1      40.096  27.729  31.512  1.00  0.00     0.166 HD
BRANCH   7  16
ATOM     16  N   UNL A   1      36.367  30.952  27.852  1.00  0.00    -0.326 N 
ATOM     17  C   UNL A   1      36.217  32.229  28.329  1.00  0.00     0.226 C 
ATOM     18  O   UNL A   1      35.814  33.088  27.536  1.00  0.00    -0.274 OA
ATOM     19  H   UNL A   1      35.918  30.723  27.006  1.00  0.00     0.169 HD
BRANCH  17  20
ATOM     20  C   UNL A   1      36.572  32.636  29.771  1.00  0.00     0.072 C 
ATOM     21  C   UNL A   1      37.539  33.810  29.879  1.00  0.00     0.018 C 
ATOM     22  C   UNL A   1      35.367  32.798  30.696  1.00  0.00     0.018 C 
ENDBRANCH  17  20
ENDBRANCH   7  16
ENDBRANCH   5   6
BRANCH   5  23
ATOM     23  N   UNL A   1      41.574  26.630  27.149  1.00  0.00    -0.310 N 
ATOM     24  C   UNL A   1      40.567  25.582  27.255  1.00  0.00     0.325 C 
ATOM     25  C   UNL A   1      42.783  26.320  26.398  1.00  0.00     0.325 C 
ATOM     26  H   UNL A   1      42.010  26.652  28.072  1.00  0.00     0.349 HD
ATOM     27  C   UNL A   1      40.576  24.441  26.212  1.00  0.00     0.324 C 
ATOM     28  C   UNL A   1      42.660  25.258  25.283  1.00  0.00     0.324 C 
ATOM     29  N   UNL A   1      41.854  24.077  25.591  1.00  0.00    -0.325 N 
ATOM     30  H   UNL A   1      41.623  23.666  24.686  1.00  0.00     0.348 HD
BRANCH  29  31
ATOM     31  C   UNL A   1      42.560  22.950  26.207  1.00  0.00     0.278 C 
BRANCH  31  32
ATOM     32  C   UNL A   1      41.770  21.783  26.798  1.00  0.00     0.181 C 
BRANCH  32  33
ATOM     33  C   UNL A   1      42.070  20.489  26.060  1.00  0.00     0.068 C 
ATOM     34  N   UNL A   1      42.319  19.415  25.449  1.00  0.00    -0.198 NA
ENDBRANCH  32  33
ENDBRANCH  31  32
ENDBRANCH  29  31
ENDBRANCH   5  23
ENDBRANCH   3   5
ENDBRANCH   2   3
ENDBRANCH   1   2
BRANCH   1  35
ATOM     35  C   UNL A   1      44.674  31.144  26.604  1.00  0.00     0.275 C 
BRANCH  35  36
ATOM     36  O   UNL A   1      43.775  31.979  25.841  1.00  0.00    -0.458 OA
BRANCH  36  37
ATOM     37  C   UNL A   1      44.301  33.178  25.445  1.00  0.00     0.338 C 
ATOM     38  O   UNL A   1      44.677  33.425  24.308  1.00  0.00    -0.246 OA
BRANCH  37  39
ATOM     39  C   UNL A   1      44.332  34.201  26.537  1.00  0.00     0.060 A 
ATOM     40  C   UNL A   1      45.377  34.290  27.437  1.00  0.00     0.016 A 
ATOM     41  C   UNL A   1      43.202  34.998  26.776  1.00  0.00     0.016 A 
ATOM     42  C   UNL A   1      45.162  34.929  28.679  1.00  0.00     0.010 A 
ATOM     43  C   UNL A   1      43.042  35.711  27.991  1.00  0.00     0.010 A 
ATOM     44  C   UNL A   1      43.939  35.546  29.058  1.00  0.00    -0.014 A 
BRANCH  44  45
ATOM     45  C   UNL A   1      43.496  35.767  30.533  1.00  0.00     0.031 A 
ATOM     46  C   UNL A   1      43.899  37.026  31.341  1.00  0.00     0.074 A 
ATOM     47  C   UNL A   1      42.585  35.002  31.191  1.00  0.00     0.049 A 
ATOM     48  N   UNL A   1      43.937  37.204  32.648  1.00  0.00    -0.248 NA
ATOM     49  C   UNL A   1      44.278  38.244  30.601  1.00  0.00     0.031 C 
ATOM     50  C   UNL A   1      41.892  33.833  30.667  1.00  0.00     0.029 A 
ATOM     51  N   UNL A   1      42.056  35.122  32.473  1.00  0.00    -0.354 N 
ATOM     52  C   UNL A   1      44.482  38.471  32.874  1.00  0.00     0.074 A 
ATOM     53  C   UNL A   1      44.703  39.052  31.567  1.00  0.00     0.031 C 
ATOM     54  C   UNL A   1      40.955  33.431  31.529  1.00  0.00     0.029 A 
ATOM     55  C   UNL A   1      41.175  34.110  32.794  1.00  0.00     0.049 A 
ATOM     56  H   UNL A   1      42.288  35.853  33.089  1.00  0.00     0.167 HD
ATOM     57  C   UNL A   1      44.766  39.102  34.047  1.00  0.00     0.034 A 
ATOM     58  C   UNL A   1      40.701  33.629  33.966  1.00  0.00     0.034 A 
ATOM     59  C   UNL A   1      44.372  38.642  35.360  1.00  0.00     0.049 A 
ATOM     60  C   UNL A   1      41.113  34.237  35.266  1.00  0.00     0.074 A 
ATOM     61  C   UNL A   1      44.613  39.237  36.592  1.00  0.00     0.029 A 
ATOM     62  N   UNL A   1      43.609  37.519  35.618  1.00  0.00    -0.354 N 
ATOM     63  N   UNL A   1      41.813  35.320  35.482  1.00  0.00    -0.248 NA
ATOM     64  C   UNL A   1      40.691  33.535  36.488  1.00  0.00     0.031 C 
ATOM     65  C   UNL A   1      44.009  38.466  37.592  1.00  0.00     0.029 A 
ATOM     66  C   UNL A   1      43.374  37.402  36.982  1.00  0.00     0.049 A 
ATOM     67  H   UNL A   1      43.281  36.891  34.934  1.00  0.00     0.167 HD
ATOM     68  C   UNL A   1      41.929  35.422  36.863  1.00  0.00     0.074 A 
ATOM     69  C   UNL A   1      41.185  34.320  37.435  1.00  0.00     0.031 C 
ATOM     70  C   UNL A   1      42.622  36.336  37.582  1.00  0.00     0.034 A 
BRANCH  57  71
ATOM     71  C   UNL A   1      45.559  40.394  34.020  1.00  0.00     0.023 A 
ATOM     72  C   UNL A   1      46.949  40.382  33.799  1.00  0.00     0.012 A 
ATOM     73  C   UNL A   1      44.873  41.631  34.018  1.00  0.00     0.148 A 
ATOM     74  C   UNL A   1      47.643  41.577  33.587  1.00  0.00     0.002 A 
ATOM     75  C   UNL A   1      45.564  42.811  33.760  1.00  0.00     0.091 A 
ATOM     76  F   UNL A   1      43.550  41.627  34.234  1.00  0.00    -0.205 F 
ATOM     77  C   UNL A   1      46.951  42.786  33.550  1.00  0.00     0.022 A 
BRANCH  75  78
ATOM     78  S   UNL A   1      44.732  44.396  33.576  1.00  0.00     0.127 S 
ATOM     79  O   UNL A   1      43.590  44.236  34.475  1.00  0.00    -0.237 OA
ATOM     80  O   UNL A   1      45.747  45.341  34.045  1.00  0.00    -0.237 OA
ATOM     81  O   UNL A   1      44.408  44.514  32.161  1.00  0.00    -0.744 OA
ENDBRANCH  75  78
ENDBRANCH  57  71
BRANCH  58  82
ATOM     82  C   UNL A   1      39.905  32.363  33.946  1.00  0.00     0.023 A 
ATOM     83  C   UNL A   1      38.553  32.371  33.565  1.00  0.00     0.012 A 
ATOM     84  C   UNL A   1      40.537  31.132  34.218  1.00  0.00     0.148 A 
ATOM     85  C   UNL A   1      37.857  31.169  33.423  1.00  0.00     0.002 A 
ATOM     86  C   UNL A   1      39.874  29.942  33.960  1.00  0.00     0.091 A 
ATOM     87  F   UNL A   1      41.804  31.145  34.655  1.00  0.00    -0.205 F 
ATOM     88  C   UNL A   1      38.526  29.956  33.583  1.00  0.00     0.022 A 
BRANCH  86  89
ATOM     89  S   UNL A   1      40.771  28.386  33.882  1.00  0.00     0.127 S 
ATOM     90  O   UNL A   1      39.766  27.482  33.332  1.00  0.00    -0.237 OA
ATOM     91  O   UNL A   1      41.875  28.710  32.977  1.00  0.00    -0.237 OA
ATOM     92  O   UNL A   1      41.194  28.125  35.253  1.00  0.00    -0.744 OA
ENDBRANCH  86  89
ENDBRANCH  58  82
BRANCH  70  93
ATOM     93  C   UNL A   1      42.598  36.194  39.079  1.00  0.00     0.023 A 
ATOM     94  C   UNL A   1      41.604  36.865  39.822  1.00  0.00     0.012 A 
ATOM     95  C   UNL A   1      43.563  35.426  39.758  1.00  0.00     0.148 A 
ATOM     96  C   UNL A   1      41.598  36.811  41.216  1.00  0.00     0.002 A 
ATOM     97  C   UNL A   1      43.530  35.347  41.147  1.00  0.00     0.091 A 
ATOM     98  F   UNL A   1      44.516  34.815  39.040  1.00  0.00    -0.205 F 
ATOM     99  C   UNL A   1      42.558  36.048  41.878  1.00  0.00     0.022 A 
BRANCH  97 100
ATOM    100  S   UNL A   1      44.693  34.344  42.080  1.00  0.00     0.127 S 
ATOM    101  O   UNL A   1      44.568  33.047  41.417  1.00  0.00    -0.237 OA
ATOM    102  O   UNL A   1      45.963  35.031  41.840  1.00  0.00    -0.237 OA
ATOM    103  O   UNL A   1      44.235  34.390  43.463  1.00  0.00    -0.744 OA
ENDBRANCH  97 100
ENDBRANCH  70  93
ENDBRANCH  44  45
ENDBRANCH  37  39
ENDBRANCH  36  37
ENDBRANCH  35  36
ENDBRANCH   1  35
TORSDOF 21
ENDMDL
MODEL 3
REMARK VINA RESULT:      -8.7      2.991      4.400
REMARK SMILES CC(C)C(=O)Nc1ccc2[nH]cc([C@@H](C(=O)OCCOC(=O)c3ccc(-c4c5nc(c(-c6cccc(S(=O)(=O)[O-])c6F)c6ccc([nH]6)c(-c6cccc(S(=O)(=O)[O-])c6F)c6nc(c(-c7cccc(S(=O)(=O)[O-])c7F)c7ccc4[nH]7)C=C6)C=C5)cc3)[NH+]3CC[NH+](CCC#N)CC3)c2c1
REMARK SMILES IDX 18 1 17 2 15 3 16 4 14 5 13 6 7 7 8 8 97 9 9 10 96 11 10 12
REMARK SMILES IDX 11 13 12 14 6 16 4 17 5 18 2 20 1 21 3 22 86 23 87 24 95 25
REMARK SMILES IDX 88 27 94 28 89 29 90 31 91 32 92 33 93 34 19 35 20 36 21 37
REMARK SMILES IDX 22 38 23 39 24 40 85 41 25 42 84 43 26 44 27 45 28 46 78 47
REMARK SMILES IDX 29 48 83 49 77 50 79 51 30 52 82 53 76 54 75 55 31 57 63 58
REMARK SMILES IDX 43 59 62 60 44 61 47 62 61 63 80 64 45 65 46 66 60 68 81 69
REMARK SMILES IDX 48 70 32 71 33 72 41 73 34 74 36 75 42 76 35 77 37 78 38 79
REMARK SMILES IDX 39 80 40 81 64 82 65 83 73 84 66 85 68 86 74 87 67 88 69 89
REMARK SMILES IDX 70 90 71 91 72 92 49 93 50 94 58 95 51 96 53 97 59 98 52 99
REMARK SMILES IDX 54 100 55 101 56 102 57 103
REMARK H PARENT 11 15 6 19 86 26 89 30 79 56 47 67
REMARK Flexibility Score: inf
ROOT
ATOM      1  C   UNL A   1      44.831  29.071  26.710  1.00  0.00     0.274 C 
ENDROOT
BRANCH   1   2
ATOM      2  O   UNL A   1      44.482  28.358  25.503  1.00  0.00    -0.457 OA
BRANCH   2   3
ATOM      3  C   UNL A   1      45.128  27.182  25.300  1.00  0.00     0.370 C 
ATOM      4  O   UNL A   1      46.290  27.111  24.900  1.00  0.00    -0.245 OA
BRANCH   3   5
ATOM      5  C   UNL A   1      44.303  25.928  25.644  1.00  0.00     0.328 C 
BRANCH   5   6
ATOM      6  C   UNL A   1      43.892  25.617  27.068  1.00  0.00     0.046 A 
ATOM      7  C   UNL A   1      40.905  23.301  27.294  1.00  0.00     0.041 A 
ATOM      8  C   UNL A   1      41.298  22.652  28.459  1.00  0.00     0.028 A 
ATOM      9  C   UNL A   1      41.732  24.227  26.666  1.00  0.00     0.037 A 
ATOM     10  C   UNL A   1      42.427  23.078  29.162  1.00  0.00     0.029 A 
ATOM     11  C   UNL A   1      42.836  24.711  27.388  1.00  0.00     0.011 A 
ATOM     12  C   UNL A   1      43.114  24.177  28.644  1.00  0.00     0.046 A 
ATOM     13  N   UNL A   1      44.149  24.911  29.166  1.00  0.00    -0.361 N 
ATOM     14  C   UNL A   1      44.546  25.868  28.266  1.00  0.00     0.094 A 
ATOM     15  H   UNL A   1      44.547  24.772  30.055  1.00  0.00     0.166 HD
BRANCH   7  16
ATOM     16  N   UNL A   1      39.622  23.131  26.778  1.00  0.00    -0.326 N 
ATOM     17  C   UNL A   1      39.126  21.943  26.306  1.00  0.00     0.226 C 
ATOM     18  O   UNL A   1      37.899  21.849  26.180  1.00  0.00    -0.274 OA
ATOM     19  H   UNL A   1      39.032  23.918  26.748  1.00  0.00     0.169 HD
BRANCH  17  20
ATOM     20  C   UNL A   1      40.015  20.727  25.984  1.00  0.00     0.072 C 
ATOM     21  C   UNL A   1      40.798  20.181  27.172  1.00  0.00     0.018 C 
ATOM     22  C   UNL A   1      39.310  19.619  25.203  1.00  0.00     0.018 C 
ENDBRANCH  17  20
ENDBRANCH   7  16
ENDBRANCH   5   6
BRANCH   5  23
ATOM     23  N   UNL A   1      45.037  24.747  25.156  1.00  0.00    -0.310 N 
ATOM     24  C   UNL A   1      46.001  24.217  26.112  1.00  0.00     0.325 C 
ATOM     25  C   UNL A   1      44.332  23.787  24.319  1.00  0.00     0.325 C 
ATOM     26  H   UNL A   1      45.615  25.148  24.416  1.00  0.00     0.349 HD
ATOM     27  C   UNL A   1      45.877  22.736  26.542  1.00  0.00     0.324 C 
ATOM     28  C   UNL A   1      44.141  22.366  24.892  1.00  0.00     0.324 C 
ATOM     29  N   UNL A   1      45.285  21.785  25.595  1.00  0.00    -0.325 N 
ATOM     30  H   UNL A   1      44.898  21.029  26.159  1.00  0.00     0.348 HD
BRANCH  29  31
ATOM     31  C   UNL A   1      46.237  21.029  24.776  1.00  0.00     0.278 C 
BRANCH  31  32
ATOM     32  C   UNL A   1      46.475  19.546  25.054  1.00  0.00     0.181 C 
BRANCH  32  33
ATOM     33  C   UNL A   1      45.161  18.794  25.184  1.00  0.00     0.068 C 
ATOM     34  N   UNL A   1      44.071  18.171  25.291  1.00  0.00    -0.198 NA
ENDBRANCH  32  33
ENDBRANCH  31  32
ENDBRANCH  29  31
ENDBRANCH   5  23
ENDBRANCH   3   5
ENDBRANCH   2   3
ENDBRANCH   1   2
BRANCH   1  35
ATOM     35  C   UNL A   1      44.138  30.436  26.723  1.00  0.00     0.275 C 
BRANCH  35  36
ATOM     36  O   UNL A   1      45.001  31.492  26.243  1.00  0.00    -0.458 OA
BRANCH  36  37
ATOM     37  C   UNL A   1      44.379  32.693  26.036  1.00  0.00     0.338 C 
ATOM     38  O   UNL A   1      43.802  33.002  25.004  1.00  0.00    -0.246 OA
BRANCH  37  39
ATOM     39  C   UNL A   1      44.426  33.598  27.227  1.00  0.00     0.060 A 
ATOM     40  C   UNL A   1      45.173  33.300  28.352  1.00  0.00     0.016 A 
ATOM     41  C   UNL A   1      43.567  34.706  27.294  1.00  0.00     0.016 A 
ATOM     42  C   UNL A   1      44.839  33.915  29.580  1.00  0.00     0.010 A 
ATOM     43  C   UNL A   1      43.314  35.374  28.519  1.00  0.00     0.010 A 
ATOM     44  C   UNL A   1      43.803  34.876  29.737  1.00  0.00    -0.014 A 
BRANCH  44  45
ATOM     45  C   UNL A   1      43.073  35.159  31.081  1.00  0.00     0.031 A 
ATOM     46  C   UNL A   1      43.610  36.177  32.119  1.00  0.00     0.074 A 
ATOM     47  C   UNL A   1      41.833  34.703  31.399  1.00  0.00     0.049 A 
ATOM     48  N   UNL A   1      43.352  36.269  33.410  1.00  0.00    -0.248 NA
ATOM     49  C   UNL A   1      44.523  37.238  31.655  1.00  0.00     0.031 C 
ATOM     50  C   UNL A   1      40.983  33.852  30.578  1.00  0.00     0.029 A 
ATOM     51  N   UNL A   1      41.045  34.928  32.525  1.00  0.00    -0.354 N 
ATOM     52  C   UNL A   1      44.175  37.275  33.922  1.00  0.00     0.074 A 
ATOM     53  C   UNL A   1      44.901  37.815  32.792  1.00  0.00     0.031 C 
ATOM     54  C   UNL A   1      39.774  33.737  31.134  1.00  0.00     0.029 A 
ATOM     55  C   UNL A   1      39.846  34.246  32.494  1.00  0.00     0.049 A 
ATOM     56  H   UNL A   1      41.316  35.512  33.269  1.00  0.00     0.167 HD
ATOM     57  C   UNL A   1      44.315  37.722  35.200  1.00  0.00     0.034 A 
ATOM     58  C   UNL A   1      38.956  33.890  33.447  1.00  0.00     0.034 A 
ATOM     59  C   UNL A   1      43.467  37.353  36.312  1.00  0.00     0.049 A 
ATOM     60  C   UNL A   1      39.172  34.267  34.876  1.00  0.00     0.074 A 
ATOM     61  C   UNL A   1      43.541  37.777  37.633  1.00  0.00     0.029 A 
ATOM     62  N   UNL A   1      42.359  36.530  36.233  1.00  0.00    -0.354 N 
ATOM     63  N   UNL A   1      40.084  35.049  35.391  1.00  0.00    -0.248 NA
ATOM     64  C   UNL A   1      38.248  33.684  35.861  1.00  0.00     0.031 C 
ATOM     65  C   UNL A   1      42.488  37.199  38.353  1.00  0.00     0.029 A 
ATOM     66  C   UNL A   1      41.746  36.432  37.476  1.00  0.00     0.049 A 
ATOM     67  H   UNL A   1      42.049  36.078  35.415  1.00  0.00     0.167 HD
ATOM     68  C   UNL A   1      39.854  35.041  36.761  1.00  0.00     0.074 A 
ATOM     69  C   UNL A   1      38.687  34.217  36.993  1.00  0.00     0.031 C 
ATOM     70  C   UNL A   1      40.575  35.642  37.736  1.00  0.00     0.034 A 
BRANCH  57  71
ATOM     71  C   UNL A   1      45.440  38.683  35.531  1.00  0.00     0.023 A 
ATOM     72  C   UNL A   1      46.748  38.213  35.751  1.00  0.00     0.012 A 
ATOM     73  C   UNL A   1      45.220  40.076  35.422  1.00  0.00     0.148 A 
ATOM     74  C   UNL A   1      47.814  39.111  35.867  1.00  0.00     0.002 A 
ATOM     75  C   UNL A   1      46.292  40.960  35.492  1.00  0.00     0.091 A 
ATOM     76  F   UNL A   1      43.967  40.510  35.217  1.00  0.00    -0.205 F 
ATOM     77  C   UNL A   1      47.590  40.479  35.721  1.00  0.00     0.022 A 
BRANCH  75  78
ATOM     78  S   UNL A   1      46.108  42.725  35.196  1.00  0.00     0.127 S 
ATOM     79  O   UNL A   1      47.475  43.203  35.398  1.00  0.00    -0.237 OA
ATOM     80  O   UNL A   1      45.650  42.766  33.806  1.00  0.00    -0.237 OA
ATOM     81  O   UNL A   1      45.127  43.192  36.167  1.00  0.00    -0.744 OA
ENDBRANCH  75  78
ENDBRANCH  57  71
BRANCH  58  82
ATOM     82  C   UNL A   1      37.848  32.957  33.075  1.00  0.00     0.023 A 
ATOM     83  C   UNL A   1      36.581  33.451  32.723  1.00  0.00     0.012 A 
ATOM     84  C   UNL A   1      38.098  31.572  32.979  1.00  0.00     0.148 A 
ATOM     85  C   UNL A   1      35.595  32.581  32.250  1.00  0.00     0.002 A 
ATOM     86  C   UNL A   1      37.157  30.737  32.398  1.00  0.00     0.091 A 
ATOM     87  F   UNL A   1      39.286  31.106  33.391  1.00  0.00    -0.205 F 
ATOM     88  C   UNL A   1      35.895  31.234  32.053  1.00  0.00     0.022 A 
BRANCH  86  89
ATOM     89  S   UNL A   1      37.599  29.075  31.873  1.00  0.00     0.127 S 
ATOM     90  O   UNL A   1      37.347  28.298  33.083  1.00  0.00    -0.237 OA
ATOM     91  O   UNL A   1      36.658  28.837  30.777  1.00  0.00    -0.237 OA
ATOM     92  O   UNL A   1      38.989  29.172  31.444  1.00  0.00    -0.744 OA
ENDBRANCH  86  89
ENDBRANCH  58  82
BRANCH  70  93
ATOM     93  C   UNL A   1      40.112  35.445  39.154  1.00  0.00     0.023 A 
ATOM     94  C   UNL A   1      39.234  36.385  39.733  1.00  0.00     0.012 A 
ATOM     95  C   UNL A   1      40.557  34.354  39.925  1.00  0.00     0.148 A 
ATOM     96  C   UNL A   1      38.845  36.268  41.067  1.00  0.00     0.002 A 
ATOM     97  C   UNL A   1      40.136  34.223  41.245  1.00  0.00     0.091 A 
ATOM     98  F   UNL A   1      41.411  33.483  39.368  1.00  0.00    -0.205 F 
ATOM     99  C   UNL A   1      39.291  35.185  41.821  1.00  0.00     0.022 A 
BRANCH  97 100
ATOM    100  S   UNL A   1      40.617  32.830  42.273  1.00  0.00     0.127 S 
ATOM    101  O   UNL A   1      40.131  31.697  41.488  1.00  0.00    -0.237 OA
ATOM    102  O   UNL A   1      42.074  32.961  42.317  1.00  0.00    -0.237 OA
ATOM    103  O   UNL A   1      39.955  33.037  43.555  1.00  0.00    -0.744 OA
ENDBRANCH  97 100
ENDBRANCH  70  93
ENDBRANCH  44  45
ENDBRANCH  37  39
ENDBRANCH  36  37
ENDBRANCH  35  36
ENDBRANCH   1  35
TORSDOF 21
ENDMDL
