MODEL 1
REMARK VINA RESULT:     -11.6      0.000      0.000
REMARK SMILES CC(C)C[C@@H](NC(=O)Cn1nc(O)ccc1=O)C(=O)OCCOC(=O)c1ccc(-c2c3nc(c(-c4cccc(S(=O)(=O)[O-])c4F)c4ccc([nH]4)c(-c4cccc(S(=O)(=O)[O-])c4F)c4nc(c(-c5cccc(S(=O)(=O)[O-])c5F)c5ccc2[nH]5)C=C4)C=C3)cc1
REMARK SMILES IDX 21 1 20 2 18 3 19 4 5 5 4 6 2 7 1 8 3 9 6 10 7 11 8 13 9 14
REMARK SMILES IDX 10 15 11 16 16 17 12 18 15 19 17 20 14 21 13 22 22 24 23 25
REMARK SMILES IDX 24 26 25 27 26 28 27 29 88 30 28 31 87 32 29 33 30 34 31 35
REMARK SMILES IDX 81 36 32 37 86 38 80 39 82 40 33 41 85 42 79 43 78 44 34 46
REMARK SMILES IDX 66 47 46 48 65 49 47 50 50 51 64 52 83 53 48 54 49 55 63 57
REMARK SMILES IDX 84 58 51 59 35 60 36 61 44 62 37 63 39 64 45 65 38 66 40 67
REMARK SMILES IDX 41 68 42 69 43 70 67 71 68 72 76 73 69 74 71 75 77 76 70 77
REMARK SMILES IDX 72 78 73 79 74 80 75 81 52 82 53 83 61 84 54 85 56 86 62 87
REMARK SMILES IDX 55 88 57 89 58 90 59 91 60 92
REMARK H PARENT 6 12 13 23 82 45 50 56
REMARK Flexibility Score: inf
ROOT
ATOM      1  C   UNL A   1      35.773  21.614  24.746  1.00  0.00     0.274 C 
ENDROOT
BRANCH   1   2
ATOM      2  O   UNL A   1      35.565  22.725  25.642  1.00  0.00    -0.461 OA
BRANCH   2   3
ATOM      3  C   UNL A   1      34.706  22.544  26.676  1.00  0.00     0.328 C 
ATOM      4  O   UNL A   1      34.750  21.588  27.445  1.00  0.00    -0.250 OA
BRANCH   3   5
ATOM      5  C   UNL A   1      33.560  23.576  26.680  1.00  0.00     0.192 C 
BRANCH   5   6
ATOM      6  C   UNL A   1      33.588  24.682  25.604  1.00  0.00     0.040 C 
BRANCH   6   7
ATOM      7  C   UNL A   1      33.286  26.116  26.103  1.00  0.00    -0.015 C 
ATOM      8  C   UNL A   1      33.858  27.197  25.188  1.00  0.00     0.007 C 
ATOM      9  C   UNL A   1      31.768  26.311  26.219  1.00  0.00     0.007 C 
ENDBRANCH   6   7
ENDBRANCH   5   6
BRANCH   5  10
ATOM     10  N   UNL A   1      32.228  22.956  26.789  1.00  0.00    -0.341 N 
ATOM     11  C   UNL A   1      31.349  22.575  25.811  1.00  0.00     0.242 C 
ATOM     12  H   UNL A   1      31.922  22.789  27.710  1.00  0.00     0.164 HD
ATOM     13  O   UNL A   1      30.144  22.616  26.087  1.00  0.00    -0.273 OA
BRANCH  11  14
ATOM     14  C   UNL A   1      31.823  22.035  24.456  1.00  0.00     0.248 C 
BRANCH  14  15
ATOM     15  N   UNL A   1      32.271  20.647  24.353  1.00  0.00    -0.217 N 
ATOM     16  N   UNL A   1      32.475  19.955  25.524  1.00  0.00    -0.131 NA
ATOM     17  C   UNL A   1      32.214  20.018  23.110  1.00  0.00     0.267 A 
ATOM     18  C   UNL A   1      32.670  18.691  25.426  1.00  0.00     0.229 A 
ATOM     19  C   UNL A   1      32.526  18.565  23.092  1.00  0.00     0.079 A 
ATOM     20  O   UNL A   1      31.899  20.561  22.055  1.00  0.00    -0.268 OA
ATOM     21  C   UNL A   1      32.753  17.891  24.220  1.00  0.00     0.075 A 
BRANCH  18  22
ATOM     22  O   UNL A   1      32.762  17.933  26.524  1.00  0.00    -0.492 OA
ATOM     23  H   UNL A   1      32.408  18.241  27.336  1.00  0.00     0.295 HD
ENDBRANCH  18  22
ENDBRANCH  14  15
ENDBRANCH  11  14
ENDBRANCH   5  10
ENDBRANCH   3   5
ENDBRANCH   2   3
ENDBRANCH   1   2
BRANCH   1  24
ATOM     24  C   UNL A   1      37.220  21.136  24.876  1.00  0.00     0.275 C 
BRANCH  24  25
ATOM     25  O   UNL A   1      38.011  22.213  25.395  1.00  0.00    -0.458 OA
BRANCH  25  26
ATOM     26  C   UNL A   1      39.054  21.831  26.173  1.00  0.00     0.338 C 
ATOM     27  O   UNL A   1      39.570  20.725  26.219  1.00  0.00    -0.246 OA
BRANCH  26  28
ATOM     28  C   UNL A   1      39.644  23.060  26.741  1.00  0.00     0.060 A 
ATOM     29  C   UNL A   1      40.688  22.989  27.665  1.00  0.00     0.016 A 
ATOM     30  C   UNL A   1      39.087  24.297  26.392  1.00  0.00     0.016 A 
ATOM     31  C   UNL A   1      41.174  24.160  28.237  1.00  0.00     0.010 A 
ATOM     32  C   UNL A   1      39.575  25.470  26.962  1.00  0.00     0.010 A 
ATOM     33  C   UNL A   1      40.629  25.406  27.881  1.00  0.00    -0.014 A 
BRANCH  33  34
ATOM     34  C   UNL A   1      41.304  26.630  28.355  1.00  0.00     0.031 A 
ATOM     35  C   UNL A   1      42.716  26.945  27.984  1.00  0.00     0.074 A 
ATOM     36  C   UNL A   1      40.576  27.481  29.100  1.00  0.00     0.049 A 
ATOM     37  N   UNL A   1      43.349  28.081  28.105  1.00  0.00    -0.248 NA
ATOM     38  C   UNL A   1      43.527  25.859  27.414  1.00  0.00     0.031 C 
ATOM     39  C   UNL A   1      39.214  27.218  29.576  1.00  0.00     0.029 A 
ATOM     40  N   UNL A   1      40.854  28.741  29.558  1.00  0.00    -0.354 N 
ATOM     41  C   UNL A   1      44.633  27.853  27.633  1.00  0.00     0.074 A 
ATOM     42  C   UNL A   1      44.699  26.462  27.240  1.00  0.00     0.031 C 
ATOM     43  C   UNL A   1      38.756  28.304  30.213  1.00  0.00     0.029 A 
ATOM     44  C   UNL A   1      39.788  29.336  30.187  1.00  0.00     0.049 A 
ATOM     45  H   UNL A   1      41.730  29.175  29.448  1.00  0.00     0.167 HD
ATOM     46  C   UNL A   1      45.649  28.740  27.520  1.00  0.00     0.034 A 
ATOM     47  C   UNL A   1      39.639  30.592  30.650  1.00  0.00     0.034 A 
ATOM     48  C   UNL A   1      45.546  30.125  27.893  1.00  0.00     0.049 A 
ATOM     49  C   UNL A   1      40.757  31.571  30.453  1.00  0.00     0.074 A 
ATOM     50  C   UNL A   1      46.485  31.129  27.729  1.00  0.00     0.029 A 
ATOM     51  N   UNL A   1      44.448  30.699  28.516  1.00  0.00    -0.354 N 
ATOM     52  N   UNL A   1      41.902  31.392  29.841  1.00  0.00    -0.248 NA
ATOM     53  C   UNL A   1      40.556  32.928  30.977  1.00  0.00     0.031 C 
ATOM     54  C   UNL A   1      45.959  32.307  28.270  1.00  0.00     0.029 A 
ATOM     55  C   UNL A   1      44.689  32.038  28.759  1.00  0.00     0.049 A 
ATOM     56  H   UNL A   1      43.619  30.222  28.751  1.00  0.00     0.167 HD
ATOM     57  C   UNL A   1      42.555  32.616  29.889  1.00  0.00     0.074 A 
ATOM     58  C   UNL A   1      41.670  33.534  30.580  1.00  0.00     0.031 C 
ATOM     59  C   UNL A   1      43.780  32.943  29.415  1.00  0.00     0.034 A 
BRANCH  46  60
ATOM     60  C   UNL A   1      46.941  28.275  26.911  1.00  0.00     0.023 A 
ATOM     61  C   UNL A   1      47.970  27.816  27.758  1.00  0.00     0.012 A 
ATOM     62  C   UNL A   1      47.093  28.174  25.515  1.00  0.00     0.148 A 
ATOM     63  C   UNL A   1      49.136  27.269  27.224  1.00  0.00     0.002 A 
ATOM     64  C   UNL A   1      48.248  27.603  24.991  1.00  0.00     0.091 A 
ATOM     65  F   UNL A   1      46.105  28.626  24.731  1.00  0.00    -0.205 F 
ATOM     66  C   UNL A   1      49.271  27.152  25.843  1.00  0.00     0.022 A 
BRANCH  64  67
ATOM     67  S   UNL A   1      48.501  27.355  23.228  1.00  0.00     0.127 S 
ATOM     68  O   UNL A   1      48.375  25.902  23.116  1.00  0.00    -0.237 OA
ATOM     69  O   UNL A   1      47.390  28.110  22.651  1.00  0.00    -0.237 OA
ATOM     70  O   UNL A   1      49.824  27.886  22.931  1.00  0.00    -0.744 OA
ENDBRANCH  64  67
ENDBRANCH  46  60
BRANCH  47  71
ATOM     71  C   UNL A   1      38.326  30.995  31.220  1.00  0.00     0.023 A 
ATOM     72  C   UNL A   1      38.113  30.867  32.605  1.00  0.00     0.012 A 
ATOM     73  C   UNL A   1      37.345  31.611  30.421  1.00  0.00     0.148 A 
ATOM     74  C   UNL A   1      36.939  31.346  33.186  1.00  0.00     0.002 A 
ATOM     75  C   UNL A   1      36.196  32.120  31.011  1.00  0.00     0.091 A 
ATOM     76  F   UNL A   1      37.579  31.723  29.105  1.00  0.00    -0.205 F 
ATOM     77  C   UNL A   1      35.987  31.982  32.394  1.00  0.00     0.022 A 
BRANCH  75  78
ATOM     78  S   UNL A   1      34.967  33.055  30.094  1.00  0.00     0.127 S 
ATOM     79  O   UNL A   1      35.782  34.109  29.494  1.00  0.00    -0.237 OA
ATOM     80  O   UNL A   1      34.468  32.051  29.154  1.00  0.00    -0.237 OA
ATOM     81  O   UNL A   1      33.990  33.500  31.078  1.00  0.00    -0.744 OA
ENDBRANCH  75  78
ENDBRANCH  47  71
BRANCH  59  82
ATOM     82  C   UNL A   1      44.264  34.350  29.620  1.00  0.00     0.023 A 
ATOM     83  C   UNL A   1      45.048  34.646  30.751  1.00  0.00     0.012 A 
ATOM     84  C   UNL A   1      44.077  35.326  28.623  1.00  0.00     0.148 A 
ATOM     85  C   UNL A   1      45.644  35.898  30.886  1.00  0.00     0.002 A 
ATOM     86  C   UNL A   1      44.701  36.560  28.748  1.00  0.00     0.091 A 
ATOM     87  F   UNL A   1      43.319  35.014  27.561  1.00  0.00    -0.205 F 
ATOM     88  C   UNL A   1      45.482  36.848  29.880  1.00  0.00     0.022 A 
BRANCH  86  89
ATOM     89  S   UNL A   1      44.621  37.821  27.472  1.00  0.00     0.127 S 
ATOM     90  O   UNL A   1      43.300  37.577  26.894  1.00  0.00    -0.237 OA
ATOM     91  O   UNL A   1      44.731  39.054  28.250  1.00  0.00    -0.237 OA
ATOM     92  O   UNL A   1      45.741  37.562  26.575  1.00  0.00    -0.744 OA
ENDBRANCH  86  89
ENDBRANCH  59  82
ENDBRANCH  33  34
ENDBRANCH  26  28
ENDBRANCH  25  26
ENDBRANCH  24  25
ENDBRANCH   1  24
TORSDOF 20
ENDMDL
MODEL 2
REMARK VINA RESULT:     -11.6      5.258     10.219
REMARK SMILES CC(C)C[C@@H](NC(=O)Cn1nc(O)ccc1=O)C(=O)OCCOC(=O)c1ccc(-c2c3nc(c(-c4cccc(S(=O)(=O)[O-])c4F)c4ccc([nH]4)c(-c4cccc(S(=O)(=O)[O-])c4F)c4nc(c(-c5cccc(S(=O)(=O)[O-])c5F)c5ccc2[nH]5)C=C4)C=C3)cc1
REMARK SMILES IDX 21 1 20 2 18 3 19 4 5 5 4 6 2 7 1 8 3 9 6 10 7 11 8 13 9 14
REMARK SMILES IDX 10 15 11 16 16 17 12 18 15 19 17 20 14 21 13 22 22 24 23 25
REMARK SMILES IDX 24 26 25 27 26 28 27 29 88 30 28 31 87 32 29 33 30 34 31 35
REMARK SMILES IDX 81 36 32 37 86 38 80 39 82 40 33 41 85 42 79 43 78 44 34 46
REMARK SMILES IDX 66 47 46 48 65 49 47 50 50 51 64 52 83 53 48 54 49 55 63 57
REMARK SMILES IDX 84 58 51 59 35 60 36 61 44 62 37 63 39 64 45 65 38 66 40 67
REMARK SMILES IDX 41 68 42 69 43 70 67 71 68 72 76 73 69 74 71 75 77 76 70 77
REMARK SMILES IDX 72 78 73 79 74 80 75 81 52 82 53 83 61 84 54 85 56 86 62 87
REMARK SMILES IDX 55 88 57 89 58 90 59 91 60 92
REMARK H PARENT 6 12 13 23 82 45 50 56
REMARK Flexibility Score: inf
ROOT
ATOM      1  C   UNL A   1      31.572  30.287  25.386  1.00  0.00     0.274 C 
ENDROOT
BRANCH   1   2
ATOM      2  O   UNL A   1      31.628  28.900  24.994  1.00  0.00    -0.461 OA
BRANCH   2   3
ATOM      3  C   UNL A   1      32.089  28.619  23.750  1.00  0.00     0.328 C 
ATOM      4  O   UNL A   1      33.105  29.108  23.268  1.00  0.00    -0.250 OA
BRANCH   3   5
ATOM      5  C   UNL A   1      31.105  27.751  22.938  1.00  0.00     0.192 C 
BRANCH   5   6
ATOM      6  C   UNL A   1      29.748  28.376  22.552  1.00  0.00     0.040 C 
BRANCH   6   7
ATOM      7  C   UNL A   1      28.604  28.190  23.577  1.00  0.00    -0.015 C 
ATOM      8  C   UNL A   1      27.278  28.783  23.104  1.00  0.00     0.007 C 
ATOM      9  C   UNL A   1      28.409  26.695  23.865  1.00  0.00     0.007 C 
ENDBRANCH   6   7
ENDBRANCH   5   6
BRANCH   5  10
ATOM     10  N   UNL A   1      31.742  27.080  21.791  1.00  0.00    -0.341 N 
ATOM     11  C   UNL A   1      32.369  25.866  21.717  1.00  0.00     0.242 C 
ATOM     12  H   UNL A   1      31.711  27.584  20.947  1.00  0.00     0.164 HD
ATOM     13  O   UNL A   1      33.278  25.749  20.886  1.00  0.00    -0.273 OA
BRANCH  11  14
ATOM     14  C   UNL A   1      31.921  24.664  22.558  1.00  0.00     0.248 C 
BRANCH  14  15
ATOM     15  N   UNL A   1      32.516  24.448  23.875  1.00  0.00    -0.217 N 
ATOM     16  N   UNL A   1      31.722  24.666  24.978  1.00  0.00    -0.131 NA
ATOM     17  C   UNL A   1      33.742  23.789  23.954  1.00  0.00     0.267 A 
ATOM     18  C   UNL A   1      32.182  24.283  26.112  1.00  0.00     0.229 A 
ATOM     19  C   UNL A   1      34.223  23.451  25.320  1.00  0.00     0.079 A 
ATOM     20  O   UNL A   1      34.425  23.446  22.993  1.00  0.00    -0.268 OA
ATOM     21  C   UNL A   1      33.471  23.685  26.397  1.00  0.00     0.075 A 
BRANCH  18  22
ATOM     22  O   UNL A   1      31.422  24.357  27.210  1.00  0.00    -0.492 OA
ATOM     23  H   UNL A   1      31.742  24.800  27.971  1.00  0.00     0.295 HD
ENDBRANCH  18  22
ENDBRANCH  14  15
ENDBRANCH  11  14
ENDBRANCH   5  10
ENDBRANCH   3   5
ENDBRANCH   2   3
ENDBRANCH   1   2
BRANCH   1  24
ATOM     24  C   UNL A   1      31.962  30.403  26.861  1.00  0.00     0.275 C 
BRANCH  24  25
ATOM     25  O   UNL A   1      33.392  30.365  26.958  1.00  0.00    -0.458 OA
BRANCH  25  26
ATOM     26  C   UNL A   1      33.959  31.488  27.466  1.00  0.00     0.338 C 
ATOM     27  O   UNL A   1      33.415  32.565  27.652  1.00  0.00    -0.246 OA
BRANCH  26  28
ATOM     28  C   UNL A   1      35.268  31.097  28.025  1.00  0.00     0.060 A 
ATOM     29  C   UNL A   1      36.290  32.038  28.173  1.00  0.00     0.016 A 
ATOM     30  C   UNL A   1      35.492  29.750  28.337  1.00  0.00     0.016 A 
ATOM     31  C   UNL A   1      37.535  31.625  28.635  1.00  0.00     0.010 A 
ATOM     32  C   UNL A   1      36.738  29.337  28.802  1.00  0.00     0.010 A 
ATOM     33  C   UNL A   1      37.763  30.276  28.963  1.00  0.00    -0.014 A 
BRANCH  33  34
ATOM     34  C   UNL A   1      39.027  29.920  29.635  1.00  0.00     0.031 A 
ATOM     35  C   UNL A   1      39.369  30.436  30.995  1.00  0.00     0.074 A 
ATOM     36  C   UNL A   1      39.844  29.067  28.992  1.00  0.00     0.049 A 
ATOM     37  N   UNL A   1      40.301  30.016  31.808  1.00  0.00    -0.248 NA
ATOM     38  C   UNL A   1      38.580  31.564  31.512  1.00  0.00     0.031 C 
ATOM     39  C   UNL A   1      39.628  28.575  27.628  1.00  0.00     0.029 A 
ATOM     40  N   UNL A   1      40.990  28.439  29.398  1.00  0.00    -0.354 N 
ATOM     41  C   UNL A   1      40.218  30.825  32.931  1.00  0.00     0.074 A 
ATOM     42  C   UNL A   1      39.157  31.779  32.689  1.00  0.00     0.031 C 
ATOM     43  C   UNL A   1      40.580  27.680  27.330  1.00  0.00     0.029 A 
ATOM     44  C   UNL A   1      41.468  27.535  28.479  1.00  0.00     0.049 A 
ATOM     45  H   UNL A   1      41.429  28.617  30.261  1.00  0.00     0.167 HD
ATOM     46  C   UNL A   1      40.953  30.752  34.066  1.00  0.00     0.034 A 
ATOM     47  C   UNL A   1      42.480  26.652  28.570  1.00  0.00     0.034 A 
ATOM     48  C   UNL A   1      41.984  29.775  34.290  1.00  0.00     0.049 A 
ATOM     49  C   UNL A   1      43.235  26.549  29.862  1.00  0.00     0.074 A 
ATOM     50  C   UNL A   1      42.721  29.555  35.440  1.00  0.00     0.029 A 
ATOM     51  N   UNL A   1      42.435  28.868  33.344  1.00  0.00    -0.354 N 
ATOM     52  N   UNL A   1      43.030  27.197  30.982  1.00  0.00    -0.248 NA
ATOM     53  C   UNL A   1      44.335  25.578  29.917  1.00  0.00     0.031 C 
ATOM     54  C   UNL A   1      43.630  28.524  35.183  1.00  0.00     0.029 A 
ATOM     55  C   UNL A   1      43.450  28.096  33.876  1.00  0.00     0.049 A 
ATOM     56  H   UNL A   1      42.083  28.786  32.427  1.00  0.00     0.167 HD
ATOM     57  C   UNL A   1      43.961  26.703  31.884  1.00  0.00     0.074 A 
ATOM     58  C   UNL A   1      44.725  25.689  31.182  1.00  0.00     0.031 C 
ATOM     59  C   UNL A   1      44.171  27.066  33.171  1.00  0.00     0.034 A 
BRANCH  46  60
ATOM     60  C   UNL A   1      40.636  31.703  35.185  1.00  0.00     0.023 A 
ATOM     61  C   UNL A   1      41.451  32.837  35.372  1.00  0.00     0.012 A 
ATOM     62  C   UNL A   1      39.474  31.546  35.966  1.00  0.00     0.148 A 
ATOM     63  C   UNL A   1      41.120  33.799  36.324  1.00  0.00     0.002 A 
ATOM     64  C   UNL A   1      39.137  32.524  36.896  1.00  0.00     0.091 A 
ATOM     65  F   UNL A   1      38.720  30.455  35.777  1.00  0.00    -0.205 F 
ATOM     66  C   UNL A   1      39.959  33.649  37.078  1.00  0.00     0.022 A 
BRANCH  64  67
ATOM     67  S   UNL A   1      37.635  32.456  37.881  1.00  0.00     0.127 S 
ATOM     68  O   UNL A   1      38.003  33.275  39.036  1.00  0.00    -0.237 OA
ATOM     69  O   UNL A   1      36.654  33.069  36.986  1.00  0.00    -0.237 OA
ATOM     70  O   UNL A   1      37.405  31.047  38.170  1.00  0.00    -0.744 OA
ENDBRANCH  64  67
ENDBRANCH  46  60
BRANCH  47  71
ATOM     71  C   UNL A   1      42.725  25.724  27.435  1.00  0.00     0.023 A 
ATOM     72  C   UNL A   1      43.645  26.094  26.435  1.00  0.00     0.012 A 
ATOM     73  C   UNL A   1      42.150  24.441  27.407  1.00  0.00     0.148 A 
ATOM     74  C   UNL A   1      43.986  25.197  25.423  1.00  0.00     0.002 A 
ATOM     75  C   UNL A   1      42.523  23.539  26.419  1.00  0.00     0.091 A 
ATOM     76  F   UNL A   1      41.282  24.116  28.376  1.00  0.00    -0.205 F 
ATOM     77  C   UNL A   1      43.436  23.918  25.420  1.00  0.00     0.022 A 
BRANCH  75  78
ATOM     78  S   UNL A   1      41.958  21.835  26.397  1.00  0.00     0.127 S 
ATOM     79  O   UNL A   1      40.531  21.998  26.130  1.00  0.00    -0.237 OA
ATOM     80  O   UNL A   1      42.733  21.277  25.288  1.00  0.00    -0.237 OA
ATOM     81  O   UNL A   1      42.292  21.288  27.704  1.00  0.00    -0.744 OA
ENDBRANCH  75  78
ENDBRANCH  47  71
BRANCH  59  82
ATOM     82  C   UNL A   1      45.273  26.380  33.928  1.00  0.00     0.023 A 
ATOM     83  C   UNL A   1      46.540  26.988  33.992  1.00  0.00     0.012 A 
ATOM     84  C   UNL A   1      45.007  25.230  34.696  1.00  0.00     0.148 A 
ATOM     85  C   UNL A   1      47.533  26.460  34.815  1.00  0.00     0.002 A 
ATOM     86  C   UNL A   1      45.990  24.730  35.539  1.00  0.00     0.091 A 
ATOM     87  F   UNL A   1      43.791  24.672  34.608  1.00  0.00    -0.205 F 
ATOM     88  C   UNL A   1      47.254  25.342  35.597  1.00  0.00     0.022 A 
BRANCH  86  89
ATOM     89  S   UNL A   1      45.705  23.345  36.647  1.00  0.00     0.127 S 
ATOM     90  O   UNL A   1      45.072  24.003  37.789  1.00  0.00    -0.237 OA
ATOM     91  O   UNL A   1      44.812  22.498  35.857  1.00  0.00    -0.237 OA
ATOM     92  O   UNL A   1      47.015  22.766  36.919  1.00  0.00    -0.744 OA
ENDBRANCH  86  89
ENDBRANCH  59  82
ENDBRANCH  33  34
ENDBRANCH  26  28
ENDBRANCH  25  26
ENDBRANCH  24  25
ENDBRANCH   1  24
TORSDOF 20
ENDMDL
MODEL 3
REMARK VINA RESULT:     -11.4      4.994      9.930
REMARK SMILES CC(C)C[C@@H](NC(=O)Cn1nc(O)ccc1=O)C(=O)OCCOC(=O)c1ccc(-c2c3nc(c(-c4cccc(S(=O)(=O)[O-])c4F)c4ccc([nH]4)c(-c4cccc(S(=O)(=O)[O-])c4F)c4nc(c(-c5cccc(S(=O)(=O)[O-])c5F)c5ccc2[nH]5)C=C4)C=C3)cc1
REMARK SMILES IDX 21 1 20 2 18 3 19 4 5 5 4 6 2 7 1 8 3 9 6 10 7 11 8 13 9 14
REMARK SMILES IDX 10 15 11 16 16 17 12 18 15 19 17 20 14 21 13 22 22 24 23 25
REMARK SMILES IDX 24 26 25 27 26 28 27 29 88 30 28 31 87 32 29 33 30 34 31 35
REMARK SMILES IDX 81 36 32 37 86 38 80 39 82 40 33 41 85 42 79 43 78 44 34 46
REMARK SMILES IDX 66 47 46 48 65 49 47 50 50 51 64 52 83 53 48 54 49 55 63 57
REMARK SMILES IDX 84 58 51 59 35 60 36 61 44 62 37 63 39 64 45 65 38 66 40 67
REMARK SMILES IDX 41 68 42 69 43 70 67 71 68 72 76 73 69 74 71 75 77 76 70 77
REMARK SMILES IDX 72 78 73 79 74 80 75 81 52 82 53 83 61 84 54 85 56 86 62 87
REMARK SMILES IDX 55 88 57 89 58 90 59 91 60 92
REMARK H PARENT 6 12 13 23 82 45 50 56
REMARK Flexibility Score: inf
ROOT
ATOM      1  C   UNL A   1      31.650  29.384  25.717  1.00  0.00     0.274 C 
ENDROOT
BRANCH   1   2
ATOM      2  O   UNL A   1      31.965  28.073  26.228  1.00  0.00    -0.461 OA
BRANCH   2   3
ATOM      3  C   UNL A   1      33.113  27.492  25.800  1.00  0.00     0.328 C 
ATOM      4  O   UNL A   1      34.122  28.116  25.487  1.00  0.00    -0.250 OA
BRANCH   3   5
ATOM      5  C   UNL A   1      32.961  25.973  25.581  1.00  0.00     0.192 C 
BRANCH   5   6
ATOM      6  C   UNL A   1      34.244  25.115  25.591  1.00  0.00     0.040 C 
BRANCH   6   7
ATOM      7  C   UNL A   1      34.879  24.836  24.208  1.00  0.00    -0.015 C 
ATOM      8  C   UNL A   1      35.498  23.442  24.108  1.00  0.00     0.007 C 
ATOM      9  C   UNL A   1      33.815  24.990  23.113  1.00  0.00     0.007 C 
ENDBRANCH   6   7
ENDBRANCH   5   6
BRANCH   5  10
ATOM     10  N   UNL A   1      31.899  25.376  26.410  1.00  0.00    -0.341 N 
ATOM     11  C   UNL A   1      30.834  24.596  26.052  1.00  0.00     0.242 C 
ATOM     12  H   UNL A   1      31.968  25.569  27.373  1.00  0.00     0.164 HD
ATOM     13  O   UNL A   1      29.814  24.678  26.747  1.00  0.00    -0.273 OA
BRANCH  11  14
ATOM     14  C   UNL A   1      30.912  23.592  24.894  1.00  0.00     0.248 C 
BRANCH  14  15
ATOM     15  N   UNL A   1      31.927  22.541  24.923  1.00  0.00    -0.217 N 
ATOM     16  N   UNL A   1      32.429  22.171  26.149  1.00  0.00    -0.131 NA
ATOM     17  C   UNL A   1      32.143  21.790  23.768  1.00  0.00     0.267 A 
ATOM     18  C   UNL A   1      33.162  21.120  26.186  1.00  0.00     0.229 A 
ATOM     19  C   UNL A   1      33.066  20.633  23.897  1.00  0.00     0.079 A 
ATOM     20  O   UNL A   1      31.610  21.994  22.681  1.00  0.00    -0.268 OA
ATOM     21  C   UNL A   1      33.580  20.284  25.078  1.00  0.00     0.075 A 
BRANCH  18  22
ATOM     22  O   UNL A   1      33.591  20.634  27.355  1.00  0.00    -0.492 OA
ATOM     23  H   UNL A   1      33.600  19.708  27.502  1.00  0.00     0.295 HD
ENDBRANCH  18  22
ENDBRANCH  14  15
ENDBRANCH  11  14
ENDBRANCH   5  10
ENDBRANCH   3   5
ENDBRANCH   2   3
ENDBRANCH   1   2
BRANCH   1  24
ATOM     24  C   UNL A   1      31.974  30.427  26.788  1.00  0.00     0.275 C 
BRANCH  24  25
ATOM     25  O   UNL A   1      33.343  30.825  26.637  1.00  0.00    -0.458 OA
BRANCH  25  26
ATOM     26  C   UNL A   1      33.745  31.816  27.470  1.00  0.00     0.338 C 
ATOM     27  O   UNL A   1      33.070  32.747  27.882  1.00  0.00    -0.246 OA
BRANCH  26  28
ATOM     28  C   UNL A   1      35.053  31.415  28.023  1.00  0.00     0.060 A 
ATOM     29  C   UNL A   1      36.103  32.332  28.110  1.00  0.00     0.016 A 
ATOM     30  C   UNL A   1      35.246  30.077  28.392  1.00  0.00     0.016 A 
ATOM     31  C   UNL A   1      37.345  31.905  28.568  1.00  0.00     0.010 A 
ATOM     32  C   UNL A   1      36.489  29.650  28.853  1.00  0.00     0.010 A 
ATOM     33  C   UNL A   1      37.542  30.567  28.952  1.00  0.00    -0.014 A 
BRANCH  33  34
ATOM     34  C   UNL A   1      38.809  30.206  29.618  1.00  0.00     0.031 A 
ATOM     35  C   UNL A   1      39.149  30.700  30.986  1.00  0.00     0.074 A 
ATOM     36  C   UNL A   1      39.629  29.368  28.959  1.00  0.00     0.049 A 
ATOM     37  N   UNL A   1      40.083  30.271  31.791  1.00  0.00    -0.248 NA
ATOM     38  C   UNL A   1      38.354  31.815  31.522  1.00  0.00     0.031 C 
ATOM     39  C   UNL A   1      39.415  28.898  27.587  1.00  0.00     0.029 A 
ATOM     40  N   UNL A   1      40.779  28.739  29.354  1.00  0.00    -0.354 N 
ATOM     41  C   UNL A   1      39.998  31.061  32.928  1.00  0.00     0.074 A 
ATOM     42  C   UNL A   1      38.931  32.012  32.703  1.00  0.00     0.031 C 
ATOM     43  C   UNL A   1      40.371  28.013  27.274  1.00  0.00     0.029 A 
ATOM     44  C   UNL A   1      41.261  27.854  28.419  1.00  0.00     0.049 A 
ATOM     45  H   UNL A   1      41.217  28.905  30.220  1.00  0.00     0.167 HD
ATOM     46  C   UNL A   1      40.734  30.972  34.060  1.00  0.00     0.034 A 
ATOM     47  C   UNL A   1      42.277  26.975  28.494  1.00  0.00     0.034 A 
ATOM     48  C   UNL A   1      41.770  29.997  34.267  1.00  0.00     0.049 A 
ATOM     49  C   UNL A   1      43.034  26.854  29.783  1.00  0.00     0.074 A 
ATOM     50  C   UNL A   1      42.509  29.761  35.413  1.00  0.00     0.029 A 
ATOM     51  N   UNL A   1      42.225  29.108  33.305  1.00  0.00    -0.354 N 
ATOM     52  N   UNL A   1      42.826  27.481  30.914  1.00  0.00    -0.248 NA
ATOM     53  C   UNL A   1      44.139  25.887  29.821  1.00  0.00     0.031 C 
ATOM     54  C   UNL A   1      43.423  28.739  35.137  1.00  0.00     0.029 A 
ATOM     55  C   UNL A   1      43.244  28.332  33.823  1.00  0.00     0.049 A 
ATOM     56  H   UNL A   1      41.873  29.040  32.388  1.00  0.00     0.167 HD
ATOM     57  C   UNL A   1      43.761  26.977  31.808  1.00  0.00     0.074 A 
ATOM     58  C   UNL A   1      44.529  25.979  31.088  1.00  0.00     0.031 C 
ATOM     59  C   UNL A   1      43.970  27.319  33.101  1.00  0.00     0.034 A 
BRANCH  46  60
ATOM     60  C   UNL A   1      40.413  31.902  35.196  1.00  0.00     0.023 A 
ATOM     61  C   UNL A   1      41.161  33.087  35.344  1.00  0.00     0.012 A 
ATOM     62  C   UNL A   1      39.305  31.671  36.035  1.00  0.00     0.148 A 
ATOM     63  C   UNL A   1      40.817  34.027  36.313  1.00  0.00     0.002 A 
ATOM     64  C   UNL A   1      38.952  32.626  36.982  1.00  0.00     0.091 A 
ATOM     65  F   UNL A   1      38.615  30.532  35.882  1.00  0.00    -0.205 F 
ATOM     66  C   UNL A   1      39.708  33.803  37.125  1.00  0.00     0.022 A 
BRANCH  64  67
ATOM     67  S   UNL A   1      37.509  32.462  38.042  1.00  0.00     0.127 S 
ATOM     68  O   UNL A   1      36.483  33.134  37.245  1.00  0.00    -0.237 OA
ATOM     69  O   UNL A   1      37.359  31.010  38.131  1.00  0.00    -0.237 OA
ATOM     70  O   UNL A   1      37.851  33.121  39.294  1.00  0.00    -0.744 OA
ENDBRANCH  64  67
ENDBRANCH  46  60
BRANCH  47  71
ATOM     71  C   UNL A   1      42.527  26.068  27.343  1.00  0.00     0.023 A 
ATOM     72  C   UNL A   1      43.351  26.508  26.291  1.00  0.00     0.012 A 
ATOM     73  C   UNL A   1      42.055  24.742  27.347  1.00  0.00     0.148 A 
ATOM     74  C   UNL A   1      43.701  25.640  25.256  1.00  0.00     0.002 A 
ATOM     75  C   UNL A   1      42.439  23.871  26.334  1.00  0.00     0.091 A 
ATOM     76  F   UNL A   1      41.277  24.349  28.366  1.00  0.00    -0.205 F 
ATOM     77  C   UNL A   1      43.256  24.321  25.283  1.00  0.00     0.022 A 
BRANCH  75  78
ATOM     78  S   UNL A   1      42.012  22.127  26.342  1.00  0.00     0.127 S 
ATOM     79  O   UNL A   1      40.559  22.176  26.196  1.00  0.00    -0.237 OA
ATOM     80  O   UNL A   1      42.733  21.638  25.166  1.00  0.00    -0.237 OA
ATOM     81  O   UNL A   1      42.499  21.604  27.610  1.00  0.00    -0.744 OA
ENDBRANCH  75  78
ENDBRANCH  47  71
BRANCH  59  82
ATOM     82  C   UNL A   1      45.076  26.625  33.845  1.00  0.00     0.023 A 
ATOM     83  C   UNL A   1      46.390  27.115  33.728  1.00  0.00     0.012 A 
ATOM     84  C   UNL A   1      44.788  25.604  34.769  1.00  0.00     0.148 A 
ATOM     85  C   UNL A   1      47.408  26.596  34.527  1.00  0.00     0.002 A 
ATOM     86  C   UNL A   1      45.800  25.115  35.585  1.00  0.00     0.091 A 
ATOM     87  F   UNL A   1      43.526  25.155  34.851  1.00  0.00    -0.205 F 
ATOM     88  C   UNL A   1      47.110  25.608  35.463  1.00  0.00     0.022 A 
BRANCH  86  89
ATOM     89  S   UNL A   1      45.503  23.902  36.876  1.00  0.00     0.127 S 
ATOM     90  O   UNL A   1      45.155  22.715  36.096  1.00  0.00    -0.237 OA
ATOM     91  O   UNL A   1      46.804  23.837  37.541  1.00  0.00    -0.237 OA
ATOM     92  O   UNL A   1      44.424  24.437  37.696  1.00  0.00    -0.744 OA
ENDBRANCH  86  89
ENDBRANCH  59  82
ENDBRANCH  33  34
ENDBRANCH  26  28
ENDBRANCH  25  26
ENDBRANCH  24  25
ENDBRANCH   1  24
TORSDOF 20
ENDMDL
