MODEL 1
REMARK VINA RESULT:     -11.0      0.000      0.000
REMARK SMILES C[C@H](SC1CCOCC1)c1ccc(C(=O)OCCOC(=O)c2ccc(-c3c4nc(c(-c5cccc(S(=O)(=O)[O-])c5F)c5ccc([nH]5)c(-c5cccc(S(=O)(=O)[O-])c5F)c5nc(c(-c6cccc(S(=O)(=O)[O-])c6F)c6ccc3[nH]6)C=C5)C=C4)cc2)o1
REMARK SMILES IDX 17 1 16 2 14 3 15 4 13 5 10 6 11 7 85 8 12 9 2 10 1 11 3 12
REMARK SMILES IDX 4 13 5 14 9 15 6 16 8 17 7 18 18 19 19 20 20 21 21 22 22 23
REMARK SMILES IDX 23 24 84 25 24 26 83 27 25 28 26 29 27 30 77 31 28 32 82 33
REMARK SMILES IDX 76 34 78 35 29 36 81 37 75 38 74 39 30 41 62 42 42 43 61 44
REMARK SMILES IDX 43 45 46 46 60 47 79 48 44 49 45 50 59 52 80 53 47 54 31 55
REMARK SMILES IDX 32 56 40 57 33 58 35 59 41 60 34 61 36 62 37 63 38 64 39 65
REMARK SMILES IDX 63 66 64 67 72 68 65 69 67 70 73 71 66 72 68 73 69 74 70 75
REMARK SMILES IDX 71 76 48 77 49 78 57 79 50 80 52 81 58 82 51 83 53 84 54 85
REMARK SMILES IDX 55 86 56 87
REMARK H PARENT 78 40 46 51
REMARK Flexibility Score: inf
ROOT
ATOM      1  C   UNL A   1      32.972  31.528  27.025  1.00  0.00     0.275 C 
ENDROOT
BRANCH   1   2
ATOM      2  O   UNL A   1      32.096  30.400  27.203  1.00  0.00    -0.456 OA
BRANCH   2   3
ATOM      3  C   UNL A   1      32.664  29.168  27.019  1.00  0.00     0.374 C 
ATOM      4  O   UNL A   1      33.721  28.817  27.515  1.00  0.00    -0.242 OA
BRANCH   3   5
ATOM      5  C   UNL A   1      31.786  28.339  26.223  1.00  0.00     0.211 A 
ATOM      6  C   UNL A   1      30.710  27.824  24.362  1.00  0.00     0.117 A 
ATOM      7  C   UNL A   1      30.592  26.733  25.202  1.00  0.00     0.048 A 
ATOM      8  O   UNL A   1      31.368  28.827  25.010  1.00  0.00    -0.453 OA
ATOM      9  C   UNL A   1      31.297  27.056  26.385  1.00  0.00     0.058 A 
BRANCH   6  10
ATOM     10  C   UNL A   1      30.292  28.098  22.941  1.00  0.00     0.110 C 
ATOM     11  C   UNL A   1      31.372  28.930  22.260  1.00  0.00     0.028 C 
BRANCH  10  12
ATOM     12  S   UNL A   1      28.604  28.872  23.010  1.00  0.00    -0.147 SA
BRANCH  12  13
ATOM     13  C   UNL A   1      28.819  30.604  22.444  1.00  0.00     0.052 C 
ATOM     14  C   UNL A   1      28.696  31.686  23.516  1.00  0.00     0.043 C 
ATOM     15  C   UNL A   1      27.970  30.882  21.202  1.00  0.00     0.043 C 
ATOM     16  C   UNL A   1      28.829  33.068  22.880  1.00  0.00     0.161 C 
ATOM     17  C   UNL A   1      28.159  32.318  20.739  1.00  0.00     0.161 C 
ATOM     18  O   UNL A   1      27.896  33.220  21.809  1.00  0.00    -0.381 OA
ENDBRANCH  12  13
ENDBRANCH  10  12
ENDBRANCH   6  10
ENDBRANCH   3   5
ENDBRANCH   2   3
ENDBRANCH   1   2
BRANCH   1  19
ATOM     19  C   UNL A   1      32.325  32.824  27.529  1.00  0.00     0.275 C 
BRANCH  19  20
ATOM     20  O   UNL A   1      33.256  33.922  27.540  1.00  0.00    -0.458 OA
BRANCH  20  21
ATOM     21  C   UNL A   1      33.326  34.612  28.704  1.00  0.00     0.338 C 
ATOM     22  O   UNL A   1      32.554  35.476  29.086  1.00  0.00    -0.246 OA
BRANCH  21  23
ATOM     23  C   UNL A   1      34.413  34.068  29.540  1.00  0.00     0.060 A 
ATOM     24  C   UNL A   1      35.728  34.317  29.142  1.00  0.00     0.016 A 
ATOM     25  C   UNL A   1      34.154  33.288  30.669  1.00  0.00     0.016 A 
ATOM     26  C   UNL A   1      36.795  33.802  29.873  1.00  0.00     0.010 A 
ATOM     27  C   UNL A   1      35.227  32.759  31.398  1.00  0.00     0.010 A 
ATOM     28  C   UNL A   1      36.551  33.008  30.999  1.00  0.00    -0.014 A 
BRANCH  28  29
ATOM     29  C   UNL A   1      37.696  32.411  31.727  1.00  0.00     0.031 A 
ATOM     30  C   UNL A   1      38.459  31.272  31.116  1.00  0.00     0.074 A 
ATOM     31  C   UNL A   1      38.055  32.901  32.927  1.00  0.00     0.049 A 
ATOM     32  N   UNL A   1      39.491  30.623  31.590  1.00  0.00    -0.248 NA
ATOM     33  C   UNL A   1      38.005  30.803  29.797  1.00  0.00     0.031 C 
ATOM     34  C   UNL A   1      37.389  34.005  33.619  1.00  0.00     0.029 A 
ATOM     35  N   UNL A   1      39.060  32.526  33.782  1.00  0.00    -0.354 N 
ATOM     36  C   UNL A   1      39.793  29.650  30.646  1.00  0.00     0.074 A 
ATOM     37  C   UNL A   1      38.832  29.791  29.573  1.00  0.00     0.031 C 
ATOM     38  C   UNL A   1      37.997  34.210  34.799  1.00  0.00     0.029 A 
ATOM     39  C   UNL A   1      39.079  33.241  34.957  1.00  0.00     0.049 A 
ATOM     40  H   UNL A   1      39.707  31.813  33.574  1.00  0.00     0.167 HD
ATOM     41  C   UNL A   1      40.790  28.735  30.664  1.00  0.00     0.034 A 
ATOM     42  C   UNL A   1      39.872  33.120  36.039  1.00  0.00     0.034 A 
ATOM     43  C   UNL A   1      41.764  28.618  31.716  1.00  0.00     0.049 A 
ATOM     44  C   UNL A   1      40.968  32.089  36.036  1.00  0.00     0.074 A 
ATOM     45  C   UNL A   1      42.845  27.757  31.797  1.00  0.00     0.029 A 
ATOM     46  N   UNL A   1      41.773  29.380  32.875  1.00  0.00    -0.354 N 
ATOM     47  N   UNL A   1      41.317  31.259  35.082  1.00  0.00    -0.248 NA
ATOM     48  C   UNL A   1      41.798  31.995  37.246  1.00  0.00     0.031 C 
ATOM     49  C   UNL A   1      43.500  27.992  33.011  1.00  0.00     0.029 A 
ATOM     50  C   UNL A   1      42.832  29.004  33.682  1.00  0.00     0.049 A 
ATOM     51  H   UNL A   1      41.120  30.084  33.092  1.00  0.00     0.167 HD
ATOM     52  C   UNL A   1      42.419  30.563  35.566  1.00  0.00     0.074 A 
ATOM     53  C   UNL A   1      42.695  31.085  36.888  1.00  0.00     0.031 C 
ATOM     54  C   UNL A   1      43.126  29.568  34.975  1.00  0.00     0.034 A 
BRANCH  41  55
ATOM     55  C   UNL A   1      40.902  27.809  29.483  1.00  0.00     0.023 A 
ATOM     56  C   UNL A   1      40.136  26.626  29.458  1.00  0.00     0.012 A 
ATOM     57  C   UNL A   1      41.724  28.125  28.386  1.00  0.00     0.148 A 
ATOM     58  C   UNL A   1      40.208  25.758  28.369  1.00  0.00     0.002 A 
ATOM     59  C   UNL A   1      41.765  27.271  27.288  1.00  0.00     0.091 A 
ATOM     60  F   UNL A   1      42.468  29.240  28.440  1.00  0.00    -0.205 F 
ATOM     61  C   UNL A   1      41.012  26.085  27.282  1.00  0.00     0.022 A 
BRANCH  59  62
ATOM     62  S   UNL A   1      42.727  27.648  25.819  1.00  0.00     0.127 S 
ATOM     63  O   UNL A   1      42.411  29.060  25.611  1.00  0.00    -0.237 OA
ATOM     64  O   UNL A   1      44.096  27.389  26.264  1.00  0.00    -0.237 OA
ATOM     65  O   UNL A   1      42.247  26.734  24.790  1.00  0.00    -0.744 OA
ENDBRANCH  59  62
ENDBRANCH  41  55
BRANCH  42  66
ATOM     66  C   UNL A   1      39.686  34.042  37.195  1.00  0.00     0.023 A 
ATOM     67  C   UNL A   1      40.067  35.391  37.068  1.00  0.00     0.012 A 
ATOM     68  C   UNL A   1      39.099  33.602  38.397  1.00  0.00     0.148 A 
ATOM     69  C   UNL A   1      39.878  36.285  38.123  1.00  0.00     0.002 A 
ATOM     70  C   UNL A   1      38.869  34.508  39.426  1.00  0.00     0.091 A 
ATOM     71  F   UNL A   1      38.768  32.309  38.507  1.00  0.00    -0.205 F 
ATOM     72  C   UNL A   1      39.269  35.847  39.297  1.00  0.00     0.022 A 
BRANCH  70  73
ATOM     73  S   UNL A   1      37.977  34.056  40.919  1.00  0.00     0.127 S 
ATOM     74  O   UNL A   1      36.835  33.325  40.377  1.00  0.00    -0.237 OA
ATOM     75  O   UNL A   1      38.958  33.229  41.624  1.00  0.00    -0.237 OA
ATOM     76  O   UNL A   1      37.670  35.315  41.585  1.00  0.00    -0.744 OA
ENDBRANCH  70  73
ENDBRANCH  42  66
BRANCH  54  77
ATOM     77  C   UNL A   1      44.277  28.978  35.747  1.00  0.00     0.023 A 
ATOM     78  C   UNL A   1      45.558  29.548  35.622  1.00  0.00     0.012 A 
ATOM     79  C   UNL A   1      44.076  27.918  36.653  1.00  0.00     0.148 A 
ATOM     80  C   UNL A   1      46.629  29.057  36.369  1.00  0.00     0.002 A 
ATOM     81  C   UNL A   1      45.139  27.460  37.423  1.00  0.00     0.091 A 
ATOM     82  F   UNL A   1      42.854  27.372  36.741  1.00  0.00    -0.205 F 
ATOM     83  C   UNL A   1      46.417  28.023  37.277  1.00  0.00     0.022 A 
BRANCH  81  84
ATOM     84  S   UNL A   1      44.930  26.191  38.679  1.00  0.00     0.127 S 
ATOM     85  O   UNL A   1      44.540  25.035  37.875  1.00  0.00    -0.237 OA
ATOM     86  O   UNL A   1      46.269  26.103  39.265  1.00  0.00    -0.237 OA
ATOM     87  O   UNL A   1      43.912  26.701  39.588  1.00  0.00    -0.744 OA
ENDBRANCH  81  84
ENDBRANCH  54  77
ENDBRANCH  28  29
ENDBRANCH  21  23
ENDBRANCH  20  21
ENDBRANCH  19  20
ENDBRANCH   1  19
TORSDOF 17
ENDMDL
MODEL 2
REMARK VINA RESULT:     -10.7      6.502     11.275
REMARK SMILES C[C@H](SC1CCOCC1)c1ccc(C(=O)OCCOC(=O)c2ccc(-c3c4nc(c(-c5cccc(S(=O)(=O)[O-])c5F)c5ccc([nH]5)c(-c5cccc(S(=O)(=O)[O-])c5F)c5nc(c(-c6cccc(S(=O)(=O)[O-])c6F)c6ccc3[nH]6)C=C5)C=C4)cc2)o1
REMARK SMILES IDX 17 1 16 2 14 3 15 4 13 5 10 6 11 7 85 8 12 9 2 10 1 11 3 12
REMARK SMILES IDX 4 13 5 14 9 15 6 16 8 17 7 18 18 19 19 20 20 21 21 22 22 23
REMARK SMILES IDX 23 24 84 25 24 26 83 27 25 28 26 29 27 30 77 31 28 32 82 33
REMARK SMILES IDX 76 34 78 35 29 36 81 37 75 38 74 39 30 41 62 42 42 43 61 44
REMARK SMILES IDX 43 45 46 46 60 47 79 48 44 49 45 50 59 52 80 53 47 54 31 55
REMARK SMILES IDX 32 56 40 57 33 58 35 59 41 60 34 61 36 62 37 63 38 64 39 65
REMARK SMILES IDX 63 66 64 67 72 68 65 69 67 70 73 71 66 72 68 73 69 74 70 75
REMARK SMILES IDX 71 76 48 77 49 78 57 79 50 80 52 81 58 82 51 83 53 84 54 85
REMARK SMILES IDX 55 86 56 87
REMARK H PARENT 78 40 46 51
REMARK Flexibility Score: inf
ROOT
ATOM      1  C   UNL A   1      40.287  19.461  26.225  1.00  0.00     0.275 C 
ENDROOT
BRANCH   1   2
ATOM      2  O   UNL A   1      41.511  19.924  26.826  1.00  0.00    -0.456 OA
BRANCH   2   3
ATOM      3  C   UNL A   1      42.550  20.152  25.963  1.00  0.00     0.374 C 
ATOM      4  O   UNL A   1      42.860  19.409  25.048  1.00  0.00    -0.242 OA
BRANCH   3   5
ATOM      5  C   UNL A   1      43.156  21.432  26.257  1.00  0.00     0.211 A 
ATOM      6  C   UNL A   1      44.533  23.108  25.830  1.00  0.00     0.117 A 
ATOM      7  C   UNL A   1      43.717  23.521  26.867  1.00  0.00     0.048 A 
ATOM      8  O   UNL A   1      44.244  21.814  25.513  1.00  0.00    -0.453 OA
ATOM      9  C   UNL A   1      42.824  22.455  27.126  1.00  0.00     0.058 A 
BRANCH   6  10
ATOM     10  C   UNL A   1      45.609  23.779  25.017  1.00  0.00     0.110 C 
ATOM     11  C   UNL A   1      46.305  22.730  24.159  1.00  0.00     0.028 C 
BRANCH  10  12
ATOM     12  S   UNL A   1      46.699  24.698  26.208  1.00  0.00    -0.147 SA
BRANCH  12  13
ATOM     13  C   UNL A   1      47.236  26.218  25.332  1.00  0.00     0.052 C 
ATOM     14  C   UNL A   1      46.129  27.059  24.697  1.00  0.00     0.043 C 
ATOM     15  C   UNL A   1      48.394  25.919  24.378  1.00  0.00     0.043 C 
ATOM     16  C   UNL A   1      46.738  28.245  23.952  1.00  0.00     0.161 C 
ATOM     17  C   UNL A   1      48.833  27.186  23.661  1.00  0.00     0.161 C 
ATOM     18  O   UNL A   1      47.722  27.799  23.016  1.00  0.00    -0.381 OA
ENDBRANCH  12  13
ENDBRANCH  10  12
ENDBRANCH   6  10
ENDBRANCH   3   5
ENDBRANCH   2   3
ENDBRANCH   1   2
BRANCH   1  19
ATOM     19  C   UNL A   1      39.433  20.630  25.723  1.00  0.00     0.275 C 
BRANCH  19  20
ATOM     20  O   UNL A   1      39.620  21.815  26.519  1.00  0.00    -0.458 OA
BRANCH  20  21
ATOM     21  C   UNL A   1      38.760  22.830  26.260  1.00  0.00     0.338 C 
ATOM     22  O   UNL A   1      37.632  22.730  25.807  1.00  0.00    -0.246 OA
BRANCH  21  23
ATOM     23  C   UNL A   1      39.331  24.101  26.744  1.00  0.00     0.060 A 
ATOM     24  C   UNL A   1      39.116  24.445  28.080  1.00  0.00     0.016 A 
ATOM     25  C   UNL A   1      40.026  24.967  25.897  1.00  0.00     0.016 A 
ATOM     26  C   UNL A   1      39.602  25.648  28.585  1.00  0.00     0.010 A 
ATOM     27  C   UNL A   1      40.504  26.183  26.402  1.00  0.00     0.010 A 
ATOM     28  C   UNL A   1      40.289  26.531  27.746  1.00  0.00    -0.014 A 
BRANCH  28  29
ATOM     29  C   UNL A   1      40.740  27.837  28.281  1.00  0.00     0.031 A 
ATOM     30  C   UNL A   1      42.203  28.174  28.300  1.00  0.00     0.074 A 
ATOM     31  C   UNL A   1      39.835  28.723  28.735  1.00  0.00     0.049 A 
ATOM     32  N   UNL A   1      42.793  29.263  28.718  1.00  0.00    -0.248 NA
ATOM     33  C   UNL A   1      43.124  27.152  27.777  1.00  0.00     0.031 C 
ATOM     34  C   UNL A   1      38.389  28.508  28.765  1.00  0.00     0.029 A 
ATOM     35  N   UNL A   1      40.000  29.976  29.269  1.00  0.00    -0.354 N 
ATOM     36  C   UNL A   1      44.154  29.050  28.540  1.00  0.00     0.074 A 
ATOM     37  C   UNL A   1      44.303  27.724  27.978  1.00  0.00     0.031 C 
ATOM     38  C   UNL A   1      37.798  29.588  29.302  1.00  0.00     0.029 A 
ATOM     39  C   UNL A   1      38.823  30.561  29.673  1.00  0.00     0.049 A 
ATOM     40  H   UNL A   1      40.878  30.415  29.354  1.00  0.00     0.167 HD
ATOM     41  C   UNL A   1      45.183  29.890  28.802  1.00  0.00     0.034 A 
ATOM     42  C   UNL A   1      38.599  31.742  30.281  1.00  0.00     0.034 A 
ATOM     43  C   UNL A   1      45.030  31.219  29.329  1.00  0.00     0.049 A 
ATOM     44  C   UNL A   1      39.762  32.652  30.569  1.00  0.00     0.074 A 
ATOM     45  C   UNL A   1      46.010  32.164  29.579  1.00  0.00     0.029 A 
ATOM     46  N   UNL A   1      43.821  31.791  29.697  1.00  0.00    -0.354 N 
ATOM     47  N   UNL A   1      41.031  32.487  30.280  1.00  0.00    -0.248 NA
ATOM     48  C   UNL A   1      39.462  33.925  31.242  1.00  0.00     0.031 C 
ATOM     49  C   UNL A   1      45.393  33.304  30.107  1.00  0.00     0.029 A 
ATOM     50  C   UNL A   1      44.029  33.071  30.179  1.00  0.00     0.049 A 
ATOM     51  H   UNL A   1      42.944  31.350  29.625  1.00  0.00     0.167 HD
ATOM     52  C   UNL A   1      41.675  33.640  30.713  1.00  0.00     0.074 A 
ATOM     53  C   UNL A   1      40.653  34.507  31.261  1.00  0.00     0.031 C 
ATOM     54  C   UNL A   1      42.997  33.944  30.675  1.00  0.00     0.034 A 
BRANCH  41  55
ATOM     55  C   UNL A   1      46.570  29.405  28.482  1.00  0.00     0.023 A 
ATOM     56  C   UNL A   1      47.165  29.771  27.258  1.00  0.00     0.012 A 
ATOM     57  C   UNL A   1      47.300  28.628  29.401  1.00  0.00     0.148 A 
ATOM     58  C   UNL A   1      48.457  29.350  26.943  1.00  0.00     0.002 A 
ATOM     59  C   UNL A   1      48.600  28.239  29.094  1.00  0.00     0.091 A 
ATOM     60  F   UNL A   1      46.707  28.264  30.548  1.00  0.00    -0.205 F 
ATOM     61  C   UNL A   1      49.176  28.594  27.863  1.00  0.00     0.022 A 
BRANCH  59  62
ATOM     62  S   UNL A   1      49.621  27.317  30.249  1.00  0.00     0.127 S 
ATOM     63  O   UNL A   1      50.883  27.220  29.518  1.00  0.00    -0.237 OA
ATOM     64  O   UNL A   1      49.657  28.201  31.413  1.00  0.00    -0.237 OA
ATOM     65  O   UNL A   1      48.921  26.058  30.472  1.00  0.00    -0.744 OA
ENDBRANCH  59  62
ENDBRANCH  41  55
BRANCH  42  66
ATOM     66  C   UNL A   1      37.204  32.150  30.609  1.00  0.00     0.023 A 
ATOM     67  C   UNL A   1      36.717  31.953  31.915  1.00  0.00     0.012 A 
ATOM     68  C   UNL A   1      36.376  32.767  29.651  1.00  0.00     0.148 A 
ATOM     69  C   UNL A   1      35.425  32.351  32.259  1.00  0.00     0.002 A 
ATOM     70  C   UNL A   1      35.108  33.207  30.014  1.00  0.00     0.091 A 
ATOM     71  F   UNL A   1      36.849  32.922  28.407  1.00  0.00    -0.205 F 
ATOM     72  C   UNL A   1      34.625  32.988  31.313  1.00  0.00     0.022 A 
BRANCH  70  73
ATOM     73  S   UNL A   1      34.063  34.147  28.893  1.00  0.00     0.127 S 
ATOM     74  O   UNL A   1      33.623  33.115  27.958  1.00  0.00    -0.237 OA
ATOM     75  O   UNL A   1      33.022  34.648  29.793  1.00  0.00    -0.237 OA
ATOM     76  O   UNL A   1      34.923  35.184  28.340  1.00  0.00    -0.744 OA
ENDBRANCH  70  73
ENDBRANCH  42  66
BRANCH  54  77
ATOM     77  C   UNL A   1      43.420  35.276  31.236  1.00  0.00     0.023 A 
ATOM     78  C   UNL A   1      43.709  35.388  32.610  1.00  0.00     0.012 A 
ATOM     79  C   UNL A   1      43.610  36.391  30.396  1.00  0.00     0.148 A 
ATOM     80  C   UNL A   1      44.157  36.596  33.144  1.00  0.00     0.002 A 
ATOM     81  C   UNL A   1      44.095  37.580  30.928  1.00  0.00     0.091 A 
ATOM     82  F   UNL A   1      43.307  36.272  29.094  1.00  0.00    -0.205 F 
ATOM     83  C   UNL A   1      44.362  37.687  32.302  1.00  0.00     0.022 A 
BRANCH  81  84
ATOM     84  S   UNL A   1      44.470  39.005  29.898  1.00  0.00     0.127 S 
ATOM     85  O   UNL A   1      43.154  39.336  29.355  1.00  0.00    -0.237 OA
ATOM     86  O   UNL A   1      44.989  39.969  30.869  1.00  0.00    -0.237 OA
ATOM     87  O   UNL A   1      45.455  38.541  28.930  1.00  0.00    -0.744 OA
ENDBRANCH  81  84
ENDBRANCH  54  77
ENDBRANCH  28  29
ENDBRANCH  21  23
ENDBRANCH  20  21
ENDBRANCH  19  20
ENDBRANCH   1  19
TORSDOF 17
ENDMDL
MODEL 3
REMARK VINA RESULT:     -10.7      6.069      9.128
REMARK SMILES C[C@H](SC1CCOCC1)c1ccc(C(=O)OCCOC(=O)c2ccc(-c3c4nc(c(-c5cccc(S(=O)(=O)[O-])c5F)c5ccc([nH]5)c(-c5cccc(S(=O)(=O)[O-])c5F)c5nc(c(-c6cccc(S(=O)(=O)[O-])c6F)c6ccc3[nH]6)C=C5)C=C4)cc2)o1
REMARK SMILES IDX 17 1 16 2 14 3 15 4 13 5 10 6 11 7 85 8 12 9 2 10 1 11 3 12
REMARK SMILES IDX 4 13 5 14 9 15 6 16 8 17 7 18 18 19 19 20 20 21 21 22 22 23
REMARK SMILES IDX 23 24 84 25 24 26 83 27 25 28 26 29 27 30 77 31 28 32 82 33
REMARK SMILES IDX 76 34 78 35 29 36 81 37 75 38 74 39 30 41 62 42 42 43 61 44
REMARK SMILES IDX 43 45 46 46 60 47 79 48 44 49 45 50 59 52 80 53 47 54 31 55
REMARK SMILES IDX 32 56 40 57 33 58 35 59 41 60 34 61 36 62 37 63 38 64 39 65
REMARK SMILES IDX 63 66 64 67 72 68 65 69 67 70 73 71 66 72 68 73 69 74 70 75
REMARK SMILES IDX 71 76 48 77 49 78 57 79 50 80 52 81 58 82 51 83 53 84 54 85
REMARK SMILES IDX 55 86 56 87
REMARK H PARENT 78 40 46 51
REMARK Flexibility Score: inf
ROOT
ATOM      1  C   UNL A   1      36.417  19.768  24.885  1.00  0.00     0.275 C 
ENDROOT
BRANCH   1   2
ATOM      2  O   UNL A   1      35.456  20.690  25.432  1.00  0.00    -0.456 OA
BRANCH   2   3
ATOM      3  C   UNL A   1      34.270  20.788  24.753  1.00  0.00     0.374 C 
ATOM      4  O   UNL A   1      33.500  19.860  24.576  1.00  0.00    -0.242 OA
BRANCH   3   5
ATOM      5  C   UNL A   1      34.045  22.162  24.361  1.00  0.00     0.211 A 
ATOM      6  C   UNL A   1      33.104  24.150  24.587  1.00  0.00     0.117 A 
ATOM      7  C   UNL A   1      34.101  24.290  23.640  1.00  0.00     0.048 A 
ATOM      8  O   UNL A   1      33.019  22.843  24.967  1.00  0.00    -0.453 OA
ATOM      9  C   UNL A   1      34.715  23.022  23.510  1.00  0.00     0.058 A 
BRANCH   6  10
ATOM     10  C   UNL A   1      32.157  25.111  25.256  1.00  0.00     0.110 C 
ATOM     11  C   UNL A   1      30.845  24.392  25.544  1.00  0.00     0.028 C 
BRANCH  10  12
ATOM     12  S   UNL A   1      32.032  26.605  24.159  1.00  0.00    -0.147 SA
BRANCH  12  13
ATOM     13  C   UNL A   1      32.631  28.020  25.161  1.00  0.00     0.052 C 
ATOM     14  C   UNL A   1      33.226  27.679  26.527  1.00  0.00     0.043 C 
ATOM     15  C   UNL A   1      31.581  29.132  25.218  1.00  0.00     0.043 C 
ATOM     16  C   UNL A   1      33.611  28.960  27.263  1.00  0.00     0.161 C 
ATOM     17  C   UNL A   1      32.089  30.301  26.048  1.00  0.00     0.161 C 
ATOM     18  O   UNL A   1      32.497  29.852  27.336  1.00  0.00    -0.381 OA
ENDBRANCH  12  13
ENDBRANCH  10  12
ENDBRANCH   6  10
ENDBRANCH   3   5
ENDBRANCH   2   3
ENDBRANCH   1   2
BRANCH   1  19
ATOM     19  C   UNL A   1      37.777  20.441  24.669  1.00  0.00     0.275 C 
BRANCH  19  20
ATOM     20  O   UNL A   1      38.122  21.321  25.755  1.00  0.00    -0.458 OA
BRANCH  20  21
ATOM     21  C   UNL A   1      39.360  21.142  26.276  1.00  0.00     0.338 C 
ATOM     22  O   UNL A   1      40.016  20.113  26.258  1.00  0.00    -0.246 OA
BRANCH  21  23
ATOM     23  C   UNL A   1      39.887  22.432  26.761  1.00  0.00     0.060 A 
ATOM     24  C   UNL A   1      39.386  23.599  26.181  1.00  0.00     0.016 A 
ATOM     25  C   UNL A   1      40.887  22.501  27.734  1.00  0.00     0.016 A 
ATOM     26  C   UNL A   1      39.870  24.844  26.574  1.00  0.00     0.010 A 
ATOM     27  C   UNL A   1      41.382  23.753  28.121  1.00  0.00     0.010 A 
ATOM     28  C   UNL A   1      40.880  24.929  27.538  1.00  0.00    -0.014 A 
BRANCH  28  29
ATOM     29  C   UNL A   1      41.431  26.257  27.896  1.00  0.00     0.031 A 
ATOM     30  C   UNL A   1      42.845  26.604  27.532  1.00  0.00     0.074 A 
ATOM     31  C   UNL A   1      40.656  27.153  28.535  1.00  0.00     0.049 A 
ATOM     32  N   UNL A   1      43.504  27.713  27.750  1.00  0.00    -0.248 NA
ATOM     33  C   UNL A   1      43.620  25.570  26.829  1.00  0.00     0.031 C 
ATOM     34  C   UNL A   1      39.268  26.929  28.938  1.00  0.00     0.029 A 
ATOM     35  N   UNL A   1      40.930  28.426  28.967  1.00  0.00    -0.354 N 
ATOM     36  C   UNL A   1      44.779  27.502  27.241  1.00  0.00     0.074 A 
ATOM     37  C   UNL A   1      44.802  26.158  26.705  1.00  0.00     0.031 C 
ATOM     38  C   UNL A   1      38.815  28.024  29.570  1.00  0.00     0.029 A 
ATOM     39  C   UNL A   1      39.885  29.018  29.636  1.00  0.00     0.049 A 
ATOM     40  H   UNL A   1      41.794  28.874  28.812  1.00  0.00     0.167 HD
ATOM     41  C   UNL A   1      45.827  28.358  27.205  1.00  0.00     0.034 A 
ATOM     42  C   UNL A   1      39.803  30.219  30.240  1.00  0.00     0.034 A 
ATOM     43  C   UNL A   1      45.792  29.704  27.708  1.00  0.00     0.049 A 
ATOM     44  C   UNL A   1      40.987  31.147  30.193  1.00  0.00     0.074 A 
ATOM     45  C   UNL A   1      46.788  30.664  27.669  1.00  0.00     0.029 A 
ATOM     46  N   UNL A   1      44.706  30.281  28.351  1.00  0.00    -0.354 N 
ATOM     47  N   UNL A   1      42.143  30.979  29.598  1.00  0.00    -0.248 NA
ATOM     48  C   UNL A   1      40.846  32.442  30.876  1.00  0.00     0.031 C 
ATOM     49  C   UNL A   1      46.307  31.819  28.297  1.00  0.00     0.029 A 
ATOM     50  C   UNL A   1      45.009  31.580  28.721  1.00  0.00     0.049 A 
ATOM     51  H   UNL A   1      43.846  29.832  28.518  1.00  0.00     0.167 HD
ATOM     52  C   UNL A   1      42.857  32.152  29.814  1.00  0.00     0.074 A 
ATOM     53  C   UNL A   1      41.994  33.032  30.573  1.00  0.00     0.031 C 
ATOM     54  C   UNL A   1      44.122  32.464  29.432  1.00  0.00     0.034 A 
BRANCH  41  55
ATOM     55  C   UNL A   1      47.096  27.871  26.561  1.00  0.00     0.023 A 
ATOM     56  C   UNL A   1      48.114  27.322  27.367  1.00  0.00     0.012 A 
ATOM     57  C   UNL A   1      47.267  27.914  25.165  1.00  0.00     0.148 A 
ATOM     58  C   UNL A   1      49.294  26.847  26.795  1.00  0.00     0.002 A 
ATOM     59  C   UNL A   1      48.433  27.408  24.598  1.00  0.00     0.091 A 
ATOM     60  F   UNL A   1      46.301  28.467  24.417  1.00  0.00    -0.205 F 
ATOM     61  C   UNL A   1      49.449  26.882  25.413  1.00  0.00     0.022 A 
BRANCH  59  62
ATOM     62  S   UNL A   1      48.688  27.356  22.821  1.00  0.00     0.127 S 
ATOM     63  O   UNL A   1      47.771  28.397  22.360  1.00  0.00    -0.237 OA
ATOM     64  O   UNL A   1      50.106  27.693  22.696  1.00  0.00    -0.237 OA
ATOM     65  O   UNL A   1      48.356  25.996  22.416  1.00  0.00    -0.744 OA
ENDBRANCH  59  62
ENDBRANCH  41  55
BRANCH  42  66
ATOM     66  C   UNL A   1      38.530  30.629  30.896  1.00  0.00     0.023 A 
ATOM     67  C   UNL A   1      38.350  30.375  32.270  1.00  0.00     0.012 A 
ATOM     68  C   UNL A   1      37.520  31.303  30.183  1.00  0.00     0.148 A 
ATOM     69  C   UNL A   1      37.180  30.773  32.918  1.00  0.00     0.002 A 
ATOM     70  C   UNL A   1      36.380  31.741  30.845  1.00  0.00     0.091 A 
ATOM     71  F   UNL A   1      37.701  31.512  28.871  1.00  0.00    -0.205 F 
ATOM     72  C   UNL A   1      36.201  31.466  32.210  1.00  0.00     0.022 A 
BRANCH  70  73
ATOM     73  S   UNL A   1      35.130  32.749  30.037  1.00  0.00     0.127 S 
ATOM     74  O   UNL A   1      34.210  33.024  31.137  1.00  0.00    -0.237 OA
ATOM     75  O   UNL A   1      35.911  33.902  29.585  1.00  0.00    -0.237 OA
ATOM     76  O   UNL A   1      34.605  31.923  28.958  1.00  0.00    -0.744 OA
ENDBRANCH  70  73
ENDBRANCH  42  66
BRANCH  54  77
ATOM     77  C   UNL A   1      44.652  33.818  29.822  1.00  0.00     0.023 A 
ATOM     78  C   UNL A   1      45.370  33.960  31.025  1.00  0.00     0.012 A 
ATOM     79  C   UNL A   1      44.511  34.927  28.965  1.00  0.00     0.148 A 
ATOM     80  C   UNL A   1      45.920  35.191  31.381  1.00  0.00     0.002 A 
ATOM     81  C   UNL A   1      45.097  36.141  29.307  1.00  0.00     0.091 A 
ATOM     82  F   UNL A   1      43.804  34.779  27.835  1.00  0.00    -0.205 F 
ATOM     83  C   UNL A   1      45.794  36.277  30.518  1.00  0.00     0.022 A 
BRANCH  81  84
ATOM     84  S   UNL A   1      45.056  37.564  28.210  1.00  0.00     0.127 S 
ATOM     85  O   UNL A   1      45.680  37.030  27.002  1.00  0.00    -0.237 OA
ATOM     86  O   UNL A   1      43.621  37.830  28.090  1.00  0.00    -0.237 OA
ATOM     87  O   UNL A   1      45.802  38.611  28.897  1.00  0.00    -0.744 OA
ENDBRANCH  81  84
ENDBRANCH  54  77
ENDBRANCH  28  29
ENDBRANCH  21  23
ENDBRANCH  20  21
ENDBRANCH  19  20
ENDBRANCH   1  19
TORSDOF 17
ENDMDL
