MODEL 1
REMARK VINA RESULT:     -10.0      0.000      0.000
REMARK SMILES COC(=O)CCN(C)C(=O)NCc1ccc(C(=O)OCCOC(=O)c2ccc(-c3c4nc(c(-c5cccc(S(=O)(=O)[O-])c5F)c5ccc([nH]5)c(-c5cccc(S(=O)(=O)[O-])c5F)c5nc(c(-c6cccc(S(=O)(=O)[O-])c6F)c6ccc3[nH]6)C=C5)C=C4)cc2)o1
REMARK SMILES IDX 17 1 18 2 16 3 13 4 14 5 88 6 15 7 12 8 11 9 9 10 10 11 7 13
REMARK SMILES IDX 8 14 6 15 5 16 3 17 4 18 2 19 1 20 19 21 20 22 21 23 22 24
REMARK SMILES IDX 23 25 24 26 25 27 26 28 87 29 27 30 86 31 28 32 29 33 30 34
REMARK SMILES IDX 80 35 31 36 85 37 79 38 81 39 32 40 84 41 78 42 77 43 33 45
REMARK SMILES IDX 65 46 45 47 64 48 46 49 49 50 63 51 82 52 47 53 48 54 62 56
REMARK SMILES IDX 83 57 50 58 34 59 35 60 43 61 36 62 38 63 44 64 37 65 39 66
REMARK SMILES IDX 40 67 41 68 42 69 66 70 67 71 75 72 68 73 70 74 76 75 69 76
REMARK SMILES IDX 71 77 72 78 73 79 74 80 51 81 52 82 60 83 53 84 55 85 61 86
REMARK SMILES IDX 54 87 56 88 57 89 58 90 59 91
REMARK H PARENT 11 12 81 44 49 55
REMARK Flexibility Score: inf
ROOT
ATOM      1  C   UNL A   1      33.309  29.128  25.965  1.00  0.00     0.374 C 
ATOM      2  O   UNL A   1      33.580  28.623  27.045  1.00  0.00    -0.242 OA
ENDROOT
BRANCH   1   3
ATOM      3  C   UNL A   1      33.330  28.445  24.690  1.00  0.00     0.211 A 
ATOM      4  C   UNL A   1      32.587  26.932  23.254  1.00  0.00     0.124 A 
ATOM      5  C   UNL A   1      33.453  27.742  22.552  1.00  0.00     0.048 A 
ATOM      6  O   UNL A   1      32.566  27.313  24.565  1.00  0.00    -0.452 OA
ATOM      7  C   UNL A   1      33.923  28.717  23.471  1.00  0.00     0.058 A 
BRANCH   4   8
ATOM      8  C   UNL A   1      31.659  25.832  22.882  1.00  0.00     0.193 C 
BRANCH   8   9
ATOM      9  N   UNL A   1      32.365  24.975  21.952  1.00  0.00    -0.331 N 
ATOM     10  C   UNL A   1      33.102  23.859  21.983  1.00  0.00     0.317 C 
ATOM     11  O   UNL A   1      33.392  23.384  20.882  1.00  0.00    -0.249 OA
ATOM     12  H   UNL A   1      32.275  25.311  21.031  1.00  0.00     0.165 HD
BRANCH  10  13
ATOM     13  N   UNL A   1      33.485  23.244  23.139  1.00  0.00    -0.327 N 
ATOM     14  C   UNL A   1      34.731  23.445  23.850  1.00  0.00     0.148 C 
BRANCH  13  15
ATOM     15  C   UNL A   1      32.530  22.296  23.738  1.00  0.00     0.132 C 
BRANCH  15  16
ATOM     16  C   UNL A   1      32.130  21.183  22.778  1.00  0.00     0.144 C 
BRANCH  16  17
ATOM     17  C   UNL A   1      32.401  19.832  23.385  1.00  0.00     0.307 C 
ATOM     18  O   UNL A   1      32.076  18.783  22.848  1.00  0.00    -0.252 OA
BRANCH  17  19
ATOM     19  O   UNL A   1      33.036  19.960  24.582  1.00  0.00    -0.469 OA
ATOM     20  C   UNL A   1      34.263  19.229  24.671  1.00  0.00     0.282 C 
ENDBRANCH  17  19
ENDBRANCH  16  17
ENDBRANCH  15  16
ENDBRANCH  13  15
ENDBRANCH  10  13
ENDBRANCH   8   9
ENDBRANCH   4   8
ENDBRANCH   1   3
BRANCH   1  21
ATOM     21  O   UNL A   1      32.873  30.415  25.802  1.00  0.00    -0.456 OA
BRANCH  21  22
ATOM     22  C   UNL A   1      31.646  30.751  26.480  1.00  0.00     0.275 C 
BRANCH  22  23
ATOM     23  C   UNL A   1      31.544  32.259  26.742  1.00  0.00     0.275 C 
BRANCH  23  24
ATOM     24  O   UNL A   1      32.826  32.907  26.657  1.00  0.00    -0.458 OA
BRANCH  24  25
ATOM     25  C   UNL A   1      33.209  33.583  27.767  1.00  0.00     0.338 C 
ATOM     26  O   UNL A   1      32.586  34.468  28.330  1.00  0.00    -0.246 OA
BRANCH  25  27
ATOM     27  C   UNL A   1      34.443  32.986  28.306  1.00  0.00     0.060 A 
ATOM     28  C   UNL A   1      34.354  31.704  28.845  1.00  0.00     0.016 A 
ATOM     29  C   UNL A   1      35.654  33.680  28.335  1.00  0.00     0.016 A 
ATOM     30  C   UNL A   1      35.472  31.110  29.423  1.00  0.00     0.010 A 
ATOM     31  C   UNL A   1      36.777  33.082  28.924  1.00  0.00     0.010 A 
ATOM     32  C   UNL A   1      36.689  31.796  29.484  1.00  0.00    -0.014 A 
BRANCH  32  33
ATOM     33  C   UNL A   1      37.844  31.161  30.166  1.00  0.00     0.031 A 
ATOM     34  C   UNL A   1      38.148  31.482  31.602  1.00  0.00     0.074 A 
ATOM     35  C   UNL A   1      38.609  30.275  29.499  1.00  0.00     0.049 A 
ATOM     36  N   UNL A   1      39.160  31.097  32.336  1.00  0.00    -0.248 NA
ATOM     37  C   UNL A   1      37.198  32.365  32.296  1.00  0.00     0.031 C 
ATOM     38  C   UNL A   1      38.404  29.865  28.109  1.00  0.00     0.029 A 
ATOM     39  N   UNL A   1      39.718  29.572  29.896  1.00  0.00    -0.354 N 
ATOM     40  C   UNL A   1      38.990  31.716  33.568  1.00  0.00     0.074 A 
ATOM     41  C   UNL A   1      37.785  32.514  33.477  1.00  0.00     0.031 C 
ATOM     42  C   UNL A   1      39.366  28.996  27.763  1.00  0.00     0.029 A 
ATOM     43  C   UNL A   1      40.273  28.812  28.893  1.00  0.00     0.049 A 
ATOM     44  H   UNL A   1      40.082  29.609  30.809  1.00  0.00     0.167 HD
ATOM     45  C   UNL A   1      39.757  31.615  34.680  1.00  0.00     0.034 A 
ATOM     46  C   UNL A   1      41.395  28.065  28.879  1.00  0.00     0.034 A 
ATOM     47  C   UNL A   1      40.913  30.764  34.794  1.00  0.00     0.049 A 
ATOM     48  C   UNL A   1      42.221  27.957  30.133  1.00  0.00     0.074 A 
ATOM     49  C   UNL A   1      41.734  30.569  35.891  1.00  0.00     0.029 A 
ATOM     50  N   UNL A   1      41.398  29.952  33.782  1.00  0.00    -0.354 N 
ATOM     51  N   UNL A   1      42.005  28.491  31.310  1.00  0.00    -0.248 NA
ATOM     52  C   UNL A   1      43.427  27.121  30.067  1.00  0.00     0.031 C 
ATOM     53  C   UNL A   1      42.720  29.641  35.540  1.00  0.00     0.029 A 
ATOM     54  C   UNL A   1      42.510  29.254  34.225  1.00  0.00     0.049 A 
ATOM     55  H   UNL A   1      41.010  29.880  32.880  1.00  0.00     0.167 HD
ATOM     56  C   UNL A   1      43.028  28.034  32.132  1.00  0.00     0.074 A 
ATOM     57  C   UNL A   1      43.855  27.161  31.323  1.00  0.00     0.031 C 
ATOM     58  C   UNL A   1      43.278  28.331  33.431  1.00  0.00     0.034 A 
BRANCH  45  59
ATOM     59  C   UNL A   1      39.348  32.413  35.890  1.00  0.00     0.023 A 
ATOM     60  C   UNL A   1      39.774  33.751  36.012  1.00  0.00     0.012 A 
ATOM     61  C   UNL A   1      38.494  31.866  36.868  1.00  0.00     0.148 A 
ATOM     62  C   UNL A   1      39.376  34.523  37.103  1.00  0.00     0.002 A 
ATOM     63  C   UNL A   1      38.074  32.654  37.934  1.00  0.00     0.091 A 
ATOM     64  F   UNL A   1      38.118  30.585  36.747  1.00  0.00    -0.205 F 
ATOM     65  C   UNL A   1      38.519  33.980  38.057  1.00  0.00     0.022 A 
BRANCH  63  66
ATOM     66  S   UNL A   1      36.912  32.059  39.169  1.00  0.00     0.127 S 
ATOM     67  O   UNL A   1      37.054  30.609  39.038  1.00  0.00    -0.237 OA
ATOM     68  O   UNL A   1      37.459  32.613  40.409  1.00  0.00    -0.237 OA
ATOM     69  O   UNL A   1      35.614  32.601  38.790  1.00  0.00    -0.744 OA
ENDBRANCH  63  66
ENDBRANCH  45  59
BRANCH  46  70
ATOM     70  C   UNL A   1      41.772  27.323  27.644  1.00  0.00     0.023 A 
ATOM     71  C   UNL A   1      42.314  28.029  26.554  1.00  0.00     0.012 A 
ATOM     72  C   UNL A   1      41.639  25.923  27.559  1.00  0.00     0.148 A 
ATOM     73  C   UNL A   1      42.698  27.359  25.393  1.00  0.00     0.002 A 
ATOM     74  C   UNL A   1      42.074  25.254  26.420  1.00  0.00     0.091 A 
ATOM     75  F   UNL A   1      41.098  25.269  28.596  1.00  0.00    -0.205 F 
ATOM     76  C   UNL A   1      42.592  25.971  25.330  1.00  0.00     0.022 A 
BRANCH  74  77
ATOM     77  S   UNL A   1      42.093  23.461  26.315  1.00  0.00     0.127 S 
ATOM     78  O   UNL A   1      42.843  23.099  27.514  1.00  0.00    -0.237 OA
ATOM     79  O   UNL A   1      40.668  23.134  26.359  1.00  0.00    -0.237 OA
ATOM     80  O   UNL A   1      42.735  23.155  25.044  1.00  0.00    -0.744 OA
ENDBRANCH  74  77
ENDBRANCH  46  70
BRANCH  58  81
ATOM     81  C   UNL A   1      44.476  27.689  34.078  1.00  0.00     0.023 A 
ATOM     82  C   UNL A   1      45.697  28.391  34.120  1.00  0.00     0.012 A 
ATOM     83  C   UNL A   1      44.374  26.437  34.715  1.00  0.00     0.148 A 
ATOM     84  C   UNL A   1      46.804  27.847  34.768  1.00  0.00     0.002 A 
ATOM     85  C   UNL A   1      45.473  25.917  35.391  1.00  0.00     0.091 A 
ATOM     86  F   UNL A   1      43.210  25.774  34.643  1.00  0.00    -0.205 F 
ATOM     87  C   UNL A   1      46.690  26.617  35.414  1.00  0.00     0.022 A 
BRANCH  85  88
ATOM     88  S   UNL A   1      45.388  24.379  36.317  1.00  0.00     0.127 S 
ATOM     89  O   UNL A   1      44.333  24.671  37.286  1.00  0.00    -0.237 OA
ATOM     90  O   UNL A   1      45.014  23.410  35.284  1.00  0.00    -0.237 OA
ATOM     91  O   UNL A   1      46.718  24.176  36.875  1.00  0.00    -0.744 OA
ENDBRANCH  85  88
ENDBRANCH  58  81
ENDBRANCH  32  33
ENDBRANCH  25  27
ENDBRANCH  24  25
ENDBRANCH  23  24
ENDBRANCH  22  23
ENDBRANCH  21  22
ENDBRANCH   1  21
TORSDOF 21
ENDMDL
MODEL 2
REMARK VINA RESULT:      -9.8      0.968      7.641
REMARK SMILES COC(=O)CCN(C)C(=O)NCc1ccc(C(=O)OCCOC(=O)c2ccc(-c3c4nc(c(-c5cccc(S(=O)(=O)[O-])c5F)c5ccc([nH]5)c(-c5cccc(S(=O)(=O)[O-])c5F)c5nc(c(-c6cccc(S(=O)(=O)[O-])c6F)c6ccc3[nH]6)C=C5)C=C4)cc2)o1
REMARK SMILES IDX 17 1 18 2 16 3 13 4 14 5 88 6 15 7 12 8 11 9 9 10 10 11 7 13
REMARK SMILES IDX 8 14 6 15 5 16 3 17 4 18 2 19 1 20 19 21 20 22 21 23 22 24
REMARK SMILES IDX 23 25 24 26 25 27 26 28 87 29 27 30 86 31 28 32 29 33 30 34
REMARK SMILES IDX 80 35 31 36 85 37 79 38 81 39 32 40 84 41 78 42 77 43 33 45
REMARK SMILES IDX 65 46 45 47 64 48 46 49 49 50 63 51 82 52 47 53 48 54 62 56
REMARK SMILES IDX 83 57 50 58 34 59 35 60 43 61 36 62 38 63 44 64 37 65 39 66
REMARK SMILES IDX 40 67 41 68 42 69 66 70 67 71 75 72 68 73 70 74 76 75 69 76
REMARK SMILES IDX 71 77 72 78 73 79 74 80 51 81 52 82 60 83 53 84 55 85 61 86
REMARK SMILES IDX 54 87 56 88 57 89 58 90 59 91
REMARK H PARENT 11 12 81 44 49 55
REMARK Flexibility Score: inf
ROOT
ATOM      1  C   UNL A   1      33.691  29.670  26.766  1.00  0.00     0.374 C 
ATOM      2  O   UNL A   1      34.109  29.340  27.866  1.00  0.00    -0.242 OA
ENDROOT
BRANCH   1   3
ATOM      3  C   UNL A   1      33.502  28.783  25.639  1.00  0.00     0.211 A 
ATOM      4  C   UNL A   1      33.647  26.815  24.635  1.00  0.00     0.124 A 
ATOM      5  C   UNL A   1      32.866  27.608  23.823  1.00  0.00     0.048 A 
ATOM      6  O   UNL A   1      34.091  27.546  25.699  1.00  0.00    -0.452 OA
ATOM      7  C   UNL A   1      32.766  28.867  24.471  1.00  0.00     0.058 A 
BRANCH   4   8
ATOM      8  C   UNL A   1      34.025  25.377  24.632  1.00  0.00     0.193 C 
BRANCH   8   9
ATOM      9  N   UNL A   1      33.912  24.909  23.267  1.00  0.00    -0.331 N 
ATOM     10  C   UNL A   1      33.171  24.044  22.564  1.00  0.00     0.317 C 
ATOM     11  O   UNL A   1      33.332  24.079  21.341  1.00  0.00    -0.249 OA
ATOM     12  H   UNL A   1      34.569  25.359  22.688  1.00  0.00     0.165 HD
BRANCH  10  13
ATOM     13  N   UNL A   1      32.264  23.198  23.132  1.00  0.00    -0.327 N 
ATOM     14  C   UNL A   1      30.891  23.508  23.471  1.00  0.00     0.148 C 
BRANCH  13  15
ATOM     15  C   UNL A   1      32.718  21.824  23.410  1.00  0.00     0.132 C 
BRANCH  15  16
ATOM     16  C   UNL A   1      33.259  21.662  24.825  1.00  0.00     0.144 C 
BRANCH  16  17
ATOM     17  C   UNL A   1      34.323  20.599  24.870  1.00  0.00     0.307 C 
ATOM     18  O   UNL A   1      34.109  19.429  24.588  1.00  0.00    -0.252 OA
BRANCH  17  19
ATOM     19  O   UNL A   1      35.515  21.126  25.265  1.00  0.00    -0.469 OA
ATOM     20  C   UNL A   1      36.650  20.329  24.909  1.00  0.00     0.282 C 
ENDBRANCH  17  19
ENDBRANCH  16  17
ENDBRANCH  15  16
ENDBRANCH  13  15
ENDBRANCH  10  13
ENDBRANCH   8   9
ENDBRANCH   4   8
ENDBRANCH   1   3
BRANCH   1  21
ATOM     21  O   UNL A   1      33.268  30.932  26.447  1.00  0.00    -0.456 OA
BRANCH  21  22
ATOM     22  C   UNL A   1      31.884  31.219  26.731  1.00  0.00     0.275 C 
BRANCH  22  23
ATOM     23  C   UNL A   1      31.673  32.704  27.051  1.00  0.00     0.275 C 
BRANCH  23  24
ATOM     24  O   UNL A   1      32.909  33.440  27.028  1.00  0.00    -0.458 OA
BRANCH  24  25
ATOM     25  C   UNL A   1      33.251  34.038  28.194  1.00  0.00     0.338 C 
ATOM     26  O   UNL A   1      32.603  34.876  28.799  1.00  0.00    -0.246 OA
BRANCH  25  27
ATOM     27  C   UNL A   1      34.473  33.411  28.729  1.00  0.00     0.060 A 
ATOM     28  C   UNL A   1      34.315  32.304  29.561  1.00  0.00     0.016 A 
ATOM     29  C   UNL A   1      35.746  33.923  28.470  1.00  0.00     0.016 A 
ATOM     30  C   UNL A   1      35.428  31.705  30.144  1.00  0.00     0.010 A 
ATOM     31  C   UNL A   1      36.864  33.321  29.064  1.00  0.00     0.010 A 
ATOM     32  C   UNL A   1      36.710  32.215  29.917  1.00  0.00    -0.014 A 
BRANCH  32  33
ATOM     33  C   UNL A   1      37.868  31.593  30.607  1.00  0.00     0.031 A 
ATOM     34  C   UNL A   1      38.702  30.559  29.906  1.00  0.00     0.074 A 
ATOM     35  C   UNL A   1      38.184  31.977  31.859  1.00  0.00     0.049 A 
ATOM     36  N   UNL A   1      39.692  29.844  30.374  1.00  0.00    -0.248 NA
ATOM     37  C   UNL A   1      38.366  30.280  28.501  1.00  0.00     0.031 C 
ATOM     38  C   UNL A   1      37.465  32.985  32.637  1.00  0.00     0.029 A 
ATOM     39  N   UNL A   1      39.183  31.554  32.699  1.00  0.00    -0.354 N 
ATOM     40  C   UNL A   1      40.078  29.006  29.334  1.00  0.00     0.074 A 
ATOM     41  C   UNL A   1      39.204  29.292  28.216  1.00  0.00     0.031 C 
ATOM     42  C   UNL A   1      38.035  33.091  33.848  1.00  0.00     0.029 A 
ATOM     43  C   UNL A   1      39.136  32.137  33.943  1.00  0.00     0.049 A 
ATOM     44  H   UNL A   1      39.866  30.895  32.437  1.00  0.00     0.167 HD
ATOM     45  C   UNL A   1      41.080  28.095  29.307  1.00  0.00     0.034 A 
ATOM     46  C   UNL A   1      39.884  31.917  35.043  1.00  0.00     0.034 A 
ATOM     47  C   UNL A   1      41.995  27.863  30.394  1.00  0.00     0.049 A 
ATOM     48  C   UNL A   1      41.002  30.911  34.981  1.00  0.00     0.074 A 
ATOM     49  C   UNL A   1      43.064  26.985  30.448  1.00  0.00     0.029 A 
ATOM     50  N   UNL A   1      41.963  28.529  31.609  1.00  0.00    -0.354 N 
ATOM     51  N   UNL A   1      41.398  30.181  33.967  1.00  0.00    -0.248 NA
ATOM     52  C   UNL A   1      41.794  30.718  36.204  1.00  0.00     0.031 C 
ATOM     53  C   UNL A   1      43.675  27.116  31.700  1.00  0.00     0.029 A 
ATOM     54  C   UNL A   1      42.990  28.080  32.423  1.00  0.00     0.049 A 
ATOM     55  H   UNL A   1      41.307  29.219  31.858  1.00  0.00     0.167 HD
ATOM     56  C   UNL A   1      42.501  29.466  34.418  1.00  0.00     0.074 A 
ATOM     57  C   UNL A   1      42.725  29.866  35.793  1.00  0.00     0.031 C 
ATOM     58  C   UNL A   1      43.245  28.542  33.763  1.00  0.00     0.034 A 
BRANCH  45  59
ATOM     59  C   UNL A   1      41.274  27.303  28.041  1.00  0.00     0.023 A 
ATOM     60  C   UNL A   1      41.897  27.910  26.933  1.00  0.00     0.012 A 
ATOM     61  C   UNL A   1      40.901  25.946  27.968  1.00  0.00     0.148 A 
ATOM     62  C   UNL A   1      42.124  27.186  25.764  1.00  0.00     0.002 A 
ATOM     63  C   UNL A   1      41.163  25.221  26.810  1.00  0.00     0.091 A 
ATOM     64  F   UNL A   1      40.288  25.391  29.024  1.00  0.00    -0.205 F 
ATOM     65  C   UNL A   1      41.768  25.842  25.705  1.00  0.00     0.022 A 
BRANCH  63  66
ATOM     66  S   UNL A   1      40.804  23.465  26.673  1.00  0.00     0.127 S 
ATOM     67  O   UNL A   1      39.374  23.478  26.365  1.00  0.00    -0.237 OA
ATOM     68  O   UNL A   1      41.662  23.054  25.561  1.00  0.00    -0.237 OA
ATOM     69  O   UNL A   1      41.165  22.883  27.959  1.00  0.00    -0.744 OA
ENDBRANCH  63  66
ENDBRANCH  45  59
BRANCH  46  70
ATOM     70  C   UNL A   1      39.626  32.705  36.280  1.00  0.00     0.023 A 
ATOM     71  C   UNL A   1      40.285  33.935  36.465  1.00  0.00     0.012 A 
ATOM     72  C   UNL A   1      38.703  32.267  37.251  1.00  0.00     0.148 A 
ATOM     73  C   UNL A   1      40.045  34.706  37.602  1.00  0.00     0.002 A 
ATOM     74  C   UNL A   1      38.429  33.066  38.355  1.00  0.00     0.091 A 
ATOM     75  F   UNL A   1      38.103  31.082  37.072  1.00  0.00    -0.205 F 
ATOM     76  C   UNL A   1      39.108  34.280  38.540  1.00  0.00     0.022 A 
BRANCH  74  77
ATOM     77  S   UNL A   1      37.140  32.650  39.537  1.00  0.00     0.127 S 
ATOM     78  O   UNL A   1      35.951  32.632  38.690  1.00  0.00    -0.237 OA
ATOM     79  O   UNL A   1      37.573  31.337  40.016  1.00  0.00    -0.237 OA
ATOM     80  O   UNL A   1      37.190  33.699  40.547  1.00  0.00    -0.744 OA
ENDBRANCH  74  77
ENDBRANCH  46  70
BRANCH  58  81
ATOM     81  C   UNL A   1      44.393  27.912  34.507  1.00  0.00     0.023 A 
ATOM     82  C   UNL A   1      45.624  28.595  34.582  1.00  0.00     0.012 A 
ATOM     83  C   UNL A   1      44.231  26.696  35.198  1.00  0.00     0.148 A 
ATOM     84  C   UNL A   1      46.683  28.064  35.317  1.00  0.00     0.002 A 
ATOM     85  C   UNL A   1      45.281  26.192  35.960  1.00  0.00     0.091 A 
ATOM     86  F   UNL A   1      43.060  26.051  35.096  1.00  0.00    -0.205 F 
ATOM     87  C   UNL A   1      46.509  26.871  36.015  1.00  0.00     0.022 A 
BRANCH  85  88
ATOM     88  S   UNL A   1      45.115  24.704  36.954  1.00  0.00     0.127 S 
ATOM     89  O   UNL A   1      46.488  24.206  36.978  1.00  0.00    -0.237 OA
ATOM     90  O   UNL A   1      44.637  25.233  38.234  1.00  0.00    -0.237 OA
ATOM     91  O   UNL A   1      44.151  23.864  36.257  1.00  0.00    -0.744 OA
ENDBRANCH  85  88
ENDBRANCH  58  81
ENDBRANCH  32  33
ENDBRANCH  25  27
ENDBRANCH  24  25
ENDBRANCH  23  24
ENDBRANCH  22  23
ENDBRANCH  21  22
ENDBRANCH   1  21
TORSDOF 21
ENDMDL
MODEL 3
REMARK VINA RESULT:      -8.9      5.410      9.319
REMARK SMILES COC(=O)CCN(C)C(=O)NCc1ccc(C(=O)OCCOC(=O)c2ccc(-c3c4nc(c(-c5cccc(S(=O)(=O)[O-])c5F)c5ccc([nH]5)c(-c5cccc(S(=O)(=O)[O-])c5F)c5nc(c(-c6cccc(S(=O)(=O)[O-])c6F)c6ccc3[nH]6)C=C5)C=C4)cc2)o1
REMARK SMILES IDX 17 1 18 2 16 3 13 4 14 5 88 6 15 7 12 8 11 9 9 10 10 11 7 13
REMARK SMILES IDX 8 14 6 15 5 16 3 17 4 18 2 19 1 20 19 21 20 22 21 23 22 24
REMARK SMILES IDX 23 25 24 26 25 27 26 28 87 29 27 30 86 31 28 32 29 33 30 34
REMARK SMILES IDX 80 35 31 36 85 37 79 38 81 39 32 40 84 41 78 42 77 43 33 45
REMARK SMILES IDX 65 46 45 47 64 48 46 49 49 50 63 51 82 52 47 53 48 54 62 56
REMARK SMILES IDX 83 57 50 58 34 59 35 60 43 61 36 62 38 63 44 64 37 65 39 66
REMARK SMILES IDX 40 67 41 68 42 69 66 70 67 71 75 72 68 73 70 74 76 75 69 76
REMARK SMILES IDX 71 77 72 78 73 79 74 80 51 81 52 82 60 83 53 84 55 85 61 86
REMARK SMILES IDX 54 87 56 88 57 89 58 90 59 91
REMARK H PARENT 11 12 81 44 49 55
REMARK Flexibility Score: inf
ROOT
ATOM      1  C   UNL A   1      34.614  32.994  30.830  1.00  0.00     0.374 C 
ATOM      2  O   UNL A   1      33.971  33.883  30.291  1.00  0.00    -0.242 OA
ENDROOT
BRANCH   1   3
ATOM      3  C   UNL A   1      35.839  32.416  30.321  1.00  0.00     0.211 A 
ATOM      4  C   UNL A   1      37.031  30.749  29.484  1.00  0.00     0.124 A 
ATOM      5  C   UNL A   1      37.809  31.879  29.366  1.00  0.00     0.048 A 
ATOM      6  O   UNL A   1      35.866  31.059  30.125  1.00  0.00    -0.452 OA
ATOM      7  C   UNL A   1      37.041  32.950  29.895  1.00  0.00     0.058 A 
BRANCH   4   8
ATOM      8  C   UNL A   1      37.157  29.345  29.011  1.00  0.00     0.193 C 
BRANCH   8   9
ATOM      9  N   UNL A   1      38.273  28.755  29.720  1.00  0.00    -0.331 N 
ATOM     10  C   UNL A   1      39.418  28.124  29.435  1.00  0.00     0.317 C 
ATOM     11  O   UNL A   1      40.164  27.919  30.396  1.00  0.00    -0.249 OA
ATOM     12  H   UNL A   1      38.156  28.846  30.694  1.00  0.00     0.165 HD
BRANCH  10  13
ATOM     13  N   UNL A   1      39.779  27.757  28.171  1.00  0.00    -0.327 N 
ATOM     14  C   UNL A   1      39.750  26.419  27.620  1.00  0.00     0.148 C 
BRANCH  13  15
ATOM     15  C   UNL A   1      40.223  28.833  27.267  1.00  0.00     0.132 C 
BRANCH  15  16
ATOM     16  C   UNL A   1      41.176  28.334  26.188  1.00  0.00     0.144 C 
BRANCH  16  17
ATOM     17  C   UNL A   1      42.591  28.745  26.494  1.00  0.00     0.307 C 
ATOM     18  O   UNL A   1      43.045  29.842  26.203  1.00  0.00    -0.252 OA
BRANCH  17  19
ATOM     19  O   UNL A   1      43.261  27.738  27.118  1.00  0.00    -0.469 OA
ATOM     20  C   UNL A   1      43.489  26.591  26.293  1.00  0.00     0.282 C 
ENDBRANCH  17  19
ENDBRANCH  16  17
ENDBRANCH  15  16
ENDBRANCH  13  15
ENDBRANCH  10  13
ENDBRANCH   8   9
ENDBRANCH   4   8
ENDBRANCH   1   3
BRANCH   1  21
ATOM     21  O   UNL A   1      34.308  32.450  32.048  1.00  0.00    -0.456 OA
BRANCH  21  22
ATOM     22  C   UNL A   1      34.008  33.391  33.098  1.00  0.00     0.275 C 
BRANCH  22  23
ATOM     23  C   UNL A   1      35.214  33.608  34.019  1.00  0.00     0.275 C 
BRANCH  23  24
ATOM     24  O   UNL A   1      36.143  32.510  33.958  1.00  0.00    -0.458 OA
BRANCH  24  25
ATOM     25  C   UNL A   1      37.171  32.570  34.838  1.00  0.00     0.338 C 
ATOM     26  O   UNL A   1      37.094  32.823  36.029  1.00  0.00    -0.246 OA
BRANCH  25  27
ATOM     27  C   UNL A   1      38.411  32.127  34.178  1.00  0.00     0.060 A 
ATOM     28  C   UNL A   1      38.285  31.279  33.078  1.00  0.00     0.016 A 
ATOM     29  C   UNL A   1      39.674  32.487  34.650  1.00  0.00     0.016 A 
ATOM     30  C   UNL A   1      39.422  30.779  32.449  1.00  0.00     0.010 A 
ATOM     31  C   UNL A   1      40.817  31.977  34.017  1.00  0.00     0.010 A 
ATOM     32  C   UNL A   1      40.697  31.107  32.919  1.00  0.00    -0.014 A 
BRANCH  32  33
ATOM     33  C   UNL A   1      41.886  30.505  32.266  1.00  0.00     0.031 A 
ATOM     34  C   UNL A   1      42.573  31.219  31.137  1.00  0.00     0.074 A 
ATOM     35  C   UNL A   1      42.363  29.325  32.705  1.00  0.00     0.049 A 
ATOM     36  N   UNL A   1      43.566  30.812  30.388  1.00  0.00    -0.248 NA
ATOM     37  C   UNL A   1      42.067  32.557  30.795  1.00  0.00     0.031 C 
ATOM     38  C   UNL A   1      41.796  28.545  33.806  1.00  0.00     0.029 A 
ATOM     39  N   UNL A   1      43.423  28.569  32.270  1.00  0.00    -0.354 N 
ATOM     40  C   UNL A   1      43.782  31.826  29.463  1.00  0.00     0.074 A 
ATOM     41  C   UNL A   1      42.807  32.862  29.737  1.00  0.00     0.031 C 
ATOM     42  C   UNL A   1      42.503  27.413  33.949  1.00  0.00     0.029 A 
ATOM     43  C   UNL A   1      43.550  27.371  32.932  1.00  0.00     0.049 A 
ATOM     44  H   UNL A   1      44.031  28.857  31.552  1.00  0.00     0.167 HD
ATOM     45  C   UNL A   1      44.719  31.898  28.488  1.00  0.00     0.034 A 
ATOM     46  C   UNL A   1      44.402  26.346  32.731  1.00  0.00     0.034 A 
ATOM     47  C   UNL A   1      45.735  30.903  28.263  1.00  0.00     0.049 A 
ATOM     48  C   UNL A   1      45.444  26.458  31.651  1.00  0.00     0.074 A 
ATOM     49  C   UNL A   1      46.749  30.904  27.321  1.00  0.00     0.029 A 
ATOM     50  N   UNL A   1      45.878  29.741  29.005  1.00  0.00    -0.354 N 
ATOM     51  N   UNL A   1      45.680  27.456  30.835  1.00  0.00    -0.248 NA
ATOM     52  C   UNL A   1      46.355  25.317  31.482  1.00  0.00     0.031 C 
ATOM     53  C   UNL A   1      47.503  29.738  27.489  1.00  0.00     0.029 A 
ATOM     54  C   UNL A   1      46.962  29.013  28.540  1.00  0.00     0.049 A 
ATOM     55  H   UNL A   1      45.297  29.471  29.751  1.00  0.00     0.167 HD
ATOM     56  C   UNL A   1      46.782  27.078  30.077  1.00  0.00     0.074 A 
ATOM     57  C   UNL A   1      47.182  25.766  30.546  1.00  0.00     0.031 C 
ATOM     58  C   UNL A   1      47.393  27.744  29.066  1.00  0.00     0.034 A 
BRANCH  45  59
ATOM     59  C   UNL A   1      44.723  33.120  27.607  1.00  0.00     0.023 A 
ATOM     60  C   UNL A   1      44.015  33.098  26.389  1.00  0.00     0.012 A 
ATOM     61  C   UNL A   1      45.370  34.305  28.011  1.00  0.00     0.148 A 
ATOM     62  C   UNL A   1      43.971  34.229  25.575  1.00  0.00     0.002 A 
ATOM     63  C   UNL A   1      45.290  35.440  27.210  1.00  0.00     0.091 A 
ATOM     64  F   UNL A   1      46.058  34.301  29.161  1.00  0.00    -0.205 F 
ATOM     65  C   UNL A   1      44.598  35.401  25.989  1.00  0.00     0.022 A 
BRANCH  63  66
ATOM     66  S   UNL A   1      46.007  37.014  27.700  1.00  0.00     0.127 S 
ATOM     67  O   UNL A   1      47.438  36.709  27.675  1.00  0.00    -0.237 OA
ATOM     68  O   UNL A   1      45.559  37.910  26.633  1.00  0.00    -0.237 OA
ATOM     69  O   UNL A   1      45.450  37.314  29.012  1.00  0.00    -0.744 OA
ENDBRANCH  63  66
ENDBRANCH  45  59
BRANCH  46  70
ATOM     70  C   UNL A   1      44.331  25.145  33.610  1.00  0.00     0.023 A 
ATOM     71  C   UNL A   1      43.712  23.975  33.131  1.00  0.00     0.012 A 
ATOM     72  C   UNL A   1      44.909  25.140  34.895  1.00  0.00     0.148 A 
ATOM     73  C   UNL A   1      43.652  22.828  33.921  1.00  0.00     0.002 A 
ATOM     74  C   UNL A   1      44.893  23.977  35.657  1.00  0.00     0.091 A 
ATOM     75  F   UNL A   1      45.472  26.270  35.346  1.00  0.00    -0.205 F 
ATOM     76  C   UNL A   1      44.254  22.823  35.178  1.00  0.00     0.022 A 
BRANCH  74  77
ATOM     77  S   UNL A   1      45.760  23.852  37.226  1.00  0.00     0.127 S 
ATOM     78  O   UNL A   1      44.967  24.735  38.077  1.00  0.00    -0.237 OA
ATOM     79  O   UNL A   1      45.636  22.427  37.534  1.00  0.00    -0.237 OA
ATOM     80  O   UNL A   1      47.123  24.285  36.949  1.00  0.00    -0.744 OA
ENDBRANCH  74  77
ENDBRANCH  46  70
BRANCH  58  81
ATOM     81  C   UNL A   1      48.578  27.087  28.410  1.00  0.00     0.023 A 
ATOM     82  C   UNL A   1      48.382  26.311  27.250  1.00  0.00     0.012 A 
ATOM     83  C   UNL A   1      49.885  27.305  28.886  1.00  0.00     0.148 A 
ATOM     84  C   UNL A   1      49.469  25.743  26.587  1.00  0.00     0.002 A 
ATOM     85  C   UNL A   1      50.967  26.766  28.197  1.00  0.00     0.091 A 
ATOM     86  F   UNL A   1      50.049  28.027  30.004  1.00  0.00    -0.205 F 
ATOM     87  C   UNL A   1      50.760  25.980  27.052  1.00  0.00     0.022 A 
BRANCH  85  88
ATOM     88  S   UNL A   1      52.668  27.089  28.681  1.00  0.00     0.127 S 
ATOM     89  O   UNL A   1      52.729  26.458  29.998  1.00  0.00    -0.237 OA
ATOM     90  O   UNL A   1      53.429  26.397  27.638  1.00  0.00    -0.237 OA
ATOM     91  O   UNL A   1      52.817  28.538  28.669  1.00  0.00    -0.744 OA
ENDBRANCH  85  88
ENDBRANCH  58  81
ENDBRANCH  32  33
ENDBRANCH  25  27
ENDBRANCH  24  25
ENDBRANCH  23  24
ENDBRANCH  22  23
ENDBRANCH  21  22
ENDBRANCH   1  21
TORSDOF 21
ENDMDL
