MODEL 1
REMARK VINA RESULT:     -11.1      0.000      0.000
REMARK SMILES [NH3+][C@H](Cc1ccc(O)c(F)c1)C(=O)OCCOC(=O)c1ccc(-c2c3nc(c(-c4cccc(S(=O)(=O)[O-])c4F)c4ccc([nH]4)c(-c4cccc(S(=O)(=O)[O-])c4F)c4nc(c(-c5cccc(S(=O)(=O)[O-])c5F)c5ccc2[nH]5)C=C4)C=C3)cc1
REMARK SMILES IDX 15 1 14 2 12 3 13 4 2 5 1 6 3 10 4 11 5 12 11 13 6 14 9 15
REMARK SMILES IDX 7 16 10 17 8 18 16 20 17 21 18 22 19 23 20 24 21 25 82 26
REMARK SMILES IDX 22 27 81 28 23 29 24 30 25 31 75 32 26 33 80 34 74 35 76 36
REMARK SMILES IDX 27 37 79 38 73 39 72 40 28 42 60 43 40 44 59 45 41 46 44 47
REMARK SMILES IDX 58 48 77 49 42 50 43 51 57 53 78 54 45 55 29 56 30 57 38 58
REMARK SMILES IDX 31 59 33 60 39 61 32 62 34 63 35 64 36 65 37 66 61 67 62 68
REMARK SMILES IDX 70 69 63 70 65 71 71 72 64 73 66 74 67 75 68 76 69 77 46 78
REMARK SMILES IDX 47 79 55 80 48 81 50 82 56 83 49 84 51 85 52 86 53 87 54 88
REMARK H PARENT 1 7 1 8 1 9 8 19 76 41 44 52
REMARK Flexibility Score: inf
ROOT
ATOM      1  C   UNL A   1      32.182  28.038  25.656  1.00  0.00     0.274 C 
ENDROOT
BRANCH   1   2
ATOM      2  O   UNL A   1      31.212  27.362  24.831  1.00  0.00    -0.458 OA
BRANCH   2   3
ATOM      3  C   UNL A   1      31.591  27.186  23.531  1.00  0.00     0.365 C 
ATOM      4  O   UNL A   1      32.419  26.364  23.153  1.00  0.00    -0.245 OA
BRANCH   3   5
ATOM      5  C   UNL A   1      30.877  28.142  22.568  1.00  0.00     0.296 C 
BRANCH   5   6
ATOM      6  N   UNL A   1      31.739  29.307  22.242  1.00  0.00    -0.346 N 
ATOM      7  H   UNL A   1      31.753  29.448  21.231  1.00  0.00     0.345 HD
ATOM      8  H   UNL A   1      32.688  29.131  22.573  1.00  0.00     0.345 HD
ATOM      9  H   UNL A   1      31.370  30.142  22.696  1.00  0.00     0.345 HD
ENDBRANCH   5   6
BRANCH   5  10
ATOM     10  C   UNL A   1      29.499  28.589  23.097  1.00  0.00     0.113 C 
BRANCH  10  11
ATOM     11  C   UNL A   1      29.003  29.963  22.673  1.00  0.00    -0.038 A 
ATOM     12  C   UNL A   1      29.031  31.096  23.501  1.00  0.00     0.008 A 
ATOM     13  C   UNL A   1      28.484  30.109  21.373  1.00  0.00     0.047 A 
ATOM     14  C   UNL A   1      28.591  32.344  23.039  1.00  0.00     0.049 A 
ATOM     15  C   UNL A   1      28.029  31.348  20.923  1.00  0.00     0.165 A 
ATOM     16  C   UNL A   1      28.092  32.465  21.748  1.00  0.00     0.151 A 
ATOM     17  F   UNL A   1      27.535  31.448  19.681  1.00  0.00    -0.203 F 
BRANCH  16  18
ATOM     18  O   UNL A   1      27.653  33.671  21.283  1.00  0.00    -0.505 OA
ATOM     19  H   UNL A   1      26.836  33.729  20.827  1.00  0.00     0.293 HD
ENDBRANCH  16  18
ENDBRANCH  10  11
ENDBRANCH   5  10
ENDBRANCH   3   5
ENDBRANCH   2   3
ENDBRANCH   1   2
BRANCH   1  20
ATOM     20  C   UNL A   1      31.837  29.508  25.920  1.00  0.00     0.275 C 
BRANCH  20  21
ATOM     21  O   UNL A   1      32.985  30.370  25.837  1.00  0.00    -0.458 OA
BRANCH  21  22
ATOM     22  C   UNL A   1      33.138  31.229  26.871  1.00  0.00     0.338 C 
ATOM     23  O   UNL A   1      32.332  32.069  27.250  1.00  0.00    -0.246 OA
BRANCH  22  24
ATOM     24  C   UNL A   1      34.392  30.942  27.585  1.00  0.00     0.060 A 
ATOM     25  C   UNL A   1      35.344  31.960  27.704  1.00  0.00     0.016 A 
ATOM     26  C   UNL A   1      34.658  29.667  28.083  1.00  0.00     0.016 A 
ATOM     27  C   UNL A   1      36.569  31.709  28.314  1.00  0.00     0.010 A 
ATOM     28  C   UNL A   1      35.883  29.420  28.710  1.00  0.00     0.010 A 
ATOM     29  C   UNL A   1      36.845  30.439  28.828  1.00  0.00    -0.014 A 
BRANCH  29  30
ATOM     30  C   UNL A   1      38.122  30.179  29.533  1.00  0.00     0.031 A 
ATOM     31  C   UNL A   1      39.123  29.220  28.961  1.00  0.00     0.074 A 
ATOM     32  C   UNL A   1      38.340  30.763  30.728  1.00  0.00     0.049 A 
ATOM     33  N   UNL A   1      40.223  28.763  29.499  1.00  0.00    -0.248 NA
ATOM     34  C   UNL A   1      38.851  28.700  27.610  1.00  0.00     0.031 C 
ATOM     35  C   UNL A   1      37.433  31.707  31.382  1.00  0.00     0.029 A 
ATOM     36  N   UNL A   1      39.368  30.609  31.624  1.00  0.00    -0.354 N 
ATOM     37  C   UNL A   1      40.752  27.866  28.580  1.00  0.00     0.074 A 
ATOM     38  C   UNL A   1      39.860  27.855  27.439  1.00  0.00     0.031 C 
ATOM     39  C   UNL A   1      37.919  32.011  32.596  1.00  0.00     0.029 A 
ATOM     40  C   UNL A   1      39.145  31.253  32.820  1.00  0.00     0.049 A 
ATOM     41  H   UNL A   1      40.182  30.090  31.431  1.00  0.00     0.167 HD
ATOM     42  C   UNL A   1      41.880  27.127  28.680  1.00  0.00     0.034 A 
ATOM     43  C   UNL A   1      39.825  31.199  33.982  1.00  0.00     0.034 A 
ATOM     44  C   UNL A   1      42.785  27.179  29.797  1.00  0.00     0.049 A 
ATOM     45  C   UNL A   1      41.065  30.351  34.066  1.00  0.00     0.074 A 
ATOM     46  C   UNL A   1      44.006  26.544  29.942  1.00  0.00     0.029 A 
ATOM     47  N   UNL A   1      42.561  27.889  30.966  1.00  0.00    -0.354 N 
ATOM     48  N   UNL A   1      41.636  29.629  33.133  1.00  0.00    -0.248 NA
ATOM     49  C   UNL A   1      41.767  30.324  35.358  1.00  0.00     0.031 C 
ATOM     50  C   UNL A   1      44.507  26.845  31.212  1.00  0.00     0.029 A 
ATOM     51  C   UNL A   1      43.606  27.682  31.851  1.00  0.00     0.049 A 
ATOM     52  H   UNL A   1      41.776  28.456  31.141  1.00  0.00     0.167 HD
ATOM     53  C   UNL A   1      42.771  29.080  33.716  1.00  0.00     0.074 A 
ATOM     54  C   UNL A   1      42.826  29.578  35.075  1.00  0.00     0.031 C 
ATOM     55  C   UNL A   1      43.675  28.222  33.183  1.00  0.00     0.034 A 
BRANCH  42  56
ATOM     56  C   UNL A   1      42.232  26.205  27.545  1.00  0.00     0.023 A 
ATOM     57  C   UNL A   1      43.105  26.649  26.533  1.00  0.00     0.012 A 
ATOM     58  C   UNL A   1      41.789  24.868  27.546  1.00  0.00     0.148 A 
ATOM     59  C   UNL A   1      43.526  25.775  25.530  1.00  0.00     0.002 A 
ATOM     60  C   UNL A   1      42.240  23.995  26.563  1.00  0.00     0.091 A 
ATOM     61  F   UNL A   1      40.943  24.476  28.509  1.00  0.00    -0.205 F 
ATOM     62  C   UNL A   1      43.104  24.447  25.553  1.00  0.00     0.022 A 
BRANCH  60  63
ATOM     63  S   UNL A   1      41.812  22.249  26.545  1.00  0.00     0.127 S 
ATOM     64  O   UNL A   1      42.339  21.804  27.835  1.00  0.00    -0.237 OA
ATOM     65  O   UNL A   1      40.353  22.292  26.466  1.00  0.00    -0.237 OA
ATOM     66  O   UNL A   1      42.471  21.683  25.378  1.00  0.00    -0.744 OA
ENDBRANCH  60  63
ENDBRANCH  42  56
BRANCH  43  67
ATOM     67  C   UNL A   1      39.343  31.966  35.164  1.00  0.00     0.023 A 
ATOM     68  C   UNL A   1      38.441  31.366  36.061  1.00  0.00     0.012 A 
ATOM     69  C   UNL A   1      39.783  33.283  35.409  1.00  0.00     0.148 A 
ATOM     70  C   UNL A   1      37.959  32.072  37.164  1.00  0.00     0.002 A 
ATOM     71  C   UNL A   1      39.343  33.960  36.540  1.00  0.00     0.091 A 
ATOM     72  F   UNL A   1      40.622  33.850  34.531  1.00  0.00    -0.205 F 
ATOM     73  C   UNL A   1      38.418  33.364  37.410  1.00  0.00     0.022 A 
BRANCH  71  74
ATOM     74  S   UNL A   1      39.995  35.572  36.991  1.00  0.00     0.127 S 
ATOM     75  O   UNL A   1      39.304  35.834  38.250  1.00  0.00    -0.237 OA
ATOM     76  O   UNL A   1      41.428  35.303  37.121  1.00  0.00    -0.237 OA
ATOM     77  O   UNL A   1      39.654  36.448  35.878  1.00  0.00    -0.744 OA
ENDBRANCH  71  74
ENDBRANCH  43  67
BRANCH  55  78
ATOM     78  C   UNL A   1      44.811  27.769  34.061  1.00  0.00     0.023 A 
ATOM     79  C   UNL A   1      45.982  28.548  34.133  1.00  0.00     0.012 A 
ATOM     80  C   UNL A   1      44.689  26.623  34.872  1.00  0.00     0.148 A 
ATOM     81  C   UNL A   1      47.026  28.182  34.981  1.00  0.00     0.002 A 
ATOM     82  C   UNL A   1      45.716  26.289  35.748  1.00  0.00     0.091 A 
ATOM     83  F   UNL A   1      43.573  25.887  34.775  1.00  0.00    -0.205 F 
ATOM     84  C   UNL A   1      46.888  27.061  35.796  1.00  0.00     0.022 A 
BRANCH  82  85
ATOM     85  S   UNL A   1      45.591  24.917  36.900  1.00  0.00     0.127 S 
ATOM     86  O   UNL A   1      44.392  25.270  37.658  1.00  0.00    -0.237 OA
ATOM     87  O   UNL A   1      45.433  23.772  36.004  1.00  0.00    -0.237 OA
ATOM     88  O   UNL A   1      46.833  24.918  37.663  1.00  0.00    -0.744 OA
ENDBRANCH  82  85
ENDBRANCH  55  78
ENDBRANCH  29  30
ENDBRANCH  22  24
ENDBRANCH  21  22
ENDBRANCH  20  21
ENDBRANCH   1  20
TORSDOF 18
ENDMDL
MODEL 2
REMARK VINA RESULT:     -10.7      4.127      9.976
REMARK SMILES [NH3+][C@H](Cc1ccc(O)c(F)c1)C(=O)OCCOC(=O)c1ccc(-c2c3nc(c(-c4cccc(S(=O)(=O)[O-])c4F)c4ccc([nH]4)c(-c4cccc(S(=O)(=O)[O-])c4F)c4nc(c(-c5cccc(S(=O)(=O)[O-])c5F)c5ccc2[nH]5)C=C4)C=C3)cc1
REMARK SMILES IDX 15 1 14 2 12 3 13 4 2 5 1 6 3 10 4 11 5 12 11 13 6 14 9 15
REMARK SMILES IDX 7 16 10 17 8 18 16 20 17 21 18 22 19 23 20 24 21 25 82 26
REMARK SMILES IDX 22 27 81 28 23 29 24 30 25 31 75 32 26 33 80 34 74 35 76 36
REMARK SMILES IDX 27 37 79 38 73 39 72 40 28 42 60 43 40 44 59 45 41 46 44 47
REMARK SMILES IDX 58 48 77 49 42 50 43 51 57 53 78 54 45 55 29 56 30 57 38 58
REMARK SMILES IDX 31 59 33 60 39 61 32 62 34 63 35 64 36 65 37 66 61 67 62 68
REMARK SMILES IDX 70 69 63 70 65 71 71 72 64 73 66 74 67 75 68 76 69 77 46 78
REMARK SMILES IDX 47 79 55 80 48 81 50 82 56 83 49 84 51 85 52 86 53 87 54 88
REMARK H PARENT 1 7 1 8 1 9 8 19 76 41 44 52
REMARK Flexibility Score: inf
ROOT
ATOM      1  C   UNL A   1      33.960  34.851  29.062  1.00  0.00     0.274 C 
ENDROOT
BRANCH   1   2
ATOM      2  O   UNL A   1      32.810  35.653  29.402  1.00  0.00    -0.458 OA
BRANCH   2   3
ATOM      3  C   UNL A   1      32.904  36.307  30.596  1.00  0.00     0.365 C 
ATOM      4  O   UNL A   1      32.841  37.524  30.731  1.00  0.00    -0.245 OA
BRANCH   3   5
ATOM      5  C   UNL A   1      33.112  35.355  31.781  1.00  0.00     0.296 C 
BRANCH   5   6
ATOM      6  N   UNL A   1      31.889  35.281  32.621  1.00  0.00    -0.346 N 
ATOM      7  H   UNL A   1      31.716  34.310  32.885  1.00  0.00     0.345 HD
ATOM      8  H   UNL A   1      31.092  35.637  32.094  1.00  0.00     0.345 HD
ATOM      9  H   UNL A   1      32.019  35.843  33.463  1.00  0.00     0.345 HD
ENDBRANCH   5   6
BRANCH   5  10
ATOM     10  C   UNL A   1      34.353  35.723  32.620  1.00  0.00     0.113 C 
BRANCH  10  11
ATOM     11  C   UNL A   1      35.176  34.575  33.184  1.00  0.00    -0.038 A 
ATOM     12  C   UNL A   1      35.812  34.607  34.436  1.00  0.00     0.008 A 
ATOM     13  C   UNL A   1      35.310  33.410  32.407  1.00  0.00     0.047 A 
ATOM     14  C   UNL A   1      36.527  33.502  34.915  1.00  0.00     0.049 A 
ATOM     15  C   UNL A   1      36.040  32.319  32.879  1.00  0.00     0.165 A 
ATOM     16  C   UNL A   1      36.638  32.359  34.133  1.00  0.00     0.151 A 
ATOM     17  F   UNL A   1      36.152  31.229  32.107  1.00  0.00    -0.203 F 
BRANCH  16  18
ATOM     18  O   UNL A   1      37.336  31.275  34.581  1.00  0.00    -0.505 OA
ATOM     19  H   UNL A   1      37.442  31.133  35.500  1.00  0.00     0.293 HD
ENDBRANCH  16  18
ENDBRANCH  10  11
ENDBRANCH   5  10
ENDBRANCH   3   5
ENDBRANCH   2   3
ENDBRANCH   1   2
BRANCH   1  20
ATOM     20  C   UNL A   1      33.652  33.748  28.043  1.00  0.00     0.275 C 
BRANCH  20  21
ATOM     21  O   UNL A   1      34.809  32.961  27.712  1.00  0.00    -0.458 OA
BRANCH  21  22
ATOM     22  C   UNL A   1      34.669  31.627  27.885  1.00  0.00     0.338 C 
ATOM     23  O   UNL A   1      33.700  30.946  27.574  1.00  0.00    -0.246 OA
BRANCH  22  24
ATOM     24  C   UNL A   1      35.918  31.053  28.409  1.00  0.00     0.060 A 
ATOM     25  C   UNL A   1      35.875  29.789  29.008  1.00  0.00     0.016 A 
ATOM     26  C   UNL A   1      37.112  31.772  28.366  1.00  0.00     0.016 A 
ATOM     27  C   UNL A   1      37.022  29.240  29.574  1.00  0.00     0.010 A 
ATOM     28  C   UNL A   1      38.267  31.212  28.921  1.00  0.00     0.010 A 
ATOM     29  C   UNL A   1      38.228  29.945  29.529  1.00  0.00    -0.014 A 
BRANCH  29  30
ATOM     30  C   UNL A   1      39.467  29.342  30.074  1.00  0.00     0.031 A 
ATOM     31  C   UNL A   1      40.180  29.985  31.226  1.00  0.00     0.074 A 
ATOM     32  C   UNL A   1      39.980  28.249  29.477  1.00  0.00     0.049 A 
ATOM     33  N   UNL A   1      41.341  29.686  31.744  1.00  0.00    -0.248 NA
ATOM     34  C   UNL A   1      39.503  31.119  31.879  1.00  0.00     0.031 C 
ATOM     35  C   UNL A   1      39.374  27.543  28.347  1.00  0.00     0.029 A 
ATOM     36  N   UNL A   1      41.150  27.570  29.707  1.00  0.00    -0.354 N 
ATOM     37  C   UNL A   1      41.562  30.618  32.749  1.00  0.00     0.074 A 
ATOM     38  C   UNL A   1      40.405  31.487  32.780  1.00  0.00     0.031 C 
ATOM     39  C   UNL A   1      40.200  26.563  27.949  1.00  0.00     0.029 A 
ATOM     40  C   UNL A   1      41.407  26.598  28.768  1.00  0.00     0.049 A 
ATOM     41  H   UNL A   1      41.747  27.761  30.467  1.00  0.00     0.167 HD
ATOM     42  C   UNL A   1      42.631  30.732  33.570  1.00  0.00     0.034 A 
ATOM     43  C   UNL A   1      42.511  25.854  28.559  1.00  0.00     0.034 A 
ATOM     44  C   UNL A   1      43.757  29.835  33.561  1.00  0.00     0.049 A 
ATOM     45  C   UNL A   1      43.691  26.019  29.478  1.00  0.00     0.074 A 
ATOM     46  C   UNL A   1      44.839  29.810  34.425  1.00  0.00     0.029 A 
ATOM     47  N   UNL A   1      43.957  28.823  32.637  1.00  0.00    -0.354 N 
ATOM     48  N   UNL A   1      43.820  26.801  30.522  1.00  0.00    -0.248 NA
ATOM     49  C   UNL A   1      44.871  25.186  29.204  1.00  0.00     0.031 C 
ATOM     50  C   UNL A   1      45.709  28.800  34.003  1.00  0.00     0.029 A 
ATOM     51  C   UNL A   1      45.161  28.186  32.889  1.00  0.00     0.049 A 
ATOM     52  H   UNL A   1      43.335  28.591  31.911  1.00  0.00     0.167 HD
ATOM     53  C   UNL A   1      45.083  26.541  31.040  1.00  0.00     0.074 A 
ATOM     54  C   UNL A   1      45.668  25.505  30.214  1.00  0.00     0.031 C 
ATOM     55  C   UNL A   1      45.712  27.123  32.090  1.00  0.00     0.034 A 
BRANCH  42  56
ATOM     56  C   UNL A   1      42.643  31.850  34.575  1.00  0.00     0.023 A 
ATOM     57  C   UNL A   1      43.220  33.088  34.232  1.00  0.00     0.012 A 
ATOM     58  C   UNL A   1      41.984  31.707  35.812  1.00  0.00     0.148 A 
ATOM     59  C   UNL A   1      43.148  34.168  35.111  1.00  0.00     0.002 A 
ATOM     60  C   UNL A   1      41.886  32.798  36.667  1.00  0.00     0.091 A 
ATOM     61  F   UNL A   1      41.460  30.513  36.123  1.00  0.00    -0.205 F 
ATOM     62  C   UNL A   1      42.472  34.027  36.321  1.00  0.00     0.022 A 
BRANCH  60  63
ATOM     63  S   UNL A   1      40.975  32.739  38.216  1.00  0.00     0.127 S 
ATOM     64  O   UNL A   1      40.940  34.153  38.590  1.00  0.00    -0.237 OA
ATOM     65  O   UNL A   1      39.687  32.190  37.792  1.00  0.00    -0.237 OA
ATOM     66  O   UNL A   1      41.743  31.881  39.104  1.00  0.00    -0.744 OA
ENDBRANCH  60  63
ENDBRANCH  42  56
BRANCH  43  67
ATOM     67  C   UNL A   1      42.556  24.889  27.426  1.00  0.00     0.023 A 
ATOM     68  C   UNL A   1      43.128  25.281  26.202  1.00  0.00     0.012 A 
ATOM     69  C   UNL A   1      42.045  23.582  27.559  1.00  0.00     0.148 A 
ATOM     70  C   UNL A   1      43.163  24.401  25.119  1.00  0.00     0.002 A 
ATOM     71  C   UNL A   1      42.133  22.692  26.495  1.00  0.00     0.091 A 
ATOM     72  F   UNL A   1      41.479  23.232  28.723  1.00  0.00    -0.205 F 
ATOM     73  C   UNL A   1      42.676  23.104  25.268  1.00  0.00     0.022 A 
BRANCH  71  74
ATOM     74  S   UNL A   1      41.651  20.969  26.658  1.00  0.00     0.127 S 
ATOM     75  O   UNL A   1      42.220  20.620  27.956  1.00  0.00    -0.237 OA
ATOM     76  O   UNL A   1      40.190  21.052  26.628  1.00  0.00    -0.237 OA
ATOM     77  O   UNL A   1      42.231  20.299  25.502  1.00  0.00    -0.744 OA
ENDBRANCH  71  74
ENDBRANCH  43  67
BRANCH  55  78
ATOM     78  C   UNL A   1      47.103  26.652  32.420  1.00  0.00     0.023 A 
ATOM     79  C   UNL A   1      48.209  27.313  31.849  1.00  0.00     0.012 A 
ATOM     80  C   UNL A   1      47.319  25.617  33.351  1.00  0.00     0.148 A 
ATOM     81  C   UNL A   1      49.509  26.935  32.181  1.00  0.00     0.002 A 
ATOM     82  C   UNL A   1      48.617  25.276  33.712  1.00  0.00     0.091 A 
ATOM     83  F   UNL A   1      46.252  24.991  33.869  1.00  0.00    -0.205 F 
ATOM     84  C   UNL A   1      49.712  25.926  33.120  1.00  0.00     0.022 A 
BRANCH  82  85
ATOM     85  S   UNL A   1      48.977  24.053  34.977  1.00  0.00     0.127 S 
ATOM     86  O   UNL A   1      48.351  22.855  34.421  1.00  0.00    -0.237 OA
ATOM     87  O   UNL A   1      50.439  24.031  34.982  1.00  0.00    -0.237 OA
ATOM     88  O   UNL A   1      48.377  24.557  36.205  1.00  0.00    -0.744 OA
ENDBRANCH  82  85
ENDBRANCH  55  78
ENDBRANCH  29  30
ENDBRANCH  22  24
ENDBRANCH  21  22
ENDBRANCH  20  21
ENDBRANCH   1  20
TORSDOF 18
ENDMDL
MODEL 3
REMARK VINA RESULT:     -10.7      2.922      8.558
REMARK SMILES [NH3+][C@H](Cc1ccc(O)c(F)c1)C(=O)OCCOC(=O)c1ccc(-c2c3nc(c(-c4cccc(S(=O)(=O)[O-])c4F)c4ccc([nH]4)c(-c4cccc(S(=O)(=O)[O-])c4F)c4nc(c(-c5cccc(S(=O)(=O)[O-])c5F)c5ccc2[nH]5)C=C4)C=C3)cc1
REMARK SMILES IDX 15 1 14 2 12 3 13 4 2 5 1 6 3 10 4 11 5 12 11 13 6 14 9 15
REMARK SMILES IDX 7 16 10 17 8 18 16 20 17 21 18 22 19 23 20 24 21 25 82 26
REMARK SMILES IDX 22 27 81 28 23 29 24 30 25 31 75 32 26 33 80 34 74 35 76 36
REMARK SMILES IDX 27 37 79 38 73 39 72 40 28 42 60 43 40 44 59 45 41 46 44 47
REMARK SMILES IDX 58 48 77 49 42 50 43 51 57 53 78 54 45 55 29 56 30 57 38 58
REMARK SMILES IDX 31 59 33 60 39 61 32 62 34 63 35 64 36 65 37 66 61 67 62 68
REMARK SMILES IDX 70 69 63 70 65 71 71 72 64 73 66 74 67 75 68 76 69 77 46 78
REMARK SMILES IDX 47 79 55 80 48 81 50 82 56 83 49 84 51 85 52 86 53 87 54 88
REMARK H PARENT 1 7 1 8 1 9 8 19 76 41 44 52
REMARK Flexibility Score: inf
ROOT
ATOM      1  C   UNL A   1      31.941  30.022  25.760  1.00  0.00     0.274 C 
ENDROOT
BRANCH   1   2
ATOM      2  O   UNL A   1      31.342  28.779  25.340  1.00  0.00    -0.458 OA
BRANCH   2   3
ATOM      3  C   UNL A   1      31.944  28.191  24.266  1.00  0.00     0.365 C 
ATOM      4  O   UNL A   1      33.021  27.607  24.304  1.00  0.00    -0.245 OA
BRANCH   3   5
ATOM      5  C   UNL A   1      31.132  28.340  22.973  1.00  0.00     0.296 C 
BRANCH   5   6
ATOM      6  N   UNL A   1      31.735  29.366  22.084  1.00  0.00    -0.346 N 
ATOM      7  H   UNL A   1      32.742  29.213  22.021  1.00  0.00     0.345 HD
ATOM      8  H   UNL A   1      31.556  30.295  22.467  1.00  0.00     0.345 HD
ATOM      9  H   UNL A   1      31.323  29.296  21.154  1.00  0.00     0.345 HD
ENDBRANCH   5   6
BRANCH   5  10
ATOM     10  C   UNL A   1      29.642  28.633  23.245  1.00  0.00     0.113 C 
BRANCH  10  11
ATOM     11  C   UNL A   1      29.105  29.984  22.797  1.00  0.00    -0.038 A 
ATOM     12  C   UNL A   1      29.108  31.134  23.602  1.00  0.00     0.008 A 
ATOM     13  C   UNL A   1      28.573  30.088  21.499  1.00  0.00     0.047 A 
ATOM     14  C   UNL A   1      28.630  32.359  23.118  1.00  0.00     0.049 A 
ATOM     15  C   UNL A   1      28.080  31.305  21.028  1.00  0.00     0.165 A 
ATOM     16  C   UNL A   1      28.117  32.440  21.829  1.00  0.00     0.151 A 
ATOM     17  F   UNL A   1      27.573  31.365  19.788  1.00  0.00    -0.203 F 
BRANCH  16  18
ATOM     18  O   UNL A   1      27.642  33.624  21.343  1.00  0.00    -0.505 OA
ATOM     19  H   UNL A   1      27.943  33.945  20.516  1.00  0.00     0.293 HD
ENDBRANCH  16  18
ENDBRANCH  10  11
ENDBRANCH   5  10
ENDBRANCH   3   5
ENDBRANCH   2   3
ENDBRANCH   1   2
BRANCH   1  20
ATOM     20  C   UNL A   1      32.693  29.917  27.092  1.00  0.00     0.275 C 
BRANCH  20  21
ATOM     21  O   UNL A   1      34.119  30.002  26.931  1.00  0.00    -0.458 OA
BRANCH  21  22
ATOM     22  C   UNL A   1      34.733  30.926  27.705  1.00  0.00     0.338 C 
ATOM     23  O   UNL A   1      34.302  32.032  28.007  1.00  0.00    -0.246 OA
BRANCH  22  24
ATOM     24  C   UNL A   1      35.981  30.374  28.256  1.00  0.00     0.060 A 
ATOM     25  C   UNL A   1      37.159  30.509  27.514  1.00  0.00     0.016 A 
ATOM     26  C   UNL A   1      35.985  29.678  29.464  1.00  0.00     0.016 A 
ATOM     27  C   UNL A   1      38.346  29.944  27.970  1.00  0.00     0.010 A 
ATOM     28  C   UNL A   1      37.182  29.124  29.930  1.00  0.00     0.010 A 
ATOM     29  C   UNL A   1      38.368  29.253  29.185  1.00  0.00    -0.014 A 
BRANCH  29  30
ATOM     30  C   UNL A   1      39.639  28.700  29.708  1.00  0.00     0.031 A 
ATOM     31  C   UNL A   1      40.380  29.409  30.803  1.00  0.00     0.074 A 
ATOM     32  C   UNL A   1      40.155  27.594  29.139  1.00  0.00     0.049 A 
ATOM     33  N   UNL A   1      41.567  29.158  31.288  1.00  0.00    -0.248 NA
ATOM     34  C   UNL A   1      39.702  30.556  31.432  1.00  0.00     0.031 C 
ATOM     35  C   UNL A   1      39.523  26.827  28.064  1.00  0.00     0.029 A 
ATOM     36  N   UNL A   1      41.348  26.951  29.353  1.00  0.00    -0.354 N 
ATOM     37  C   UNL A   1      41.803  30.137  32.243  1.00  0.00     0.074 A 
ATOM     38  C   UNL A   1      40.628  30.982  32.282  1.00  0.00     0.031 C 
ATOM     39  C   UNL A   1      40.357  25.848  27.678  1.00  0.00     0.029 A 
ATOM     40  C   UNL A   1      41.592  25.944  28.448  1.00  0.00     0.049 A 
ATOM     41  H   UNL A   1      41.968  27.188  30.081  1.00  0.00     0.167 HD
ATOM     42  C   UNL A   1      42.899  30.310  33.017  1.00  0.00     0.034 A 
ATOM     43  C   UNL A   1      42.705  25.216  28.229  1.00  0.00     0.034 A 
ATOM     44  C   UNL A   1      44.044  29.438  33.004  1.00  0.00     0.049 A 
ATOM     45  C   UNL A   1      43.914  25.446  29.094  1.00  0.00     0.074 A 
ATOM     46  C   UNL A   1      45.158  29.474  33.826  1.00  0.00     0.029 A 
ATOM     47  N   UNL A   1      44.233  28.391  32.118  1.00  0.00    -0.354 N 
ATOM     48  N   UNL A   1      44.063  26.276  30.098  1.00  0.00    -0.248 NA
ATOM     49  C   UNL A   1      45.101  24.627  28.812  1.00  0.00     0.031 C 
ATOM     50  C   UNL A   1      46.035  28.465  33.415  1.00  0.00     0.029 A 
ATOM     51  C   UNL A   1      45.460  27.792  32.350  1.00  0.00     0.049 A 
ATOM     52  H   UNL A   1      43.590  28.114  31.426  1.00  0.00     0.167 HD
ATOM     53  C   UNL A   1      45.350  26.065  30.578  1.00  0.00     0.074 A 
ATOM     54  C   UNL A   1      45.928  25.007  29.775  1.00  0.00     0.031 C 
ATOM     55  C   UNL A   1      46.004  26.706  31.577  1.00  0.00     0.034 A 
BRANCH  42  56
ATOM     56  C   UNL A   1      42.923  31.471  33.972  1.00  0.00     0.023 A 
ATOM     57  C   UNL A   1      43.456  32.705  33.554  1.00  0.00     0.012 A 
ATOM     58  C   UNL A   1      42.315  31.368  35.239  1.00  0.00     0.148 A 
ATOM     59  C   UNL A   1      43.392  33.822  34.388  1.00  0.00     0.002 A 
ATOM     60  C   UNL A   1      42.224  32.493  36.050  1.00  0.00     0.091 A 
ATOM     61  F   UNL A   1      41.833  30.177  35.621  1.00  0.00    -0.205 F 
ATOM     62  C   UNL A   1      42.766  33.718  35.629  1.00  0.00     0.022 A 
BRANCH  60  63
ATOM     63  S   UNL A   1      41.375  32.482  37.634  1.00  0.00     0.127 S 
ATOM     64  O   UNL A   1      42.205  31.558  38.406  1.00  0.00    -0.237 OA
ATOM     65  O   UNL A   1      41.476  33.881  38.046  1.00  0.00    -0.237 OA
ATOM     66  O   UNL A   1      40.021  32.021  37.363  1.00  0.00    -0.744 OA
ENDBRANCH  60  63
ENDBRANCH  42  56
BRANCH  43  67
ATOM     67  C   UNL A   1      42.729  24.203  27.138  1.00  0.00     0.023 A 
ATOM     68  C   UNL A   1      43.371  24.506  25.923  1.00  0.00     0.012 A 
ATOM     69  C   UNL A   1      42.130  22.938  27.301  1.00  0.00     0.148 A 
ATOM     70  C   UNL A   1      43.389  23.581  24.878  1.00  0.00     0.002 A 
ATOM     71  C   UNL A   1      42.201  22.000  26.278  1.00  0.00     0.091 A 
ATOM     72  F   UNL A   1      41.500  22.673  28.455  1.00  0.00    -0.205 F 
ATOM     73  C   UNL A   1      42.814  22.325  25.059  1.00  0.00     0.022 A 
BRANCH  71  74
ATOM     74  S   UNL A   1      41.603  20.320  26.489  1.00  0.00     0.127 S 
ATOM     75  O   UNL A   1      42.209  19.639  25.349  1.00  0.00    -0.237 OA
ATOM     76  O   UNL A   1      42.161  19.953  27.792  1.00  0.00    -0.237 OA
ATOM     77  O   UNL A   1      40.150  20.426  26.475  1.00  0.00    -0.744 OA
ENDBRANCH  71  74
ENDBRANCH  43  67
BRANCH  55  78
ATOM     78  C   UNL A   1      47.417  26.281  31.874  1.00  0.00     0.023 A 
ATOM     79  C   UNL A   1      47.661  25.376  32.926  1.00  0.00     0.012 A 
ATOM     80  C   UNL A   1      48.489  26.708  31.066  1.00  0.00     0.148 A 
ATOM     81  C   UNL A   1      48.952  24.922  33.186  1.00  0.00     0.002 A 
ATOM     82  C   UNL A   1      49.768  26.216  31.302  1.00  0.00     0.091 A 
ATOM     83  F   UNL A   1      48.238  27.582  30.080  1.00  0.00    -0.205 F 
ATOM     84  C   UNL A   1      50.002  25.332  32.367  1.00  0.00     0.022 A 
BRANCH  82  85
ATOM     85  S   UNL A   1      51.166  26.615  30.247  1.00  0.00     0.127 S 
ATOM     86  O   UNL A   1      50.731  26.079  28.959  1.00  0.00    -0.237 OA
ATOM     87  O   UNL A   1      51.203  28.076  30.319  1.00  0.00    -0.237 OA
ATOM     88  O   UNL A   1      52.320  25.953  30.841  1.00  0.00    -0.744 OA
ENDBRANCH  82  85
ENDBRANCH  55  78
ENDBRANCH  29  30
ENDBRANCH  22  24
ENDBRANCH  21  22
ENDBRANCH  20  21
ENDBRANCH   1  20
TORSDOF 18
ENDMDL
