MODEL 1
REMARK VINA RESULT:     -11.6      0.000      0.000
REMARK SMILES C[N@H+](Cc1cc(Cl)ccc1[N+](=O)[O-])[C@H]1COC[C@@H]1C(=O)OCCOC(=O)c1ccc(-c2c3nc(c(-c4cccc(S(=O)(=O)[O-])c4F)c4ccc([nH]4)c(-c4cccc(S(=O)(=O)[O-])c4F)c4nc(c(-c5cccc(S(=O)(=O)[O-])c5F)c5ccc2[nH]5)C=C4)C=C3)cc1
REMARK SMILES IDX 22 1 21 2 19 3 20 4 18 5 14 6 15 7 16 8 17 9 2 10 1 11 3 13
REMARK SMILES IDX 4 14 5 15 10 16 6 17 9 18 7 19 8 20 11 21 12 22 13 23 23 24
REMARK SMILES IDX 24 25 25 26 26 27 27 28 28 29 89 30 29 31 88 32 30 33 31 34
REMARK SMILES IDX 32 35 82 36 33 37 87 38 81 39 83 40 34 41 86 42 80 43 79 44
REMARK SMILES IDX 35 46 67 47 47 48 66 49 48 50 51 51 65 52 84 53 49 54 50 55
REMARK SMILES IDX 64 57 85 58 52 59 36 60 37 61 45 62 38 63 40 64 46 65 39 66
REMARK SMILES IDX 41 67 42 68 43 69 44 70 68 71 69 72 77 73 70 74 72 75 78 76
REMARK SMILES IDX 71 77 73 78 74 79 75 80 76 81 53 82 54 83 62 84 55 85 57 86
REMARK SMILES IDX 63 87 56 88 58 89 59 90 60 91 61 92
REMARK H PARENT 2 12 83 45 51 56
REMARK Flexibility Score: inf
ROOT
ATOM      1  C   UNL A   1      34.966  21.328  24.712  1.00  0.00     0.274 C 
ENDROOT
BRANCH   1   2
ATOM      2  O   UNL A   1      35.096  22.756  24.874  1.00  0.00    -0.462 OA
BRANCH   2   3
ATOM      3  C   UNL A   1      34.827  23.518  23.776  1.00  0.00     0.317 C 
ATOM      4  O   UNL A   1      35.298  23.330  22.664  1.00  0.00    -0.252 OA
BRANCH   3   5
ATOM      5  C   UNL A   1      33.884  24.649  24.135  1.00  0.00     0.185 C 
ATOM      6  C   UNL A   1      32.488  24.138  24.529  1.00  0.00     0.227 C 
ATOM      7  C   UNL A   1      31.818  24.121  23.136  1.00  0.00     0.226 C 
ATOM      8  O   UNL A   1      32.292  25.290  22.464  1.00  0.00    -0.374 OA
ATOM      9  C   UNL A   1      33.641  25.509  22.895  1.00  0.00     0.182 C 
BRANCH   6  10
ATOM     10  N   UNL A   1      31.753  24.873  25.611  1.00  0.00    -0.328 N 
ATOM     11  C   UNL A   1      31.654  24.096  26.850  1.00  0.00     0.333 C 
ATOM     12  H   UNL A   1      32.344  25.673  25.832  1.00  0.00     0.348 HD
BRANCH  10  13
ATOM     13  C   UNL A   1      30.504  25.513  25.194  1.00  0.00     0.306 C 
BRANCH  13  14
ATOM     14  C   UNL A   1      30.590  26.980  24.828  1.00  0.00     0.085 A 
ATOM     15  C   UNL A   1      29.842  27.452  23.729  1.00  0.00     0.037 A 
ATOM     16  C   UNL A   1      31.399  27.907  25.512  1.00  0.00     0.278 A 
ATOM     17  C   UNL A   1      29.904  28.795  23.343  1.00  0.00     0.042 A 
ATOM     18  C   UNL A   1      31.470  29.253  25.119  1.00  0.00     0.088 A 
ATOM     19  Cl  UNL A   1      28.969  29.347  22.008  1.00  0.00    -0.084 Cl
ATOM     20  C   UNL A   1      30.716  29.694  24.032  1.00  0.00     0.027 A 
BRANCH  16  21
ATOM     21  N   UNL A   1      32.183  27.529  26.684  1.00  0.00     0.063 N 
ATOM     22  O   UNL A   1      31.581  27.460  27.764  1.00  0.00    -0.258 OA
ATOM     23  O   UNL A   1      33.369  27.227  26.500  1.00  0.00    -0.258 OA
ENDBRANCH  16  21
ENDBRANCH  13  14
ENDBRANCH  10  13
ENDBRANCH   6  10
ENDBRANCH   3   5
ENDBRANCH   2   3
ENDBRANCH   1   2
BRANCH   1  24
ATOM     24  C   UNL A   1      36.275  20.624  25.051  1.00  0.00     0.275 C 
BRANCH  24  25
ATOM     25  O   UNL A   1      37.324  21.602  25.112  1.00  0.00    -0.458 OA
BRANCH  25  26
ATOM     26  C   UNL A   1      38.455  21.222  25.739  1.00  0.00     0.338 C 
ATOM     27  O   UNL A   1      38.956  20.100  25.757  1.00  0.00    -0.246 OA
BRANCH  26  28
ATOM     28  C   UNL A   1      39.073  22.389  26.381  1.00  0.00     0.060 A 
ATOM     29  C   UNL A   1      38.554  23.656  26.123  1.00  0.00     0.016 A 
ATOM     30  C   UNL A   1      40.237  22.252  27.131  1.00  0.00     0.016 A 
ATOM     31  C   UNL A   1      39.261  24.794  26.495  1.00  0.00     0.010 A 
ATOM     32  C   UNL A   1      40.879  23.397  27.615  1.00  0.00     0.010 A 
ATOM     33  C   UNL A   1      40.429  24.683  27.261  1.00  0.00    -0.014 A 
BRANCH  33  34
ATOM     34  C   UNL A   1      41.197  25.902  27.647  1.00  0.00     0.031 A 
ATOM     35  C   UNL A   1      40.556  26.956  28.513  1.00  0.00     0.074 A 
ATOM     36  C   UNL A   1      42.470  26.072  27.233  1.00  0.00     0.049 A 
ATOM     37  N   UNL A   1      40.980  28.160  28.797  1.00  0.00    -0.248 NA
ATOM     38  C   UNL A   1      39.259  26.620  29.125  1.00  0.00     0.031 C 
ATOM     39  C   UNL A   1      43.234  25.126  26.417  1.00  0.00     0.029 A 
ATOM     40  N   UNL A   1      43.351  27.107  27.443  1.00  0.00    -0.354 N 
ATOM     41  C   UNL A   1      39.965  28.755  29.538  1.00  0.00     0.074 A 
ATOM     42  C   UNL A   1      38.913  27.772  29.681  1.00  0.00     0.031 C 
ATOM     43  C   UNL A   1      44.473  25.602  26.228  1.00  0.00     0.029 A 
ATOM     44  C   UNL A   1      44.567  26.929  26.825  1.00  0.00     0.049 A 
ATOM     45  H   UNL A   1      43.131  27.900  27.985  1.00  0.00     0.167 HD
ATOM     46  C   UNL A   1      39.915  30.005  30.059  1.00  0.00     0.034 A 
ATOM     47  C   UNL A   1      45.627  27.753  26.711  1.00  0.00     0.034 A 
ATOM     48  C   UNL A   1      41.000  30.947  30.003  1.00  0.00     0.049 A 
ATOM     49  C   UNL A   1      45.560  29.123  27.324  1.00  0.00     0.074 A 
ATOM     50  C   UNL A   1      41.055  32.225  30.532  1.00  0.00     0.029 A 
ATOM     51  N   UNL A   1      42.226  30.708  29.406  1.00  0.00    -0.354 N 
ATOM     52  N   UNL A   1      44.597  29.662  28.034  1.00  0.00    -0.248 NA
ATOM     53  C   UNL A   1      46.721  30.000  27.122  1.00  0.00     0.031 C 
ATOM     54  C   UNL A   1      42.318  32.759  30.253  1.00  0.00     0.029 A 
ATOM     55  C   UNL A   1      43.049  31.810  29.557  1.00  0.00     0.049 A 
ATOM     56  H   UNL A   1      42.476  29.876  28.942  1.00  0.00     0.167 HD
ATOM     57  C   UNL A   1      45.041  30.934  28.371  1.00  0.00     0.074 A 
ATOM     58  C   UNL A   1      46.373  31.074  27.819  1.00  0.00     0.031 C 
ATOM     59  C   UNL A   1      44.393  31.911  29.051  1.00  0.00     0.034 A 
BRANCH  46  60
ATOM     60  C   UNL A   1      38.649  30.422  30.757  1.00  0.00     0.023 A 
ATOM     61  C   UNL A   1      38.481  30.150  32.128  1.00  0.00     0.012 A 
ATOM     62  C   UNL A   1      37.650  31.133  30.064  1.00  0.00     0.148 A 
ATOM     63  C   UNL A   1      37.325  30.557  32.795  1.00  0.00     0.002 A 
ATOM     64  C   UNL A   1      36.517  31.569  30.742  1.00  0.00     0.091 A 
ATOM     65  F   UNL A   1      37.815  31.358  28.752  1.00  0.00    -0.205 F 
ATOM     66  C   UNL A   1      36.350  31.275  32.105  1.00  0.00     0.022 A 
BRANCH  64  67
ATOM     67  S   UNL A   1      35.245  32.559  29.951  1.00  0.00     0.127 S 
ATOM     68  O   UNL A   1      34.754  31.643  28.922  1.00  0.00    -0.237 OA
ATOM     69  O   UNL A   1      34.307  32.801  31.049  1.00  0.00    -0.237 OA
ATOM     70  O   UNL A   1      35.919  33.754  29.462  1.00  0.00    -0.744 OA
ENDBRANCH  64  67
ENDBRANCH  46  60
BRANCH  47  71
ATOM     71  C   UNL A   1      46.849  27.293  25.990  1.00  0.00     0.023 A 
ATOM     72  C   UNL A   1      46.963  27.523  24.606  1.00  0.00     0.012 A 
ATOM     73  C   UNL A   1      47.916  26.674  26.671  1.00  0.00     0.148 A 
ATOM     74  C   UNL A   1      48.109  27.134  23.911  1.00  0.00     0.002 A 
ATOM     75  C   UNL A   1      49.081  26.347  25.986  1.00  0.00     0.091 A 
ATOM     76  F   UNL A   1      47.780  26.432  27.983  1.00  0.00    -0.205 F 
ATOM     77  C   UNL A   1      49.174  26.561  24.604  1.00  0.00     0.022 A 
BRANCH  75  78
ATOM     78  S   UNL A   1      50.545  25.752  26.841  1.00  0.00     0.127 S 
ATOM     79  O   UNL A   1      50.098  24.454  27.336  1.00  0.00    -0.237 OA
ATOM     80  O   UNL A   1      51.531  25.694  25.761  1.00  0.00    -0.237 OA
ATOM     81  O   UNL A   1      50.834  26.760  27.853  1.00  0.00    -0.744 OA
ENDBRANCH  75  78
ENDBRANCH  47  71
BRANCH  59  82
ATOM     82  C   UNL A   1      45.117  33.215  29.252  1.00  0.00     0.023 A 
ATOM     83  C   UNL A   1      45.984  33.361  30.351  1.00  0.00     0.012 A 
ATOM     84  C   UNL A   1      44.997  34.261  28.317  1.00  0.00     0.148 A 
ATOM     85  C   UNL A   1      46.704  34.542  30.532  1.00  0.00     0.002 A 
ATOM     86  C   UNL A   1      45.747  35.419  28.484  1.00  0.00     0.091 A 
ATOM     87  F   UNL A   1      44.148  34.110  27.291  1.00  0.00    -0.205 F 
ATOM     88  C   UNL A   1      46.595  35.566  29.594  1.00  0.00     0.022 A 
BRANCH  86  89
ATOM     89  S   UNL A   1      45.728  36.748  27.274  1.00  0.00     0.127 S 
ATOM     90  O   UNL A   1      44.298  37.012  27.141  1.00  0.00    -0.237 OA
ATOM     91  O   UNL A   1      46.483  37.804  27.951  1.00  0.00    -0.237 OA
ATOM     92  O   UNL A   1      46.384  36.211  26.089  1.00  0.00    -0.744 OA
ENDBRANCH  86  89
ENDBRANCH  59  82
ENDBRANCH  33  34
ENDBRANCH  26  28
ENDBRANCH  25  26
ENDBRANCH  24  25
ENDBRANCH   1  24
TORSDOF 18
ENDMDL
MODEL 2
REMARK VINA RESULT:     -11.4      1.736      2.133
REMARK SMILES C[N@H+](Cc1cc(Cl)ccc1[N+](=O)[O-])[C@H]1COC[C@@H]1C(=O)OCCOC(=O)c1ccc(-c2c3nc(c(-c4cccc(S(=O)(=O)[O-])c4F)c4ccc([nH]4)c(-c4cccc(S(=O)(=O)[O-])c4F)c4nc(c(-c5cccc(S(=O)(=O)[O-])c5F)c5ccc2[nH]5)C=C4)C=C3)cc1
REMARK SMILES IDX 22 1 21 2 19 3 20 4 18 5 14 6 15 7 16 8 17 9 2 10 1 11 3 13
REMARK SMILES IDX 4 14 5 15 10 16 6 17 9 18 7 19 8 20 11 21 12 22 13 23 23 24
REMARK SMILES IDX 24 25 25 26 26 27 27 28 28 29 89 30 29 31 88 32 30 33 31 34
REMARK SMILES IDX 32 35 82 36 33 37 87 38 81 39 83 40 34 41 86 42 80 43 79 44
REMARK SMILES IDX 35 46 67 47 47 48 66 49 48 50 51 51 65 52 84 53 49 54 50 55
REMARK SMILES IDX 64 57 85 58 52 59 36 60 37 61 45 62 38 63 40 64 46 65 39 66
REMARK SMILES IDX 41 67 42 68 43 69 44 70 68 71 69 72 77 73 70 74 72 75 78 76
REMARK SMILES IDX 71 77 73 78 74 79 75 80 76 81 53 82 54 83 62 84 55 85 57 86
REMARK SMILES IDX 63 87 56 88 58 89 59 90 60 91 61 92
REMARK H PARENT 2 12 83 45 51 56
REMARK Flexibility Score: inf
ROOT
ATOM      1  C   UNL A   1      35.107  21.045  24.431  1.00  0.00     0.274 C 
ENDROOT
BRANCH   1   2
ATOM      2  O   UNL A   1      34.535  22.317  24.802  1.00  0.00    -0.462 OA
BRANCH   2   3
ATOM      3  C   UNL A   1      34.549  23.290  23.847  1.00  0.00     0.317 C 
ATOM      4  O   UNL A   1      35.247  23.272  22.844  1.00  0.00    -0.252 OA
BRANCH   3   5
ATOM      5  C   UNL A   1      33.600  24.412  24.219  1.00  0.00     0.185 C 
ATOM      6  C   UNL A   1      32.171  23.901  24.472  1.00  0.00     0.227 C 
ATOM      7  C   UNL A   1      31.605  23.999  23.037  1.00  0.00     0.226 C 
ATOM      8  O   UNL A   1      32.145  25.204  22.489  1.00  0.00    -0.374 OA
ATOM      9  C   UNL A   1      33.462  25.364  23.031  1.00  0.00     0.182 C 
BRANCH   6  10
ATOM     10  N   UNL A   1      31.370  24.571  25.550  1.00  0.00    -0.328 N 
ATOM     11  C   UNL A   1      30.759  23.611  26.474  1.00  0.00     0.333 C 
ATOM     12  H   UNL A   1      32.053  25.090  26.101  1.00  0.00     0.348 HD
BRANCH  10  13
ATOM     13  C   UNL A   1      30.469  25.631  25.092  1.00  0.00     0.306 C 
BRANCH  13  14
ATOM     14  C   UNL A   1      31.008  27.045  25.156  1.00  0.00     0.085 A 
ATOM     15  C   UNL A   1      31.966  27.365  26.140  1.00  0.00     0.037 A 
ATOM     16  C   UNL A   1      30.589  28.077  24.294  1.00  0.00     0.278 A 
ATOM     17  C   UNL A   1      32.478  28.661  26.248  1.00  0.00     0.042 A 
ATOM     18  C   UNL A   1      31.095  29.381  24.409  1.00  0.00     0.088 A 
ATOM     19  Cl  UNL A   1      33.656  29.021  27.449  1.00  0.00    -0.084 Cl
ATOM     20  C   UNL A   1      32.045  29.669  25.388  1.00  0.00     0.027 A 
BRANCH  16  21
ATOM     21  N   UNL A   1      29.631  27.842  23.219  1.00  0.00     0.063 N 
ATOM     22  O   UNL A   1      29.959  28.211  22.083  1.00  0.00    -0.258 OA
ATOM     23  O   UNL A   1      28.598  27.222  23.504  1.00  0.00    -0.258 OA
ENDBRANCH  16  21
ENDBRANCH  13  14
ENDBRANCH  10  13
ENDBRANCH   6  10
ENDBRANCH   3   5
ENDBRANCH   2   3
ENDBRANCH   1   2
BRANCH   1  24
ATOM     24  C   UNL A   1      36.241  20.667  25.377  1.00  0.00     0.275 C 
BRANCH  24  25
ATOM     25  O   UNL A   1      37.321  21.596  25.200  1.00  0.00    -0.458 OA
BRANCH  25  26
ATOM     26  C   UNL A   1      38.505  21.241  25.738  1.00  0.00     0.338 C 
ATOM     27  O   UNL A   1      39.049  20.141  25.680  1.00  0.00    -0.246 OA
BRANCH  26  28
ATOM     28  C   UNL A   1      39.117  22.409  26.383  1.00  0.00     0.060 A 
ATOM     29  C   UNL A   1      38.620  23.678  26.096  1.00  0.00     0.016 A 
ATOM     30  C   UNL A   1      40.259  22.268  27.167  1.00  0.00     0.016 A 
ATOM     31  C   UNL A   1      39.329  24.812  26.475  1.00  0.00     0.010 A 
ATOM     32  C   UNL A   1      40.900  23.412  27.656  1.00  0.00     0.010 A 
ATOM     33  C   UNL A   1      40.473  24.699  27.275  1.00  0.00    -0.014 A 
BRANCH  33  34
ATOM     34  C   UNL A   1      41.244  25.913  27.668  1.00  0.00     0.031 A 
ATOM     35  C   UNL A   1      40.609  26.958  28.549  1.00  0.00     0.074 A 
ATOM     36  C   UNL A   1      42.514  26.088  27.247  1.00  0.00     0.049 A 
ATOM     37  N   UNL A   1      41.034  28.160  28.843  1.00  0.00    -0.248 NA
ATOM     38  C   UNL A   1      39.316  26.615  29.166  1.00  0.00     0.031 C 
ATOM     39  C   UNL A   1      43.272  25.151  26.415  1.00  0.00     0.029 A 
ATOM     40  N   UNL A   1      43.396  27.121  27.461  1.00  0.00    -0.354 N 
ATOM     41  C   UNL A   1      40.024  28.747  29.597  1.00  0.00     0.074 A 
ATOM     42  C   UNL A   1      38.973  27.762  29.737  1.00  0.00     0.031 C 
ATOM     43  C   UNL A   1      44.510  25.630  26.222  1.00  0.00     0.029 A 
ATOM     44  C   UNL A   1      44.608  26.950  26.833  1.00  0.00     0.049 A 
ATOM     45  H   UNL A   1      43.180  27.909  28.012  1.00  0.00     0.167 HD
ATOM     46  C   UNL A   1      39.977  29.991  30.131  1.00  0.00     0.034 A 
ATOM     47  C   UNL A   1      45.667  27.776  26.720  1.00  0.00     0.034 A 
ATOM     48  C   UNL A   1      41.061  30.934  30.077  1.00  0.00     0.049 A 
ATOM     49  C   UNL A   1      45.603  29.140  27.347  1.00  0.00     0.074 A 
ATOM     50  C   UNL A   1      41.120  32.207  30.619  1.00  0.00     0.029 A 
ATOM     51  N   UNL A   1      42.284  30.702  29.469  1.00  0.00    -0.354 N 
ATOM     52  N   UNL A   1      44.645  29.671  28.069  1.00  0.00    -0.248 NA
ATOM     53  C   UNL A   1      46.763  30.019  27.147  1.00  0.00     0.031 C 
ATOM     54  C   UNL A   1      42.381  32.744  30.337  1.00  0.00     0.029 A 
ATOM     55  C   UNL A   1      43.108  31.803  29.626  1.00  0.00     0.049 A 
ATOM     56  H   UNL A   1      42.531  29.874  28.995  1.00  0.00     0.167 HD
ATOM     57  C   UNL A   1      45.091  30.940  28.417  1.00  0.00     0.074 A 
ATOM     58  C   UNL A   1      46.419  31.085  27.857  1.00  0.00     0.031 C 
ATOM     59  C   UNL A   1      44.448  31.910  29.112  1.00  0.00     0.034 A 
BRANCH  46  60
ATOM     60  C   UNL A   1      38.716  30.400  30.842  1.00  0.00     0.023 A 
ATOM     61  C   UNL A   1      38.548  30.095  32.206  1.00  0.00     0.012 A 
ATOM     62  C   UNL A   1      37.722  31.137  30.169  1.00  0.00     0.148 A 
ATOM     63  C   UNL A   1      37.397  30.494  32.885  1.00  0.00     0.002 A 
ATOM     64  C   UNL A   1      36.594  31.565  30.861  1.00  0.00     0.091 A 
ATOM     65  F   UNL A   1      37.887  31.395  28.863  1.00  0.00    -0.205 F 
ATOM     66  C   UNL A   1      36.426  31.237  32.216  1.00  0.00     0.022 A 
BRANCH  64  67
ATOM     67  S   UNL A   1      35.328  32.586  30.098  1.00  0.00     0.127 S 
ATOM     68  O   UNL A   1      36.097  33.764  29.703  1.00  0.00    -0.237 OA
ATOM     69  O   UNL A   1      34.880  31.749  28.984  1.00  0.00    -0.237 OA
ATOM     70  O   UNL A   1      34.322  32.805  31.128  1.00  0.00    -0.744 OA
ENDBRANCH  64  67
ENDBRANCH  46  60
BRANCH  47  71
ATOM     71  C   UNL A   1      46.884  27.324  25.985  1.00  0.00     0.023 A 
ATOM     72  C   UNL A   1      47.780  26.439  26.612  1.00  0.00     0.012 A 
ATOM     73  C   UNL A   1      47.135  27.728  24.660  1.00  0.00     0.148 A 
ATOM     74  C   UNL A   1      48.909  25.972  25.937  1.00  0.00     0.002 A 
ATOM     75  C   UNL A   1      48.226  27.210  23.971  1.00  0.00     0.091 A 
ATOM     76  F   UNL A   1      46.291  28.598  24.086  1.00  0.00    -0.205 F 
ATOM     77  C   UNL A   1      49.124  26.345  24.612  1.00  0.00     0.022 A 
BRANCH  75  78
ATOM     78  S   UNL A   1      48.476  27.524  22.219  1.00  0.00     0.127 S 
ATOM     79  O   UNL A   1      47.244  28.219  21.860  1.00  0.00    -0.237 OA
ATOM     80  O   UNL A   1      49.677  28.360  22.223  1.00  0.00    -0.237 OA
ATOM     81  O   UNL A   1      48.670  26.210  21.618  1.00  0.00    -0.744 OA
ENDBRANCH  75  78
ENDBRANCH  47  71
BRANCH  59  82
ATOM     82  C   UNL A   1      45.173  33.211  29.321  1.00  0.00     0.023 A 
ATOM     83  C   UNL A   1      45.980  33.377  30.462  1.00  0.00     0.012 A 
ATOM     84  C   UNL A   1      45.115  34.235  28.356  1.00  0.00     0.148 A 
ATOM     85  C   UNL A   1      46.700  34.555  30.655  1.00  0.00     0.002 A 
ATOM     86  C   UNL A   1      45.866  35.391  28.536  1.00  0.00     0.091 A 
ATOM     87  F   UNL A   1      44.322  34.067  27.288  1.00  0.00    -0.205 F 
ATOM     88  C   UNL A   1      46.653  35.557  29.688  1.00  0.00     0.022 A 
BRANCH  86  89
ATOM     89  S   UNL A   1      45.927  36.690  27.295  1.00  0.00     0.127 S 
ATOM     90  O   UNL A   1      46.862  37.636  27.898  1.00  0.00    -0.237 OA
ATOM     91  O   UNL A   1      46.444  35.983  26.123  1.00  0.00    -0.237 OA
ATOM     92  O   UNL A   1      44.556  37.161  27.152  1.00  0.00    -0.744 OA
ENDBRANCH  86  89
ENDBRANCH  59  82
ENDBRANCH  33  34
ENDBRANCH  26  28
ENDBRANCH  25  26
ENDBRANCH  24  25
ENDBRANCH   1  24
TORSDOF 18
ENDMDL
MODEL 3
REMARK VINA RESULT:     -11.1      4.866      9.911
REMARK SMILES C[N@H+](Cc1cc(Cl)ccc1[N+](=O)[O-])[C@H]1COC[C@@H]1C(=O)OCCOC(=O)c1ccc(-c2c3nc(c(-c4cccc(S(=O)(=O)[O-])c4F)c4ccc([nH]4)c(-c4cccc(S(=O)(=O)[O-])c4F)c4nc(c(-c5cccc(S(=O)(=O)[O-])c5F)c5ccc2[nH]5)C=C4)C=C3)cc1
REMARK SMILES IDX 22 1 21 2 19 3 20 4 18 5 14 6 15 7 16 8 17 9 2 10 1 11 3 13
REMARK SMILES IDX 4 14 5 15 10 16 6 17 9 18 7 19 8 20 11 21 12 22 13 23 23 24
REMARK SMILES IDX 24 25 25 26 26 27 27 28 28 29 89 30 29 31 88 32 30 33 31 34
REMARK SMILES IDX 32 35 82 36 33 37 87 38 81 39 83 40 34 41 86 42 80 43 79 44
REMARK SMILES IDX 35 46 67 47 47 48 66 49 48 50 51 51 65 52 84 53 49 54 50 55
REMARK SMILES IDX 64 57 85 58 52 59 36 60 37 61 45 62 38 63 40 64 46 65 39 66
REMARK SMILES IDX 41 67 42 68 43 69 44 70 68 71 69 72 77 73 70 74 72 75 78 76
REMARK SMILES IDX 71 77 73 78 74 79 75 80 76 81 53 82 54 83 62 84 55 85 57 86
REMARK SMILES IDX 63 87 56 88 58 89 59 90 60 91 61 92
REMARK H PARENT 2 12 83 45 51 56
REMARK Flexibility Score: inf
ROOT
ATOM      1  C   UNL A   1      31.780  28.771  24.844  1.00  0.00     0.274 C 
ENDROOT
BRANCH   1   2
ATOM      2  O   UNL A   1      32.051  27.424  25.285  1.00  0.00    -0.462 OA
BRANCH   2   3
ATOM      3  C   UNL A   1      31.150  26.876  26.149  1.00  0.00     0.317 C 
ATOM      4  O   UNL A   1      30.942  27.273  27.286  1.00  0.00    -0.252 OA
BRANCH   3   5
ATOM      5  C   UNL A   1      30.462  25.685  25.512  1.00  0.00     0.185 C 
ATOM      6  C   UNL A   1      31.449  24.782  24.752  1.00  0.00     0.227 C 
ATOM      7  C   UNL A   1      31.399  25.460  23.364  1.00  0.00     0.226 C 
ATOM      8  O   UNL A   1      30.032  25.825  23.160  1.00  0.00    -0.374 OA
ATOM      9  C   UNL A   1      29.493  26.182  24.439  1.00  0.00     0.182 C 
BRANCH   6  10
ATOM     10  N   UNL A   1      31.208  23.302  24.779  1.00  0.00    -0.328 N 
ATOM     11  C   UNL A   1      31.242  22.752  26.137  1.00  0.00     0.333 C 
ATOM     12  H   UNL A   1      30.247  23.187  24.458  1.00  0.00     0.348 HD
BRANCH  10  13
ATOM     13  C   UNL A   1      31.961  22.527  23.791  1.00  0.00     0.306 C 
BRANCH  13  14
ATOM     14  C   UNL A   1      33.314  22.009  24.233  1.00  0.00     0.085 A 
ATOM     15  C   UNL A   1      34.371  22.927  24.409  1.00  0.00     0.037 A 
ATOM     16  C   UNL A   1      33.589  20.646  24.460  1.00  0.00     0.278 A 
ATOM     17  C   UNL A   1      35.641  22.492  24.799  1.00  0.00     0.042 A 
ATOM     18  C   UNL A   1      34.867  20.208  24.842  1.00  0.00     0.088 A 
ATOM     19  Cl  UNL A   1      36.908  23.634  25.021  1.00  0.00    -0.084 Cl
ATOM     20  C   UNL A   1      35.892  21.138  25.013  1.00  0.00     0.027 A 
BRANCH  16  21
ATOM     21  N   UNL A   1      32.557  19.622  24.342  1.00  0.00     0.063 N 
ATOM     22  O   UNL A   1      32.276  19.237  23.198  1.00  0.00    -0.258 OA
ATOM     23  O   UNL A   1      32.096  19.155  25.391  1.00  0.00    -0.258 OA
ENDBRANCH  16  21
ENDBRANCH  13  14
ENDBRANCH  10  13
ENDBRANCH   6  10
ENDBRANCH   3   5
ENDBRANCH   2   3
ENDBRANCH   1   2
BRANCH   1  24
ATOM     24  C   UNL A   1      32.833  29.735  25.376  1.00  0.00     0.275 C 
BRANCH  24  25
ATOM     25  O   UNL A   1      32.435  30.185  26.679  1.00  0.00    -0.458 OA
BRANCH  25  26
ATOM     26  C   UNL A   1      32.995  31.332  27.110  1.00  0.00     0.338 C 
ATOM     27  O   UNL A   1      32.472  32.444  27.157  1.00  0.00    -0.246 OA
BRANCH  26  28
ATOM     28  C   UNL A   1      34.354  31.062  27.593  1.00  0.00     0.060 A 
ATOM     29  C   UNL A   1      34.688  29.767  27.980  1.00  0.00     0.016 A 
ATOM     30  C   UNL A   1      35.258  32.103  27.787  1.00  0.00     0.016 A 
ATOM     31  C   UNL A   1      35.864  29.524  28.681  1.00  0.00     0.010 A 
ATOM     32  C   UNL A   1      36.497  31.833  28.378  1.00  0.00     0.010 A 
ATOM     33  C   UNL A   1      36.796  30.551  28.878  1.00  0.00    -0.014 A 
BRANCH  33  34
ATOM     34  C   UNL A   1      38.050  30.296  29.644  1.00  0.00     0.031 A 
ATOM     35  C   UNL A   1      39.134  29.433  29.052  1.00  0.00     0.074 A 
ATOM     36  C   UNL A   1      38.232  30.837  30.867  1.00  0.00     0.049 A 
ATOM     37  N   UNL A   1      40.202  28.939  29.624  1.00  0.00    -0.248 NA
ATOM     38  C   UNL A   1      38.991  29.059  27.634  1.00  0.00     0.031 C 
ATOM     39  C   UNL A   1      37.287  31.717  31.557  1.00  0.00     0.029 A 
ATOM     40  N   UNL A   1      39.279  30.725  31.751  1.00  0.00    -0.354 N 
ATOM     41  C   UNL A   1      40.803  28.125  28.670  1.00  0.00     0.074 A 
ATOM     42  C   UNL A   1      39.995  28.209  27.473  1.00  0.00     0.031 C 
ATOM     43  C   UNL A   1      37.809  32.093  32.733  1.00  0.00     0.029 A 
ATOM     44  C   UNL A   1      39.082  31.410  32.928  1.00  0.00     0.049 A 
ATOM     45  H   UNL A   1      40.092  30.203  31.559  1.00  0.00     0.167 HD
ATOM     46  C   UNL A   1      41.929  27.381  28.778  1.00  0.00     0.034 A 
ATOM     47  C   UNL A   1      39.816  31.452  34.057  1.00  0.00     0.034 A 
ATOM     48  C   UNL A   1      42.786  27.374  29.933  1.00  0.00     0.049 A 
ATOM     49  C   UNL A   1      41.078  30.641  34.141  1.00  0.00     0.074 A 
ATOM     50  C   UNL A   1      43.967  26.678  30.122  1.00  0.00     0.029 A 
ATOM     51  N   UNL A   1      42.571  28.116  31.083  1.00  0.00    -0.354 N 
ATOM     52  N   UNL A   1      41.638  29.890  33.223  1.00  0.00    -0.248 NA
ATOM     53  C   UNL A   1      41.811  30.682  35.414  1.00  0.00     0.031 C 
ATOM     54  C   UNL A   1      44.466  27.000  31.390  1.00  0.00     0.029 A 
ATOM     55  C   UNL A   1      43.598  27.901  31.985  1.00  0.00     0.049 A 
ATOM     56  H   UNL A   1      41.799  28.709  31.236  1.00  0.00     0.167 HD
ATOM     57  C   UNL A   1      42.792  29.379  33.804  1.00  0.00     0.074 A 
ATOM     58  C   UNL A   1      42.871  29.933  35.139  1.00  0.00     0.031 C 
ATOM     59  C   UNL A   1      43.691  28.505  33.288  1.00  0.00     0.034 A 
BRANCH  46  60
ATOM     60  C   UNL A   1      42.316  26.521  27.605  1.00  0.00     0.023 A 
ATOM     61  C   UNL A   1      43.125  27.052  26.583  1.00  0.00     0.012 A 
ATOM     62  C   UNL A   1      41.920  25.171  27.545  1.00  0.00     0.148 A 
ATOM     63  C   UNL A   1      43.515  26.258  25.503  1.00  0.00     0.002 A 
ATOM     64  C   UNL A   1      42.343  24.375  26.486  1.00  0.00     0.091 A 
ATOM     65  F   UNL A   1      41.126  24.691  28.513  1.00  0.00    -0.205 F 
ATOM     66  C   UNL A   1      43.134  24.919  25.461  1.00  0.00     0.022 A 
BRANCH  64  67
ATOM     67  S   UNL A   1      41.958  22.623  26.387  1.00  0.00     0.127 S 
ATOM     68  O   UNL A   1      40.498  22.645  26.311  1.00  0.00    -0.237 OA
ATOM     69  O   UNL A   1      42.627  22.225  25.148  1.00  0.00    -0.237 OA
ATOM     70  O   UNL A   1      42.517  22.026  27.592  1.00  0.00    -0.744 OA
ENDBRANCH  64  67
ENDBRANCH  46  60
BRANCH  47  71
ATOM     71  C   UNL A   1      39.374  32.307  35.197  1.00  0.00     0.023 A 
ATOM     72  C   UNL A   1      38.535  31.760  36.185  1.00  0.00     0.012 A 
ATOM     73  C   UNL A   1      39.815  33.637  35.333  1.00  0.00     0.148 A 
ATOM     74  C   UNL A   1      38.133  32.525  37.281  1.00  0.00     0.002 A 
ATOM     75  C   UNL A   1      39.464  34.374  36.459  1.00  0.00     0.091 A 
ATOM     76  F   UNL A   1      40.587  34.155  34.367  1.00  0.00    -0.205 F 
ATOM     77  C   UNL A   1      38.609  33.826  37.426  1.00  0.00     0.022 A 
BRANCH  75  78
ATOM     78  S   UNL A   1      40.165  35.996  36.786  1.00  0.00     0.127 S 
ATOM     79  O   UNL A   1      41.580  35.682  36.958  1.00  0.00    -0.237 OA
ATOM     80  O   UNL A   1      39.840  36.726  35.560  1.00  0.00    -0.237 OA
ATOM     81  O   UNL A   1      39.467  36.483  37.969  1.00  0.00    -0.744 OA
ENDBRANCH  75  78
ENDBRANCH  47  71
BRANCH  59  82
ATOM     82  C   UNL A   1      44.847  28.102  34.163  1.00  0.00     0.023 A 
ATOM     83  C   UNL A   1      46.036  28.854  34.126  1.00  0.00     0.012 A 
ATOM     84  C   UNL A   1      44.731  27.029  35.068  1.00  0.00     0.148 A 
ATOM     85  C   UNL A   1      47.104  28.530  34.962  1.00  0.00     0.002 A 
ATOM     86  C   UNL A   1      45.785  26.737  35.925  1.00  0.00     0.091 A 
ATOM     87  F   UNL A   1      43.599  26.310  35.069  1.00  0.00    -0.205 F 
ATOM     88  C   UNL A   1      46.976  27.480  35.868  1.00  0.00     0.022 A 
BRANCH  86  89
ATOM     89  S   UNL A   1      45.666  25.456  37.180  1.00  0.00     0.127 S 
ATOM     90  O   UNL A   1      44.530  25.919  37.972  1.00  0.00    -0.237 OA
ATOM     91  O   UNL A   1      45.405  24.256  36.382  1.00  0.00    -0.237 OA
ATOM     92  O   UNL A   1      46.953  25.452  37.862  1.00  0.00    -0.744 OA
ENDBRANCH  86  89
ENDBRANCH  59  82
ENDBRANCH  33  34
ENDBRANCH  26  28
ENDBRANCH  25  26
ENDBRANCH  24  25
ENDBRANCH   1  24
TORSDOF 18
ENDMDL
