MODEL 1
REMARK VINA RESULT:     -13.0      0.000      0.000
REMARK SMILES O=C(OCCOC(=O)[C@@H](CCCCl)P(=O)(c1ccccc1)c1ccccc1)c1ccc(-c2c3nc(c(-c4cccc(S(=O)(=O)[O-])c4F)c4ccc([nH]4)c(-c4cccc(S(=O)(=O)[O-])c4F)c4nc(c(-c5cccc(S(=O)(=O)[O-])c5F)c5ccc2[nH]5)C=C4)C=C3)cc1
REMARK SMILES IDX 4 1 3 2 2 3 1 4 28 5 29 6 90 7 30 8 89 9 31 10 32 11 33 12
REMARK SMILES IDX 83 13 34 14 88 15 82 16 84 17 35 18 87 19 81 20 80 21 36 23
REMARK SMILES IDX 68 24 48 25 67 26 49 27 52 28 66 29 85 30 50 31 51 32 65 34
REMARK SMILES IDX 86 35 53 36 37 37 38 38 46 39 39 40 41 41 47 42 40 43 42 44
REMARK SMILES IDX 43 45 44 46 45 47 69 48 70 49 78 50 71 51 73 52 79 53 72 54
REMARK SMILES IDX 74 55 75 56 76 57 77 58 54 59 55 60 63 61 56 62 58 63 64 64
REMARK SMILES IDX 57 65 59 66 60 67 61 68 62 69 5 70 6 71 7 72 8 73 9 74 10 75
REMARK SMILES IDX 11 76 12 77 13 78 14 79 15 80 16 81 17 82 21 83 18 84 20 85
REMARK SMILES IDX 19 86 22 87 23 88 27 89 24 90 26 91 25 92
REMARK H PARENT 84 22 52 33
REMARK Flexibility Score: inf
ROOT
ATOM      1  C   UNL A   1      31.771  31.015  27.111  1.00  0.00     0.275 C 
ENDROOT
BRANCH   1   2
ATOM      2  O   UNL A   1      32.662  32.137  26.958  1.00  0.00    -0.458 OA
BRANCH   2   3
ATOM      3  C   UNL A   1      33.647  32.538  27.808  1.00  0.00     0.338 C 
ATOM      4  O   UNL A   1      33.853  33.736  27.979  1.00  0.00    -0.246 OA
BRANCH   3   5
ATOM      5  C   UNL A   1      34.670  31.570  28.330  1.00  0.00     0.060 A 
ATOM      6  C   UNL A   1      35.081  30.221  27.364  1.00  0.00     0.016 A 
ATOM      7  C   UNL A   1      35.886  32.218  29.423  1.00  0.00     0.016 A 
ATOM      8  C   UNL A   1      36.798  29.596  27.421  1.00  0.00     0.010 A 
ATOM      9  C   UNL A   1      37.538  31.586  29.588  1.00  0.00     0.010 A 
ATOM     10  C   UNL A   1      38.079  30.146  28.719  1.00  0.00    -0.014 A 
BRANCH  10  11
ATOM     11  C   UNL A   1      39.173  29.024  29.771  1.00  0.00     0.031 A 
ATOM     12  C   UNL A   1      40.074  27.891  29.020  1.00  0.00     0.074 A 
ATOM     13  C   UNL A   1      40.180  29.196  30.819  1.00  0.00     0.049 A 
ATOM     14  N   UNL A   1      41.176  27.343  29.525  1.00  0.00    -0.248 NA
ATOM     15  C   UNL A   1      39.892  27.481  27.619  1.00  0.00     0.031 C 
ATOM     16  C   UNL A   1      41.176  30.322  31.110  1.00  0.00     0.029 A 
ATOM     17  N   UNL A   1      40.236  28.609  32.115  1.00  0.00    -0.354 N 
ATOM     18  C   UNL A   1      41.792  26.592  28.549  1.00  0.00     0.074 A 
ATOM     19  C   UNL A   1      40.993  26.772  27.363  1.00  0.00     0.031 C 
ATOM     20  C   UNL A   1      40.973  30.734  32.375  1.00  0.00     0.029 A 
ATOM     21  C   UNL A   1      40.555  29.577  33.119  1.00  0.00     0.049 A 
ATOM     22  H   UNL A   1      40.075  27.655  32.297  1.00  0.00     0.167 HD
ATOM     23  C   UNL A   1      42.888  25.798  28.659  1.00  0.00     0.034 A 
ATOM     24  C   UNL A   1      41.203  29.611  34.310  1.00  0.00     0.034 A 
ATOM     25  C   UNL A   1      43.636  25.575  29.881  1.00  0.00     0.049 A 
ATOM     26  C   UNL A   1      42.323  28.665  34.408  1.00  0.00     0.074 A 
ATOM     27  C   UNL A   1      44.586  24.592  30.120  1.00  0.00     0.029 A 
ATOM     28  N   UNL A   1      43.503  26.284  31.073  1.00  0.00    -0.354 N 
ATOM     29  N   UNL A   1      42.763  27.907  33.441  1.00  0.00    -0.248 NA
ATOM     30  C   UNL A   1      43.069  28.594  35.663  1.00  0.00     0.031 C 
ATOM     31  C   UNL A   1      44.928  24.622  31.474  1.00  0.00     0.029 A 
ATOM     32  C   UNL A   1      44.283  25.693  32.066  1.00  0.00     0.049 A 
ATOM     33  H   UNL A   1      42.943  27.084  31.196  1.00  0.00     0.167 HD
ATOM     34  C   UNL A   1      43.780  27.180  33.992  1.00  0.00     0.074 A 
ATOM     35  C   UNL A   1      43.979  27.683  35.345  1.00  0.00     0.031 C 
ATOM     36  C   UNL A   1      44.420  26.138  33.429  1.00  0.00     0.034 A 
BRANCH  23  37
ATOM     37  C   UNL A   1      43.180  24.881  27.495  1.00  0.00     0.023 A 
ATOM     38  C   UNL A   1      44.136  25.169  26.503  1.00  0.00     0.012 A 
ATOM     39  C   UNL A   1      42.489  23.651  27.452  1.00  0.00     0.148 A 
ATOM     40  C   UNL A   1      44.378  24.250  25.474  1.00  0.00     0.002 A 
ATOM     41  C   UNL A   1      42.763  22.729  26.455  1.00  0.00     0.091 A 
ATOM     42  F   UNL A   1      41.579  23.408  28.406  1.00  0.00    -0.205 F 
ATOM     43  C   UNL A   1      43.698  23.029  25.455  1.00  0.00     0.022 A 
BRANCH  41  44
ATOM     44  S   UNL A   1      41.978  21.116  26.401  1.00  0.00     0.127 S 
ATOM     45  O   UNL A   1      42.216  20.629  27.760  1.00  0.00    -0.237 OA
ATOM     46  O   UNL A   1      40.589  21.466  26.110  1.00  0.00    -0.237 OA
ATOM     47  O   UNL A   1      42.656  20.367  25.352  1.00  0.00    -0.744 OA
ENDBRANCH  41  44
ENDBRANCH  23  37
BRANCH  24  48
ATOM     48  C   UNL A   1      41.017  30.775  35.248  1.00  0.00     0.023 A 
ATOM     49  C   UNL A   1      42.023  31.664  35.698  1.00  0.00     0.012 A 
ATOM     50  C   UNL A   1      39.706  30.962  35.721  1.00  0.00     0.148 A 
ATOM     51  C   UNL A   1      41.723  32.669  36.637  1.00  0.00     0.002 A 
ATOM     52  C   UNL A   1      39.415  31.959  36.640  1.00  0.00     0.091 A 
ATOM     53  F   UNL A   1      38.760  30.117  35.289  1.00  0.00    -0.205 F 
ATOM     54  C   UNL A   1      40.421  32.809  37.114  1.00  0.00     0.022 A 
BRANCH  52  55
ATOM     55  S   UNL A   1      37.743  32.201  37.238  1.00  0.00     0.127 S 
ATOM     56  O   UNL A   1      37.043  32.581  36.015  1.00  0.00    -0.237 OA
ATOM     57  O   UNL A   1      37.407  30.873  37.754  1.00  0.00    -0.237 OA
ATOM     58  O   UNL A   1      37.843  33.230  38.264  1.00  0.00    -0.744 OA
ENDBRANCH  52  55
ENDBRANCH  24  48
BRANCH  36  59
ATOM     59  C   UNL A   1      45.327  25.414  34.361  1.00  0.00     0.023 A 
ATOM     60  C   UNL A   1      44.815  24.377  35.171  1.00  0.00     0.012 A 
ATOM     61  C   UNL A   1      46.658  25.823  34.490  1.00  0.00     0.148 A 
ATOM     62  C   UNL A   1      45.610  23.806  36.157  1.00  0.00     0.002 A 
ATOM     63  C   UNL A   1      47.464  25.200  35.424  1.00  0.00     0.091 A 
ATOM     64  F   UNL A   1      47.090  26.840  33.731  1.00  0.00    -0.205 F 
ATOM     65  C   UNL A   1      46.938  24.213  36.277  1.00  0.00     0.022 A 
BRANCH  63  66
ATOM     66  S   UNL A   1      49.201  25.599  35.580  1.00  0.00     0.127 S 
ATOM     67  O   UNL A   1      49.617  24.696  36.651  1.00  0.00    -0.237 OA
ATOM     68  O   UNL A   1      49.706  25.256  34.252  1.00  0.00    -0.237 OA
ATOM     69  O   UNL A   1      49.263  27.017  35.909  1.00  0.00    -0.744 OA
ENDBRANCH  63  66
ENDBRANCH  36  59
ENDBRANCH  10  11
ENDBRANCH   3   5
ENDBRANCH   2   3
ENDBRANCH   1   2
BRANCH   1  70
ATOM     70  C   UNL A   1      31.750  30.087  25.871  1.00  0.00     0.274 C 
BRANCH  70  71
ATOM     71  O   UNL A   1      32.290  28.762  26.100  1.00  0.00    -0.461 OA
BRANCH  71  72
ATOM     72  C   UNL A   1      31.542  27.861  26.790  1.00  0.00     0.317 C 
ATOM     73  O   UNL A   1      31.361  27.927  27.996  1.00  0.00    -0.251 OA
BRANCH  72  74
ATOM     74  C   UNL A   1      30.874  26.853  25.845  1.00  0.00     0.169 C 
BRANCH  74  75
ATOM     75  C   UNL A   1      29.885  27.510  24.253  1.00  0.00     0.025 C 
BRANCH  75  76
ATOM     76  C   UNL A   1      30.882  28.085  22.388  1.00  0.00     0.018 C 
BRANCH  76  77
ATOM     77  C   UNL A   1      32.737  27.473  22.162  1.00  0.00     0.109 C 
ATOM     78  Cl  UNL A   1      34.245  28.589  23.487  1.00  0.00    -0.127 Cl
ENDBRANCH  76  77
ENDBRANCH  75  76
ENDBRANCH  74  75
BRANCH  74  79
ATOM     79  P   UNL A   1      32.232  25.156  25.720  1.00  0.00     0.156 P 
ATOM     80  O   UNL A   1      31.373  24.812  26.943  1.00  0.00    -0.313 OA
BRANCH  79  81
ATOM     81  C   UNL A   1      32.088  24.043  23.957  1.00  0.00     0.017 A 
ATOM     82  C   UNL A   1      32.977  24.315  22.880  1.00  0.00     0.012 A 
ATOM     83  C   UNL A   1      31.371  22.844  23.844  1.00  0.00     0.012 A 
ATOM     84  C   UNL A   1      33.346  23.317  21.948  1.00  0.00     0.001 A 
ATOM     85  C   UNL A   1      31.773  21.826  22.944  1.00  0.00     0.001 A 
ATOM     86  C   UNL A   1      32.799  22.044  22.031  1.00  0.00     0.000 A 
ENDBRANCH  79  81
BRANCH  79  87
ATOM     87  C   UNL A   1      33.644  24.139  26.477  1.00  0.00     0.017 A 
ATOM     88  C   UNL A   1      33.289  22.906  27.111  1.00  0.00     0.012 A 
ATOM     89  C   UNL A   1      34.933  24.151  25.894  1.00  0.00     0.012 A 
ATOM     90  C   UNL A   1      34.097  21.760  27.091  1.00  0.00     0.001 A 
ATOM     91  C   UNL A   1      35.756  22.993  25.891  1.00  0.00     0.001 A 
ATOM     92  C   UNL A   1      35.330  21.798  26.470  1.00  0.00     0.000 A 
ENDBRANCH  79  87
ENDBRANCH  74  79
ENDBRANCH  72  74
ENDBRANCH  71  72
ENDBRANCH  70  71
ENDBRANCH   1  70
TORSDOF 20
ENDMDL
MODEL 2
REMARK VINA RESULT:     -13.0      1.840      2.539
REMARK SMILES O=C(OCCOC(=O)[C@@H](CCCCl)P(=O)(c1ccccc1)c1ccccc1)c1ccc(-c2c3nc(c(-c4cccc(S(=O)(=O)[O-])c4F)c4ccc([nH]4)c(-c4cccc(S(=O)(=O)[O-])c4F)c4nc(c(-c5cccc(S(=O)(=O)[O-])c5F)c5ccc2[nH]5)C=C4)C=C3)cc1
REMARK SMILES IDX 4 1 3 2 2 3 1 4 28 5 29 6 90 7 30 8 89 9 31 10 32 11 33 12
REMARK SMILES IDX 83 13 34 14 88 15 82 16 84 17 35 18 87 19 81 20 80 21 36 23
REMARK SMILES IDX 68 24 48 25 67 26 49 27 52 28 66 29 85 30 50 31 51 32 65 34
REMARK SMILES IDX 86 35 53 36 37 37 38 38 46 39 39 40 41 41 47 42 40 43 42 44
REMARK SMILES IDX 43 45 44 46 45 47 69 48 70 49 78 50 71 51 73 52 79 53 72 54
REMARK SMILES IDX 74 55 75 56 76 57 77 58 54 59 55 60 63 61 56 62 58 63 64 64
REMARK SMILES IDX 57 65 59 66 60 67 61 68 62 69 5 70 6 71 7 72 8 73 9 74 10 75
REMARK SMILES IDX 11 76 12 77 13 78 14 79 15 80 16 81 17 82 21 83 18 84 20 85
REMARK SMILES IDX 19 86 22 87 23 88 27 89 24 90 26 91 25 92
REMARK H PARENT 84 22 52 33
REMARK Flexibility Score: inf
ROOT
ATOM      1  C   UNL A   1      31.960  30.252  27.007  1.00  0.00     0.275 C 
ENDROOT
BRANCH   1   2
ATOM      2  O   UNL A   1      32.682  31.497  26.944  1.00  0.00    -0.458 OA
BRANCH   2   3
ATOM      3  C   UNL A   1      33.648  31.942  27.794  1.00  0.00     0.338 C 
ATOM      4  O   UNL A   1      33.754  33.143  28.019  1.00  0.00    -0.246 OA
BRANCH   3   5
ATOM      5  C   UNL A   1      34.761  31.043  28.251  1.00  0.00     0.060 A 
ATOM      6  C   UNL A   1      35.283  29.797  27.203  1.00  0.00     0.016 A 
ATOM      7  C   UNL A   1      35.925  31.733  29.374  1.00  0.00     0.016 A 
ATOM      8  C   UNL A   1      37.051  29.330  27.213  1.00  0.00     0.010 A 
ATOM      9  C   UNL A   1      37.629  31.248  29.492  1.00  0.00     0.010 A 
ATOM     10  C   UNL A   1      38.290  29.918  28.534  1.00  0.00    -0.014 A 
BRANCH  10  11
ATOM     11  C   UNL A   1      39.494  28.840  29.511  1.00  0.00     0.031 A 
ATOM     12  C   UNL A   1      40.197  27.578  28.753  1.00  0.00     0.074 A 
ATOM     13  C   UNL A   1      40.674  29.053  30.350  1.00  0.00     0.049 A 
ATOM     14  N   UNL A   1      41.342  27.014  29.128  1.00  0.00    -0.248 NA
ATOM     15  C   UNL A   1      39.756  27.039  27.458  1.00  0.00     0.031 C 
ATOM     16  C   UNL A   1      41.758  30.134  30.342  1.00  0.00     0.029 A 
ATOM     17  N   UNL A   1      40.924  28.601  31.677  1.00  0.00    -0.354 N 
ATOM     18  C   UNL A   1      41.743  26.126  28.154  1.00  0.00     0.074 A 
ATOM     19  C   UNL A   1      40.761  26.235  27.104  1.00  0.00     0.031 C 
ATOM     20  C   UNL A   1      41.796  30.688  31.568  1.00  0.00     0.029 A 
ATOM     21  C   UNL A   1      41.457  29.645  32.497  1.00  0.00     0.049 A 
ATOM     22  H   UNL A   1      40.751  27.684  31.990  1.00  0.00     0.167 HD
ATOM     23  C   UNL A   1      42.802  25.277  28.170  1.00  0.00     0.034 A 
ATOM     24  C   UNL A   1      42.302  29.759  33.553  1.00  0.00     0.034 A 
ATOM     25  C   UNL A   1      43.738  25.132  29.268  1.00  0.00     0.049 A 
ATOM     26  C   UNL A   1      43.375  28.755  33.570  1.00  0.00     0.074 A 
ATOM     27  C   UNL A   1      44.666  24.118  29.456  1.00  0.00     0.029 A 
ATOM     28  N   UNL A   1      43.847  25.969  30.377  1.00  0.00    -0.354 N 
ATOM     29  N   UNL A   1      43.605  27.873  32.635  1.00  0.00    -0.248 NA
ATOM     30  C   UNL A   1      44.322  28.766  34.683  1.00  0.00     0.031 C 
ATOM     31  C   UNL A   1      45.238  24.265  30.722  1.00  0.00     0.029 A 
ATOM     32  C   UNL A   1      44.756  25.432  31.287  1.00  0.00     0.049 A 
ATOM     33  H   UNL A   1      43.355  26.812  30.500  1.00  0.00     0.167 HD
ATOM     34  C   UNL A   1      44.666  27.142  33.089  1.00  0.00     0.074 A 
ATOM     35  C   UNL A   1      45.119  27.768  34.324  1.00  0.00     0.031 C 
ATOM     36  C   UNL A   1      45.148  26.006  32.549  1.00  0.00     0.034 A 
BRANCH  23  37
ATOM     37  C   UNL A   1      42.845  24.226  27.085  1.00  0.00     0.023 A 
ATOM     38  C   UNL A   1      43.595  24.364  25.903  1.00  0.00     0.012 A 
ATOM     39  C   UNL A   1      42.134  23.029  27.317  1.00  0.00     0.148 A 
ATOM     40  C   UNL A   1      43.615  23.328  24.960  1.00  0.00     0.002 A 
ATOM     41  C   UNL A   1      42.192  21.992  26.399  1.00  0.00     0.091 A 
ATOM     42  F   UNL A   1      41.422  22.929  28.448  1.00  0.00    -0.205 F 
ATOM     43  C   UNL A   1      42.921  22.143  25.211  1.00  0.00     0.022 A 
BRANCH  41  44
ATOM     44  S   UNL A   1      41.379  20.418  26.682  1.00  0.00     0.127 S 
ATOM     45  O   UNL A   1      41.674  19.708  25.437  1.00  0.00    -0.237 OA
ATOM     46  O   UNL A   1      42.090  19.917  27.857  1.00  0.00    -0.237 OA
ATOM     47  O   UNL A   1      39.970  20.720  26.898  1.00  0.00    -0.744 OA
ENDBRANCH  41  44
ENDBRANCH  23  37
BRANCH  24  48
ATOM     48  C   UNL A   1      42.336  31.023  34.370  1.00  0.00     0.023 A 
ATOM     49  C   UNL A   1      43.342  32.020  34.340  1.00  0.00     0.012 A 
ATOM     50  C   UNL A   1      41.258  31.196  35.255  1.00  0.00     0.148 A 
ATOM     51  C   UNL A   1      43.287  33.120  35.215  1.00  0.00     0.002 A 
ATOM     52  C   UNL A   1      41.204  32.287  36.110  1.00  0.00     0.091 A 
ATOM     53  F   UNL A   1      40.309  30.249  35.277  1.00  0.00    -0.205 F 
ATOM     54  C   UNL A   1      42.222  33.248  36.106  1.00  0.00     0.022 A 
BRANCH  52  55
ATOM     55  S   UNL A   1      39.826  32.511  37.233  1.00  0.00     0.127 S 
ATOM     56  O   UNL A   1      38.985  31.365  36.903  1.00  0.00    -0.237 OA
ATOM     57  O   UNL A   1      40.482  32.439  38.540  1.00  0.00    -0.237 OA
ATOM     58  O   UNL A   1      39.275  33.822  36.916  1.00  0.00    -0.744 OA
ENDBRANCH  52  55
ENDBRANCH  24  48
BRANCH  36  59
ATOM     59  C   UNL A   1      46.166  25.324  33.394  1.00  0.00     0.023 A 
ATOM     60  C   UNL A   1      47.533  25.642  33.237  1.00  0.00     0.012 A 
ATOM     61  C   UNL A   1      45.770  24.314  34.276  1.00  0.00     0.148 A 
ATOM     62  C   UNL A   1      48.502  24.900  33.901  1.00  0.00     0.002 A 
ATOM     63  C   UNL A   1      46.736  23.628  34.988  1.00  0.00     0.091 A 
ATOM     64  F   UNL A   1      44.465  24.016  34.361  1.00  0.00    -0.205 F 
ATOM     65  C   UNL A   1      48.101  23.898  34.783  1.00  0.00     0.022 A 
BRANCH  63  66
ATOM     66  S   UNL A   1      46.303  22.391  36.205  1.00  0.00     0.127 S 
ATOM     67  O   UNL A   1      47.549  22.266  36.958  1.00  0.00    -0.237 OA
ATOM     68  O   UNL A   1      45.211  23.048  36.923  1.00  0.00    -0.237 OA
ATOM     69  O   UNL A   1      45.913  21.203  35.457  1.00  0.00    -0.744 OA
ENDBRANCH  63  66
ENDBRANCH  36  59
ENDBRANCH  10  11
ENDBRANCH   3   5
ENDBRANCH   2   3
ENDBRANCH   1   2
BRANCH   1  70
ATOM     70  C   UNL A   1      31.632  29.672  25.607  1.00  0.00     0.274 C 
BRANCH  70  71
ATOM     71  O   UNL A   1      32.603  28.722  25.105  1.00  0.00    -0.461 OA
BRANCH  71  72
ATOM     72  C   UNL A   1      32.413  27.399  25.353  1.00  0.00     0.317 C 
ATOM     73  O   UNL A   1      32.693  26.873  26.420  1.00  0.00    -0.251 OA
BRANCH  72  74
ATOM     74  C   UNL A   1      31.701  26.709  24.182  1.00  0.00     0.169 C 
BRANCH  74  75
ATOM     75  C   UNL A   1      31.478  27.679  22.464  1.00  0.00     0.025 C 
BRANCH  75  76
ATOM     76  C   UNL A   1      30.298  29.517  22.280  1.00  0.00     0.018 C 
BRANCH  76  77
ATOM     77  C   UNL A   1      28.382  29.373  22.700  1.00  0.00     0.109 C 
ATOM     78  Cl  UNL A   1      27.516  31.244  23.712  1.00  0.00    -0.127 Cl
ENDBRANCH  76  77
ENDBRANCH  75  76
ENDBRANCH  74  75
BRANCH  74  79
ATOM     79  P   UNL A   1      32.334  24.627  24.238  1.00  0.00     0.156 P 
ATOM     80  O   UNL A   1      31.549  24.706  22.923  1.00  0.00    -0.313 OA
BRANCH  79  81
ATOM     81  C   UNL A   1      34.404  24.337  24.238  1.00  0.00     0.017 A 
ATOM     82  C   UNL A   1      35.141  24.533  25.440  1.00  0.00     0.012 A 
ATOM     83  C   UNL A   1      35.104  23.681  23.216  1.00  0.00     0.012 A 
ATOM     84  C   UNL A   1      36.348  23.843  25.695  1.00  0.00     0.001 A 
ATOM     85  C   UNL A   1      36.287  22.949  23.483  1.00  0.00     0.001 A 
ATOM     86  C   UNL A   1      36.881  22.987  24.741  1.00  0.00     0.000 A 
ENDBRANCH  79  81
BRANCH  79  87
ATOM     87  C   UNL A   1      31.881  22.788  24.351  1.00  0.00     0.017 A 
ATOM     88  C   UNL A   1      31.882  22.042  23.128  1.00  0.00     0.012 A 
ATOM     89  C   UNL A   1      32.213  22.033  25.500  1.00  0.00     0.012 A 
ATOM     90  C   UNL A   1      32.265  20.697  23.038  1.00  0.00     0.001 A 
ATOM     91  C   UNL A   1      32.585  20.665  25.406  1.00  0.00     0.001 A 
ATOM     92  C   UNL A   1      32.628  20.006  24.177  1.00  0.00     0.000 A 
ENDBRANCH  79  87
ENDBRANCH  74  79
ENDBRANCH  72  74
ENDBRANCH  71  72
ENDBRANCH  70  71
ENDBRANCH   1  70
TORSDOF 20
ENDMDL
MODEL 3
REMARK VINA RESULT:     -12.6      1.620      2.982
REMARK SMILES O=C(OCCOC(=O)[C@@H](CCCCl)P(=O)(c1ccccc1)c1ccccc1)c1ccc(-c2c3nc(c(-c4cccc(S(=O)(=O)[O-])c4F)c4ccc([nH]4)c(-c4cccc(S(=O)(=O)[O-])c4F)c4nc(c(-c5cccc(S(=O)(=O)[O-])c5F)c5ccc2[nH]5)C=C4)C=C3)cc1
REMARK SMILES IDX 4 1 3 2 2 3 1 4 28 5 29 6 90 7 30 8 89 9 31 10 32 11 33 12
REMARK SMILES IDX 83 13 34 14 88 15 82 16 84 17 35 18 87 19 81 20 80 21 36 23
REMARK SMILES IDX 68 24 48 25 67 26 49 27 52 28 66 29 85 30 50 31 51 32 65 34
REMARK SMILES IDX 86 35 53 36 37 37 38 38 46 39 39 40 41 41 47 42 40 43 42 44
REMARK SMILES IDX 43 45 44 46 45 47 69 48 70 49 78 50 71 51 73 52 79 53 72 54
REMARK SMILES IDX 74 55 75 56 76 57 77 58 54 59 55 60 63 61 56 62 58 63 64 64
REMARK SMILES IDX 57 65 59 66 60 67 61 68 62 69 5 70 6 71 7 72 8 73 9 74 10 75
REMARK SMILES IDX 11 76 12 77 13 78 14 79 15 80 16 81 17 82 21 83 18 84 20 85
REMARK SMILES IDX 19 86 22 87 23 88 27 89 24 90 26 91 25 92
REMARK H PARENT 84 22 52 33
REMARK Flexibility Score: inf
ROOT
ATOM      1  C   UNL A   1      31.391  32.128  26.270  1.00  0.00     0.275 C 
ENDROOT
BRANCH   1   2
ATOM      2  O   UNL A   1      32.069  31.947  27.528  1.00  0.00    -0.458 OA
BRANCH   2   3
ATOM      3  C   UNL A   1      33.270  32.465  27.907  1.00  0.00     0.338 C 
ATOM      4  O   UNL A   1      33.541  33.632  27.640  1.00  0.00    -0.246 OA
BRANCH   3   5
ATOM      5  C   UNL A   1      34.382  31.582  28.396  1.00  0.00     0.060 A 
ATOM      6  C   UNL A   1      34.925  30.318  27.381  1.00  0.00     0.016 A 
ATOM      7  C   UNL A   1      35.528  32.302  29.520  1.00  0.00     0.016 A 
ATOM      8  C   UNL A   1      36.694  29.862  27.423  1.00  0.00     0.010 A 
ATOM      9  C   UNL A   1      37.233  31.829  29.669  1.00  0.00     0.010 A 
ATOM     10  C   UNL A   1      37.913  30.484  28.748  1.00  0.00    -0.014 A 
BRANCH  10  11
ATOM     11  C   UNL A   1      39.111  29.434  29.761  1.00  0.00     0.031 A 
ATOM     12  C   UNL A   1      40.025  28.329  28.984  1.00  0.00     0.074 A 
ATOM     13  C   UNL A   1      40.160  29.673  30.753  1.00  0.00     0.049 A 
ATOM     14  N   UNL A   1      41.176  27.843  29.441  1.00  0.00    -0.248 NA
ATOM     15  C   UNL A   1      39.792  27.885  27.601  1.00  0.00     0.031 C 
ATOM     16  C   UNL A   1      41.116  30.848  30.973  1.00  0.00     0.029 A 
ATOM     17  N   UNL A   1      40.309  29.113  32.054  1.00  0.00    -0.354 N 
ATOM     18  C   UNL A   1      41.776  27.102  28.447  1.00  0.00     0.074 A 
ATOM     19  C   UNL A   1      40.910  27.222  27.301  1.00  0.00     0.031 C 
ATOM     20  C   UNL A   1      40.958  31.275  32.240  1.00  0.00     0.029 A 
ATOM     21  C   UNL A   1      40.632  30.115  33.024  1.00  0.00     0.049 A 
ATOM     22  H   UNL A   1      40.202  28.157  32.260  1.00  0.00     0.167 HD
ATOM     23  C   UNL A   1      42.912  26.362  28.514  1.00  0.00     0.034 A 
ATOM     24  C   UNL A   1      41.337  30.201  34.180  1.00  0.00     0.034 A 
ATOM     25  C   UNL A   1      43.730  26.197  29.700  1.00  0.00     0.049 A 
ATOM     26  C   UNL A   1      42.504  29.309  34.236  1.00  0.00     0.074 A 
ATOM     27  C   UNL A   1      44.736  25.263  29.906  1.00  0.00     0.029 A 
ATOM     28  N   UNL A   1      43.625  26.922  30.885  1.00  0.00    -0.354 N 
ATOM     29  N   UNL A   1      42.930  28.554  33.260  1.00  0.00    -0.248 NA
ATOM     30  C   UNL A   1      43.315  29.298  35.452  1.00  0.00     0.031 C 
ATOM     31  C   UNL A   1      45.144  25.335  31.241  1.00  0.00     0.029 A 
ATOM     32  C   UNL A   1      44.480  26.386  31.846  1.00  0.00     0.049 A 
ATOM     33  H   UNL A   1      43.035  27.697  31.023  1.00  0.00     0.167 HD
ATOM     34  C   UNL A   1      44.006  27.886  33.771  1.00  0.00     0.074 A 
ATOM     35  C   UNL A   1      44.250  28.423  35.103  1.00  0.00     0.031 C 
ATOM     36  C   UNL A   1      44.665  26.863  33.193  1.00  0.00     0.034 A 
BRANCH  23  37
ATOM     37  C   UNL A   1      43.188  25.436  27.352  1.00  0.00     0.023 A 
ATOM     38  C   UNL A   1      44.083  25.745  26.313  1.00  0.00     0.012 A 
ATOM     39  C   UNL A   1      42.547  24.179  27.362  1.00  0.00     0.148 A 
ATOM     40  C   UNL A   1      44.316  24.819  25.288  1.00  0.00     0.002 A 
ATOM     41  C   UNL A   1      42.814  23.251  26.368  1.00  0.00     0.091 A 
ATOM     42  F   UNL A   1      41.694  23.915  28.362  1.00  0.00    -0.205 F 
ATOM     43  C   UNL A   1      43.688  23.572  25.320  1.00  0.00     0.022 A 
BRANCH  41  44
ATOM     44  S   UNL A   1      42.095  21.607  26.377  1.00  0.00     0.127 S 
ATOM     45  O   UNL A   1      40.705  21.893  26.021  1.00  0.00    -0.237 OA
ATOM     46  O   UNL A   1      42.868  20.932  25.336  1.00  0.00    -0.237 OA
ATOM     47  O   UNL A   1      42.289  21.085  27.723  1.00  0.00    -0.744 OA
ENDBRANCH  41  44
ENDBRANCH  23  37
BRANCH  24  48
ATOM     48  C   UNL A   1      41.144  31.373  35.106  1.00  0.00     0.023 A 
ATOM     49  C   UNL A   1      42.099  32.375  35.408  1.00  0.00     0.012 A 
ATOM     50  C   UNL A   1      39.887  31.443  35.732  1.00  0.00     0.148 A 
ATOM     51  C   UNL A   1      41.810  33.377  36.354  1.00  0.00     0.002 A 
ATOM     52  C   UNL A   1      39.605  32.438  36.656  1.00  0.00     0.091 A 
ATOM     53  F   UNL A   1      38.989  30.493  35.438  1.00  0.00    -0.205 F 
ATOM     54  C   UNL A   1      40.567  33.402  36.983  1.00  0.00     0.022 A 
BRANCH  52  55
ATOM     55  S   UNL A   1      38.001  32.532  37.449  1.00  0.00     0.127 S 
ATOM     56  O   UNL A   1      37.114  32.709  36.303  1.00  0.00    -0.237 OA
ATOM     57  O   UNL A   1      37.907  31.227  38.105  1.00  0.00    -0.237 OA
ATOM     58  O   UNL A   1      38.088  33.657  38.371  1.00  0.00    -0.744 OA
ENDBRANCH  52  55
ENDBRANCH  24  48
BRANCH  36  59
ATOM     59  C   UNL A   1      45.651  26.200  34.090  1.00  0.00     0.023 A 
ATOM     60  C   UNL A   1      47.016  26.549  34.009  1.00  0.00     0.012 A 
ATOM     61  C   UNL A   1      45.230  25.176  34.945  1.00  0.00     0.148 A 
ATOM     62  C   UNL A   1      47.964  25.825  34.722  1.00  0.00     0.002 A 
ATOM     63  C   UNL A   1      46.170  24.509  35.706  1.00  0.00     0.091 A 
ATOM     64  F   UNL A   1      43.929  24.850  34.958  1.00  0.00    -0.205 F 
ATOM     65  C   UNL A   1      47.538  24.810  35.578  1.00  0.00     0.022 A 
BRANCH  63  66
ATOM     66  S   UNL A   1      45.699  23.257  36.894  1.00  0.00     0.127 S 
ATOM     67  O   UNL A   1      44.979  22.304  36.052  1.00  0.00    -0.237 OA
ATOM     68  O   UNL A   1      47.002  22.795  37.373  1.00  0.00    -0.237 OA
ATOM     69  O   UNL A   1      44.886  23.933  37.896  1.00  0.00    -0.744 OA
ENDBRANCH  63  66
ENDBRANCH  36  59
ENDBRANCH  10  11
ENDBRANCH   3   5
ENDBRANCH   2   3
ENDBRANCH   1   2
BRANCH   1  70
ATOM     70  C   UNL A   1      31.031  30.787  25.580  1.00  0.00     0.274 C 
BRANCH  70  71
ATOM     71  O   UNL A   1      32.152  29.892  25.380  1.00  0.00    -0.461 OA
BRANCH  71  72
ATOM     72  C   UNL A   1      32.111  28.656  25.944  1.00  0.00     0.317 C 
ATOM     73  O   UNL A   1      31.319  28.349  26.823  1.00  0.00    -0.251 OA
BRANCH  72  74
ATOM     74  C   UNL A   1      33.087  27.695  25.252  1.00  0.00     0.169 C 
BRANCH  74  75
ATOM     75  C   UNL A   1      34.544  26.853  26.306  1.00  0.00     0.025 C 
BRANCH  75  76
ATOM     76  C   UNL A   1      35.254  24.812  25.934  1.00  0.00     0.018 C 
BRANCH  76  77
ATOM     77  C   UNL A   1      33.871  23.435  25.695  1.00  0.00     0.109 C 
ATOM     78  Cl  UNL A   1      33.068  22.580  27.670  1.00  0.00    -0.127 Cl
ENDBRANCH  76  77
ENDBRANCH  75  76
ENDBRANCH  74  75
BRANCH  74  79
ATOM     79  P   UNL A   1      31.897  26.547  23.836  1.00  0.00     0.156 P 
ATOM     80  O   UNL A   1      31.723  25.759  25.141  1.00  0.00    -0.313 OA
BRANCH  79  81
ATOM     81  C   UNL A   1      30.296  27.587  22.987  1.00  0.00     0.017 A 
ATOM     82  C   UNL A   1      28.964  27.262  23.369  1.00  0.00     0.012 A 
ATOM     83  C   UNL A   1      30.430  28.788  22.276  1.00  0.00     0.012 A 
ATOM     84  C   UNL A   1      27.922  28.215  23.324  1.00  0.00     0.001 A 
ATOM     85  C   UNL A   1      29.403  29.764  22.275  1.00  0.00     0.001 A 
ATOM     86  C   UNL A   1      28.164  29.496  22.848  1.00  0.00     0.000 A 
ENDBRANCH  79  81
BRANCH  79  87
ATOM     87  C   UNL A   1      31.614  24.936  22.874  1.00  0.00     0.017 A 
ATOM     88  C   UNL A   1      32.700  24.460  22.071  1.00  0.00     0.012 A 
ATOM     89  C   UNL A   1      30.782  23.920  23.400  1.00  0.00     0.012 A 
ATOM     90  C   UNL A   1      32.988  23.102  21.880  1.00  0.00     0.001 A 
ATOM     91  C   UNL A   1      31.068  22.544  23.189  1.00  0.00     0.001 A 
ATOM     92  C   UNL A   1      32.178  22.139  22.449  1.00  0.00     0.000 A 
ENDBRANCH  79  87
ENDBRANCH  74  79
ENDBRANCH  72  74
ENDBRANCH  71  72
ENDBRANCH  70  71
ENDBRANCH   1  70
TORSDOF 20
ENDMDL
