MODEL 1
REMARK VINA RESULT:     -12.3      0.000      0.000
REMARK SMILES Cc1cccc(-c2cc(C(=O)OCCOC(=O)c3ccc(-c4c5nc(c(-c6cccc(S(=O)(=O)[O-])c6F)c6ccc([nH]6)c(-c6cccc(S(=O)(=O)[O-])c6F)c6nc(c(-c7cccc(S(=O)(=O)[O-])c7F)c7ccc4[nH]7)C=C6)C=C5)cc3)ccn2)c1
REMARK SMILES IDX 14 1 13 2 12 3 10 4 11 5 9 6 7 7 8 8 83 9 82 10 81 11 6 12
REMARK SMILES IDX 1 13 2 14 3 15 84 16 4 17 5 18 15 19 16 20 17 21 18 22 19 23
REMARK SMILES IDX 80 24 20 25 79 26 21 27 22 28 23 29 73 30 24 31 78 32 72 33
REMARK SMILES IDX 74 34 25 35 77 36 71 37 70 38 26 40 58 41 38 42 57 43 39 44
REMARK SMILES IDX 42 45 56 46 75 47 40 48 41 49 55 51 76 52 43 53 27 54 28 55
REMARK SMILES IDX 36 56 29 57 31 58 37 59 30 60 32 61 33 62 34 63 35 64 59 65
REMARK SMILES IDX 60 66 68 67 61 68 63 69 69 70 62 71 64 72 65 73 66 74 67 75
REMARK SMILES IDX 44 76 45 77 53 78 46 79 48 80 54 81 47 82 49 83 50 84 51 85
REMARK SMILES IDX 52 86
REMARK H PARENT 74 39 42 50
REMARK Flexibility Score: inf
ROOT
ATOM      1  C   UNL A   1      33.949  28.933  27.261  1.00  0.00     0.275 C 
ENDROOT
BRANCH   1   2
ATOM      2  C   UNL A   1      32.975  28.413  26.183  1.00  0.00     0.275 C 
BRANCH   2   3
ATOM      3  O   UNL A   1      32.939  27.023  25.872  1.00  0.00    -0.458 OA
BRANCH   3   4
ATOM      4  C   UNL A   1      31.911  26.286  26.341  1.00  0.00     0.338 C 
ATOM      5  O   UNL A   1      30.919  26.683  26.908  1.00  0.00    -0.246 OA
BRANCH   4   6
ATOM      6  C   UNL A   1      32.202  24.873  26.033  1.00  0.00     0.063 A 
ATOM      7  C   UNL A   1      33.788  23.138  25.668  1.00  0.00     0.071 A 
ATOM      8  C   UNL A   1      33.509  24.412  26.143  1.00  0.00     0.044 A 
ATOM      9  N   UNL A   1      32.824  22.313  25.193  1.00  0.00    -0.256 NA
ATOM     10  C   UNL A   1      31.545  22.755  25.208  1.00  0.00     0.112 A 
ATOM     11  C   UNL A   1      31.193  24.044  25.554  1.00  0.00     0.036 A 
BRANCH   7  12
ATOM     12  C   UNL A   1      35.172  22.735  25.417  1.00  0.00     0.000 A 
ATOM     13  C   UNL A   1      37.308  19.608  24.905  1.00  0.00     0.044 C 
ATOM     14  C   UNL A   1      36.900  21.039  25.108  1.00  0.00    -0.050 A 
ATOM     15  C   UNL A   1      37.884  22.027  25.255  1.00  0.00     0.003 A 
ATOM     16  C   UNL A   1      35.547  21.400  25.196  1.00  0.00     0.013 A 
ATOM     17  C   UNL A   1      37.527  23.359  25.448  1.00  0.00     0.001 A 
ATOM     18  C   UNL A   1      36.182  23.708  25.517  1.00  0.00     0.010 A 
ENDBRANCH   7  12
ENDBRANCH   4   6
ENDBRANCH   3   4
ENDBRANCH   2   3
ENDBRANCH   1   2
BRANCH   1  19
ATOM     19  O   UNL A   1      35.137  29.728  26.975  1.00  0.00    -0.458 OA
BRANCH  19  20
ATOM     20  C   UNL A   1      36.063  30.330  27.755  1.00  0.00     0.338 C 
ATOM     21  O   UNL A   1      35.853  31.395  28.320  1.00  0.00    -0.246 OA
BRANCH  20  22
ATOM     22  C   UNL A   1      37.339  29.642  27.917  1.00  0.00     0.060 A 
ATOM     23  C   UNL A   1      38.261  29.622  26.859  1.00  0.00     0.016 A 
ATOM     24  C   UNL A   1      37.631  29.086  29.154  1.00  0.00     0.016 A 
ATOM     25  C   UNL A   1      39.544  29.131  27.072  1.00  0.00     0.010 A 
ATOM     26  C   UNL A   1      38.918  28.681  29.396  1.00  0.00     0.010 A 
ATOM     27  C   UNL A   1      39.858  28.657  28.345  1.00  0.00    -0.014 A 
BRANCH  27  28
ATOM     28  C   UNL A   1      40.940  27.718  28.589  1.00  0.00     0.031 A 
ATOM     29  C   UNL A   1      40.841  26.268  28.397  1.00  0.00     0.074 A 
ATOM     30  C   UNL A   1      42.100  28.368  28.836  1.00  0.00     0.049 A 
ATOM     31  N   UNL A   1      41.712  25.441  28.862  1.00  0.00    -0.248 NA
ATOM     32  C   UNL A   1      39.743  25.615  27.693  1.00  0.00     0.031 C 
ATOM     33  C   UNL A   1      43.471  27.923  28.721  1.00  0.00     0.029 A 
ATOM     34  N   UNL A   1      42.200  29.653  29.395  1.00  0.00    -0.354 N 
ATOM     35  C   UNL A   1      41.450  24.200  28.319  1.00  0.00     0.074 A 
ATOM     36  C   UNL A   1      40.169  24.344  27.662  1.00  0.00     0.031 C 
ATOM     37  C   UNL A   1      44.247  28.778  29.417  1.00  0.00     0.029 A 
ATOM     38  C   UNL A   1      43.356  29.658  30.168  1.00  0.00     0.049 A 
ATOM     39  H   UNL A   1      41.575  30.403  29.265  1.00  0.00     0.167 HD
ATOM     40  C   UNL A   1      42.430  23.252  28.356  1.00  0.00     0.034 A 
ATOM     41  C   UNL A   1      43.300  29.801  31.527  1.00  0.00     0.034 A 
ATOM     42  C   UNL A   1      43.608  23.772  29.064  1.00  0.00     0.049 A 
ATOM     43  C   UNL A   1      43.903  28.598  32.219  1.00  0.00     0.074 A 
ATOM     44  C   UNL A   1      44.730  24.444  28.606  1.00  0.00     0.029 A 
ATOM     45  N   UNL A   1      43.575  23.949  30.440  1.00  0.00    -0.354 N 
ATOM     46  N   UNL A   1      44.091  27.448  31.637  1.00  0.00    -0.248 NA
ATOM     47  C   UNL A   1      44.312  28.589  33.620  1.00  0.00     0.031 C 
ATOM     48  C   UNL A   1      45.306  25.130  29.707  1.00  0.00     0.029 A 
ATOM     49  C   UNL A   1      44.563  24.840  30.838  1.00  0.00     0.049 A 
ATOM     50  H   UNL A   1      42.940  23.506  31.049  1.00  0.00     0.167 HD
ATOM     51  C   UNL A   1      44.548  26.541  32.545  1.00  0.00     0.074 A 
ATOM     52  C   UNL A   1      44.722  27.317  33.763  1.00  0.00     0.031 C 
ATOM     53  C   UNL A   1      44.691  25.218  32.240  1.00  0.00     0.034 A 
BRANCH  40  54
ATOM     54  C   UNL A   1      42.492  22.018  27.467  1.00  0.00     0.023 A 
ATOM     55  C   UNL A   1      41.526  21.010  27.706  1.00  0.00     0.012 A 
ATOM     56  C   UNL A   1      43.448  21.735  26.467  1.00  0.00     0.148 A 
ATOM     57  C   UNL A   1      41.565  19.758  27.085  1.00  0.00     0.002 A 
ATOM     58  C   UNL A   1      43.520  20.463  25.877  1.00  0.00     0.091 A 
ATOM     59  F   UNL A   1      44.256  22.708  26.033  1.00  0.00    -0.205 F 
ATOM     60  C   UNL A   1      42.584  19.471  26.193  1.00  0.00     0.022 A 
BRANCH  58  61
ATOM     61  S   UNL A   1      44.842  19.975  24.753  1.00  0.00     0.127 S 
ATOM     62  O   UNL A   1      44.626  18.531  24.634  1.00  0.00    -0.237 OA
ATOM     63  O   UNL A   1      44.528  20.737  23.546  1.00  0.00    -0.237 OA
ATOM     64  O   UNL A   1      46.090  20.337  25.415  1.00  0.00    -0.744 OA
ENDBRANCH  58  61
ENDBRANCH  40  54
BRANCH  41  65
ATOM     65  C   UNL A   1      42.102  30.556  32.045  1.00  0.00     0.023 A 
ATOM     66  C   UNL A   1      41.924  31.898  31.619  1.00  0.00     0.012 A 
ATOM     67  C   UNL A   1      41.007  29.903  32.640  1.00  0.00     0.148 A 
ATOM     68  C   UNL A   1      40.674  32.524  31.681  1.00  0.00     0.002 A 
ATOM     69  C   UNL A   1      39.759  30.533  32.692  1.00  0.00     0.091 A 
ATOM     70  F   UNL A   1      41.168  28.657  33.104  1.00  0.00    -0.205 F 
ATOM     71  C   UNL A   1      39.585  31.832  32.197  1.00  0.00     0.022 A 
BRANCH  69  72
ATOM     72  S   UNL A   1      38.301  29.619  33.224  1.00  0.00     0.127 S 
ATOM     73  O   UNL A   1      37.218  30.261  32.474  1.00  0.00    -0.237 OA
ATOM     74  O   UNL A   1      38.575  28.255  32.800  1.00  0.00    -0.237 OA
ATOM     75  O   UNL A   1      38.294  29.879  34.660  1.00  0.00    -0.744 OA
ENDBRANCH  69  72
ENDBRANCH  41  65
BRANCH  53  76
ATOM     76  C   UNL A   1      44.954  24.143  33.257  1.00  0.00     0.023 A 
ATOM     77  C   UNL A   1      44.033  23.105  33.490  1.00  0.00     0.012 A 
ATOM     78  C   UNL A   1      46.223  24.042  33.874  1.00  0.00     0.148 A 
ATOM     79  C   UNL A   1      44.334  22.041  34.343  1.00  0.00     0.002 A 
ATOM     80  C   UNL A   1      46.559  22.924  34.626  1.00  0.00     0.091 A 
ATOM     81  F   UNL A   1      47.112  25.038  33.738  1.00  0.00    -0.205 F 
ATOM     82  C   UNL A   1      45.608  21.936  34.890  1.00  0.00     0.022 A 
BRANCH  80  83
ATOM     83  S   UNL A   1      48.264  22.648  35.117  1.00  0.00     0.127 S 
ATOM     84  O   UNL A   1      48.482  23.719  36.087  1.00  0.00    -0.237 OA
ATOM     85  O   UNL A   1      48.217  21.303  35.696  1.00  0.00    -0.237 OA
ATOM     86  O   UNL A   1      49.024  22.734  33.877  1.00  0.00    -0.744 OA
ENDBRANCH  80  83
ENDBRANCH  53  76
ENDBRANCH  27  28
ENDBRANCH  20  22
ENDBRANCH  19  20
ENDBRANCH   1  19
TORSDOF 15
ENDMDL
MODEL 2
REMARK VINA RESULT:     -12.3      3.112      4.911
REMARK SMILES Cc1cccc(-c2cc(C(=O)OCCOC(=O)c3ccc(-c4c5nc(c(-c6cccc(S(=O)(=O)[O-])c6F)c6ccc([nH]6)c(-c6cccc(S(=O)(=O)[O-])c6F)c6nc(c(-c7cccc(S(=O)(=O)[O-])c7F)c7ccc4[nH]7)C=C6)C=C5)cc3)ccn2)c1
REMARK SMILES IDX 14 1 13 2 12 3 10 4 11 5 9 6 7 7 8 8 83 9 82 10 81 11 6 12
REMARK SMILES IDX 1 13 2 14 3 15 84 16 4 17 5 18 15 19 16 20 17 21 18 22 19 23
REMARK SMILES IDX 80 24 20 25 79 26 21 27 22 28 23 29 73 30 24 31 78 32 72 33
REMARK SMILES IDX 74 34 25 35 77 36 71 37 70 38 26 40 58 41 38 42 57 43 39 44
REMARK SMILES IDX 42 45 56 46 75 47 40 48 41 49 55 51 76 52 43 53 27 54 28 55
REMARK SMILES IDX 36 56 29 57 31 58 37 59 30 60 32 61 33 62 34 63 35 64 59 65
REMARK SMILES IDX 60 66 68 67 61 68 63 69 69 70 62 71 64 72 65 73 66 74 67 75
REMARK SMILES IDX 44 76 45 77 53 78 46 79 48 80 54 81 47 82 49 83 50 84 51 85
REMARK SMILES IDX 52 86
REMARK H PARENT 74 39 42 50
REMARK Flexibility Score: inf
ROOT
ATOM      1  C   UNL A   1      33.379  30.169  27.240  1.00  0.00     0.275 C 
ENDROOT
BRANCH   1   2
ATOM      2  C   UNL A   1      33.952  28.904  26.570  1.00  0.00     0.275 C 
BRANCH   2   3
ATOM      3  O   UNL A   1      33.133  28.132  25.696  1.00  0.00    -0.458 OA
BRANCH   3   4
ATOM      4  C   UNL A   1      31.967  27.646  26.170  1.00  0.00     0.338 C 
ATOM      5  O   UNL A   1      31.731  27.264  27.294  1.00  0.00    -0.246 OA
BRANCH   4   6
ATOM      6  C   UNL A   1      30.995  27.667  25.061  1.00  0.00     0.063 A 
ATOM      7  C   UNL A   1      29.709  28.899  23.484  1.00  0.00     0.071 A 
ATOM      8  C   UNL A   1      30.759  28.861  24.391  1.00  0.00     0.044 A 
ATOM      9  N   UNL A   1      28.980  27.800  23.171  1.00  0.00    -0.256 NA
ATOM     10  C   UNL A   1      29.314  26.628  23.760  1.00  0.00     0.112 A 
ATOM     11  C   UNL A   1      30.265  26.523  24.755  1.00  0.00     0.036 A 
BRANCH   7  12
ATOM     12  C   UNL A   1      29.178  30.184  23.026  1.00  0.00     0.000 A 
ATOM     13  C   UNL A   1      27.843  31.895  19.881  1.00  0.00     0.044 C 
ATOM     14  C   UNL A   1      28.332  31.668  21.284  1.00  0.00    -0.050 A 
ATOM     15  C   UNL A   1      28.474  32.758  22.154  1.00  0.00     0.003 A 
ATOM     16  C   UNL A   1      28.692  30.385  21.725  1.00  0.00     0.013 A 
ATOM     17  C   UNL A   1      28.929  32.569  23.456  1.00  0.00     0.001 A 
ATOM     18  C   UNL A   1      29.267  31.290  23.889  1.00  0.00     0.010 A 
ENDBRANCH   7  12
ENDBRANCH   4   6
ENDBRANCH   3   4
ENDBRANCH   2   3
ENDBRANCH   1   2
BRANCH   1  19
ATOM     19  O   UNL A   1      34.192  31.272  27.738  1.00  0.00    -0.458 OA
BRANCH  19  20
ATOM     20  C   UNL A   1      34.945  31.445  28.848  1.00  0.00     0.338 C 
ATOM     21  O   UNL A   1      34.623  32.212  29.747  1.00  0.00    -0.246 OA
BRANCH  20  22
ATOM     22  C   UNL A   1      36.168  30.657  28.947  1.00  0.00     0.060 A 
ATOM     23  C   UNL A   1      36.433  29.923  30.113  1.00  0.00     0.016 A 
ATOM     24  C   UNL A   1      37.004  30.603  27.840  1.00  0.00     0.016 A 
ATOM     25  C   UNL A   1      37.500  29.030  30.138  1.00  0.00     0.010 A 
ATOM     26  C   UNL A   1      38.002  29.663  27.828  1.00  0.00     0.010 A 
ATOM     27  C   UNL A   1      38.280  28.915  28.990  1.00  0.00    -0.014 A 
BRANCH  27  28
ATOM     28  C   UNL A   1      39.644  28.413  29.014  1.00  0.00     0.031 A 
ATOM     29  C   UNL A   1      40.025  27.030  28.714  1.00  0.00     0.074 A 
ATOM     30  C   UNL A   1      40.530  29.423  29.167  1.00  0.00     0.049 A 
ATOM     31  N   UNL A   1      41.187  26.550  28.993  1.00  0.00    -0.248 NA
ATOM     32  C   UNL A   1      39.130  26.055  28.101  1.00  0.00     0.031 C 
ATOM     33  C   UNL A   1      41.938  29.498  28.843  1.00  0.00     0.029 A 
ATOM     34  N   UNL A   1      40.261  30.640  29.817  1.00  0.00    -0.354 N 
ATOM     35  C   UNL A   1      41.293  25.317  28.384  1.00  0.00     0.074 A 
ATOM     36  C   UNL A   1      39.960  25.020  27.908  1.00  0.00     0.031 C 
ATOM     37  C   UNL A   1      42.464  30.547  29.505  1.00  0.00     0.029 A 
ATOM     38  C   UNL A   1      41.445  31.027  30.435  1.00  0.00     0.049 A 
ATOM     39  H   UNL A   1      39.404  31.123  29.831  1.00  0.00     0.167 HD
ATOM     40  C   UNL A   1      42.536  24.777  28.216  1.00  0.00     0.034 A 
ATOM     41  C   UNL A   1      41.545  31.093  31.797  1.00  0.00     0.034 A 
ATOM     42  C   UNL A   1      43.552  25.655  28.811  1.00  0.00     0.049 A 
ATOM     43  C   UNL A   1      42.623  30.159  32.303  1.00  0.00     0.074 A 
ATOM     44  C   UNL A   1      44.291  26.697  28.273  1.00  0.00     0.029 A 
ATOM     45  N   UNL A   1      43.664  25.761  30.190  1.00  0.00    -0.354 N 
ATOM     46  N   UNL A   1      43.109  29.171  31.605  1.00  0.00    -0.248 NA
ATOM     47  C   UNL A   1      43.212  30.246  33.635  1.00  0.00     0.031 C 
ATOM     48  C   UNL A   1      44.750  27.504  29.347  1.00  0.00     0.029 A 
ATOM     49  C   UNL A   1      44.330  26.930  30.534  1.00  0.00     0.049 A 
ATOM     50  H   UNL A   1      43.319  25.100  30.834  1.00  0.00     0.167 HD
ATOM     51  C   UNL A   1      43.980  28.454  32.368  1.00  0.00     0.074 A 
ATOM     52  C   UNL A   1      44.054  29.198  33.616  1.00  0.00     0.031 C 
ATOM     53  C   UNL A   1      44.526  27.280  31.936  1.00  0.00     0.034 A 
BRANCH  40  54
ATOM     54  C   UNL A   1      42.887  23.677  27.224  1.00  0.00     0.023 A 
ATOM     55  C   UNL A   1      43.607  24.067  26.068  1.00  0.00     0.012 A 
ATOM     56  C   UNL A   1      42.520  22.315  27.294  1.00  0.00     0.148 A 
ATOM     57  C   UNL A   1      43.851  23.202  24.997  1.00  0.00     0.002 A 
ATOM     58  C   UNL A   1      42.719  21.457  26.202  1.00  0.00     0.091 A 
ATOM     59  F   UNL A   1      42.032  21.823  28.438  1.00  0.00    -0.205 F 
ATOM     60  C   UNL A   1      43.376  21.902  25.049  1.00  0.00     0.022 A 
BRANCH  58  61
ATOM     61  S   UNL A   1      42.086  19.770  26.151  1.00  0.00     0.127 S 
ATOM     62  O   UNL A   1      42.796  19.210  24.998  1.00  0.00    -0.237 OA
ATOM     63  O   UNL A   1      42.510  19.234  27.442  1.00  0.00    -0.237 OA
ATOM     64  O   UNL A   1      40.645  19.884  25.963  1.00  0.00    -0.744 OA
ENDBRANCH  58  61
ENDBRANCH  40  54
BRANCH  41  65
ATOM     65  C   UNL A   1      40.251  31.355  32.525  1.00  0.00     0.023 A 
ATOM     66  C   UNL A   1      39.487  30.238  32.951  1.00  0.00     0.012 A 
ATOM     67  C   UNL A   1      39.949  32.611  33.083  1.00  0.00     0.148 A 
ATOM     68  C   UNL A   1      38.537  30.349  33.972  1.00  0.00     0.002 A 
ATOM     69  C   UNL A   1      39.003  32.713  34.109  1.00  0.00     0.091 A 
ATOM     70  F   UNL A   1      40.617  33.689  32.655  1.00  0.00    -0.205 F 
ATOM     71  C   UNL A   1      38.311  31.584  34.568  1.00  0.00     0.022 A 
BRANCH  69  72
ATOM     72  S   UNL A   1      38.787  34.265  34.997  1.00  0.00     0.127 S 
ATOM     73  O   UNL A   1      37.886  33.896  36.092  1.00  0.00    -0.237 OA
ATOM     74  O   UNL A   1      40.133  34.601  35.436  1.00  0.00    -0.237 OA
ATOM     75  O   UNL A   1      38.194  35.115  33.970  1.00  0.00    -0.744 OA
ENDBRANCH  69  72
ENDBRANCH  41  65
BRANCH  53  76
ATOM     76  C   UNL A   1      45.292  26.332  32.817  1.00  0.00     0.023 A 
ATOM     77  C   UNL A   1      46.693  26.394  32.926  1.00  0.00     0.012 A 
ATOM     78  C   UNL A   1      44.603  25.475  33.707  1.00  0.00     0.148 A 
ATOM     79  C   UNL A   1      47.389  25.598  33.838  1.00  0.00     0.002 A 
ATOM     80  C   UNL A   1      45.290  24.775  34.691  1.00  0.00     0.091 A 
ATOM     81  F   UNL A   1      43.273  25.330  33.599  1.00  0.00    -0.205 F 
ATOM     82  C   UNL A   1      46.685  24.808  34.740  1.00  0.00     0.022 A 
BRANCH  80  83
ATOM     83  S   UNL A   1      44.388  23.964  36.015  1.00  0.00     0.127 S 
ATOM     84  O   UNL A   1      43.845  22.786  35.342  1.00  0.00    -0.237 OA
ATOM     85  O   UNL A   1      45.442  23.674  36.990  1.00  0.00    -0.237 OA
ATOM     86  O   UNL A   1      43.420  24.956  36.464  1.00  0.00    -0.744 OA
ENDBRANCH  80  83
ENDBRANCH  53  76
ENDBRANCH  27  28
ENDBRANCH  20  22
ENDBRANCH  19  20
ENDBRANCH   1  19
TORSDOF 15
ENDMDL
MODEL 3
REMARK VINA RESULT:     -12.2      2.176      2.822
REMARK SMILES Cc1cccc(-c2cc(C(=O)OCCOC(=O)c3ccc(-c4c5nc(c(-c6cccc(S(=O)(=O)[O-])c6F)c6ccc([nH]6)c(-c6cccc(S(=O)(=O)[O-])c6F)c6nc(c(-c7cccc(S(=O)(=O)[O-])c7F)c7ccc4[nH]7)C=C6)C=C5)cc3)ccn2)c1
REMARK SMILES IDX 14 1 13 2 12 3 10 4 11 5 9 6 7 7 8 8 83 9 82 10 81 11 6 12
REMARK SMILES IDX 1 13 2 14 3 15 84 16 4 17 5 18 15 19 16 20 17 21 18 22 19 23
REMARK SMILES IDX 80 24 20 25 79 26 21 27 22 28 23 29 73 30 24 31 78 32 72 33
REMARK SMILES IDX 74 34 25 35 77 36 71 37 70 38 26 40 58 41 38 42 57 43 39 44
REMARK SMILES IDX 42 45 56 46 75 47 40 48 41 49 55 51 76 52 43 53 27 54 28 55
REMARK SMILES IDX 36 56 29 57 31 58 37 59 30 60 32 61 33 62 34 63 35 64 59 65
REMARK SMILES IDX 60 66 68 67 61 68 63 69 69 70 62 71 64 72 65 73 66 74 67 75
REMARK SMILES IDX 44 76 45 77 53 78 46 79 48 80 54 81 47 82 49 83 50 84 51 85
REMARK SMILES IDX 52 86
REMARK H PARENT 74 39 42 50
REMARK Flexibility Score: inf
ROOT
ATOM      1  C   UNL A   1      33.176  30.091  27.091  1.00  0.00     0.275 C 
ENDROOT
BRANCH   1   2
ATOM      2  C   UNL A   1      33.514  28.586  27.068  1.00  0.00     0.275 C 
BRANCH   2   3
ATOM      3  O   UNL A   1      33.592  27.897  25.822  1.00  0.00    -0.458 OA
BRANCH   3   4
ATOM      4  C   UNL A   1      32.532  27.163  25.427  1.00  0.00     0.338 C 
ATOM      5  O   UNL A   1      31.580  27.534  24.779  1.00  0.00    -0.246 OA
BRANCH   4   6
ATOM      6  C   UNL A   1      32.735  25.789  25.921  1.00  0.00     0.063 A 
ATOM      7  C   UNL A   1      34.120  23.866  26.124  1.00  0.00     0.071 A 
ATOM      8  C   UNL A   1      33.998  25.216  25.829  1.00  0.00     0.044 A 
ATOM      9  N   UNL A   1      33.081  23.125  26.579  1.00  0.00    -0.256 NA
ATOM     10  C   UNL A   1      31.893  23.745  26.765  1.00  0.00     0.112 A 
ATOM     11  C   UNL A   1      31.653  25.052  26.391  1.00  0.00     0.036 A 
BRANCH   7  12
ATOM     12  C   UNL A   1      35.312  23.127  25.703  1.00  0.00     0.000 A 
ATOM     13  C   UNL A   1      36.467  19.580  24.872  1.00  0.00     0.044 C 
ATOM     14  C   UNL A   1      36.481  21.056  25.155  1.00  0.00    -0.050 A 
ATOM     15  C   UNL A   1      37.703  21.740  25.210  1.00  0.00     0.003 A 
ATOM     16  C   UNL A   1      35.290  21.754  25.409  1.00  0.00     0.013 A 
ATOM     17  C   UNL A   1      37.737  23.107  25.475  1.00  0.00     0.001 A 
ATOM     18  C   UNL A   1      36.549  23.793  25.708  1.00  0.00     0.010 A 
ENDBRANCH   7  12
ENDBRANCH   4   6
ENDBRANCH   3   4
ENDBRANCH   2   3
ENDBRANCH   1   2
BRANCH   1  19
ATOM     19  O   UNL A   1      34.128  31.139  27.438  1.00  0.00    -0.458 OA
BRANCH  19  20
ATOM     20  C   UNL A   1      34.883  31.383  28.532  1.00  0.00     0.338 C 
ATOM     21  O   UNL A   1      34.567  32.211  29.378  1.00  0.00    -0.246 OA
BRANCH  20  22
ATOM     22  C   UNL A   1      36.103  30.598  28.682  1.00  0.00     0.060 A 
ATOM     23  C   UNL A   1      36.349  29.911  29.882  1.00  0.00     0.016 A 
ATOM     24  C   UNL A   1      36.956  30.497  27.592  1.00  0.00     0.016 A 
ATOM     25  C   UNL A   1      37.413  29.019  29.960  1.00  0.00     0.010 A 
ATOM     26  C   UNL A   1      37.953  29.557  27.633  1.00  0.00     0.010 A 
ATOM     27  C   UNL A   1      38.211  28.856  28.829  1.00  0.00    -0.014 A 
BRANCH  27  28
ATOM     28  C   UNL A   1      39.573  28.354  28.896  1.00  0.00     0.031 A 
ATOM     29  C   UNL A   1      39.962  26.969  28.610  1.00  0.00     0.074 A 
ATOM     30  C   UNL A   1      40.455  29.363  29.072  1.00  0.00     0.049 A 
ATOM     31  N   UNL A   1      41.115  26.489  28.924  1.00  0.00    -0.248 NA
ATOM     32  C   UNL A   1      39.085  25.993  27.973  1.00  0.00     0.031 C 
ATOM     33  C   UNL A   1      41.872  29.436  28.790  1.00  0.00     0.029 A 
ATOM     34  N   UNL A   1      40.168  30.582  29.710  1.00  0.00    -0.354 N 
ATOM     35  C   UNL A   1      41.238  25.254  28.322  1.00  0.00     0.074 A 
ATOM     36  C   UNL A   1      39.920  24.957  27.808  1.00  0.00     0.031 C 
ATOM     37  C   UNL A   1      42.378  30.487  29.465  1.00  0.00     0.029 A 
ATOM     38  C   UNL A   1      41.332  30.970  30.363  1.00  0.00     0.049 A 
ATOM     39  H   UNL A   1      39.310  31.066  29.698  1.00  0.00     0.167 HD
ATOM     40  C   UNL A   1      42.485  24.713  28.192  1.00  0.00     0.034 A 
ATOM     41  C   UNL A   1      41.392  31.039  31.727  1.00  0.00     0.034 A 
ATOM     42  C   UNL A   1      43.484  25.593  28.815  1.00  0.00     0.049 A 
ATOM     43  C   UNL A   1      42.454  30.105  32.267  1.00  0.00     0.074 A 
ATOM     44  C   UNL A   1      44.239  26.633  28.297  1.00  0.00     0.029 A 
ATOM     45  N   UNL A   1      43.554  25.702  30.197  1.00  0.00    -0.354 N 
ATOM     46  N   UNL A   1      42.960  29.116  31.587  1.00  0.00    -0.248 NA
ATOM     47  C   UNL A   1      43.003  30.195  33.616  1.00  0.00     0.031 C 
ATOM     48  C   UNL A   1      44.667  27.443  29.382  1.00  0.00     0.029 A 
ATOM     49  C   UNL A   1      44.211  26.871  30.557  1.00  0.00     0.049 A 
ATOM     50  H   UNL A   1      43.191  25.043  30.832  1.00  0.00     0.167 HD
ATOM     51  C   UNL A   1      43.808  28.399  32.377  1.00  0.00     0.074 A 
ATOM     52  C   UNL A   1      43.845  29.147  33.624  1.00  0.00     0.031 C 
ATOM     53  C   UNL A   1      44.365  27.224  31.963  1.00  0.00     0.034 A 
BRANCH  40  54
ATOM     54  C   UNL A   1      42.865  23.611  27.214  1.00  0.00     0.023 A 
ATOM     55  C   UNL A   1      43.615  23.999  26.076  1.00  0.00     0.012 A 
ATOM     56  C   UNL A   1      42.499  22.249  27.279  1.00  0.00     0.148 A 
ATOM     57  C   UNL A   1      43.888  23.130  25.015  1.00  0.00     0.002 A 
ATOM     58  C   UNL A   1      42.729  21.387  26.196  1.00  0.00     0.091 A 
ATOM     59  F   UNL A   1      41.982  21.759  28.412  1.00  0.00    -0.205 F 
ATOM     60  C   UNL A   1      43.416  21.830  25.059  1.00  0.00     0.022 A 
BRANCH  58  61
ATOM     61  S   UNL A   1      42.102  19.698  26.134  1.00  0.00     0.127 S 
ATOM     62  O   UNL A   1      40.655  19.912  26.038  1.00  0.00    -0.237 OA
ATOM     63  O   UNL A   1      42.719  19.176  24.917  1.00  0.00    -0.237 OA
ATOM     64  O   UNL A   1      42.528  19.062  27.374  1.00  0.00    -0.744 OA
ENDBRANCH  58  61
ENDBRANCH  40  54
BRANCH  41  65
ATOM     65  C   UNL A   1      40.078  31.304  32.416  1.00  0.00     0.023 A 
ATOM     66  C   UNL A   1      39.336  30.190  32.890  1.00  0.00     0.012 A 
ATOM     67  C   UNL A   1      39.729  32.579  32.897  1.00  0.00     0.148 A 
ATOM     68  C   UNL A   1      38.364  30.331  33.886  1.00  0.00     0.002 A 
ATOM     69  C   UNL A   1      38.761  32.710  33.898  1.00  0.00     0.091 A 
ATOM     70  F   UNL A   1      40.375  33.651  32.421  1.00  0.00    -0.205 F 
ATOM     71  C   UNL A   1      38.092  31.589  34.407  1.00  0.00     0.022 A 
BRANCH  69  72
ATOM     72  S   UNL A   1      38.484  34.303  34.693  1.00  0.00     0.127 S 
ATOM     73  O   UNL A   1      37.720  35.045  33.686  1.00  0.00    -0.237 OA
ATOM     74  O   UNL A   1      37.714  33.967  35.880  1.00  0.00    -0.237 OA
ATOM     75  O   UNL A   1      39.850  34.774  34.900  1.00  0.00    -0.744 OA
ENDBRANCH  69  72
ENDBRANCH  41  65
BRANCH  53  76
ATOM     76  C   UNL A   1      45.104  26.278  32.869  1.00  0.00     0.023 A 
ATOM     77  C   UNL A   1      46.494  26.090  32.765  1.00  0.00     0.012 A 
ATOM     78  C   UNL A   1      44.446  25.695  33.977  1.00  0.00     0.148 A 
ATOM     79  C   UNL A   1      47.195  25.310  33.687  1.00  0.00     0.002 A 
ATOM     80  C   UNL A   1      45.166  25.019  34.954  1.00  0.00     0.091 A 
ATOM     81  F   UNL A   1      43.111  25.789  34.086  1.00  0.00    -0.205 F 
ATOM     82  C   UNL A   1      46.535  24.796  34.797  1.00  0.00     0.022 A 
BRANCH  80  83
ATOM     83  S   UNL A   1      44.382  24.579  36.508  1.00  0.00     0.127 S 
ATOM     84  O   UNL A   1      45.347  23.647  37.088  1.00  0.00    -0.237 OA
ATOM     85  O   UNL A   1      44.291  25.867  37.198  1.00  0.00    -0.237 OA
ATOM     86  O   UNL A   1      43.092  24.018  36.125  1.00  0.00    -0.744 OA
ENDBRANCH  80  83
ENDBRANCH  53  76
ENDBRANCH  27  28
ENDBRANCH  20  22
ENDBRANCH  19  20
ENDBRANCH   1  19
TORSDOF 15
ENDMDL
