MODEL 1
REMARK VINA RESULT:     -11.7      0.000      0.000
REMARK SMILES O=C(OCCOC(=O)[C@@H]1CCC[N@@H+](Cc2ccc(F)cc2Cl)C1)c1ccc(-c2c3nc(c(-c4cccc(S(=O)(=O)[O-])c4F)c4ccc([nH]4)c(-c4cccc(S(=O)(=O)[O-])c4F)c4nc(c(-c5cccc(S(=O)(=O)[O-])c5F)c5ccc2[nH]5)C=C4)C=C3)cc1
REMARK SMILES IDX 4 1 3 2 2 3 1 4 24 5 25 6 86 7 26 8 85 9 27 10 28 11 29 12
REMARK SMILES IDX 79 13 30 14 84 15 78 16 80 17 31 18 83 19 77 20 76 21 32 23
REMARK SMILES IDX 64 24 44 25 63 26 45 27 48 28 62 29 81 30 46 31 47 32 61 34
REMARK SMILES IDX 82 35 49 36 33 37 34 38 42 39 35 40 37 41 43 42 36 43 38 44
REMARK SMILES IDX 39 45 40 46 41 47 65 48 66 49 74 50 67 51 69 52 75 53 68 54
REMARK SMILES IDX 70 55 71 56 72 57 73 58 50 59 51 60 59 61 52 62 54 63 60 64
REMARK SMILES IDX 53 65 55 66 56 67 57 68 58 69 5 70 6 71 7 72 8 73 9 74 10 75
REMARK SMILES IDX 23 76 11 77 13 78 12 79 14 81 15 82 16 83 21 84 17 85 20 86
REMARK SMILES IDX 22 87 18 88 19 89
REMARK H PARENT 80 22 48 33 13 80
REMARK Flexibility Score: inf
ROOT
ATOM      1  C   UNL A   1      31.846  31.115  26.827  1.00  0.00     0.275 C 
ENDROOT
BRANCH   1   2
ATOM      2  O   UNL A   1      32.482  32.405  26.787  1.00  0.00    -0.458 OA
BRANCH   2   3
ATOM      3  C   UNL A   1      33.268  33.006  27.714  1.00  0.00     0.338 C 
ATOM      4  O   UNL A   1      33.071  34.192  27.973  1.00  0.00    -0.246 OA
BRANCH   3   5
ATOM      5  C   UNL A   1      34.484  32.354  28.303  1.00  0.00     0.060 A 
ATOM      6  C   UNL A   1      34.583  31.031  28.738  1.00  0.00     0.016 A 
ATOM      7  C   UNL A   1      35.646  33.149  28.364  1.00  0.00     0.016 A 
ATOM      8  C   UNL A   1      35.810  30.486  29.121  1.00  0.00     0.010 A 
ATOM      9  C   UNL A   1      36.885  32.601  28.706  1.00  0.00     0.010 A 
ATOM     10  C   UNL A   1      36.967  31.263  29.102  1.00  0.00    -0.014 A 
BRANCH  10  11
ATOM     11  C   UNL A   1      38.186  30.730  29.741  1.00  0.00     0.031 A 
ATOM     12  C   UNL A   1      38.449  31.146  31.159  1.00  0.00     0.074 A 
ATOM     13  C   UNL A   1      38.987  29.848  29.112  1.00  0.00     0.049 A 
ATOM     14  N   UNL A   1      39.392  30.762  31.973  1.00  0.00    -0.248 NA
ATOM     15  C   UNL A   1      37.518  32.134  31.736  1.00  0.00     0.031 C 
ATOM     16  C   UNL A   1      38.817  29.371  27.738  1.00  0.00     0.029 A 
ATOM     17  N   UNL A   1      40.107  29.191  29.554  1.00  0.00    -0.354 N 
ATOM     18  C   UNL A   1      39.184  31.483  33.141  1.00  0.00     0.074 A 
ATOM     19  C   UNL A   1      38.058  32.357  32.920  1.00  0.00     0.031 C 
ATOM     20  C   UNL A   1      39.801  28.501  27.450  1.00  0.00     0.029 A 
ATOM     21  C   UNL A   1      40.678  28.368  28.611  1.00  0.00     0.049 A 
ATOM     22  H   UNL A   1      40.469  29.299  30.463  1.00  0.00     0.167 HD
ATOM     23  C   UNL A   1      39.851  31.402  34.313  1.00  0.00     0.034 A 
ATOM     24  C   UNL A   1      41.785  27.601  28.686  1.00  0.00     0.034 A 
ATOM     25  C   UNL A   1      40.960  30.523  34.528  1.00  0.00     0.049 A 
ATOM     26  C   UNL A   1      42.532  27.549  29.997  1.00  0.00     0.074 A 
ATOM     27  C   UNL A   1      41.702  30.338  35.677  1.00  0.00     0.029 A 
ATOM     28  N   UNL A   1      41.499  29.694  33.555  1.00  0.00    -0.354 N 
ATOM     29  N   UNL A   1      42.252  28.146  31.132  1.00  0.00    -0.248 NA
ATOM     30  C   UNL A   1      43.727  26.693  30.052  1.00  0.00     0.031 C 
ATOM     31  C   UNL A   1      42.719  29.423  35.386  1.00  0.00     0.029 A 
ATOM     32  C   UNL A   1      42.577  29.003  34.071  1.00  0.00     0.049 A 
ATOM     33  H   UNL A   1      41.161  29.610  32.634  1.00  0.00     0.167 HD
ATOM     34  C   UNL A   1      43.208  27.710  32.042  1.00  0.00     0.074 A 
ATOM     35  C   UNL A   1      44.065  26.783  31.331  1.00  0.00     0.031 C 
ATOM     36  C   UNL A   1      43.375  28.048  33.345  1.00  0.00     0.034 A 
BRANCH  23  37
ATOM     37  C   UNL A   1      39.386  32.307  35.419  1.00  0.00     0.023 A 
ATOM     38  C   UNL A   1      38.343  31.897  36.278  1.00  0.00     0.012 A 
ATOM     39  C   UNL A   1      39.948  33.587  35.574  1.00  0.00     0.148 A 
ATOM     40  C   UNL A   1      37.827  32.772  37.232  1.00  0.00     0.002 A 
ATOM     41  C   UNL A   1      39.465  34.432  36.562  1.00  0.00     0.091 A 
ATOM     42  F   UNL A   1      40.915  33.965  34.727  1.00  0.00    -0.205 F 
ATOM     43  C   UNL A   1      38.393  34.036  37.379  1.00  0.00     0.022 A 
BRANCH  41  44
ATOM     44  S   UNL A   1      40.173  36.050  36.877  1.00  0.00     0.127 S 
ATOM     45  O   UNL A   1      41.581  35.720  37.088  1.00  0.00    -0.237 OA
ATOM     46  O   UNL A   1      39.891  36.753  35.624  1.00  0.00    -0.237 OA
ATOM     47  O   UNL A   1      39.474  36.577  38.040  1.00  0.00    -0.744 OA
ENDBRANCH  41  44
ENDBRANCH  23  37
BRANCH  24  48
ATOM     48  C   UNL A   1      42.244  26.802  27.511  1.00  0.00     0.023 A 
ATOM     49  C   UNL A   1      42.929  27.430  26.452  1.00  0.00     0.012 A 
ATOM     50  C   UNL A   1      41.986  25.420  27.429  1.00  0.00     0.148 A 
ATOM     51  C   UNL A   1      43.311  26.709  25.320  1.00  0.00     0.002 A 
ATOM     52  C   UNL A   1      42.411  24.697  26.319  1.00  0.00     0.091 A 
ATOM     53  F   UNL A   1      41.341  24.834  28.449  1.00  0.00    -0.205 F 
ATOM     54  C   UNL A   1      43.056  25.342  25.255  1.00  0.00     0.022 A 
BRANCH  52  55
ATOM     55  S   UNL A   1      42.217  22.917  26.189  1.00  0.00     0.127 S 
ATOM     56  O   UNL A   1      40.768  22.764  26.272  1.00  0.00    -0.237 OA
ATOM     57  O   UNL A   1      42.796  22.656  24.871  1.00  0.00    -0.237 OA
ATOM     58  O   UNL A   1      42.969  22.362  27.304  1.00  0.00    -0.744 OA
ENDBRANCH  52  55
ENDBRANCH  24  48
BRANCH  36  59
ATOM     59  C   UNL A   1      44.489  27.384  34.109  1.00  0.00     0.023 A 
ATOM     60  C   UNL A   1      45.760  27.985  34.169  1.00  0.00     0.012 A 
ATOM     61  C   UNL A   1      44.230  26.222  34.862  1.00  0.00     0.148 A 
ATOM     62  C   UNL A   1      46.768  27.424  34.952  1.00  0.00     0.002 A 
ATOM     63  C   UNL A   1      45.221  25.703  35.685  1.00  0.00     0.091 A 
ATOM     64  F   UNL A   1      43.017  25.660  34.774  1.00  0.00    -0.205 F 
ATOM     65  C   UNL A   1      46.494  26.294  35.721  1.00  0.00     0.022 A 
BRANCH  63  66
ATOM     66  S   UNL A   1      44.919  24.326  36.797  1.00  0.00     0.127 S 
ATOM     67  O   UNL A   1      46.222  24.175  37.442  1.00  0.00    -0.237 OA
ATOM     68  O   UNL A   1      43.865  24.854  37.663  1.00  0.00    -0.237 OA
ATOM     69  O   UNL A   1      44.508  23.210  35.955  1.00  0.00    -0.744 OA
ENDBRANCH  63  66
ENDBRANCH  36  59
ENDBRANCH  10  11
ENDBRANCH   3   5
ENDBRANCH   2   3
ENDBRANCH   1   2
BRANCH   1  70
ATOM     70  C   UNL A   1      32.506  30.051  25.940  1.00  0.00     0.274 C 
BRANCH  70  71
ATOM     71  O   UNL A   1      31.942  28.744  26.105  1.00  0.00    -0.462 OA
BRANCH  71  72
ATOM     72  C   UNL A   1      32.822  27.772  26.496  1.00  0.00     0.314 C 
ATOM     73  O   UNL A   1      33.963  28.000  26.880  1.00  0.00    -0.252 OA
BRANCH  72  74
ATOM     74  C   UNL A   1      32.156  26.408  26.449  1.00  0.00     0.154 C 
ATOM     75  C   UNL A   1      33.131  25.302  26.045  1.00  0.00     0.027 C 
ATOM     76  C   UNL A   1      30.923  26.404  25.554  1.00  0.00     0.277 C 
ATOM     77  C   UNL A   1      33.441  25.308  24.562  1.00  0.00     0.062 C 
ATOM     78  N   UNL A   1      31.253  26.431  24.126  1.00  0.00    -0.330 N 
ATOM     79  C   UNL A   1      32.170  25.354  23.729  1.00  0.00     0.262 C 
ATOM     80  H   UNL A   1      31.761  27.303  23.975  1.00  0.00     0.348 HD
BRANCH  78  81
ATOM     81  C   UNL A   1      30.051  26.498  23.265  1.00  0.00     0.300 C 
BRANCH  81  82
ATOM     82  C   UNL A   1      29.433  27.876  23.113  1.00  0.00     0.025 A 
ATOM     83  C   UNL A   1      28.041  28.023  23.273  1.00  0.00     0.014 A 
ATOM     84  C   UNL A   1      30.177  29.002  22.711  1.00  0.00     0.052 A 
ATOM     85  C   UNL A   1      27.407  29.223  22.950  1.00  0.00     0.040 A 
ATOM     86  C   UNL A   1      29.540  30.204  22.402  1.00  0.00     0.060 A 
ATOM     87  Cl  UNL A   1      31.900  28.970  22.544  1.00  0.00    -0.084 Cl
ATOM     88  C   UNL A   1      28.160  30.297  22.504  1.00  0.00     0.124 A 
ATOM     89  F   UNL A   1      27.558  31.440  22.154  1.00  0.00    -0.207 F 
ENDBRANCH  81  82
ENDBRANCH  78  81
ENDBRANCH  72  74
ENDBRANCH  71  72
ENDBRANCH  70  71
ENDBRANCH   1  70
TORSDOF 16
ENDMDL
MODEL 2
REMARK VINA RESULT:     -11.6      4.249      6.419
REMARK SMILES O=C(OCCOC(=O)[C@@H]1CCC[N@@H+](Cc2ccc(F)cc2Cl)C1)c1ccc(-c2c3nc(c(-c4cccc(S(=O)(=O)[O-])c4F)c4ccc([nH]4)c(-c4cccc(S(=O)(=O)[O-])c4F)c4nc(c(-c5cccc(S(=O)(=O)[O-])c5F)c5ccc2[nH]5)C=C4)C=C3)cc1
REMARK SMILES IDX 4 1 3 2 2 3 1 4 24 5 25 6 86 7 26 8 85 9 27 10 28 11 29 12
REMARK SMILES IDX 79 13 30 14 84 15 78 16 80 17 31 18 83 19 77 20 76 21 32 23
REMARK SMILES IDX 64 24 44 25 63 26 45 27 48 28 62 29 81 30 46 31 47 32 61 34
REMARK SMILES IDX 82 35 49 36 33 37 34 38 42 39 35 40 37 41 43 42 36 43 38 44
REMARK SMILES IDX 39 45 40 46 41 47 65 48 66 49 74 50 67 51 69 52 75 53 68 54
REMARK SMILES IDX 70 55 71 56 72 57 73 58 50 59 51 60 59 61 52 62 54 63 60 64
REMARK SMILES IDX 53 65 55 66 56 67 57 68 58 69 5 70 6 71 7 72 8 73 9 74 10 75
REMARK SMILES IDX 23 76 11 77 13 78 12 79 14 81 15 82 16 83 21 84 17 85 20 86
REMARK SMILES IDX 22 87 18 88 19 89
REMARK H PARENT 80 22 48 33 13 80
REMARK Flexibility Score: inf
ROOT
ATOM      1  C   UNL A   1      33.347  33.423  27.997  1.00  0.00     0.275 C 
ENDROOT
BRANCH   1   2
ATOM      2  O   UNL A   1      34.489  32.632  27.626  1.00  0.00    -0.458 OA
BRANCH   2   3
ATOM      3  C   UNL A   1      34.641  31.285  27.626  1.00  0.00     0.338 C 
ATOM      4  O   UNL A   1      33.683  30.585  27.301  1.00  0.00    -0.246 OA
BRANCH   3   5
ATOM      5  C   UNL A   1      35.853  30.597  28.181  1.00  0.00     0.060 A 
ATOM      6  C   UNL A   1      35.890  29.761  29.299  1.00  0.00     0.016 A 
ATOM      7  C   UNL A   1      37.051  30.777  27.461  1.00  0.00     0.016 A 
ATOM      8  C   UNL A   1      37.043  29.048  29.630  1.00  0.00     0.010 A 
ATOM      9  C   UNL A   1      38.198  30.036  27.761  1.00  0.00     0.010 A 
ATOM     10  C   UNL A   1      38.199  29.175  28.863  1.00  0.00    -0.014 A 
BRANCH  10  11
ATOM     11  C   UNL A   1      39.458  28.602  29.381  1.00  0.00     0.031 A 
ATOM     12  C   UNL A   1      39.989  29.176  30.663  1.00  0.00     0.074 A 
ATOM     13  C   UNL A   1      40.063  27.561  28.779  1.00  0.00     0.049 A 
ATOM     14  N   UNL A   1      41.017  28.805  31.373  1.00  0.00    -0.248 NA
ATOM     15  C   UNL A   1      39.256  30.329  31.219  1.00  0.00     0.031 C 
ATOM     16  C   UNL A   1      39.625  26.925  27.535  1.00  0.00     0.029 A 
ATOM     17  N   UNL A   1      41.180  26.852  29.139  1.00  0.00    -0.354 N 
ATOM     18  C   UNL A   1      41.070  29.695  32.436  1.00  0.00     0.074 A 
ATOM     19  C   UNL A   1      40.002  30.649  32.260  1.00  0.00     0.031 C 
ATOM     20  C   UNL A   1      40.469  25.921  27.235  1.00  0.00     0.029 A 
ATOM     21  C   UNL A   1      41.512  25.851  28.255  1.00  0.00     0.049 A 
ATOM     22  H   UNL A   1      41.696  27.041  29.956  1.00  0.00     0.167 HD
ATOM     23  C   UNL A   1      41.914  29.702  33.491  1.00  0.00     0.034 A 
ATOM     24  C   UNL A   1      42.546  24.984  28.276  1.00  0.00     0.034 A 
ATOM     25  C   UNL A   1      42.963  28.744  33.665  1.00  0.00     0.049 A 
ATOM     26  C   UNL A   1      43.494  25.028  29.450  1.00  0.00     0.074 A 
ATOM     27  C   UNL A   1      43.867  28.636  34.702  1.00  0.00     0.029 A 
ATOM     28  N   UNL A   1      43.258  27.736  32.758  1.00  0.00    -0.354 N 
ATOM     29  N   UNL A   1      43.460  25.801  30.511  1.00  0.00    -0.248 NA
ATOM     30  C   UNL A   1      44.602  24.061  29.451  1.00  0.00     0.031 C 
ATOM     31  C   UNL A   1      44.739  27.583  34.401  1.00  0.00     0.029 A 
ATOM     32  C   UNL A   1      44.343  27.008  33.201  1.00  0.00     0.049 A 
ATOM     33  H   UNL A   1      42.765  27.565  31.923  1.00  0.00     0.167 HD
ATOM     34  C   UNL A   1      44.513  25.390  31.320  1.00  0.00     0.074 A 
ATOM     35  C   UNL A   1      45.156  24.287  30.635  1.00  0.00     0.031 C 
ATOM     36  C   UNL A   1      44.923  25.881  32.516  1.00  0.00     0.034 A 
BRANCH  23  37
ATOM     37  C   UNL A   1      41.720  30.793  34.505  1.00  0.00     0.023 A 
ATOM     38  C   UNL A   1      40.919  30.567  35.646  1.00  0.00     0.012 A 
ATOM     39  C   UNL A   1      42.290  32.063  34.300  1.00  0.00     0.148 A 
ATOM     40  C   UNL A   1      40.639  31.605  36.532  1.00  0.00     0.002 A 
ATOM     41  C   UNL A   1      42.050  33.077  35.217  1.00  0.00     0.091 A 
ATOM     42  F   UNL A   1      43.021  32.263  33.195  1.00  0.00    -0.205 F 
ATOM     43  C   UNL A   1      41.211  32.857  36.321  1.00  0.00     0.022 A 
BRANCH  41  44
ATOM     44  S   UNL A   1      42.797  34.702  35.072  1.00  0.00     0.127 S 
ATOM     45  O   UNL A   1      41.841  35.390  34.205  1.00  0.00    -0.237 OA
ATOM     46  O   UNL A   1      42.798  35.158  36.463  1.00  0.00    -0.237 OA
ATOM     47  O   UNL A   1      44.118  34.489  34.500  1.00  0.00    -0.744 OA
ENDBRANCH  41  44
ENDBRANCH  23  37
BRANCH  24  48
ATOM     48  C   UNL A   1      42.731  23.988  27.180  1.00  0.00     0.023 A 
ATOM     49  C   UNL A   1      43.450  24.338  26.019  1.00  0.00     0.012 A 
ATOM     50  C   UNL A   1      42.180  22.695  27.274  1.00  0.00     0.148 A 
ATOM     51  C   UNL A   1      43.580  23.438  24.960  1.00  0.00     0.002 A 
ATOM     52  C   UNL A   1      42.353  21.787  26.234  1.00  0.00     0.091 A 
ATOM     53  F   UNL A   1      41.506  22.373  28.387  1.00  0.00    -0.205 F 
ATOM     54  C   UNL A   1      43.036  22.161  25.069  1.00  0.00     0.022 A 
BRANCH  52  55
ATOM     55  S   UNL A   1      41.776  20.090  26.323  1.00  0.00     0.127 S 
ATOM     56  O   UNL A   1      42.259  19.674  27.637  1.00  0.00    -0.237 OA
ATOM     57  O   UNL A   1      40.328  20.268  26.220  1.00  0.00    -0.237 OA
ATOM     58  O   UNL A   1      42.387  19.411  25.191  1.00  0.00    -0.744 OA
ENDBRANCH  52  55
ENDBRANCH  24  48
BRANCH  36  59
ATOM     59  C   UNL A   1      46.087  25.208  33.192  1.00  0.00     0.023 A 
ATOM     60  C   UNL A   1      47.382  25.747  33.072  1.00  0.00     0.012 A 
ATOM     61  C   UNL A   1      45.866  24.107  34.043  1.00  0.00     0.148 A 
ATOM     62  C   UNL A   1      48.447  25.184  33.773  1.00  0.00     0.002 A 
ATOM     63  C   UNL A   1      46.921  23.589  34.782  1.00  0.00     0.091 A 
ATOM     64  F   UNL A   1      44.628  23.602  34.127  1.00  0.00    -0.205 F 
ATOM     65  C   UNL A   1      48.214  24.116  34.639  1.00  0.00     0.022 A 
BRANCH  63  66
ATOM     66  S   UNL A   1      46.689  22.296  36.007  1.00  0.00     0.127 S 
ATOM     67  O   UNL A   1      45.670  22.889  36.873  1.00  0.00    -0.237 OA
ATOM     68  O   UNL A   1      46.220  21.177  35.190  1.00  0.00    -0.237 OA
ATOM     69  O   UNL A   1      47.990  22.089  36.628  1.00  0.00    -0.744 OA
ENDBRANCH  63  66
ENDBRANCH  36  59
ENDBRANCH  10  11
ENDBRANCH   3   5
ENDBRANCH   2   3
ENDBRANCH   1   2
BRANCH   1  70
ATOM     70  C   UNL A   1      33.671  34.871  28.383  1.00  0.00     0.274 C 
BRANCH  70  71
ATOM     71  O   UNL A   1      32.565  35.562  28.978  1.00  0.00    -0.462 OA
BRANCH  71  72
ATOM     72  C   UNL A   1      32.884  36.388  30.021  1.00  0.00     0.314 C 
ATOM     73  O   UNL A   1      33.281  37.539  29.883  1.00  0.00    -0.252 OA
BRANCH  72  74
ATOM     74  C   UNL A   1      32.608  35.696  31.345  1.00  0.00     0.154 C 
ATOM     75  C   UNL A   1      32.630  36.671  32.523  1.00  0.00     0.027 C 
ATOM     76  C   UNL A   1      33.552  34.526  31.587  1.00  0.00     0.277 C 
ATOM     77  C   UNL A   1      34.034  37.078  32.920  1.00  0.00     0.062 C 
ATOM     78  N   UNL A   1      34.909  34.950  31.948  1.00  0.00    -0.330 N 
ATOM     79  C   UNL A   1      34.935  35.867  33.096  1.00  0.00     0.262 C 
ATOM     80  H   UNL A   1      35.253  35.486  31.152  1.00  0.00     0.348 HD
BRANCH  78  81
ATOM     81  C   UNL A   1      35.837  33.810  32.112  1.00  0.00     0.300 C 
BRANCH  81  82
ATOM     82  C   UNL A   1      37.195  33.973  31.454  1.00  0.00     0.025 A 
ATOM     83  C   UNL A   1      37.313  33.762  30.066  1.00  0.00     0.014 A 
ATOM     84  C   UNL A   1      38.370  34.225  32.188  1.00  0.00     0.052 A 
ATOM     85  C   UNL A   1      38.565  33.706  29.455  1.00  0.00     0.040 A 
ATOM     86  C   UNL A   1      39.620  34.181  31.570  1.00  0.00     0.060 A 
ATOM     87  Cl  UNL A   1      38.353  34.566  33.885  1.00  0.00    -0.084 Cl
ATOM     88  C   UNL A   1      39.707  33.903  30.214  1.00  0.00     0.124 A 
ATOM     89  F   UNL A   1      40.915  33.813  29.646  1.00  0.00    -0.207 F 
ENDBRANCH  81  82
ENDBRANCH  78  81
ENDBRANCH  72  74
ENDBRANCH  71  72
ENDBRANCH  70  71
ENDBRANCH   1  70
TORSDOF 16
ENDMDL
MODEL 3
REMARK VINA RESULT:     -11.5      6.095     12.058
REMARK SMILES O=C(OCCOC(=O)[C@@H]1CCC[N@@H+](Cc2ccc(F)cc2Cl)C1)c1ccc(-c2c3nc(c(-c4cccc(S(=O)(=O)[O-])c4F)c4ccc([nH]4)c(-c4cccc(S(=O)(=O)[O-])c4F)c4nc(c(-c5cccc(S(=O)(=O)[O-])c5F)c5ccc2[nH]5)C=C4)C=C3)cc1
REMARK SMILES IDX 4 1 3 2 2 3 1 4 24 5 25 6 86 7 26 8 85 9 27 10 28 11 29 12
REMARK SMILES IDX 79 13 30 14 84 15 78 16 80 17 31 18 83 19 77 20 76 21 32 23
REMARK SMILES IDX 64 24 44 25 63 26 45 27 48 28 62 29 81 30 46 31 47 32 61 34
REMARK SMILES IDX 82 35 49 36 33 37 34 38 42 39 35 40 37 41 43 42 36 43 38 44
REMARK SMILES IDX 39 45 40 46 41 47 65 48 66 49 74 50 67 51 69 52 75 53 68 54
REMARK SMILES IDX 70 55 71 56 72 57 73 58 50 59 51 60 59 61 52 62 54 63 60 64
REMARK SMILES IDX 53 65 55 66 56 67 57 68 58 69 5 70 6 71 7 72 8 73 9 74 10 75
REMARK SMILES IDX 23 76 11 77 13 78 12 79 14 81 15 82 16 83 21 84 17 85 20 86
REMARK SMILES IDX 22 87 18 88 19 89
REMARK H PARENT 80 22 48 33 13 80
REMARK Flexibility Score: inf
ROOT
ATOM      1  C   UNL A   1      40.812  21.076  27.630  1.00  0.00     0.275 C 
ENDROOT
BRANCH   1   2
ATOM      2  O   UNL A   1      39.997  21.474  26.514  1.00  0.00    -0.458 OA
BRANCH   2   3
ATOM      3  C   UNL A   1      39.185  22.552  26.382  1.00  0.00     0.338 C 
ATOM      4  O   UNL A   1      38.141  22.427  25.746  1.00  0.00    -0.246 OA
BRANCH   3   5
ATOM      5  C   UNL A   1      39.584  23.934  26.810  1.00  0.00     0.060 A 
ATOM      6  C   UNL A   1      40.173  24.910  26.005  1.00  0.00     0.016 A 
ATOM      7  C   UNL A   1      39.275  24.283  28.140  1.00  0.00     0.016 A 
ATOM      8  C   UNL A   1      40.354  26.215  26.467  1.00  0.00     0.010 A 
ATOM      9  C   UNL A   1      39.415  25.596  28.598  1.00  0.00     0.010 A 
ATOM     10  C   UNL A   1      39.972  26.567  27.761  1.00  0.00    -0.014 A 
BRANCH  10  11
ATOM     11  C   UNL A   1      40.401  27.877  28.291  1.00  0.00     0.031 A 
ATOM     12  C   UNL A   1      41.869  28.186  28.234  1.00  0.00     0.074 A 
ATOM     13  C   UNL A   1      39.512  28.786  28.735  1.00  0.00     0.049 A 
ATOM     14  N   UNL A   1      42.496  29.284  28.552  1.00  0.00    -0.248 NA
ATOM     15  C   UNL A   1      42.749  27.106  27.751  1.00  0.00     0.031 C 
ATOM     16  C   UNL A   1      38.064  28.589  28.825  1.00  0.00     0.029 A 
ATOM     17  N   UNL A   1      39.701  30.066  29.191  1.00  0.00    -0.354 N 
ATOM     18  C   UNL A   1      43.840  29.014  28.336  1.00  0.00     0.074 A 
ATOM     19  C   UNL A   1      43.946  27.641  27.905  1.00  0.00     0.031 C 
ATOM     20  C   UNL A   1      37.498  29.708  29.311  1.00  0.00     0.029 A 
ATOM     21  C   UNL A   1      38.540  30.695  29.579  1.00  0.00     0.049 A 
ATOM     22  H   UNL A   1      40.586  30.495  29.236  1.00  0.00     0.167 HD
ATOM     23  C   UNL A   1      44.898  29.846  28.455  1.00  0.00     0.034 A 
ATOM     24  C   UNL A   1      38.354  31.928  30.094  1.00  0.00     0.034 A 
ATOM     25  C   UNL A   1      44.784  31.210  28.872  1.00  0.00     0.049 A 
ATOM     26  C   UNL A   1      39.555  32.830  30.245  1.00  0.00     0.074 A 
ATOM     27  C   UNL A   1      45.779  32.155  29.009  1.00  0.00     0.029 A 
ATOM     28  N   UNL A   1      43.591  31.816  29.240  1.00  0.00    -0.354 N 
ATOM     29  N   UNL A   1      40.806  32.600  29.924  1.00  0.00    -0.248 NA
ATOM     30  C   UNL A   1      39.316  34.173  30.795  1.00  0.00     0.031 C 
ATOM     31  C   UNL A   1      45.193  33.326  29.502  1.00  0.00     0.029 A 
ATOM     32  C   UNL A   1      43.825  33.122  29.622  1.00  0.00     0.049 A 
ATOM     33  H   UNL A   1      42.708  31.379  29.230  1.00  0.00     0.167 HD
ATOM     34  C   UNL A   1      41.496  33.777  30.196  1.00  0.00     0.074 A 
ATOM     35  C   UNL A   1      40.518  34.725  30.691  1.00  0.00     0.031 C 
ATOM     36  C   UNL A   1      42.817  34.052  30.060  1.00  0.00     0.034 A 
BRANCH  23  37
ATOM     37  C   UNL A   1      46.250  29.270  28.138  1.00  0.00     0.023 A 
ATOM     38  C   UNL A   1      46.781  29.385  26.835  1.00  0.00     0.012 A 
ATOM     39  C   UNL A   1      46.970  28.568  29.121  1.00  0.00     0.148 A 
ATOM     40  C   UNL A   1      47.979  28.755  26.501  1.00  0.00     0.002 A 
ATOM     41  C   UNL A   1      48.189  27.990  28.794  1.00  0.00     0.091 A 
ATOM     42  F   UNL A   1      46.432  28.445  30.341  1.00  0.00    -0.205 F 
ATOM     43  C   UNL A   1      48.686  28.066  27.482  1.00  0.00     0.022 A 
BRANCH  41  44
ATOM     44  S   UNL A   1      49.208  27.142  30.002  1.00  0.00     0.127 S 
ATOM     45  O   UNL A   1      50.528  27.214  29.378  1.00  0.00    -0.237 OA
ATOM     46  O   UNL A   1      49.044  27.990  31.184  1.00  0.00    -0.237 OA
ATOM     47  O   UNL A   1      48.651  25.803  30.132  1.00  0.00    -0.744 OA
ENDBRANCH  41  44
ENDBRANCH  23  37
BRANCH  24  48
ATOM     48  C   UNL A   1      36.990  32.398  30.478  1.00  0.00     0.023 A 
ATOM     49  C   UNL A   1      36.523  32.214  31.795  1.00  0.00     0.012 A 
ATOM     50  C   UNL A   1      36.142  33.012  29.536  1.00  0.00     0.148 A 
ATOM     51  C   UNL A   1      35.228  32.594  32.154  1.00  0.00     0.002 A 
ATOM     52  C   UNL A   1      34.869  33.430  29.912  1.00  0.00     0.091 A 
ATOM     53  F   UNL A   1      36.603  33.188  28.289  1.00  0.00    -0.205 F 
ATOM     54  C   UNL A   1      34.403  33.205  31.215  1.00  0.00     0.022 A 
BRANCH  52  55
ATOM     55  S   UNL A   1      33.772  34.316  28.802  1.00  0.00     0.127 S 
ATOM     56  O   UNL A   1      32.675  34.685  29.691  1.00  0.00    -0.237 OA
ATOM     57  O   UNL A   1      34.625  35.425  28.372  1.00  0.00    -0.237 OA
ATOM     58  O   UNL A   1      33.433  33.368  27.752  1.00  0.00    -0.744 OA
ENDBRANCH  52  55
ENDBRANCH  24  48
BRANCH  36  59
ATOM     59  C   UNL A   1      43.285  35.441  30.401  1.00  0.00     0.023 A 
ATOM     60  C   UNL A   1      43.823  35.713  31.674  1.00  0.00     0.012 A 
ATOM     61  C   UNL A   1      43.298  36.443  29.411  1.00  0.00     0.148 A 
ATOM     62  C   UNL A   1      44.346  36.972  31.963  1.00  0.00     0.002 A 
ATOM     63  C   UNL A   1      43.873  37.675  29.689  1.00  0.00     0.091 A 
ATOM     64  F   UNL A   1      42.764  36.165  28.214  1.00  0.00    -0.205 F 
ATOM     65  C   UNL A   1      44.385  37.946  30.968  1.00  0.00     0.022 A 
BRANCH  63  66
ATOM     66  S   UNL A   1      44.073  38.944  28.434  1.00  0.00     0.127 S 
ATOM     67  O   UNL A   1      44.671  40.032  29.206  1.00  0.00    -0.237 OA
ATOM     68  O   UNL A   1      44.980  38.298  27.485  1.00  0.00    -0.237 OA
ATOM     69  O   UNL A   1      42.740  39.210  27.912  1.00  0.00    -0.744 OA
ENDBRANCH  63  66
ENDBRANCH  36  59
ENDBRANCH  10  11
ENDBRANCH   3   5
ENDBRANCH   2   3
ENDBRANCH   1   2
BRANCH   1  70
ATOM     70  C   UNL A   1      41.385  19.656  27.529  1.00  0.00     0.274 C 
BRANCH  70  71
ATOM     71  O   UNL A   1      42.783  19.628  27.217  1.00  0.00    -0.462 OA
BRANCH  71  72
ATOM     72  C   UNL A   1      43.159  18.685  26.300  1.00  0.00     0.314 C 
ATOM     73  O   UNL A   1      43.103  17.477  26.502  1.00  0.00    -0.252 OA
BRANCH  72  74
ATOM     74  C   UNL A   1      43.579  19.349  25.001  1.00  0.00     0.154 C 
ATOM     75  C   UNL A   1      44.923  18.828  24.492  1.00  0.00     0.027 C 
ATOM     76  C   UNL A   1      43.589  20.868  25.113  1.00  0.00     0.277 C 
ATOM     77  C   UNL A   1      46.099  19.385  25.268  1.00  0.00     0.062 C 
ATOM     78  N   UNL A   1      44.726  21.378  25.886  1.00  0.00    -0.330 N 
ATOM     79  C   UNL A   1      46.021  20.899  25.384  1.00  0.00     0.262 C 
ATOM     80  H   UNL A   1      44.624  20.984  26.822  1.00  0.00     0.348 HD
BRANCH  78  81
ATOM     81  C   UNL A   1      44.690  22.848  26.051  1.00  0.00     0.300 C 
BRANCH  81  82
ATOM     82  C   UNL A   1      44.635  23.344  27.484  1.00  0.00     0.025 A 
ATOM     83  C   UNL A   1      43.477  23.102  28.248  1.00  0.00     0.014 A 
ATOM     84  C   UNL A   1      45.654  24.132  28.054  1.00  0.00     0.052 A 
ATOM     85  C   UNL A   1      43.303  23.706  29.493  1.00  0.00     0.040 A 
ATOM     86  C   UNL A   1      45.480  24.723  29.306  1.00  0.00     0.060 A 
ATOM     87  Cl  UNL A   1      47.152  24.447  27.246  1.00  0.00    -0.084 Cl
ATOM     88  C   UNL A   1      44.299  24.521  30.004  1.00  0.00     0.124 A 
ATOM     89  F   UNL A   1      44.127  25.136  31.180  1.00  0.00    -0.207 F 
ENDBRANCH  81  82
ENDBRANCH  78  81
ENDBRANCH  72  74
ENDBRANCH  71  72
ENDBRANCH  70  71
ENDBRANCH   1  70
TORSDOF 16
ENDMDL
