MODEL 1
REMARK VINA RESULT:     -11.3      0.000      0.000
REMARK SMILES O=C(OCCOC(=O)[C@H]1CCCN(C(=O)c2cc(Br)ccc2Cl)C1)c1ccc(-c2c3nc(c(-c4cccc(S(=O)(=O)[O-])c4F)c4ccc([nH]4)c(-c4cccc(S(=O)(=O)[O-])c4F)c4nc(c(-c5cccc(S(=O)(=O)[O-])c5F)c5ccc2[nH]5)C=C4)C=C3)cc1
REMARK SMILES IDX 4 1 3 2 2 3 1 4 25 5 26 6 87 7 27 8 86 9 28 10 29 11 30 12
REMARK SMILES IDX 80 13 31 14 85 15 79 16 81 17 32 18 84 19 78 20 77 21 33 23
REMARK SMILES IDX 65 24 45 25 64 26 46 27 49 28 63 29 82 30 47 31 48 32 62 34
REMARK SMILES IDX 83 35 50 36 34 37 35 38 43 39 36 40 38 41 44 42 37 43 39 44
REMARK SMILES IDX 40 45 41 46 42 47 66 48 67 49 75 50 68 51 70 52 76 53 69 54
REMARK SMILES IDX 71 55 72 56 73 57 74 58 51 59 52 60 60 61 53 62 55 63 61 64
REMARK SMILES IDX 54 65 56 66 57 67 58 68 59 69 5 70 6 71 7 72 8 73 9 74 10 75
REMARK SMILES IDX 24 76 11 77 13 78 12 79 14 80 15 81 16 82 17 83 22 84 18 85
REMARK SMILES IDX 21 86 23 87 19 88 20 89
REMARK H PARENT 81 22 49 33
REMARK Flexibility Score: inf
ROOT
ATOM      1  C   UNL A   1      34.214  33.301  28.117  1.00  0.00     0.275 C 
ENDROOT
BRANCH   1   2
ATOM      2  O   UNL A   1      34.006  31.902  28.344  1.00  0.00    -0.458 OA
BRANCH   2   3
ATOM      3  C   UNL A   1      34.556  30.893  27.623  1.00  0.00     0.338 C 
ATOM      4  O   UNL A   1      33.894  30.327  26.758  1.00  0.00    -0.246 OA
BRANCH   3   5
ATOM      5  C   UNL A   1      35.854  30.296  28.037  1.00  0.00     0.060 A 
ATOM      6  C   UNL A   1      37.012  30.245  27.254  1.00  0.00     0.016 A 
ATOM      7  C   UNL A   1      35.878  29.710  29.308  1.00  0.00     0.016 A 
ATOM      8  C   UNL A   1      38.204  29.718  27.771  1.00  0.00     0.010 A 
ATOM      9  C   UNL A   1      37.066  29.196  29.828  1.00  0.00     0.010 A 
ATOM     10  C   UNL A   1      38.246  29.203  29.069  1.00  0.00    -0.014 A 
BRANCH  10  11
ATOM     11  C   UNL A   1      39.484  28.583  29.611  1.00  0.00     0.031 A 
ATOM     12  C   UNL A   1      40.162  29.231  30.787  1.00  0.00     0.074 A 
ATOM     13  C   UNL A   1      40.046  27.509  29.018  1.00  0.00     0.049 A 
ATOM     14  N   UNL A   1      41.235  28.860  31.435  1.00  0.00    -0.248 NA
ATOM     15  C   UNL A   1      39.555  30.473  31.298  1.00  0.00     0.031 C 
ATOM     16  C   UNL A   1      39.551  26.846  27.808  1.00  0.00     0.029 A 
ATOM     17  N   UNL A   1      41.201  26.824  29.315  1.00  0.00    -0.354 N 
ATOM     18  C   UNL A   1      41.434  29.822  32.416  1.00  0.00     0.074 A 
ATOM     19  C   UNL A   1      40.414  30.831  32.238  1.00  0.00     0.031 C 
ATOM     20  C   UNL A   1      40.428  25.898  27.431  1.00  0.00     0.029 A 
ATOM     21  C   UNL A   1      41.530  25.861  28.388  1.00  0.00     0.049 A 
ATOM     22  H   UNL A   1      41.742  27.006  30.118  1.00  0.00     0.167 HD
ATOM     23  C   UNL A   1      42.340  29.838  33.421  1.00  0.00     0.034 A 
ATOM     24  C   UNL A   1      42.598  25.041  28.326  1.00  0.00     0.034 A 
ATOM     25  C   UNL A   1      43.323  28.813  33.619  1.00  0.00     0.049 A 
ATOM     26  C   UNL A   1      43.586  25.055  29.466  1.00  0.00     0.074 A 
ATOM     27  C   UNL A   1      44.215  28.656  34.663  1.00  0.00     0.029 A 
ATOM     28  N   UNL A   1      43.544  27.766  32.737  1.00  0.00    -0.354 N 
ATOM     29  N   UNL A   1      43.611  25.825  30.527  1.00  0.00    -0.248 NA
ATOM     30  C   UNL A   1      44.647  24.037  29.440  1.00  0.00     0.031 C 
ATOM     31  C   UNL A   1      44.977  27.509  34.411  1.00  0.00     0.029 A 
ATOM     32  C   UNL A   1      44.557  26.954  33.211  1.00  0.00     0.049 A 
ATOM     33  H   UNL A   1      43.052  27.623  31.897  1.00  0.00     0.167 HD
ATOM     34  C   UNL A   1      44.637  25.338  31.328  1.00  0.00     0.074 A 
ATOM     35  C   UNL A   1      45.219  24.214  30.625  1.00  0.00     0.031 C 
ATOM     36  C   UNL A   1      45.059  25.783  32.538  1.00  0.00     0.034 A 
BRANCH  23  37
ATOM     37  C   UNL A   1      42.217  30.955  34.421  1.00  0.00     0.023 A 
ATOM     38  C   UNL A   1      41.356  30.783  35.527  1.00  0.00     0.012 A 
ATOM     39  C   UNL A   1      42.900  32.174  34.261  1.00  0.00     0.148 A 
ATOM     40  C   UNL A   1      41.130  31.825  36.424  1.00  0.00     0.002 A 
ATOM     41  C   UNL A   1      42.698  33.198  35.182  1.00  0.00     0.091 A 
ATOM     42  F   UNL A   1      43.696  32.329  33.194  1.00  0.00    -0.205 F 
ATOM     43  C   UNL A   1      41.803  33.029  36.253  1.00  0.00     0.022 A 
BRANCH  41  44
ATOM     44  S   UNL A   1      43.557  34.771  35.078  1.00  0.00     0.127 S 
ATOM     45  O   UNL A   1      43.058  35.461  36.266  1.00  0.00    -0.237 OA
ATOM     46  O   UNL A   1      44.961  34.365  35.156  1.00  0.00    -0.237 OA
ATOM     47  O   UNL A   1      43.169  35.352  33.801  1.00  0.00    -0.744 OA
ENDBRANCH  41  44
ENDBRANCH  23  37
BRANCH  24  48
ATOM     48  C   UNL A   1      42.714  24.033  27.234  1.00  0.00     0.023 A 
ATOM     49  C   UNL A   1      43.412  24.383  26.061  1.00  0.00     0.012 A 
ATOM     50  C   UNL A   1      42.148  22.748  27.337  1.00  0.00     0.148 A 
ATOM     51  C   UNL A   1      43.510  23.491  24.993  1.00  0.00     0.002 A 
ATOM     52  C   UNL A   1      42.280  21.849  26.280  1.00  0.00     0.091 A 
ATOM     53  F   UNL A   1      41.483  22.430  28.456  1.00  0.00    -0.205 F 
ATOM     54  C   UNL A   1      42.948  22.223  25.103  1.00  0.00     0.022 A 
BRANCH  52  55
ATOM     55  S   UNL A   1      41.671  20.159  26.370  1.00  0.00     0.127 S 
ATOM     56  O   UNL A   1      42.135  19.743  27.691  1.00  0.00    -0.237 OA
ATOM     57  O   UNL A   1      40.224  20.348  26.259  1.00  0.00    -0.237 OA
ATOM     58  O   UNL A   1      42.269  19.469  25.236  1.00  0.00    -0.744 OA
ENDBRANCH  52  55
ENDBRANCH  24  48
BRANCH  36  59
ATOM     59  C   UNL A   1      46.154  25.017  33.227  1.00  0.00     0.023 A 
ATOM     60  C   UNL A   1      47.478  25.492  33.180  1.00  0.00     0.012 A 
ATOM     61  C   UNL A   1      45.847  23.889  34.013  1.00  0.00     0.148 A 
ATOM     62  C   UNL A   1      48.484  24.845  33.895  1.00  0.00     0.002 A 
ATOM     63  C   UNL A   1      46.847  23.276  34.759  1.00  0.00     0.091 A 
ATOM     64  F   UNL A   1      44.585  23.435  34.022  1.00  0.00    -0.205 F 
ATOM     65  C   UNL A   1      48.167  23.749  34.695  1.00  0.00     0.022 A 
BRANCH  63  66
ATOM     66  S   UNL A   1      46.492  21.930  35.894  1.00  0.00     0.127 S 
ATOM     67  O   UNL A   1      46.118  20.856  34.978  1.00  0.00    -0.237 OA
ATOM     68  O   UNL A   1      47.777  21.736  36.569  1.00  0.00    -0.237 OA
ATOM     69  O   UNL A   1      45.430  22.419  36.764  1.00  0.00    -0.744 OA
ENDBRANCH  63  66
ENDBRANCH  36  59
ENDBRANCH  10  11
ENDBRANCH   3   5
ENDBRANCH   2   3
ENDBRANCH   1   2
BRANCH   1  70
ATOM     70  C   UNL A   1      32.943  34.151  28.076  1.00  0.00     0.274 C 
BRANCH  70  71
ATOM     71  O   UNL A   1      32.528  34.692  29.340  1.00  0.00    -0.462 OA
BRANCH  71  72
ATOM     72  C   UNL A   1      32.922  35.978  29.569  1.00  0.00     0.310 C 
ATOM     73  O   UNL A   1      32.656  36.913  28.820  1.00  0.00    -0.252 OA
BRANCH  72  74
ATOM     74  C   UNL A   1      33.839  36.098  30.780  1.00  0.00     0.119 C 
ATOM     75  C   UNL A   1      33.215  37.058  31.803  1.00  0.00     0.019 C 
ATOM     76  C   UNL A   1      34.111  34.749  31.437  1.00  0.00     0.135 C 
ATOM     77  C   UNL A   1      34.069  37.157  33.062  1.00  0.00     0.022 C 
ATOM     78  N   UNL A   1      34.817  34.839  32.721  1.00  0.00    -0.338 N 
ATOM     79  C   UNL A   1      34.289  35.789  33.690  1.00  0.00     0.120 C 
BRANCH  78  80
ATOM     80  C   UNL A   1      35.761  33.861  33.023  1.00  0.00     0.255 C 
ATOM     81  O   UNL A   1      35.462  32.734  33.410  1.00  0.00    -0.269 OA
BRANCH  80  82
ATOM     82  C   UNL A   1      37.198  34.128  32.903  1.00  0.00     0.059 A 
ATOM     83  C   UNL A   1      37.726  34.270  31.612  1.00  0.00     0.031 A 
ATOM     84  C   UNL A   1      38.044  34.085  34.017  1.00  0.00     0.053 A 
ATOM     85  C   UNL A   1      39.101  34.415  31.451  1.00  0.00     0.018 A 
ATOM     86  C   UNL A   1      39.423  34.237  33.842  1.00  0.00     0.022 A 
ATOM     87  Cl  UNL A   1      37.455  33.833  35.621  1.00  0.00    -0.083 Cl
ATOM     88  Br  UNL A   1      39.837  34.601  29.721  1.00  0.00    -0.051 Br
ATOM     89  C   UNL A   1      39.950  34.405  32.559  1.00  0.00     0.017 A 
ENDBRANCH  80  82
ENDBRANCH  78  80
ENDBRANCH  72  74
ENDBRANCH  71  72
ENDBRANCH  70  71
ENDBRANCH   1  70
TORSDOF 16
ENDMDL
MODEL 2
REMARK VINA RESULT:     -11.1      2.006      2.351
REMARK SMILES O=C(OCCOC(=O)[C@H]1CCCN(C(=O)c2cc(Br)ccc2Cl)C1)c1ccc(-c2c3nc(c(-c4cccc(S(=O)(=O)[O-])c4F)c4ccc([nH]4)c(-c4cccc(S(=O)(=O)[O-])c4F)c4nc(c(-c5cccc(S(=O)(=O)[O-])c5F)c5ccc2[nH]5)C=C4)C=C3)cc1
REMARK SMILES IDX 4 1 3 2 2 3 1 4 25 5 26 6 87 7 27 8 86 9 28 10 29 11 30 12
REMARK SMILES IDX 80 13 31 14 85 15 79 16 81 17 32 18 84 19 78 20 77 21 33 23
REMARK SMILES IDX 65 24 45 25 64 26 46 27 49 28 63 29 82 30 47 31 48 32 62 34
REMARK SMILES IDX 83 35 50 36 34 37 35 38 43 39 36 40 38 41 44 42 37 43 39 44
REMARK SMILES IDX 40 45 41 46 42 47 66 48 67 49 75 50 68 51 70 52 76 53 69 54
REMARK SMILES IDX 71 55 72 56 73 57 74 58 51 59 52 60 60 61 53 62 55 63 61 64
REMARK SMILES IDX 54 65 56 66 57 67 58 68 59 69 5 70 6 71 7 72 8 73 9 74 10 75
REMARK SMILES IDX 24 76 11 77 13 78 12 79 14 80 15 81 16 82 17 83 22 84 18 85
REMARK SMILES IDX 21 86 23 87 19 88 20 89
REMARK H PARENT 81 22 49 33
REMARK Flexibility Score: inf
ROOT
ATOM      1  C   UNL A   1      33.042  32.635  27.507  1.00  0.00     0.275 C 
ENDROOT
BRANCH   1   2
ATOM      2  O   UNL A   1      34.081  31.888  28.151  1.00  0.00    -0.458 OA
BRANCH   2   3
ATOM      3  C   UNL A   1      34.563  30.688  27.742  1.00  0.00     0.338 C 
ATOM      4  O   UNL A   1      33.856  29.938  27.075  1.00  0.00    -0.246 OA
BRANCH   3   5
ATOM      5  C   UNL A   1      35.837  30.161  28.302  1.00  0.00     0.060 A 
ATOM      6  C   UNL A   1      35.995  29.601  29.575  1.00  0.00     0.016 A 
ATOM      7  C   UNL A   1      36.962  30.281  27.479  1.00  0.00     0.016 A 
ATOM      8  C   UNL A   1      37.230  29.071  29.976  1.00  0.00     0.010 A 
ATOM      9  C   UNL A   1      38.188  29.744  27.872  1.00  0.00     0.010 A 
ATOM     10  C   UNL A   1      38.334  29.124  29.121  1.00  0.00    -0.014 A 
BRANCH  10  11
ATOM     11  C   UNL A   1      39.666  28.624  29.555  1.00  0.00     0.031 A 
ATOM     12  C   UNL A   1      40.422  29.398  30.600  1.00  0.00     0.074 A 
ATOM     13  C   UNL A   1      40.234  27.548  28.971  1.00  0.00     0.049 A 
ATOM     14  N   UNL A   1      41.585  29.145  31.142  1.00  0.00    -0.248 NA
ATOM     15  C   UNL A   1      39.788  30.632  31.096  1.00  0.00     0.031 C 
ATOM     16  C   UNL A   1      39.656  26.770  27.872  1.00  0.00     0.029 A 
ATOM     17  N   UNL A   1      41.460  26.962  29.177  1.00  0.00    -0.354 N 
ATOM     18  C   UNL A   1      41.821  30.186  32.029  1.00  0.00     0.074 A 
ATOM     19  C   UNL A   1      40.719  31.111  31.905  1.00  0.00     0.031 C 
ATOM     20  C   UNL A   1      40.551  25.855  27.459  1.00  0.00     0.029 A 
ATOM     21  C   UNL A   1      41.753  25.958  28.281  1.00  0.00     0.049 A 
ATOM     22  H   UNL A   1      42.073  27.236  29.898  1.00  0.00     0.167 HD
ATOM     23  C   UNL A   1      42.830  30.332  32.919  1.00  0.00     0.034 A 
ATOM     24  C   UNL A   1      42.863  25.205  28.150  1.00  0.00     0.034 A 
ATOM     25  C   UNL A   1      43.900  29.389  33.068  1.00  0.00     0.049 A 
ATOM     26  C   UNL A   1      43.968  25.365  29.164  1.00  0.00     0.074 A 
ATOM     27  C   UNL A   1      44.911  29.365  34.009  1.00  0.00     0.029 A 
ATOM     28  N   UNL A   1      44.096  28.297  32.235  1.00  0.00    -0.354 N 
ATOM     29  N   UNL A   1      44.056  26.209  30.163  1.00  0.00    -0.248 NA
ATOM     30  C   UNL A   1      45.090  24.417  29.081  1.00  0.00     0.031 C 
ATOM     31  C   UNL A   1      45.721  28.254  33.746  1.00  0.00     0.029 A 
ATOM     32  C   UNL A   1      45.211  27.588  32.640  1.00  0.00     0.049 A 
ATOM     33  H   UNL A   1      43.525  28.062  31.469  1.00  0.00     0.167 HD
ATOM     34  C   UNL A   1      45.197  25.849  30.870  1.00  0.00     0.074 A 
ATOM     35  C   UNL A   1      45.776  24.716  30.178  1.00  0.00     0.031 C 
ATOM     36  C   UNL A   1      45.718  26.406  31.991  1.00  0.00     0.034 A 
BRANCH  23  37
ATOM     37  C   UNL A   1      42.740  31.509  33.852  1.00  0.00     0.023 A 
ATOM     38  C   UNL A   1      43.340  32.727  33.466  1.00  0.00     0.012 A 
ATOM     39  C   UNL A   1      42.115  31.414  35.109  1.00  0.00     0.148 A 
ATOM     40  C   UNL A   1      43.372  33.814  34.337  1.00  0.00     0.002 A 
ATOM     41  C   UNL A   1      42.119  32.516  35.959  1.00  0.00     0.091 A 
ATOM     42  F   UNL A   1      41.570  30.244  35.469  1.00  0.00    -0.205 F 
ATOM     43  C   UNL A   1      42.759  33.709  35.581  1.00  0.00     0.022 A 
BRANCH  41  44
ATOM     44  S   UNL A   1      41.312  32.498  37.563  1.00  0.00     0.127 S 
ATOM     45  O   UNL A   1      42.117  31.519  38.291  1.00  0.00    -0.237 OA
ATOM     46  O   UNL A   1      41.482  33.881  38.012  1.00  0.00    -0.237 OA
ATOM     47  O   UNL A   1      39.930  32.115  37.308  1.00  0.00    -0.744 OA
ENDBRANCH  41  44
ENDBRANCH  23  37
BRANCH  24  48
ATOM     48  C   UNL A   1      42.929  24.130  27.119  1.00  0.00     0.023 A 
ATOM     49  C   UNL A   1      43.660  24.369  25.938  1.00  0.00     0.012 A 
ATOM     50  C   UNL A   1      42.284  22.890  27.287  1.00  0.00     0.148 A 
ATOM     51  C   UNL A   1      43.715  23.412  24.925  1.00  0.00     0.002 A 
ATOM     52  C   UNL A   1      42.372  21.924  26.285  1.00  0.00     0.091 A 
ATOM     53  F   UNL A   1      41.588  22.678  28.413  1.00  0.00    -0.205 F 
ATOM     54  C   UNL A   1      43.074  22.189  25.099  1.00  0.00     0.022 A 
BRANCH  52  55
ATOM     55  S   UNL A   1      41.660  20.283  26.463  1.00  0.00     0.127 S 
ATOM     56  O   UNL A   1      42.162  19.878  27.773  1.00  0.00    -0.237 OA
ATOM     57  O   UNL A   1      40.224  20.565  26.418  1.00  0.00    -0.237 OA
ATOM     58  O   UNL A   1      42.152  19.519  25.325  1.00  0.00    -0.744 OA
ENDBRANCH  52  55
ENDBRANCH  24  48
BRANCH  36  59
ATOM     59  C   UNL A   1      46.934  25.763  32.597  1.00  0.00     0.023 A 
ATOM     60  C   UNL A   1      46.788  24.844  33.653  1.00  0.00     0.012 A 
ATOM     61  C   UNL A   1      48.209  25.990  32.043  1.00  0.00     0.148 A 
ATOM     62  C   UNL A   1      47.899  24.170  34.158  1.00  0.00     0.002 A 
ATOM     63  C   UNL A   1      49.304  25.279  32.522  1.00  0.00     0.091 A 
ATOM     64  F   UNL A   1      48.331  26.890  31.057  1.00  0.00    -0.205 F 
ATOM     65  C   UNL A   1      49.151  24.374  33.584  1.00  0.00     0.022 A 
BRANCH  63  66
ATOM     66  S   UNL A   1      50.925  25.411  31.759  1.00  0.00     0.127 S 
ATOM     67  O   UNL A   1      51.290  26.792  32.066  1.00  0.00    -0.237 OA
ATOM     68  O   UNL A   1      51.700  24.401  32.482  1.00  0.00    -0.237 OA
ATOM     69  O   UNL A   1      50.721  25.108  30.348  1.00  0.00    -0.744 OA
ENDBRANCH  63  66
ENDBRANCH  36  59
ENDBRANCH  10  11
ENDBRANCH   3   5
ENDBRANCH   2   3
ENDBRANCH   1   2
BRANCH   1  70
ATOM     70  C   UNL A   1      32.961  34.111  27.898  1.00  0.00     0.274 C 
BRANCH  70  71
ATOM     71  O   UNL A   1      32.836  34.365  29.306  1.00  0.00    -0.462 OA
BRANCH  71  72
ATOM     72  C   UNL A   1      32.871  35.684  29.655  1.00  0.00     0.310 C 
ATOM     73  O   UNL A   1      32.312  36.570  29.017  1.00  0.00    -0.252 OA
BRANCH  72  74
ATOM     74  C   UNL A   1      33.791  35.946  30.842  1.00  0.00     0.119 C 
ATOM     75  C   UNL A   1      33.163  37.013  31.751  1.00  0.00     0.019 C 
ATOM     76  C   UNL A   1      34.073  34.682  31.647  1.00  0.00     0.135 C 
ATOM     77  C   UNL A   1      34.019  37.260  32.988  1.00  0.00     0.022 C 
ATOM     78  N   UNL A   1      34.780  34.923  32.910  1.00  0.00    -0.338 N 
ATOM     79  C   UNL A   1      34.249  35.974  33.767  1.00  0.00     0.120 C 
BRANCH  78  80
ATOM     80  C   UNL A   1      35.731  33.991  33.319  1.00  0.00     0.255 C 
ATOM     81  O   UNL A   1      35.442  32.932  33.871  1.00  0.00    -0.269 OA
BRANCH  80  82
ATOM     82  C   UNL A   1      37.165  34.228  33.118  1.00  0.00     0.059 A 
ATOM     83  C   UNL A   1      37.630  34.310  31.798  1.00  0.00     0.031 A 
ATOM     84  C   UNL A   1      38.064  34.216  34.191  1.00  0.00     0.053 A 
ATOM     85  C   UNL A   1      38.997  34.424  31.565  1.00  0.00     0.018 A 
ATOM     86  C   UNL A   1      39.434  34.337  33.942  1.00  0.00     0.022 A 
ATOM     87  Cl  UNL A   1      37.551  34.038  35.830  1.00  0.00    -0.083 Cl
ATOM     88  Br  UNL A   1      39.650  34.528  29.795  1.00  0.00    -0.051 Br
ATOM     89  C   UNL A   1      39.900  34.444  32.629  1.00  0.00     0.017 A 
ENDBRANCH  80  82
ENDBRANCH  78  80
ENDBRANCH  72  74
ENDBRANCH  71  72
ENDBRANCH  70  71
ENDBRANCH   1  70
TORSDOF 16
ENDMDL
MODEL 3
REMARK VINA RESULT:     -10.9      4.164      6.678
REMARK SMILES O=C(OCCOC(=O)[C@H]1CCCN(C(=O)c2cc(Br)ccc2Cl)C1)c1ccc(-c2c3nc(c(-c4cccc(S(=O)(=O)[O-])c4F)c4ccc([nH]4)c(-c4cccc(S(=O)(=O)[O-])c4F)c4nc(c(-c5cccc(S(=O)(=O)[O-])c5F)c5ccc2[nH]5)C=C4)C=C3)cc1
REMARK SMILES IDX 4 1 3 2 2 3 1 4 25 5 26 6 87 7 27 8 86 9 28 10 29 11 30 12
REMARK SMILES IDX 80 13 31 14 85 15 79 16 81 17 32 18 84 19 78 20 77 21 33 23
REMARK SMILES IDX 65 24 45 25 64 26 46 27 49 28 63 29 82 30 47 31 48 32 62 34
REMARK SMILES IDX 83 35 50 36 34 37 35 38 43 39 36 40 38 41 44 42 37 43 39 44
REMARK SMILES IDX 40 45 41 46 42 47 66 48 67 49 75 50 68 51 70 52 76 53 69 54
REMARK SMILES IDX 71 55 72 56 73 57 74 58 51 59 52 60 60 61 53 62 55 63 61 64
REMARK SMILES IDX 54 65 56 66 57 67 58 68 59 69 5 70 6 71 7 72 8 73 9 74 10 75
REMARK SMILES IDX 24 76 11 77 13 78 12 79 14 80 15 81 16 82 17 83 22 84 18 85
REMARK SMILES IDX 21 86 23 87 19 88 20 89
REMARK H PARENT 81 22 49 33
REMARK Flexibility Score: inf
ROOT
ATOM      1  C   UNL A   1      32.232  30.460  26.784  1.00  0.00     0.275 C 
ENDROOT
BRANCH   1   2
ATOM      2  O   UNL A   1      33.564  30.073  27.146  1.00  0.00    -0.458 OA
BRANCH   2   3
ATOM      3  C   UNL A   1      34.452  30.838  27.828  1.00  0.00     0.338 C 
ATOM      4  O   UNL A   1      34.238  32.038  27.980  1.00  0.00    -0.246 OA
BRANCH   3   5
ATOM      5  C   UNL A   1      35.797  30.301  28.171  1.00  0.00     0.060 A 
ATOM      6  C   UNL A   1      36.930  30.364  27.353  1.00  0.00     0.016 A 
ATOM      7  C   UNL A   1      35.897  29.653  29.408  1.00  0.00     0.016 A 
ATOM      8  C   UNL A   1      38.167  29.885  27.807  1.00  0.00     0.010 A 
ATOM      9  C   UNL A   1      37.130  29.186  29.864  1.00  0.00     0.010 A 
ATOM     10  C   UNL A   1      38.282  29.306  29.073  1.00  0.00    -0.014 A 
BRANCH  10  11
ATOM     11  C   UNL A   1      39.572  28.736  29.544  1.00  0.00     0.031 A 
ATOM     12  C   UNL A   1      40.341  29.471  30.607  1.00  0.00     0.074 A 
ATOM     13  C   UNL A   1      40.095  27.628  28.979  1.00  0.00     0.049 A 
ATOM     14  N   UNL A   1      41.473  29.156  31.182  1.00  0.00    -0.248 NA
ATOM     15  C   UNL A   1      39.763  30.740  31.083  1.00  0.00     0.031 C 
ATOM     16  C   UNL A   1      39.505  26.878  27.867  1.00  0.00     0.029 A 
ATOM     17  N   UNL A   1      41.282  26.976  29.219  1.00  0.00    -0.354 N 
ATOM     18  C   UNL A   1      41.743  30.186  32.072  1.00  0.00     0.074 A 
ATOM     19  C   UNL A   1      40.697  31.171  31.916  1.00  0.00     0.031 C 
ATOM     20  C   UNL A   1      40.359  25.913  27.480  1.00  0.00     0.029 A 
ATOM     21  C   UNL A   1      41.542  25.953  28.335  1.00  0.00     0.049 A 
ATOM     22  H   UNL A   1      41.889  27.218  29.956  1.00  0.00     0.167 HD
ATOM     23  C   UNL A   1      42.734  30.280  32.989  1.00  0.00     0.034 A 
ATOM     24  C   UNL A   1      42.612  25.139  28.235  1.00  0.00     0.034 A 
ATOM     25  C   UNL A   1      43.745  29.280  33.169  1.00  0.00     0.049 A 
ATOM     26  C   UNL A   1      43.697  25.242  29.279  1.00  0.00     0.074 A 
ATOM     27  C   UNL A   1      44.728  29.204  34.138  1.00  0.00     0.029 A 
ATOM     28  N   UNL A   1      43.904  28.176  32.345  1.00  0.00    -0.354 N 
ATOM     29  N   UNL A   1      43.804  26.085  30.277  1.00  0.00    -0.248 NA
ATOM     30  C   UNL A   1      44.766  24.234  29.230  1.00  0.00     0.031 C 
ATOM     31  C   UNL A   1      45.482  28.049  33.899  1.00  0.00     0.029 A 
ATOM     32  C   UNL A   1      44.966  27.408  32.782  1.00  0.00     0.049 A 
ATOM     33  H   UNL A   1      43.341  27.969  31.564  1.00  0.00     0.167 HD
ATOM     34  C   UNL A   1      44.904  25.665  31.016  1.00  0.00     0.074 A 
ATOM     35  C   UNL A   1      45.438  24.498  30.343  1.00  0.00     0.031 C 
ATOM     36  C   UNL A   1      45.424  26.197  32.150  1.00  0.00     0.034 A 
BRANCH  23  37
ATOM     37  C   UNL A   1      42.683  31.464  33.916  1.00  0.00     0.023 A 
ATOM     38  C   UNL A   1      43.310  32.665  33.516  1.00  0.00     0.012 A 
ATOM     39  C   UNL A   1      42.070  31.392  35.180  1.00  0.00     0.148 A 
ATOM     40  C   UNL A   1      43.379  33.755  34.381  1.00  0.00     0.002 A 
ATOM     41  C   UNL A   1      42.111  32.498  36.023  1.00  0.00     0.091 A 
ATOM     42  F   UNL A   1      41.500  30.238  35.553  1.00  0.00    -0.205 F 
ATOM     43  C   UNL A   1      42.777  33.672  35.632  1.00  0.00     0.022 A 
BRANCH  41  44
ATOM     44  S   UNL A   1      41.321  32.509  37.636  1.00  0.00     0.127 S 
ATOM     45  O   UNL A   1      41.426  33.919  38.008  1.00  0.00    -0.237 OA
ATOM     46  O   UNL A   1      39.963  32.064  37.320  1.00  0.00    -0.237 OA
ATOM     47  O   UNL A   1      42.083  31.580  38.458  1.00  0.00    -0.744 OA
ENDBRANCH  41  44
ENDBRANCH  23  37
BRANCH  24  48
ATOM     48  C   UNL A   1      42.646  24.058  27.210  1.00  0.00     0.023 A 
ATOM     49  C   UNL A   1      43.285  24.313  25.979  1.00  0.00     0.012 A 
ATOM     50  C   UNL A   1      42.060  22.797  27.430  1.00  0.00     0.148 A 
ATOM     51  C   UNL A   1      43.305  23.349  24.971  1.00  0.00     0.002 A 
ATOM     52  C   UNL A   1      42.115  21.826  26.431  1.00  0.00     0.091 A 
ATOM     53  F   UNL A   1      41.453  22.571  28.603  1.00  0.00    -0.205 F 
ATOM     54  C   UNL A   1      42.723  22.105  25.197  1.00  0.00     0.022 A 
BRANCH  52  55
ATOM     55  S   UNL A   1      41.478  20.162  26.669  1.00  0.00     0.127 S 
ATOM     56  O   UNL A   1      40.047  20.408  26.827  1.00  0.00    -0.237 OA
ATOM     57  O   UNL A   1      41.852  19.508  25.414  1.00  0.00    -0.237 OA
ATOM     58  O   UNL A   1      42.171  19.643  27.840  1.00  0.00    -0.744 OA
ENDBRANCH  52  55
ENDBRANCH  24  48
BRANCH  36  59
ATOM     59  C   UNL A   1      46.586  25.491  32.791  1.00  0.00     0.023 A 
ATOM     60  C   UNL A   1      47.902  25.884  32.481  1.00  0.00     0.012 A 
ATOM     61  C   UNL A   1      46.367  24.514  33.782  1.00  0.00     0.148 A 
ATOM     62  C   UNL A   1      48.984  25.303  33.140  1.00  0.00     0.002 A 
ATOM     63  C   UNL A   1      47.449  23.972  34.466  1.00  0.00     0.091 A 
ATOM     64  F   UNL A   1      45.108  24.133  34.042  1.00  0.00    -0.205 F 
ATOM     65  C   UNL A   1      48.758  24.361  34.142  1.00  0.00     0.022 A 
BRANCH  63  66
ATOM     66  S   UNL A   1      47.227  22.837  35.841  1.00  0.00     0.127 S 
ATOM     67  O   UNL A   1      46.428  21.778  35.230  1.00  0.00    -0.237 OA
ATOM     68  O   UNL A   1      48.604  22.454  36.161  1.00  0.00    -0.237 OA
ATOM     69  O   UNL A   1      46.565  23.608  36.885  1.00  0.00    -0.744 OA
ENDBRANCH  63  66
ENDBRANCH  36  59
ENDBRANCH  10  11
ENDBRANCH   3   5
ENDBRANCH   2   3
ENDBRANCH   1   2
BRANCH   1  70
ATOM     70  C   UNL A   1      31.724  29.886  25.460  1.00  0.00     0.274 C 
BRANCH  70  71
ATOM     71  O   UNL A   1      32.714  29.218  24.663  1.00  0.00    -0.462 OA
BRANCH  71  72
ATOM     72  C   UNL A   1      32.214  28.487  23.624  1.00  0.00     0.310 C 
ATOM     73  O   UNL A   1      31.815  28.982  22.575  1.00  0.00    -0.252 OA
BRANCH  72  74
ATOM     74  C   UNL A   1      32.083  27.008  23.966  1.00  0.00     0.119 C 
ATOM     75  C   UNL A   1      30.601  26.659  24.175  1.00  0.00     0.019 C 
ATOM     76  C   UNL A   1      32.678  26.108  22.888  1.00  0.00     0.135 C 
ATOM     77  C   UNL A   1      30.417  25.172  24.455  1.00  0.00     0.022 C 
ATOM     78  N   UNL A   1      32.391  24.681  23.075  1.00  0.00    -0.338 N 
ATOM     79  C   UNL A   1      31.005  24.322  23.340  1.00  0.00     0.120 C 
BRANCH  78  80
ATOM     80  C   UNL A   1      33.384  23.762  22.742  1.00  0.00     0.255 C 
ATOM     81  O   UNL A   1      33.705  23.507  21.585  1.00  0.00    -0.269 OA
BRANCH  80  82
ATOM     82  C   UNL A   1      34.112  23.021  23.779  1.00  0.00     0.059 A 
ATOM     83  C   UNL A   1      35.280  23.603  24.292  1.00  0.00     0.031 A 
ATOM     84  C   UNL A   1      33.753  21.715  24.132  1.00  0.00     0.053 A 
ATOM     85  C   UNL A   1      36.057  22.884  25.195  1.00  0.00     0.018 A 
ATOM     86  C   UNL A   1      34.539  21.007  25.044  1.00  0.00     0.022 A 
ATOM     87  Cl  UNL A   1      32.369  20.922  23.469  1.00  0.00    -0.083 Cl
ATOM     88  Br  UNL A   1      37.640  23.643  25.895  1.00  0.00    -0.051 Br
ATOM     89  C   UNL A   1      35.691  21.593  25.578  1.00  0.00     0.017 A 
ENDBRANCH  80  82
ENDBRANCH  78  80
ENDBRANCH  72  74
ENDBRANCH  71  72
ENDBRANCH  70  71
ENDBRANCH   1  70
TORSDOF 16
ENDMDL
