MODEL 1
REMARK VINA RESULT:     -11.1      0.000      0.000
REMARK SMILES CCc1cc(OCCC(=O)OCCOC(=O)c2ccc(-c3c4nc(c(-c5cccc(S(=O)(=O)[O-])c5F)c5ccc([nH]5)c(-c5cccc(S(=O)(=O)[O-])c5F)c5nc(c(-c6cccc(S(=O)(=O)[O-])c6F)c6ccc3[nH]6)C=C5)C=C4)cc2)nc(-c2cnccn2)n1
REMARK SMILES IDX 12 1 11 2 9 3 10 4 8 5 7 6 6 7 5 8 3 9 4 10 88 11 81 12
REMARK SMILES IDX 80 13 2 14 1 15 82 16 83 17 87 18 84 19 86 20 85 21 13 22
REMARK SMILES IDX 14 23 15 24 16 25 17 26 18 27 79 28 19 29 78 30 20 31 21 32
REMARK SMILES IDX 22 33 72 34 23 35 77 36 71 37 73 38 24 39 76 40 70 41 69 42
REMARK SMILES IDX 25 44 57 45 37 46 56 47 38 48 41 49 55 50 74 51 39 52 40 53
REMARK SMILES IDX 54 55 75 56 42 57 26 58 27 59 35 60 28 61 30 62 36 63 29 64
REMARK SMILES IDX 31 65 32 66 33 67 34 68 58 69 59 70 67 71 60 72 62 73 68 74
REMARK SMILES IDX 61 75 63 76 64 77 65 78 66 79 43 80 44 81 52 82 45 83 47 84
REMARK SMILES IDX 53 85 46 86 48 87 49 88 50 89 51 90
REMARK H PARENT 73 43 41 54
REMARK Flexibility Score: inf
ROOT
ATOM      1  C   UNL A   1      36.337  20.738  24.927  1.00  0.00     0.274 C 
ENDROOT
BRANCH   1   2
ATOM      2  O   UNL A   1      36.093  22.069  25.422  1.00  0.00    -0.462 OA
BRANCH   2   3
ATOM      3  C   UNL A   1      35.818  23.031  24.514  1.00  0.00     0.309 C 
ATOM      4  O   UNL A   1      36.079  22.958  23.320  1.00  0.00    -0.252 OA
BRANCH   3   5
ATOM      5  C   UNL A   1      35.185  24.250  25.135  1.00  0.00     0.164 C 
BRANCH   5   6
ATOM      6  C   UNL A   1      33.994  24.839  24.381  1.00  0.00     0.243 C 
BRANCH   6   7
ATOM      7  O   UNL A   1      33.016  25.426  25.242  1.00  0.00    -0.477 OA
BRANCH   7   8
ATOM      8  C   UNL A   1      32.909  26.775  25.398  1.00  0.00     0.217 A 
ATOM      9  C   UNL A   1      33.429  28.923  26.263  1.00  0.00     0.048 A 
ATOM     10  C   UNL A   1      33.477  27.542  26.396  1.00  0.00     0.092 A 
ATOM     11  N   UNL A   1      32.738  29.492  25.276  1.00  0.00    -0.231 NA
ATOM     12  C   UNL A   1      32.098  28.672  24.426  1.00  0.00     0.183 A 
ATOM     13  N   UNL A   1      32.159  27.330  24.436  1.00  0.00    -0.192 NA
BRANCH   9  14
ATOM     14  C   UNL A   1      34.247  29.844  27.132  1.00  0.00     0.053 C 
ATOM     15  C   UNL A   1      35.640  29.373  27.527  1.00  0.00     0.011 C 
ENDBRANCH   9  14
BRANCH  12  16
ATOM     16  C   UNL A   1      31.063  29.319  23.635  1.00  0.00     0.126 A 
ATOM     17  C   UNL A   1      30.723  28.785  22.395  1.00  0.00     0.143 A 
ATOM     18  N   UNL A   1      30.301  30.282  24.228  1.00  0.00    -0.250 NA
ATOM     19  N   UNL A   1      29.614  29.158  21.711  1.00  0.00    -0.261 NA
ATOM     20  C   UNL A   1      29.197  30.649  23.548  1.00  0.00     0.132 A 
ATOM     21  C   UNL A   1      28.854  30.090  22.327  1.00  0.00     0.131 A 
ENDBRANCH  12  16
ENDBRANCH   7   8
ENDBRANCH   6   7
ENDBRANCH   5   6
ENDBRANCH   3   5
ENDBRANCH   2   3
ENDBRANCH   1   2
BRANCH   1  22
ATOM     22  C   UNL A   1      37.811  20.378  25.059  1.00  0.00     0.275 C 
BRANCH  22  23
ATOM     23  O   UNL A   1      38.564  21.486  25.513  1.00  0.00    -0.458 OA
BRANCH  23  24
ATOM     24  C   UNL A   1      39.538  21.186  26.397  1.00  0.00     0.338 C 
ATOM     25  O   UNL A   1      39.977  20.118  26.774  1.00  0.00    -0.246 OA
BRANCH  24  26
ATOM     26  C   UNL A   1      39.967  22.460  26.890  1.00  0.00     0.060 A 
ATOM     27  C   UNL A   1      41.020  22.504  27.801  1.00  0.00     0.016 A 
ATOM     28  C   UNL A   1      39.398  23.574  26.277  1.00  0.00     0.016 A 
ATOM     29  C   UNL A   1      41.539  23.735  28.106  1.00  0.00     0.010 A 
ATOM     30  C   UNL A   1      39.955  24.796  26.543  1.00  0.00     0.010 A 
ATOM     31  C   UNL A   1      41.012  24.862  27.460  1.00  0.00    -0.014 A 
BRANCH  31  32
ATOM     32  C   UNL A   1      41.572  26.166  27.775  1.00  0.00     0.031 A 
ATOM     33  C   UNL A   1      42.933  26.469  27.259  1.00  0.00     0.074 A 
ATOM     34  C   UNL A   1      40.820  26.989  28.519  1.00  0.00     0.049 A 
ATOM     35  N   UNL A   1      43.628  27.557  27.395  1.00  0.00    -0.248 NA
ATOM     36  C   UNL A   1      43.614  25.400  26.503  1.00  0.00     0.031 C 
ATOM     37  C   UNL A   1      39.493  26.662  29.058  1.00  0.00     0.029 A 
ATOM     38  N   UNL A   1      41.057  28.255  28.951  1.00  0.00    -0.354 N 
ATOM     39  C   UNL A   1      44.839  27.297  26.776  1.00  0.00     0.074 A 
ATOM     40  C   UNL A   1      44.801  25.943  26.279  1.00  0.00     0.031 C 
ATOM     41  C   UNL A   1      39.028  27.718  29.742  1.00  0.00     0.029 A 
ATOM     42  C   UNL A   1      40.039  28.765  29.716  1.00  0.00     0.049 A 
ATOM     43  H   UNL A   1      41.877  28.756  28.738  1.00  0.00     0.167 HD
ATOM     44  C   UNL A   1      45.882  28.142  26.640  1.00  0.00     0.034 A 
ATOM     45  C   UNL A   1      39.963  29.956  30.331  1.00  0.00     0.034 A 
ATOM     46  C   UNL A   1      45.849  29.476  27.168  1.00  0.00     0.049 A 
ATOM     47  C   UNL A   1      41.123  30.887  30.125  1.00  0.00     0.074 A 
ATOM     48  C   UNL A   1      46.807  30.465  27.088  1.00  0.00     0.029 A 
ATOM     49  N   UNL A   1      44.783  29.999  27.897  1.00  0.00    -0.354 N 
ATOM     50  N   UNL A   1      42.233  30.679  29.452  1.00  0.00    -0.248 NA
ATOM     51  C   UNL A   1      41.014  32.218  30.723  1.00  0.00     0.031 C 
ATOM     52  C   UNL A   1      46.334  31.573  27.802  1.00  0.00     0.029 A 
ATOM     53  C   UNL A   1      45.061  31.293  28.285  1.00  0.00     0.049 A 
ATOM     54  H   UNL A   1      43.951  29.514  28.105  1.00  0.00     0.167 HD
ATOM     55  C   UNL A   1      42.952  31.860  29.523  1.00  0.00     0.074 A 
ATOM     56  C   UNL A   1      42.127  32.789  30.281  1.00  0.00     0.031 C 
ATOM     57  C   UNL A   1      44.180  32.162  29.029  1.00  0.00     0.034 A 
BRANCH  44  58
ATOM     58  C   UNL A   1      47.102  27.629  25.926  1.00  0.00     0.023 A 
ATOM     59  C   UNL A   1      48.120  26.963  26.643  1.00  0.00     0.012 A 
ATOM     60  C   UNL A   1      47.252  27.826  24.541  1.00  0.00     0.148 A 
ATOM     61  C   UNL A   1      49.280  26.534  25.999  1.00  0.00     0.002 A 
ATOM     62  C   UNL A   1      48.388  27.352  23.897  1.00  0.00     0.091 A 
ATOM     63  F   UNL A   1      46.295  28.498  23.884  1.00  0.00    -0.205 F 
ATOM     64  C   UNL A   1      49.409  26.720  24.625  1.00  0.00     0.022 A 
BRANCH  62  65
ATOM     65  S   UNL A   1      48.619  27.480  22.121  1.00  0.00     0.127 S 
ATOM     66  O   UNL A   1      49.811  28.322  22.038  1.00  0.00    -0.237 OA
ATOM     67  O   UNL A   1      48.831  26.083  21.742  1.00  0.00    -0.237 OA
ATOM     68  O   UNL A   1      47.400  28.077  21.596  1.00  0.00    -0.744 OA
ENDBRANCH  62  65
ENDBRANCH  44  58
BRANCH  45  69
ATOM     69  C   UNL A   1      38.754  30.313  31.119  1.00  0.00     0.023 A 
ATOM     70  C   UNL A   1      38.637  29.890  32.457  1.00  0.00     0.012 A 
ATOM     71  C   UNL A   1      37.753  31.140  30.571  1.00  0.00     0.148 A 
ATOM     72  C   UNL A   1      37.531  30.261  33.224  1.00  0.00     0.002 A 
ATOM     73  C   UNL A   1      36.684  31.552  31.357  1.00  0.00     0.091 A 
ATOM     74  F   UNL A   1      37.881  31.531  29.295  1.00  0.00    -0.205 F 
ATOM     75  C   UNL A   1      36.562  31.100  32.680  1.00  0.00     0.022 A 
BRANCH  73  76
ATOM     76  S   UNL A   1      35.465  32.738  30.777  1.00  0.00     0.127 S 
ATOM     77  O   UNL A   1      35.224  32.275  29.413  1.00  0.00    -0.237 OA
ATOM     78  O   UNL A   1      34.358  32.516  31.709  1.00  0.00    -0.237 OA
ATOM     79  O   UNL A   1      36.099  34.044  30.900  1.00  0.00    -0.744 OA
ENDBRANCH  73  76
ENDBRANCH  45  69
BRANCH  57  80
ATOM     80  C   UNL A   1      44.670  33.556  29.290  1.00  0.00     0.023 A 
ATOM     81  C   UNL A   1      45.253  33.876  30.532  1.00  0.00     0.012 A 
ATOM     82  C   UNL A   1      44.589  34.531  28.281  1.00  0.00     0.148 A 
ATOM     83  C   UNL A   1      45.701  35.168  30.783  1.00  0.00     0.002 A 
ATOM     84  C   UNL A   1      45.096  35.799  28.516  1.00  0.00     0.091 A 
ATOM     85  F   UNL A   1      44.013  34.204  27.115  1.00  0.00    -0.205 F 
ATOM     86  C   UNL A   1      45.633  36.126  29.773  1.00  0.00     0.022 A 
BRANCH  84  87
ATOM     87  S   UNL A   1      45.154  37.053  27.237  1.00  0.00     0.127 S 
ATOM     88  O   UNL A   1      43.735  37.262  26.960  1.00  0.00    -0.237 OA
ATOM     89  O   UNL A   1      45.814  38.164  27.923  1.00  0.00    -0.237 OA
ATOM     90  O   UNL A   1      45.928  36.475  26.145  1.00  0.00    -0.744 OA
ENDBRANCH  84  87
ENDBRANCH  57  80
ENDBRANCH  31  32
ENDBRANCH  24  26
ENDBRANCH  23  24
ENDBRANCH  22  23
ENDBRANCH   1  22
TORSDOF 19
ENDMDL
MODEL 2
REMARK VINA RESULT:     -11.0      2.899      4.454
REMARK SMILES CCc1cc(OCCC(=O)OCCOC(=O)c2ccc(-c3c4nc(c(-c5cccc(S(=O)(=O)[O-])c5F)c5ccc([nH]5)c(-c5cccc(S(=O)(=O)[O-])c5F)c5nc(c(-c6cccc(S(=O)(=O)[O-])c6F)c6ccc3[nH]6)C=C5)C=C4)cc2)nc(-c2cnccn2)n1
REMARK SMILES IDX 12 1 11 2 9 3 10 4 8 5 7 6 6 7 5 8 3 9 4 10 88 11 81 12
REMARK SMILES IDX 80 13 2 14 1 15 82 16 83 17 87 18 84 19 86 20 85 21 13 22
REMARK SMILES IDX 14 23 15 24 16 25 17 26 18 27 79 28 19 29 78 30 20 31 21 32
REMARK SMILES IDX 22 33 72 34 23 35 77 36 71 37 73 38 24 39 76 40 70 41 69 42
REMARK SMILES IDX 25 44 57 45 37 46 56 47 38 48 41 49 55 50 74 51 39 52 40 53
REMARK SMILES IDX 54 55 75 56 42 57 26 58 27 59 35 60 28 61 30 62 36 63 29 64
REMARK SMILES IDX 31 65 32 66 33 67 34 68 58 69 59 70 67 71 60 72 62 73 68 74
REMARK SMILES IDX 61 75 63 76 64 77 65 78 66 79 43 80 44 81 52 82 45 83 47 84
REMARK SMILES IDX 53 85 46 86 48 87 49 88 50 89 51 90
REMARK H PARENT 73 43 41 54
REMARK Flexibility Score: inf
ROOT
ATOM      1  C   UNL A   1      36.834  21.141  24.763  1.00  0.00     0.274 C 
ENDROOT
BRANCH   1   2
ATOM      2  O   UNL A   1      36.420  22.133  25.723  1.00  0.00    -0.462 OA
BRANCH   2   3
ATOM      3  C   UNL A   1      35.707  23.185  25.264  1.00  0.00     0.309 C 
ATOM      4  O   UNL A   1      35.862  23.708  24.168  1.00  0.00    -0.252 OA
BRANCH   3   5
ATOM      5  C   UNL A   1      34.710  23.694  26.274  1.00  0.00     0.164 C 
BRANCH   5   6
ATOM      6  C   UNL A   1      34.271  22.690  27.340  1.00  0.00     0.243 C 
BRANCH   6   7
ATOM      7  O   UNL A   1      33.034  22.044  27.032  1.00  0.00    -0.477 OA
BRANCH   7   8
ATOM      8  C   UNL A   1      32.814  21.443  25.829  1.00  0.00     0.217 A 
ATOM      9  C   UNL A   1      32.404  21.308  23.496  1.00  0.00     0.048 A 
ATOM     10  C   UNL A   1      32.360  22.044  24.672  1.00  0.00     0.092 A 
ATOM     11  N   UNL A   1      32.742  20.020  23.507  1.00  0.00    -0.231 NA
ATOM     12  C   UNL A   1      33.036  19.474  24.699  1.00  0.00     0.183 A 
ATOM     13  N   UNL A   1      33.097  20.134  25.868  1.00  0.00    -0.192 NA
BRANCH   9  14
ATOM     14  C   UNL A   1      32.202  21.941  22.143  1.00  0.00     0.053 C 
ATOM     15  C   UNL A   1      33.047  23.163  21.813  1.00  0.00     0.011 C 
ENDBRANCH   9  14
BRANCH  12  16
ATOM     16  C   UNL A   1      33.007  18.021  24.717  1.00  0.00     0.126 A 
ATOM     17  C   UNL A   1      33.949  17.314  23.974  1.00  0.00     0.143 A 
ATOM     18  N   UNL A   1      32.215  17.399  25.637  1.00  0.00    -0.250 NA
ATOM     19  N   UNL A   1      34.162  15.984  24.128  1.00  0.00    -0.261 NA
ATOM     20  C   UNL A   1      32.430  16.078  25.791  1.00  0.00     0.132 A 
ATOM     21  C   UNL A   1      33.390  15.391  25.065  1.00  0.00     0.131 A 
ENDBRANCH  12  16
ENDBRANCH   7   8
ENDBRANCH   6   7
ENDBRANCH   5   6
ENDBRANCH   3   5
ENDBRANCH   2   3
ENDBRANCH   1   2
BRANCH   1  22
ATOM     22  C   UNL A   1      38.176  20.539  25.158  1.00  0.00     0.275 C 
BRANCH  22  23
ATOM     23  O   UNL A   1      38.651  21.107  26.363  1.00  0.00    -0.458 OA
BRANCH  23  24
ATOM     24  C   UNL A   1      39.987  21.038  26.536  1.00  0.00     0.338 C 
ATOM     25  O   UNL A   1      40.768  20.119  26.385  1.00  0.00    -0.246 OA
BRANCH  24  26
ATOM     26  C   UNL A   1      40.346  22.337  27.018  1.00  0.00     0.060 A 
ATOM     27  C   UNL A   1      41.328  22.438  28.001  1.00  0.00     0.016 A 
ATOM     28  C   UNL A   1      39.796  23.416  26.328  1.00  0.00     0.016 A 
ATOM     29  C   UNL A   1      41.791  23.692  28.303  1.00  0.00     0.010 A 
ATOM     30  C   UNL A   1      40.301  24.660  26.595  1.00  0.00     0.010 A 
ATOM     31  C   UNL A   1      41.286  24.784  27.584  1.00  0.00    -0.014 A 
BRANCH  31  32
ATOM     32  C   UNL A   1      41.788  26.111  27.896  1.00  0.00     0.031 A 
ATOM     33  C   UNL A   1      43.178  26.432  27.480  1.00  0.00     0.074 A 
ATOM     34  C   UNL A   1      40.959  26.938  28.548  1.00  0.00     0.049 A 
ATOM     35  N   UNL A   1      43.835  27.542  27.633  1.00  0.00    -0.248 NA
ATOM     36  C   UNL A   1      43.943  25.357  26.818  1.00  0.00     0.031 C 
ATOM     37  C   UNL A   1      39.602  26.596  28.992  1.00  0.00     0.029 A 
ATOM     38  N   UNL A   1      41.131  28.224  28.953  1.00  0.00    -0.354 N 
ATOM     39  C   UNL A   1      45.098  27.293  27.121  1.00  0.00     0.074 A 
ATOM     40  C   UNL A   1      45.131  25.923  26.671  1.00  0.00     0.031 C 
ATOM     41  C   UNL A   1      39.058  27.661  29.598  1.00  0.00     0.029 A 
ATOM     42  C   UNL A   1      40.043  28.733  29.616  1.00  0.00     0.049 A 
ATOM     43  H   UNL A   1      41.954  28.739  28.788  1.00  0.00     0.167 HD
ATOM     44  C   UNL A   1      46.128  28.160  27.039  1.00  0.00     0.034 A 
ATOM     45  C   UNL A   1      39.890  29.941  30.181  1.00  0.00     0.034 A 
ATOM     46  C   UNL A   1      46.021  29.510  27.515  1.00  0.00     0.049 A 
ATOM     47  C   UNL A   1      41.041  30.894  30.035  1.00  0.00     0.074 A 
ATOM     48  C   UNL A   1      46.959  30.520  27.478  1.00  0.00     0.029 A 
ATOM     49  N   UNL A   1      44.888  30.028  28.138  1.00  0.00    -0.354 N 
ATOM     50  N   UNL A   1      42.206  30.693  29.460  1.00  0.00    -0.248 NA
ATOM     51  C   UNL A   1      40.853  32.241  30.575  1.00  0.00     0.031 C 
ATOM     52  C   UNL A   1      46.405  31.638  28.112  1.00  0.00     0.029 A 
ATOM     53  C   UNL A   1      45.104  31.342  28.502  1.00  0.00     0.049 A 
ATOM     54  H   UNL A   1      44.054  29.530  28.296  1.00  0.00     0.167 HD
ATOM     55  C   UNL A   1      42.889  31.895  29.547  1.00  0.00     0.074 A 
ATOM     56  C   UNL A   1      41.984  32.826  30.203  1.00  0.00     0.031 C 
ATOM     57  C   UNL A   1      44.146  32.212  29.142  1.00  0.00     0.034 A 
BRANCH  44  58
ATOM     58  C   UNL A   1      47.413  27.656  26.443  1.00  0.00     0.023 A 
ATOM     59  C   UNL A   1      48.437  27.156  27.276  1.00  0.00     0.012 A 
ATOM     60  C   UNL A   1      47.617  27.697  25.052  1.00  0.00     0.148 A 
ATOM     61  C   UNL A   1      49.654  26.739  26.737  1.00  0.00     0.002 A 
ATOM     62  C   UNL A   1      48.812  27.232  24.517  1.00  0.00     0.091 A 
ATOM     63  F   UNL A   1      46.650  28.213  24.279  1.00  0.00    -0.205 F 
ATOM     64  C   UNL A   1      49.837  26.768  25.357  1.00  0.00     0.022 A 
BRANCH  62  65
ATOM     65  S   UNL A   1      49.120  27.164  22.749  1.00  0.00     0.127 S 
ATOM     66  O   UNL A   1      50.575  27.017  22.708  1.00  0.00    -0.237 OA
ATOM     67  O   UNL A   1      48.375  25.967  22.359  1.00  0.00    -0.237 OA
ATOM     68  O   UNL A   1      48.607  28.410  22.200  1.00  0.00    -0.744 OA
ENDBRANCH  62  65
ENDBRANCH  44  58
BRANCH  45  69
ATOM     69  C   UNL A   1      38.614  30.293  30.857  1.00  0.00     0.023 A 
ATOM     70  C   UNL A   1      38.438  29.999  32.222  1.00  0.00     0.012 A 
ATOM     71  C   UNL A   1      37.601  30.991  30.169  1.00  0.00     0.148 A 
ATOM     72  C   UNL A   1      37.265  30.369  32.883  1.00  0.00     0.002 A 
ATOM     73  C   UNL A   1      36.460  31.406  30.846  1.00  0.00     0.091 A 
ATOM     74  F   UNL A   1      37.786  31.261  28.869  1.00  0.00    -0.205 F 
ATOM     75  C   UNL A   1      36.282  31.081  32.199  1.00  0.00     0.022 A 
BRANCH  73  76
ATOM     76  S   UNL A   1      35.211  32.443  30.077  1.00  0.00     0.127 S 
ATOM     77  O   UNL A   1      34.264  32.631  31.173  1.00  0.00    -0.237 OA
ATOM     78  O   UNL A   1      35.983  33.633  29.717  1.00  0.00    -0.237 OA
ATOM     79  O   UNL A   1      34.716  31.682  28.937  1.00  0.00    -0.744 OA
ENDBRANCH  73  76
ENDBRANCH  45  69
BRANCH  57  80
ATOM     80  C   UNL A   1      44.580  33.626  29.392  1.00  0.00     0.023 A 
ATOM     81  C   UNL A   1      45.155  33.977  30.629  1.00  0.00     0.012 A 
ATOM     82  C   UNL A   1      44.456  34.590  28.377  1.00  0.00     0.148 A 
ATOM     83  C   UNL A   1      45.552  35.288  30.870  1.00  0.00     0.002 A 
ATOM     84  C   UNL A   1      44.912  35.879  28.602  1.00  0.00     0.091 A 
ATOM     85  F   UNL A   1      43.888  34.232  27.216  1.00  0.00    -0.205 F 
ATOM     86  C   UNL A   1      45.442  36.235  29.854  1.00  0.00     0.022 A 
BRANCH  84  87
ATOM     87  S   UNL A   1      44.915  37.126  27.314  1.00  0.00     0.127 S 
ATOM     88  O   UNL A   1      45.836  36.546  26.340  1.00  0.00    -0.237 OA
ATOM     89  O   UNL A   1      43.512  37.141  26.897  1.00  0.00    -0.237 OA
ATOM     90  O   UNL A   1      45.366  38.358  27.950  1.00  0.00    -0.744 OA
ENDBRANCH  84  87
ENDBRANCH  57  80
ENDBRANCH  31  32
ENDBRANCH  24  26
ENDBRANCH  23  24
ENDBRANCH  22  23
ENDBRANCH   1  22
TORSDOF 19
ENDMDL
MODEL 3
REMARK VINA RESULT:     -11.0      5.152     10.642
REMARK SMILES CCc1cc(OCCC(=O)OCCOC(=O)c2ccc(-c3c4nc(c(-c5cccc(S(=O)(=O)[O-])c5F)c5ccc([nH]5)c(-c5cccc(S(=O)(=O)[O-])c5F)c5nc(c(-c6cccc(S(=O)(=O)[O-])c6F)c6ccc3[nH]6)C=C5)C=C4)cc2)nc(-c2cnccn2)n1
REMARK SMILES IDX 12 1 11 2 9 3 10 4 8 5 7 6 6 7 5 8 3 9 4 10 88 11 81 12
REMARK SMILES IDX 80 13 2 14 1 15 82 16 83 17 87 18 84 19 86 20 85 21 13 22
REMARK SMILES IDX 14 23 15 24 16 25 17 26 18 27 79 28 19 29 78 30 20 31 21 32
REMARK SMILES IDX 22 33 72 34 23 35 77 36 71 37 73 38 24 39 76 40 70 41 69 42
REMARK SMILES IDX 25 44 57 45 37 46 56 47 38 48 41 49 55 50 74 51 39 52 40 53
REMARK SMILES IDX 54 55 75 56 42 57 26 58 27 59 35 60 28 61 30 62 36 63 29 64
REMARK SMILES IDX 31 65 32 66 33 67 34 68 58 69 59 70 67 71 60 72 62 73 68 74
REMARK SMILES IDX 61 75 63 76 64 77 65 78 66 79 43 80 44 81 52 82 45 83 47 84
REMARK SMILES IDX 53 85 46 86 48 87 49 88 50 89 51 90
REMARK H PARENT 73 43 41 54
REMARK Flexibility Score: inf
ROOT
ATOM      1  C   UNL A   1      31.530  29.756  25.068  1.00  0.00     0.274 C 
ENDROOT
BRANCH   1   2
ATOM      2  O   UNL A   1      31.325  28.367  25.392  1.00  0.00    -0.462 OA
BRANCH   2   3
ATOM      3  C   UNL A   1      30.785  27.578  24.437  1.00  0.00     0.309 C 
ATOM      4  O   UNL A   1      30.306  27.984  23.386  1.00  0.00    -0.252 OA
BRANCH   3   5
ATOM      5  C   UNL A   1      30.788  26.120  24.820  1.00  0.00     0.164 C 
BRANCH   5   6
ATOM      6  C   UNL A   1      32.156  25.519  25.139  1.00  0.00     0.243 C 
BRANCH   6   7
ATOM      7  O   UNL A   1      32.129  24.096  25.276  1.00  0.00    -0.477 OA
BRANCH   7   8
ATOM      8  C   UNL A   1      33.233  23.330  25.052  1.00  0.00     0.217 A 
ATOM      9  C   UNL A   1      35.530  22.857  24.698  1.00  0.00     0.048 A 
ATOM     10  C   UNL A   1      34.484  23.769  24.667  1.00  0.00     0.092 A 
ATOM     11  N   UNL A   1      35.310  21.570  24.956  1.00  0.00    -0.231 NA
ATOM     12  C   UNL A   1      34.039  21.200  25.184  1.00  0.00     0.183 A 
ATOM     13  N   UNL A   1      32.983  22.029  25.254  1.00  0.00    -0.192 NA
BRANCH   9  14
ATOM     14  C   UNL A   1      36.971  23.283  24.571  1.00  0.00     0.053 C 
ATOM     15  C   UNL A   1      37.664  23.778  25.833  1.00  0.00     0.011 C 
ENDBRANCH   9  14
BRANCH  12  16
ATOM     16  C   UNL A   1      33.800  19.771  25.066  1.00  0.00     0.126 A 
ATOM     17  C   UNL A   1      32.501  19.286  25.198  1.00  0.00     0.143 A 
ATOM     18  N   UNL A   1      34.810  18.981  24.601  1.00  0.00    -0.250 NA
ATOM     19  N   UNL A   1      32.147  18.023  24.854  1.00  0.00    -0.261 NA
ATOM     20  C   UNL A   1      34.456  17.727  24.257  1.00  0.00     0.132 A 
ATOM     21  C   UNL A   1      33.154  17.265  24.367  1.00  0.00     0.131 A 
ENDBRANCH  12  16
ENDBRANCH   7   8
ENDBRANCH   6   7
ENDBRANCH   5   6
ENDBRANCH   3   5
ENDBRANCH   2   3
ENDBRANCH   1   2
BRANCH   1  22
ATOM     22  C   UNL A   1      31.839  30.560  26.325  1.00  0.00     0.275 C 
BRANCH  22  23
ATOM     23  O   UNL A   1      33.229  30.576  26.586  1.00  0.00    -0.458 OA
BRANCH  23  24
ATOM     24  C   UNL A   1      33.652  31.608  27.345  1.00  0.00     0.338 C 
ATOM     25  O   UNL A   1      33.157  32.696  27.566  1.00  0.00    -0.246 OA
BRANCH  24  26
ATOM     26  C   UNL A   1      34.920  31.176  27.849  1.00  0.00     0.060 A 
ATOM     27  C   UNL A   1      35.899  32.134  28.105  1.00  0.00     0.016 A 
ATOM     28  C   UNL A   1      35.008  29.832  28.206  1.00  0.00     0.016 A 
ATOM     29  C   UNL A   1      37.026  31.721  28.766  1.00  0.00     0.010 A 
ATOM     30  C   UNL A   1      36.111  29.437  28.914  1.00  0.00     0.010 A 
ATOM     31  C   UNL A   1      37.110  30.384  29.178  1.00  0.00    -0.014 A 
BRANCH  31  32
ATOM     32  C   UNL A   1      38.300  29.951  29.892  1.00  0.00     0.031 A 
ATOM     33  C   UNL A   1      38.487  30.452  31.278  1.00  0.00     0.074 A 
ATOM     34  C   UNL A   1      39.144  29.143  29.234  1.00  0.00     0.049 A 
ATOM     35  N   UNL A   1      39.451  30.197  32.109  1.00  0.00    -0.248 NA
ATOM     36  C   UNL A   1      37.463  31.380  31.797  1.00  0.00     0.031 C 
ATOM     37  C   UNL A   1      38.969  28.688  27.849  1.00  0.00     0.029 A 
ATOM     38  N   UNL A   1      40.307  28.566  29.634  1.00  0.00    -0.354 N 
ATOM     39  C   UNL A   1      39.173  30.955  33.235  1.00  0.00     0.074 A 
ATOM     40  C   UNL A   1      37.964  31.699  32.980  1.00  0.00     0.031 C 
ATOM     41  C   UNL A   1      39.992  27.885  27.521  1.00  0.00     0.029 A 
ATOM     42  C   UNL A   1      40.900  27.808  28.656  1.00  0.00     0.049 A 
ATOM     43  H   UNL A   1      40.687  28.681  30.535  1.00  0.00     0.167 HD
ATOM     44  C   UNL A   1      39.885  31.002  34.380  1.00  0.00     0.034 A 
ATOM     45  C   UNL A   1      42.064  27.141  28.697  1.00  0.00     0.034 A 
ATOM     46  C   UNL A   1      41.085  30.235  34.558  1.00  0.00     0.049 A 
ATOM     47  C   UNL A   1      42.809  27.182  30.000  1.00  0.00     0.074 A 
ATOM     48  C   UNL A   1      41.902  30.147  35.665  1.00  0.00     0.029 A 
ATOM     49  N   UNL A   1      41.645  29.426  33.572  1.00  0.00    -0.354 N 
ATOM     50  N   UNL A   1      42.496  27.821  31.105  1.00  0.00    -0.248 NA
ATOM     51  C   UNL A   1      44.037  26.391  30.082  1.00  0.00     0.031 C 
ATOM     52  C   UNL A   1      42.977  29.313  35.334  1.00  0.00     0.029 A 
ATOM     53  C   UNL A   1      42.805  28.842  34.038  1.00  0.00     0.049 A 
ATOM     54  H   UNL A   1      41.268  29.291  32.673  1.00  0.00     0.167 HD
ATOM     55  C   UNL A   1      43.476  27.495  32.028  1.00  0.00     0.074 A 
ATOM     56  C   UNL A   1      44.374  26.572  31.352  1.00  0.00     0.031 C 
ATOM     57  C   UNL A   1      43.641  27.919  33.308  1.00  0.00     0.034 A 
BRANCH  44  58
ATOM     58  C   UNL A   1      39.384  31.908  35.470  1.00  0.00     0.023 A 
ATOM     59  C   UNL A   1      38.406  31.454  36.382  1.00  0.00     0.012 A 
ATOM     60  C   UNL A   1      39.868  33.225  35.581  1.00  0.00     0.148 A 
ATOM     61  C   UNL A   1      37.895  32.305  37.361  1.00  0.00     0.002 A 
ATOM     62  C   UNL A   1      39.390  34.051  36.590  1.00  0.00     0.091 A 
ATOM     63  F   UNL A   1      40.765  33.653  34.681  1.00  0.00    -0.205 F 
ATOM     64  C   UNL A   1      38.394  33.600  37.471  1.00  0.00     0.022 A 
BRANCH  62  65
ATOM     65  S   UNL A   1      40.018  35.712  36.859  1.00  0.00     0.127 S 
ATOM     66  O   UNL A   1      41.454  35.469  36.984  1.00  0.00    -0.237 OA
ATOM     67  O   UNL A   1      39.619  36.389  35.626  1.00  0.00    -0.237 OA
ATOM     68  O   UNL A   1      39.364  36.202  38.064  1.00  0.00    -0.744 OA
ENDBRANCH  62  65
ENDBRANCH  44  58
BRANCH  45  69
ATOM     69  C   UNL A   1      42.526  26.373  27.512  1.00  0.00     0.023 A 
ATOM     70  C   UNL A   1      43.408  26.967  26.590  1.00  0.00     0.012 A 
ATOM     71  C   UNL A   1      42.156  25.024  27.335  1.00  0.00     0.148 A 
ATOM     72  C   UNL A   1      43.891  26.241  25.499  1.00  0.00     0.002 A 
ATOM     73  C   UNL A   1      42.683  24.291  26.280  1.00  0.00     0.091 A 
ATOM     74  F   UNL A   1      41.313  24.477  28.223  1.00  0.00    -0.205 F 
ATOM     75  C   UNL A   1      43.538  24.902  25.350  1.00  0.00     0.022 A 
BRANCH  73  76
ATOM     76  S   UNL A   1      42.389  22.529  26.092  1.00  0.00     0.127 S 
ATOM     77  O   UNL A   1      43.050  22.250  24.821  1.00  0.00    -0.237 OA
ATOM     78  O   UNL A   1      43.061  21.981  27.272  1.00  0.00    -0.237 OA
ATOM     79  O   UNL A   1      40.940  22.369  26.101  1.00  0.00    -0.744 OA
ENDBRANCH  73  76
ENDBRANCH  45  69
BRANCH  57  80
ATOM     80  C   UNL A   1      44.827  27.361  34.037  1.00  0.00     0.023 A 
ATOM     81  C   UNL A   1      46.066  28.029  33.980  1.00  0.00     0.012 A 
ATOM     82  C   UNL A   1      44.692  26.198  34.815  1.00  0.00     0.148 A 
ATOM     83  C   UNL A   1      47.172  27.512  34.647  1.00  0.00     0.002 A 
ATOM     84  C   UNL A   1      45.782  25.725  35.528  1.00  0.00     0.091 A 
ATOM     85  F   UNL A   1      43.506  25.573  34.837  1.00  0.00    -0.205 F 
ATOM     86  C   UNL A   1      47.028  26.368  35.429  1.00  0.00     0.022 A 
BRANCH  84  87
ATOM     87  S   UNL A   1      45.654  24.331  36.648  1.00  0.00     0.127 S 
ATOM     88  O   UNL A   1      45.344  23.239  35.728  1.00  0.00    -0.237 OA
ATOM     89  O   UNL A   1      46.995  24.279  37.231  1.00  0.00    -0.237 OA
ATOM     90  O   UNL A   1      44.600  24.673  37.594  1.00  0.00    -0.744 OA
ENDBRANCH  84  87
ENDBRANCH  57  80
ENDBRANCH  31  32
ENDBRANCH  24  26
ENDBRANCH  23  24
ENDBRANCH  22  23
ENDBRANCH   1  22
TORSDOF 19
ENDMDL
