MODEL 1
REMARK VINA RESULT:     -10.4      0.000      0.000
REMARK SMILES CCN(Cc1cn(CC)nc1C)C(=O)c1ccn([C@@H](C)C(=O)OCCOC(=O)c2ccc(-c3c4nc(c(-c5cccc(S(=O)(=O)[O-])c5F)c5ccc([nH]5)c(-c5cccc(S(=O)(=O)[O-])c5F)c5nc(c(-c6cccc(S(=O)(=O)[O-])c6F)c6ccc3[nH]6)C=C5)C=C4)cc2)n1
REMARK SMILES IDX 23 1 21 2 22 3 19 4 20 5 18 6 15 7 16 8 92 9 17 10 13 11
REMARK SMILES IDX 14 12 3 13 2 14 1 15 4 16 5 17 6 18 11 19 7 20 10 21 12 22
REMARK SMILES IDX 8 23 9 24 24 25 25 26 26 27 27 28 28 29 29 30 30 31 91 32
REMARK SMILES IDX 31 33 90 34 32 35 33 36 34 37 84 38 35 39 89 40 83 41 85 42
REMARK SMILES IDX 36 43 88 44 82 45 81 46 37 48 69 49 49 50 68 51 50 52 53 53
REMARK SMILES IDX 67 54 86 55 51 56 52 57 66 59 87 60 54 61 38 62 39 63 47 64
REMARK SMILES IDX 40 65 42 66 48 67 41 68 43 69 44 70 45 71 46 72 70 73 71 74
REMARK SMILES IDX 79 75 72 76 74 77 80 78 73 79 75 80 76 81 77 82 78 83 55 84
REMARK SMILES IDX 56 85 64 86 57 87 59 88 65 89 58 90 60 91 61 92 62 93 63 94
REMARK H PARENT 85 47 53 58
REMARK Flexibility Score: inf
ROOT
ATOM      1  O   UNL A   1      33.773  30.414  27.619  1.00  0.00    -0.460 OA
ENDROOT
BRANCH   1   2
ATOM      2  C   UNL A   1      32.561  30.512  27.003  1.00  0.00     0.330 C 
ATOM      3  O   UNL A   1      31.934  31.565  26.918  1.00  0.00    -0.250 OA
BRANCH   2   4
ATOM      4  C   UNL A   1      31.987  29.182  26.538  1.00  0.00     0.213 C 
ATOM      5  C   UNL A   1      31.491  28.399  27.743  1.00  0.00     0.046 C 
BRANCH   4   6
ATOM      6  N   UNL A   1      32.869  28.371  25.700  1.00  0.00    -0.258 N 
ATOM      7  C   UNL A   1      33.702  26.555  24.937  1.00  0.00     0.150 A 
ATOM      8  C   UNL A   1      33.891  27.576  23.974  1.00  0.00     0.056 A 
ATOM      9  N   UNL A   1      33.145  27.087  26.048  1.00  0.00    -0.167 NA
ATOM     10  C   UNL A   1      33.533  28.753  24.572  1.00  0.00     0.110 A 
BRANCH   7  11
ATOM     11  C   UNL A   1      33.963  25.105  24.783  1.00  0.00     0.274 C 
ATOM     12  O   UNL A   1      35.119  24.682  24.737  1.00  0.00    -0.267 OA
BRANCH  11  13
ATOM     13  N   UNL A   1      32.869  24.215  24.703  1.00  0.00    -0.333 N 
BRANCH  13  14
ATOM     14  C   UNL A   1      32.562  23.395  25.877  1.00  0.00     0.117 C 
ATOM     15  C   UNL A   1      31.398  23.945  26.691  1.00  0.00     0.027 C 
ENDBRANCH  13  14
BRANCH  13  16
ATOM     16  C   UNL A   1      32.103  23.946  23.487  1.00  0.00     0.159 C 
BRANCH  16  17
ATOM     17  C   UNL A   1      31.391  25.167  22.993  1.00  0.00     0.012 A 
ATOM     18  C   UNL A   1      30.402  25.919  23.606  1.00  0.00     0.114 A 
ATOM     19  C   UNL A   1      31.698  25.908  21.811  1.00  0.00     0.064 A 
ATOM     20  N   UNL A   1      30.326  27.090  22.904  1.00  0.00    -0.272 N 
ATOM     21  N   UNL A   1      31.009  27.054  21.745  1.00  0.00    -0.178 NA
ATOM     22  C   UNL A   1      32.719  25.613  20.775  1.00  0.00     0.069 C 
BRANCH  20  23
ATOM     23  C   UNL A   1      29.756  28.343  23.368  1.00  0.00     0.141 C 
ATOM     24  C   UNL A   1      28.250  28.425  23.143  1.00  0.00     0.029 C 
ENDBRANCH  20  23
ENDBRANCH  16  17
ENDBRANCH  13  16
ENDBRANCH  11  13
ENDBRANCH   7  11
ENDBRANCH   4   6
ENDBRANCH   2   4
ENDBRANCH   1   2
BRANCH   1  25
ATOM     25  C   UNL A   1      34.713  31.491  27.424  1.00  0.00     0.274 C 
BRANCH  25  26
ATOM     26  C   UNL A   1      34.747  32.444  28.613  1.00  0.00     0.275 C 
BRANCH  26  27
ATOM     27  O   UNL A   1      34.794  31.731  29.848  1.00  0.00    -0.458 OA
BRANCH  27  28
ATOM     28  C   UNL A   1      35.883  32.000  30.594  1.00  0.00     0.338 C 
ATOM     29  O   UNL A   1      35.953  32.830  31.494  1.00  0.00    -0.246 OA
BRANCH  28  30
ATOM     30  C   UNL A   1      37.057  31.316  30.074  1.00  0.00     0.060 A 
ATOM     31  C   UNL A   1      37.032  29.914  30.069  1.00  0.00     0.016 A 
ATOM     32  C   UNL A   1      38.236  32.045  29.880  1.00  0.00     0.016 A 
ATOM     33  C   UNL A   1      38.230  29.238  30.018  1.00  0.00     0.010 A 
ATOM     34  C   UNL A   1      39.429  31.368  29.848  1.00  0.00     0.010 A 
ATOM     35  C   UNL A   1      39.412  29.980  29.981  1.00  0.00    -0.014 A 
BRANCH  35  36
ATOM     36  C   UNL A   1      40.663  29.261  30.034  1.00  0.00     0.031 A 
ATOM     37  C   UNL A   1      41.116  28.926  31.402  1.00  0.00     0.074 A 
ATOM     38  C   UNL A   1      41.257  28.801  28.918  1.00  0.00     0.049 A 
ATOM     39  N   UNL A   1      42.210  29.285  31.985  1.00  0.00    -0.248 NA
ATOM     40  C   UNL A   1      40.175  28.200  32.271  1.00  0.00     0.031 C 
ATOM     41  C   UNL A   1      40.709  28.784  27.559  1.00  0.00     0.029 A 
ATOM     42  N   UNL A   1      42.404  28.080  28.806  1.00  0.00    -0.354 N 
ATOM     43  C   UNL A   1      42.192  28.648  33.222  1.00  0.00     0.074 A 
ATOM     44  C   UNL A   1      40.854  28.156  33.415  1.00  0.00     0.031 C 
ATOM     45  C   UNL A   1      41.376  27.858  26.836  1.00  0.00     0.029 A 
ATOM     46  C   UNL A   1      42.454  27.317  27.648  1.00  0.00     0.049 A 
ATOM     47  H   UNL A   1      43.124  28.095  29.477  1.00  0.00     0.167 HD
ATOM     48  C   UNL A   1      43.341  28.349  33.884  1.00  0.00     0.034 A 
ATOM     49  C   UNL A   1      43.239  26.232  27.443  1.00  0.00     0.034 A 
ATOM     50  C   UNL A   1      44.461  29.106  33.392  1.00  0.00     0.049 A 
ATOM     51  C   UNL A   1      44.343  26.285  28.435  1.00  0.00     0.074 A 
ATOM     52  C   UNL A   1      44.726  30.453  33.227  1.00  0.00     0.029 A 
ATOM     53  N   UNL A   1      45.387  28.445  32.622  1.00  0.00    -0.354 N 
ATOM     54  N   UNL A   1      45.277  27.197  28.436  1.00  0.00    -0.248 NA
ATOM     55  C   UNL A   1      44.170  25.568  29.689  1.00  0.00     0.031 C 
ATOM     56  C   UNL A   1      45.454  30.535  32.006  1.00  0.00     0.029 A 
ATOM     57  C   UNL A   1      45.629  29.233  31.529  1.00  0.00     0.049 A 
ATOM     58  H   UNL A   1      45.799  27.573  32.820  1.00  0.00     0.167 HD
ATOM     59  C   UNL A   1      45.492  27.474  29.781  1.00  0.00     0.074 A 
ATOM     60  C   UNL A   1      44.868  26.365  30.501  1.00  0.00     0.031 C 
ATOM     61  C   UNL A   1      45.887  28.714  30.202  1.00  0.00     0.034 A 
BRANCH  48  62
ATOM     62  C   UNL A   1      43.522  27.119  34.736  1.00  0.00     0.023 A 
ATOM     63  C   UNL A   1      43.760  27.313  36.113  1.00  0.00     0.012 A 
ATOM     64  C   UNL A   1      43.741  25.820  34.221  1.00  0.00     0.148 A 
ATOM     65  C   UNL A   1      44.234  26.279  36.925  1.00  0.00     0.002 A 
ATOM     66  C   UNL A   1      44.122  24.774  35.052  1.00  0.00     0.091 A 
ATOM     67  F   UNL A   1      43.724  25.605  32.902  1.00  0.00    -0.205 F 
ATOM     68  C   UNL A   1      44.404  25.005  36.398  1.00  0.00     0.022 A 
BRANCH  66  69
ATOM     69  S   UNL A   1      44.280  23.100  34.421  1.00  0.00     0.127 S 
ATOM     70  O   UNL A   1      44.602  22.358  35.636  1.00  0.00    -0.237 OA
ATOM     71  O   UNL A   1      42.945  22.852  33.877  1.00  0.00    -0.237 OA
ATOM     72  O   UNL A   1      45.327  23.172  33.408  1.00  0.00    -0.744 OA
ENDBRANCH  66  69
ENDBRANCH  48  62
BRANCH  49  73
ATOM     73  C   UNL A   1      42.930  25.019  26.649  1.00  0.00     0.023 A 
ATOM     74  C   UNL A   1      43.776  24.646  25.589  1.00  0.00     0.012 A 
ATOM     75  C   UNL A   1      41.941  24.096  27.065  1.00  0.00     0.148 A 
ATOM     76  C   UNL A   1      43.650  23.395  24.972  1.00  0.00     0.002 A 
ATOM     77  C   UNL A   1      41.799  22.867  26.430  1.00  0.00     0.091 A 
ATOM     78  F   UNL A   1      41.199  24.377  28.144  1.00  0.00    -0.205 F 
ATOM     79  C   UNL A   1      42.661  22.506  25.389  1.00  0.00     0.022 A 
BRANCH  77  80
ATOM     80  S   UNL A   1      40.525  21.693  26.914  1.00  0.00     0.127 S 
ATOM     81  O   UNL A   1      40.796  21.519  28.342  1.00  0.00    -0.237 OA
ATOM     82  O   UNL A   1      39.301  22.426  26.608  1.00  0.00    -0.237 OA
ATOM     83  O   UNL A   1      40.769  20.497  26.116  1.00  0.00    -0.744 OA
ENDBRANCH  77  80
ENDBRANCH  49  73
BRANCH  61  84
ATOM     84  C   UNL A   1      46.326  29.729  29.173  1.00  0.00     0.023 A 
ATOM     85  C   UNL A   1      47.654  29.785  28.705  1.00  0.00     0.012 A 
ATOM     86  C   UNL A   1      45.344  30.491  28.515  1.00  0.00     0.148 A 
ATOM     87  C   UNL A   1      48.002  30.598  27.624  1.00  0.00     0.002 A 
ATOM     88  C   UNL A   1      45.684  31.262  27.408  1.00  0.00     0.091 A 
ATOM     89  F   UNL A   1      44.080  30.424  28.961  1.00  0.00    -0.205 F 
ATOM     90  C   UNL A   1      47.015  31.326  26.966  1.00  0.00     0.022 A 
BRANCH  88  91
ATOM     91  S   UNL A   1      44.439  32.113  26.436  1.00  0.00     0.127 S 
ATOM     92  O   UNL A   1      43.971  33.139  27.366  1.00  0.00    -0.237 OA
ATOM     93  O   UNL A   1      45.212  32.624  25.303  1.00  0.00    -0.237 OA
ATOM     94  O   UNL A   1      43.455  31.100  26.071  1.00  0.00    -0.744 OA
ENDBRANCH  88  91
ENDBRANCH  61  84
ENDBRANCH  35  36
ENDBRANCH  28  30
ENDBRANCH  27  28
ENDBRANCH  26  27
ENDBRANCH  25  26
ENDBRANCH   1  25
TORSDOF 21
ENDMDL
MODEL 2
REMARK VINA RESULT:     -10.4      3.031      8.519
REMARK SMILES CCN(Cc1cn(CC)nc1C)C(=O)c1ccn([C@@H](C)C(=O)OCCOC(=O)c2ccc(-c3c4nc(c(-c5cccc(S(=O)(=O)[O-])c5F)c5ccc([nH]5)c(-c5cccc(S(=O)(=O)[O-])c5F)c5nc(c(-c6cccc(S(=O)(=O)[O-])c6F)c6ccc3[nH]6)C=C5)C=C4)cc2)n1
REMARK SMILES IDX 23 1 21 2 22 3 19 4 20 5 18 6 15 7 16 8 92 9 17 10 13 11
REMARK SMILES IDX 14 12 3 13 2 14 1 15 4 16 5 17 6 18 11 19 7 20 10 21 12 22
REMARK SMILES IDX 8 23 9 24 24 25 25 26 26 27 27 28 28 29 29 30 30 31 91 32
REMARK SMILES IDX 31 33 90 34 32 35 33 36 34 37 84 38 35 39 89 40 83 41 85 42
REMARK SMILES IDX 36 43 88 44 82 45 81 46 37 48 69 49 49 50 68 51 50 52 53 53
REMARK SMILES IDX 67 54 86 55 51 56 52 57 66 59 87 60 54 61 38 62 39 63 47 64
REMARK SMILES IDX 40 65 42 66 48 67 41 68 43 69 44 70 45 71 46 72 70 73 71 74
REMARK SMILES IDX 79 75 72 76 74 77 80 78 73 79 75 80 76 81 77 82 78 83 55 84
REMARK SMILES IDX 56 85 64 86 57 87 59 88 65 89 58 90 60 91 61 92 62 93 63 94
REMARK H PARENT 85 47 53 58
REMARK Flexibility Score: inf
ROOT
ATOM      1  O   UNL A   1      36.146  22.361  24.359  1.00  0.00    -0.460 OA
ENDROOT
BRANCH   1   2
ATOM      2  C   UNL A   1      34.997  21.642  24.498  1.00  0.00     0.330 C 
ATOM      3  O   UNL A   1      34.983  20.446  24.779  1.00  0.00    -0.250 OA
BRANCH   2   4
ATOM      4  C   UNL A   1      33.731  22.412  24.151  1.00  0.00     0.213 C 
ATOM      5  C   UNL A   1      33.974  23.246  22.904  1.00  0.00     0.046 C 
BRANCH   4   6
ATOM      6  N   UNL A   1      33.167  23.220  25.233  1.00  0.00    -0.258 N 
ATOM      7  C   UNL A   1      32.234  24.940  26.094  1.00  0.00     0.150 A 
ATOM      8  C   UNL A   1      31.982  23.825  26.930  1.00  0.00     0.056 A 
ATOM      9  N   UNL A   1      33.053  24.566  25.086  1.00  0.00    -0.167 NA
ATOM     10  C   UNL A   1      32.755  22.798  26.462  1.00  0.00     0.110 A 
BRANCH   7  11
ATOM     11  C   UNL A   1      31.653  26.299  26.196  1.00  0.00     0.274 C 
ATOM     12  O   UNL A   1      30.467  26.449  26.493  1.00  0.00    -0.267 OA
BRANCH  11  13
ATOM     13  N   UNL A   1      32.481  27.419  25.960  1.00  0.00    -0.333 N 
BRANCH  13  14
ATOM     14  C   UNL A   1      32.948  28.185  27.118  1.00  0.00     0.117 C 
ATOM     15  C   UNL A   1      32.291  29.556  27.219  1.00  0.00     0.027 C 
ENDBRANCH  13  14
BRANCH  13  16
ATOM     16  C   UNL A   1      32.795  27.957  24.638  1.00  0.00     0.159 C 
BRANCH  16  17
ATOM     17  C   UNL A   1      31.559  28.236  23.840  1.00  0.00     0.012 A 
ATOM     18  C   UNL A   1      30.654  29.278  23.953  1.00  0.00     0.114 A 
ATOM     19  C   UNL A   1      31.128  27.537  22.672  1.00  0.00     0.064 A 
ATOM     20  N   UNL A   1      29.908  29.260  22.807  1.00  0.00    -0.272 N 
ATOM     21  N   UNL A   1      30.093  28.145  22.078  1.00  0.00    -0.178 NA
ATOM     22  C   UNL A   1      31.741  26.349  22.026  1.00  0.00     0.069 C 
BRANCH  20  23
ATOM     23  C   UNL A   1      29.127  30.357  22.264  1.00  0.00     0.141 C 
ATOM     24  C   UNL A   1      27.765  30.500  22.937  1.00  0.00     0.029 C 
ENDBRANCH  20  23
ENDBRANCH  16  17
ENDBRANCH  13  16
ENDBRANCH  11  13
ENDBRANCH   7  11
ENDBRANCH   4   6
ENDBRANCH   2   4
ENDBRANCH   1   2
BRANCH   1  25
ATOM     25  C   UNL A   1      37.398  21.652  24.471  1.00  0.00     0.274 C 
BRANCH  25  26
ATOM     26  C   UNL A   1      37.955  21.694  25.890  1.00  0.00     0.275 C 
BRANCH  26  27
ATOM     27  O   UNL A   1      38.504  22.974  26.194  1.00  0.00    -0.458 OA
BRANCH  27  28
ATOM     28  C   UNL A   1      39.705  22.923  26.804  1.00  0.00     0.338 C 
ATOM     29  O   UNL A   1      40.263  21.911  27.214  1.00  0.00    -0.246 OA
BRANCH  28  30
ATOM     30  C   UNL A   1      40.197  24.259  27.107  1.00  0.00     0.060 A 
ATOM     31  C   UNL A   1      41.390  24.351  27.837  1.00  0.00     0.016 A 
ATOM     32  C   UNL A   1      39.344  25.354  26.922  1.00  0.00     0.016 A 
ATOM     33  C   UNL A   1      41.654  25.520  28.514  1.00  0.00     0.010 A 
ATOM     34  C   UNL A   1      39.602  26.511  27.613  1.00  0.00     0.010 A 
ATOM     35  C   UNL A   1      40.718  26.554  28.448  1.00  0.00    -0.014 A 
BRANCH  35  36
ATOM     36  C   UNL A   1      40.955  27.733  29.247  1.00  0.00     0.031 A 
ATOM     37  C   UNL A   1      42.031  28.610  28.735  1.00  0.00     0.074 A 
ATOM     38  C   UNL A   1      40.142  28.066  30.266  1.00  0.00     0.049 A 
ATOM     39  N   UNL A   1      43.122  28.955  29.331  1.00  0.00    -0.248 NA
ATOM     40  C   UNL A   1      41.933  29.061  27.338  1.00  0.00     0.031 C 
ATOM     41  C   UNL A   1      38.862  27.449  30.623  1.00  0.00     0.029 A 
ATOM     42  N   UNL A   1      40.207  29.154  31.078  1.00  0.00    -0.354 N 
ATOM     43  C   UNL A   1      43.749  29.843  28.462  1.00  0.00     0.074 A 
ATOM     44  C   UNL A   1      43.078  29.726  27.195  1.00  0.00     0.031 C 
ATOM     45  C   UNL A   1      38.155  28.324  31.372  1.00  0.00     0.029 A 
ATOM     46  C   UNL A   1      38.979  29.493  31.631  1.00  0.00     0.049 A 
ATOM     47  H   UNL A   1      41.038  29.651  31.257  1.00  0.00     0.167 HD
ATOM     48  C   UNL A   1      44.607  30.795  28.915  1.00  0.00     0.034 A 
ATOM     49  C   UNL A   1      38.641  30.703  32.137  1.00  0.00     0.034 A 
ATOM     50  C   UNL A   1      45.084  30.505  30.241  1.00  0.00     0.049 A 
ATOM     51  C   UNL A   1      39.901  31.430  32.438  1.00  0.00     0.074 A 
ATOM     52  C   UNL A   1      45.723  29.430  30.829  1.00  0.00     0.029 A 
ATOM     53  N   UNL A   1      44.582  31.255  31.277  1.00  0.00    -0.354 N 
ATOM     54  N   UNL A   1      40.747  31.067  33.363  1.00  0.00    -0.248 NA
ATOM     55  C   UNL A   1      40.434  32.323  31.420  1.00  0.00     0.031 C 
ATOM     56  C   UNL A   1      45.150  29.332  32.130  1.00  0.00     0.029 A 
ATOM     57  C   UNL A   1      44.235  30.379  32.269  1.00  0.00     0.049 A 
ATOM     58  H   UNL A   1      44.491  32.235  31.300  1.00  0.00     0.167 HD
ATOM     59  C   UNL A   1      41.998  31.312  32.807  1.00  0.00     0.074 A 
ATOM     60  C   UNL A   1      41.739  32.186  31.664  1.00  0.00     0.031 C 
ATOM     61  C   UNL A   1      43.088  30.553  33.134  1.00  0.00     0.034 A 
BRANCH  48  62
ATOM     62  C   UNL A   1      44.741  32.165  28.301  1.00  0.00     0.023 A 
ATOM     63  C   UNL A   1      46.002  32.522  27.780  1.00  0.00     0.012 A 
ATOM     64  C   UNL A   1      43.790  33.201  28.453  1.00  0.00     0.148 A 
ATOM     65  C   UNL A   1      46.315  33.848  27.469  1.00  0.00     0.002 A 
ATOM     66  C   UNL A   1      44.075  34.501  28.054  1.00  0.00     0.091 A 
ATOM     67  F   UNL A   1      42.650  32.979  29.115  1.00  0.00    -0.205 F 
ATOM     68  C   UNL A   1      45.348  34.838  27.594  1.00  0.00     0.022 A 
BRANCH  66  69
ATOM     69  S   UNL A   1      42.827  35.789  28.133  1.00  0.00     0.127 S 
ATOM     70  O   UNL A   1      43.611  36.977  27.810  1.00  0.00    -0.237 OA
ATOM     71  O   UNL A   1      41.885  35.365  27.097  1.00  0.00    -0.237 OA
ATOM     72  O   UNL A   1      42.289  35.716  29.487  1.00  0.00    -0.744 OA
ENDBRANCH  66  69
ENDBRANCH  48  62
BRANCH  49  73
ATOM     73  C   UNL A   1      37.318  31.370  32.100  1.00  0.00     0.023 A 
ATOM     74  C   UNL A   1      36.720  31.798  33.300  1.00  0.00     0.012 A 
ATOM     75  C   UNL A   1      36.739  31.795  30.881  1.00  0.00     0.148 A 
ATOM     76  C   UNL A   1      35.593  32.630  33.286  1.00  0.00     0.002 A 
ATOM     77  C   UNL A   1      35.602  32.597  30.872  1.00  0.00     0.091 A 
ATOM     78  F   UNL A   1      37.354  31.498  29.728  1.00  0.00    -0.205 F 
ATOM     79  C   UNL A   1      35.032  33.027  32.074  1.00  0.00     0.022 A 
BRANCH  77  80
ATOM     80  S   UNL A   1      34.825  33.119  29.336  1.00  0.00     0.127 S 
ATOM     81  O   UNL A   1      34.459  31.840  28.727  1.00  0.00    -0.237 OA
ATOM     82  O   UNL A   1      33.699  33.912  29.817  1.00  0.00    -0.237 OA
ATOM     83  O   UNL A   1      35.853  33.849  28.604  1.00  0.00    -0.744 OA
ENDBRANCH  77  80
ENDBRANCH  49  73
BRANCH  61  84
ATOM     84  C   UNL A   1      42.985  29.589  34.292  1.00  0.00     0.023 A 
ATOM     85  C   UNL A   1      42.353  28.336  34.162  1.00  0.00     0.012 A 
ATOM     86  C   UNL A   1      43.719  29.858  35.462  1.00  0.00     0.148 A 
ATOM     87  C   UNL A   1      42.429  27.382  35.180  1.00  0.00     0.002 A 
ATOM     88  C   UNL A   1      43.833  28.889  36.453  1.00  0.00     0.091 A 
ATOM     89  F   UNL A   1      44.325  31.050  35.573  1.00  0.00    -0.205 F 
ATOM     90  C   UNL A   1      43.182  27.652  36.319  1.00  0.00     0.022 A 
BRANCH  88  91
ATOM     91  S   UNL A   1      44.897  29.122  37.879  1.00  0.00     0.127 S 
ATOM     92  O   UNL A   1      46.196  29.369  37.255  1.00  0.00    -0.237 OA
ATOM     93  O   UNL A   1      44.303  30.291  38.532  1.00  0.00    -0.237 OA
ATOM     94  O   UNL A   1      44.797  27.894  38.658  1.00  0.00    -0.744 OA
ENDBRANCH  88  91
ENDBRANCH  61  84
ENDBRANCH  35  36
ENDBRANCH  28  30
ENDBRANCH  27  28
ENDBRANCH  26  27
ENDBRANCH  25  26
ENDBRANCH   1  25
TORSDOF 21
ENDMDL
MODEL 3
REMARK VINA RESULT:     -10.2      2.810      7.637
REMARK SMILES CCN(Cc1cn(CC)nc1C)C(=O)c1ccn([C@@H](C)C(=O)OCCOC(=O)c2ccc(-c3c4nc(c(-c5cccc(S(=O)(=O)[O-])c5F)c5ccc([nH]5)c(-c5cccc(S(=O)(=O)[O-])c5F)c5nc(c(-c6cccc(S(=O)(=O)[O-])c6F)c6ccc3[nH]6)C=C5)C=C4)cc2)n1
REMARK SMILES IDX 23 1 21 2 22 3 19 4 20 5 18 6 15 7 16 8 92 9 17 10 13 11
REMARK SMILES IDX 14 12 3 13 2 14 1 15 4 16 5 17 6 18 11 19 7 20 10 21 12 22
REMARK SMILES IDX 8 23 9 24 24 25 25 26 26 27 27 28 28 29 29 30 30 31 91 32
REMARK SMILES IDX 31 33 90 34 32 35 33 36 34 37 84 38 35 39 89 40 83 41 85 42
REMARK SMILES IDX 36 43 88 44 82 45 81 46 37 48 69 49 49 50 68 51 50 52 53 53
REMARK SMILES IDX 67 54 86 55 51 56 52 57 66 59 87 60 54 61 38 62 39 63 47 64
REMARK SMILES IDX 40 65 42 66 48 67 41 68 43 69 44 70 45 71 46 72 70 73 71 74
REMARK SMILES IDX 79 75 72 76 74 77 80 78 73 79 75 80 76 81 77 82 78 83 55 84
REMARK SMILES IDX 56 85 64 86 57 87 59 88 65 89 58 90 60 91 61 92 62 93 63 94
REMARK H PARENT 85 47 53 58
REMARK Flexibility Score: inf
ROOT
ATOM      1  O   UNL A   1      37.901  21.409  24.716  1.00  0.00    -0.460 OA
ENDROOT
BRANCH   1   2
ATOM      2  C   UNL A   1      36.619  21.708  25.064  1.00  0.00     0.330 C 
ATOM      3  O   UNL A   1      36.174  21.545  26.198  1.00  0.00    -0.250 OA
BRANCH   2   4
ATOM      4  C   UNL A   1      35.741  22.145  23.900  1.00  0.00     0.213 C 
ATOM      5  C   UNL A   1      36.438  23.256  23.132  1.00  0.00     0.046 C 
BRANCH   4   6
ATOM      6  N   UNL A   1      34.369  22.515  24.248  1.00  0.00    -0.258 N 
ATOM      7  C   UNL A   1      32.725  23.854  24.526  1.00  0.00     0.150 A 
ATOM      8  C   UNL A   1      32.213  22.552  24.312  1.00  0.00     0.056 A 
ATOM      9  N   UNL A   1      34.075  23.800  24.576  1.00  0.00    -0.167 NA
ATOM     10  C   UNL A   1      33.282  21.698  24.340  1.00  0.00     0.110 A 
BRANCH   7  11
ATOM     11  C   UNL A   1      31.968  25.125  24.601  1.00  0.00     0.274 C 
ATOM     12  O   UNL A   1      31.300  25.394  25.600  1.00  0.00    -0.267 OA
BRANCH  11  13
ATOM     13  N   UNL A   1      32.032  26.027  23.515  1.00  0.00    -0.333 N 
BRANCH  13  14
ATOM     14  C   UNL A   1      31.612  25.547  22.197  1.00  0.00     0.117 C 
ATOM     15  C   UNL A   1      32.749  25.545  21.182  1.00  0.00     0.027 C 
ENDBRANCH  13  14
BRANCH  13  16
ATOM     16  C   UNL A   1      32.619  27.364  23.579  1.00  0.00     0.159 C 
BRANCH  16  17
ATOM     17  C   UNL A   1      31.578  28.437  23.504  1.00  0.00     0.012 A 
ATOM     18  C   UNL A   1      30.565  28.618  22.577  1.00  0.00     0.114 A 
ATOM     19  C   UNL A   1      31.326  29.444  24.485  1.00  0.00     0.064 A 
ATOM     20  N   UNL A   1      29.706  29.529  23.126  1.00  0.00    -0.272 N 
ATOM     21  N   UNL A   1      30.208  30.132  24.219  1.00  0.00    -0.178 NA
ATOM     22  C   UNL A   1      32.062  29.711  25.746  1.00  0.00     0.069 C 
BRANCH  20  23
ATOM     23  C   UNL A   1      28.319  29.746  22.754  1.00  0.00     0.141 C 
ATOM     24  C   UNL A   1      27.697  30.940  23.472  1.00  0.00     0.029 C 
ENDBRANCH  20  23
ENDBRANCH  16  17
ENDBRANCH  13  16
ENDBRANCH  11  13
ENDBRANCH   7  11
ENDBRANCH   4   6
ENDBRANCH   2   4
ENDBRANCH   1   2
BRANCH   1  25
ATOM     25  C   UNL A   1      38.809  21.025  25.770  1.00  0.00     0.274 C 
BRANCH  25  26
ATOM     26  C   UNL A   1      39.442  19.661  25.514  1.00  0.00     0.275 C 
BRANCH  26  27
ATOM     27  O   UNL A   1      40.521  19.413  26.412  1.00  0.00    -0.458 OA
BRANCH  27  28
ATOM     28  C   UNL A   1      41.735  19.695  25.899  1.00  0.00     0.338 C 
ATOM     29  O   UNL A   1      42.347  19.016  25.082  1.00  0.00    -0.246 OA
BRANCH  28  30
ATOM     30  C   UNL A   1      42.345  20.825  26.584  1.00  0.00     0.060 A 
ATOM     31  C   UNL A   1      42.055  20.981  27.946  1.00  0.00     0.016 A 
ATOM     32  C   UNL A   1      42.939  21.838  25.822  1.00  0.00     0.016 A 
ATOM     33  C   UNL A   1      42.225  22.224  28.512  1.00  0.00     0.010 A 
ATOM     34  C   UNL A   1      43.090  23.080  26.386  1.00  0.00     0.010 A 
ATOM     35  C   UNL A   1      42.672  23.270  27.703  1.00  0.00    -0.014 A 
BRANCH  35  36
ATOM     36  C   UNL A   1      42.745  24.590  28.282  1.00  0.00     0.031 A 
ATOM     37  C   UNL A   1      41.513  25.394  28.126  1.00  0.00     0.074 A 
ATOM     38  C   UNL A   1      43.791  24.967  29.040  1.00  0.00     0.049 A 
ATOM     39  N   UNL A   1      41.379  26.529  27.527  1.00  0.00    -0.248 NA
ATOM     40  C   UNL A   1      40.250  24.799  28.590  1.00  0.00     0.031 C 
ATOM     41  C   UNL A   1      44.885  24.125  29.532  1.00  0.00     0.029 A 
ATOM     42  N   UNL A   1      43.988  26.149  29.683  1.00  0.00    -0.354 N 
ATOM     43  C   UNL A   1      40.051  26.894  27.728  1.00  0.00     0.074 A 
ATOM     44  C   UNL A   1      39.370  25.726  28.217  1.00  0.00     0.031 C 
ATOM     45  C   UNL A   1      45.452  24.734  30.597  1.00  0.00     0.029 A 
ATOM     46  C   UNL A   1      44.836  26.038  30.775  1.00  0.00     0.049 A 
ATOM     47  H   UNL A   1      43.570  26.996  29.404  1.00  0.00     0.167 HD
ATOM     48  C   UNL A   1      39.664  28.197  27.721  1.00  0.00     0.034 A 
ATOM     49  C   UNL A   1      44.913  26.904  31.814  1.00  0.00     0.034 A 
ATOM     50  C   UNL A   1      40.639  29.048  27.093  1.00  0.00     0.049 A 
ATOM     51  C   UNL A   1      44.316  28.189  31.371  1.00  0.00     0.074 A 
ATOM     52  C   UNL A   1      41.261  29.067  25.859  1.00  0.00     0.029 A 
ATOM     53  N   UNL A   1      41.398  29.855  27.907  1.00  0.00    -0.354 N 
ATOM     54  N   UNL A   1      44.835  28.953  30.449  1.00  0.00    -0.248 NA
ATOM     55  C   UNL A   1      42.907  28.421  31.652  1.00  0.00     0.031 C 
ATOM     56  C   UNL A   1      42.600  29.470  26.130  1.00  0.00     0.029 A 
ATOM     57  C   UNL A   1      42.698  29.716  27.502  1.00  0.00     0.049 A 
ATOM     58  H   UNL A   1      41.068  30.425  28.639  1.00  0.00     0.167 HD
ATOM     59  C   UNL A   1      43.742  29.434  29.737  1.00  0.00     0.074 A 
ATOM     60  C   UNL A   1      42.586  29.165  30.592  1.00  0.00     0.031 C 
ATOM     61  C   UNL A   1      43.829  29.730  28.405  1.00  0.00     0.034 A 
BRANCH  48  62
ATOM     62  C   UNL A   1      38.567  28.751  28.594  1.00  0.00     0.023 A 
ATOM     63  C   UNL A   1      37.532  29.469  27.959  1.00  0.00     0.012 A 
ATOM     64  C   UNL A   1      38.640  28.837  30.004  1.00  0.00     0.148 A 
ATOM     65  C   UNL A   1      36.646  30.269  28.685  1.00  0.00     0.002 A 
ATOM     66  C   UNL A   1      37.698  29.558  30.728  1.00  0.00     0.091 A 
ATOM     67  F   UNL A   1      39.697  28.346  30.657  1.00  0.00    -0.205 F 
ATOM     68  C   UNL A   1      36.719  30.304  30.072  1.00  0.00     0.022 A 
BRANCH  66  69
ATOM     69  S   UNL A   1      37.719  29.567  32.523  1.00  0.00     0.127 S 
ATOM     70  O   UNL A   1      39.054  30.089  32.799  1.00  0.00    -0.237 OA
ATOM     71  O   UNL A   1      36.619  30.480  32.836  1.00  0.00    -0.237 OA
ATOM     72  O   UNL A   1      37.470  28.184  32.914  1.00  0.00    -0.744 OA
ENDBRANCH  66  69
ENDBRANCH  48  62
BRANCH  49  73
ATOM     73  C   UNL A   1      45.198  26.599  33.236  1.00  0.00     0.023 A 
ATOM     74  C   UNL A   1      46.380  27.082  33.829  1.00  0.00     0.012 A 
ATOM     75  C   UNL A   1      44.215  26.032  34.082  1.00  0.00     0.148 A 
ATOM     76  C   UNL A   1      46.571  27.013  35.215  1.00  0.00     0.002 A 
ATOM     77  C   UNL A   1      44.422  25.939  35.454  1.00  0.00     0.091 A 
ATOM     78  F   UNL A   1      43.036  25.671  33.560  1.00  0.00    -0.205 F 
ATOM     79  C   UNL A   1      45.595  26.440  36.028  1.00  0.00     0.022 A 
BRANCH  77  80
ATOM     80  S   UNL A   1      43.204  25.188  36.545  1.00  0.00     0.127 S 
ATOM     81  O   UNL A   1      43.936  25.106  37.810  1.00  0.00    -0.237 OA
ATOM     82  O   UNL A   1      42.128  26.173  36.525  1.00  0.00    -0.237 OA
ATOM     83  O   UNL A   1      42.895  23.891  35.956  1.00  0.00    -0.744 OA
ENDBRANCH  77  80
ENDBRANCH  49  73
BRANCH  61  84
ATOM     84  C   UNL A   1      45.191  29.763  27.752  1.00  0.00     0.023 A 
ATOM     85  C   UNL A   1      46.011  30.909  27.802  1.00  0.00     0.012 A 
ATOM     86  C   UNL A   1      45.738  28.560  27.270  1.00  0.00     0.148 A 
ATOM     87  C   UNL A   1      47.336  30.865  27.360  1.00  0.00     0.002 A 
ATOM     88  C   UNL A   1      47.071  28.508  26.877  1.00  0.00     0.091 A 
ATOM     89  F   UNL A   1      44.953  27.473  27.236  1.00  0.00    -0.205 F 
ATOM     90  C   UNL A   1      47.871  29.661  26.911  1.00  0.00     0.022 A 
BRANCH  88  91
ATOM     91  S   UNL A   1      47.856  26.960  26.419  1.00  0.00     0.127 S 
ATOM     92  O   UNL A   1      49.241  27.372  26.200  1.00  0.00    -0.237 OA
ATOM     93  O   UNL A   1      47.647  26.132  27.608  1.00  0.00    -0.237 OA
ATOM     94  O   UNL A   1      47.147  26.486  25.236  1.00  0.00    -0.744 OA
ENDBRANCH  88  91
ENDBRANCH  61  84
ENDBRANCH  35  36
ENDBRANCH  28  30
ENDBRANCH  27  28
ENDBRANCH  26  27
ENDBRANCH  25  26
ENDBRANCH   1  25
TORSDOF 21
ENDMDL
