MODEL 1
REMARK VINA RESULT:     -13.6      0.000      0.000
REMARK SMILES COc1ccc(N2C(=O)/C(=C/c3c(C(=O)OCCOC(=O)c4ccc(-c5c6nc(c(-c7cccc(S(=O)(=O)[O-])c7F)c7ccc([nH]7)c(-c7cccc(S(=O)(=O)[O-])c7F)c7nc(c(-c8cccc(S(=O)(=O)[O-])c8F)c8ccc5[nH]8)C=C7)C=C6)cc4)[nH]c4cc(OC)ccc34)SC2=S)cc1
REMARK SMILES IDX 17 1 16 2 14 3 15 4 13 5 12 6 93 7 85 8 86 9 92 10 87 12
REMARK SMILES IDX 91 13 88 14 11 15 7 16 8 17 95 18 9 19 10 20 94 21 96 22
REMARK SMILES IDX 6 23 3 24 4 25 98 26 5 27 97 28 2 29 1 30 89 31 90 32 18 33
REMARK SMILES IDX 19 34 20 35 21 36 22 37 23 38 84 39 24 40 83 41 25 42 26 43
REMARK SMILES IDX 27 44 77 45 28 46 82 47 76 48 78 49 29 50 81 51 75 52 74 53
REMARK SMILES IDX 30 55 62 56 42 57 61 58 43 59 46 60 60 61 79 62 44 63 45 64
REMARK SMILES IDX 59 66 80 67 47 68 31 69 32 70 40 71 33 72 35 73 41 74 34 75
REMARK SMILES IDX 36 76 37 77 38 78 39 79 63 80 64 81 72 82 65 83 67 84 73 85
REMARK SMILES IDX 66 86 68 87 69 88 70 89 71 90 48 91 49 92 57 93 50 94 52 95
REMARK SMILES IDX 58 96 51 97 53 98 54 99 55 100 56 101
REMARK H PARENT 85 11 78 54 46 65
REMARK Flexibility Score: inf
ROOT
ATOM      1  C   UNL A   1      35.357  22.684  26.209  1.00  0.00     0.275 C 
ENDROOT
BRANCH   1   2
ATOM      2  O   UNL A   1      34.819  22.353  27.508  1.00  0.00    -0.457 OA
BRANCH   2   3
ATOM      3  C   UNL A   1      33.470  22.167  27.521  1.00  0.00     0.355 C 
ATOM      4  O   UNL A   1      32.704  22.713  28.304  1.00  0.00    -0.244 OA
BRANCH   3   5
ATOM      5  C   UNL A   1      33.033  21.303  26.456  1.00  0.00     0.133 A 
ATOM      6  C   UNL A   1      32.206  21.479  25.353  1.00  0.00     0.016 A 
ATOM      7  C   UNL A   1      32.390  20.341  24.489  1.00  0.00     0.008 A 
ATOM      8  N   UNL A   1      33.447  19.998  26.406  1.00  0.00    -0.348 N 
ATOM      9  C   UNL A   1      33.180  19.436  25.193  1.00  0.00     0.050 A 
ATOM     10  C   UNL A   1      31.978  19.946  23.196  1.00  0.00     0.015 A 
ATOM     11  H   UNL A   1      33.881  19.525  27.153  1.00  0.00     0.167 HD
ATOM     12  C   UNL A   1      33.566  18.184  24.716  1.00  0.00     0.073 A 
ATOM     13  C   UNL A   1      32.399  18.698  22.672  1.00  0.00     0.047 A 
ATOM     14  C   UNL A   1      33.181  17.825  23.428  1.00  0.00     0.120 A 
BRANCH   6  15
ATOM     15  C   UNL A   1      31.276  22.566  25.246  1.00  0.00     0.032 C 
ATOM     16  N   UNL A   1      31.594  25.927  24.174  1.00  0.00    -0.261 N 
ATOM     17  C   UNL A   1      30.826  24.928  24.792  1.00  0.00     0.270 C 
ATOM     18  C   UNL A   1      32.449  25.469  23.170  1.00  0.00     0.152 C 
ATOM     19  O   UNL A   1      29.894  25.060  25.577  1.00  0.00    -0.268 OA
ATOM     20  C   UNL A   1      31.322  23.588  24.376  1.00  0.00     0.081 C 
ATOM     21  S   UNL A   1      32.212  23.734  22.927  1.00  0.00    -0.054 SA
ATOM     22  S   UNL A   1      33.665  26.237  22.310  1.00  0.00    -0.051 S 
BRANCH  16  23
ATOM     23  C   UNL A   1      31.486  27.299  24.618  1.00  0.00     0.051 A 
ATOM     24  C   UNL A   1      31.283  30.016  25.449  1.00  0.00     0.119 A 
ATOM     25  C   UNL A   1      30.712  29.598  24.253  1.00  0.00     0.048 A 
ATOM     26  C   UNL A   1      31.917  29.077  26.254  1.00  0.00     0.048 A 
ATOM     27  C   UNL A   1      30.816  28.260  23.841  1.00  0.00     0.030 A 
ATOM     28  C   UNL A   1      32.032  27.744  25.832  1.00  0.00     0.030 A 
BRANCH  24  29
ATOM     29  O   UNL A   1      31.157  31.345  25.742  1.00  0.00    -0.497 OA
ATOM     30  C   UNL A   1      31.923  31.796  26.855  1.00  0.00     0.278 C 
ENDBRANCH  24  29
ENDBRANCH  16  23
ENDBRANCH   6  15
BRANCH  14  31
ATOM     31  O   UNL A   1      33.614  16.581  23.064  1.00  0.00    -0.497 OA
ATOM     32  C   UNL A   1      34.320  15.823  24.032  1.00  0.00     0.278 C 
ENDBRANCH  14  31
ENDBRANCH   3   5
ENDBRANCH   2   3
ENDBRANCH   1   2
BRANCH   1  33
ATOM     33  C   UNL A   1      36.296  21.595  25.678  1.00  0.00     0.275 C 
BRANCH  33  34
ATOM     34  O   UNL A   1      37.520  22.142  25.150  1.00  0.00    -0.458 OA
BRANCH  34  35
ATOM     35  C   UNL A   1      38.637  21.771  25.809  1.00  0.00     0.338 C 
ATOM     36  O   UNL A   1      39.226  20.704  25.727  1.00  0.00    -0.246 OA
BRANCH  35  37
ATOM     37  C   UNL A   1      39.182  22.877  26.601  1.00  0.00     0.060 A 
ATOM     38  C   UNL A   1      38.781  24.176  26.283  1.00  0.00     0.016 A 
ATOM     39  C   UNL A   1      40.246  22.654  27.467  1.00  0.00     0.016 A 
ATOM     40  C   UNL A   1      39.527  25.260  26.712  1.00  0.00     0.010 A 
ATOM     41  C   UNL A   1      40.925  23.753  27.992  1.00  0.00     0.010 A 
ATOM     42  C   UNL A   1      40.599  25.060  27.582  1.00  0.00    -0.014 A 
BRANCH  42  43
ATOM     43  C   UNL A   1      41.404  26.209  28.052  1.00  0.00     0.031 A 
ATOM     44  C   UNL A   1      40.746  27.264  28.889  1.00  0.00     0.074 A 
ATOM     45  C   UNL A   1      42.694  26.318  27.685  1.00  0.00     0.049 A 
ATOM     46  N   UNL A   1      41.137  28.484  29.135  1.00  0.00    -0.248 NA
ATOM     47  C   UNL A   1      39.456  26.909  29.509  1.00  0.00     0.031 C 
ATOM     48  C   UNL A   1      43.445  25.323  26.917  1.00  0.00     0.029 A 
ATOM     49  N   UNL A   1      43.594  27.332  27.883  1.00  0.00    -0.354 N 
ATOM     50  C   UNL A   1      40.100  29.075  29.846  1.00  0.00     0.074 A 
ATOM     51  C   UNL A   1      39.078  28.068  30.029  1.00  0.00     0.031 C 
ATOM     52  C   UNL A   1      44.688  25.775  26.701  1.00  0.00     0.029 A 
ATOM     53  C   UNL A   1      44.790  27.127  27.233  1.00  0.00     0.049 A 
ATOM     54  H   UNL A   1      43.405  28.127  28.432  1.00  0.00     0.167 HD
ATOM     55  C   UNL A   1      40.017  30.350  30.292  1.00  0.00     0.034 A 
ATOM     56  C   UNL A   1      45.827  27.962  27.032  1.00  0.00     0.034 A 
ATOM     57  C   UNL A   1      41.090  31.298  30.167  1.00  0.00     0.049 A 
ATOM     58  C   UNL A   1      45.731  29.356  27.580  1.00  0.00     0.074 A 
ATOM     59  C   UNL A   1      41.138  32.611  30.597  1.00  0.00     0.029 A 
ATOM     60  N   UNL A   1      42.320  31.018  29.588  1.00  0.00    -0.354 N 
ATOM     61  N   UNL A   1      44.744  29.911  28.243  1.00  0.00    -0.248 NA
ATOM     62  C   UNL A   1      46.884  30.237  27.361  1.00  0.00     0.031 C 
ATOM     63  C   UNL A   1      42.403  33.123  30.284  1.00  0.00     0.029 A 
ATOM     64  C   UNL A   1      43.142  32.126  29.664  1.00  0.00     0.049 A 
ATOM     65  H   UNL A   1      42.569  30.157  29.182  1.00  0.00     0.167 HD
ATOM     66  C   UNL A   1      45.163  31.202  28.537  1.00  0.00     0.074 A 
ATOM     67  C   UNL A   1      46.503  31.336  27.999  1.00  0.00     0.031 C 
ATOM     68  C   UNL A   1      44.495  32.196  29.171  1.00  0.00     0.034 A 
BRANCH  55  69
ATOM     69  C   UNL A   1      38.740  30.780  30.959  1.00  0.00     0.023 A 
ATOM     70  C   UNL A   1      38.578  30.605  32.348  1.00  0.00     0.012 A 
ATOM     71  C   UNL A   1      37.708  31.387  30.216  1.00  0.00     0.148 A 
ATOM     72  C   UNL A   1      37.401  31.003  32.982  1.00  0.00     0.002 A 
ATOM     73  C   UNL A   1      36.551  31.814  30.860  1.00  0.00     0.091 A 
ATOM     74  F   UNL A   1      37.864  31.518  28.891  1.00  0.00    -0.205 F 
ATOM     75  C   UNL A   1      36.392  31.616  32.241  1.00  0.00     0.022 A 
BRANCH  73  76
ATOM     76  S   UNL A   1      35.228  32.670  29.995  1.00  0.00     0.127 S 
ATOM     77  O   UNL A   1      34.258  32.877  31.070  1.00  0.00    -0.237 OA
ATOM     78  O   UNL A   1      35.893  33.888  29.532  1.00  0.00    -0.237 OA
ATOM     79  O   UNL A   1      34.804  31.773  28.930  1.00  0.00    -0.744 OA
ENDBRANCH  73  76
ENDBRANCH  55  69
BRANCH  56  80
ATOM     80  C   UNL A   1      47.026  27.478  26.292  1.00  0.00     0.023 A 
ATOM     81  C   UNL A   1      47.881  26.544  26.906  1.00  0.00     0.012 A 
ATOM     82  C   UNL A   1      47.274  27.860  24.958  1.00  0.00     0.148 A 
ATOM     83  C   UNL A   1      48.964  26.006  26.209  1.00  0.00     0.002 A 
ATOM     84  C   UNL A   1      48.319  27.276  24.251  1.00  0.00     0.091 A 
ATOM     85  F   UNL A   1      46.465  28.767  24.393  1.00  0.00    -0.205 F 
ATOM     86  C   UNL A   1      49.173  26.359  24.879  1.00  0.00     0.022 A 
BRANCH  84  87
ATOM     87  S   UNL A   1      48.548  27.565  22.490  1.00  0.00     0.127 S 
ATOM     88  O   UNL A   1      48.656  26.204  21.975  1.00  0.00    -0.237 OA
ATOM     89  O   UNL A   1      47.316  28.265  22.126  1.00  0.00    -0.237 OA
ATOM     90  O   UNL A   1      49.746  28.388  22.394  1.00  0.00    -0.744 OA
ENDBRANCH  84  87
ENDBRANCH  56  80
BRANCH  68  91
ATOM     91  C   UNL A   1      45.212  33.504  29.344  1.00  0.00     0.023 A 
ATOM     92  C   UNL A   1      46.034  33.695  30.471  1.00  0.00     0.012 A 
ATOM     93  C   UNL A   1      45.146  34.494  28.347  1.00  0.00     0.148 A 
ATOM     94  C   UNL A   1      46.774  34.867  30.608  1.00  0.00     0.002 A 
ATOM     95  C   UNL A   1      45.915  35.643  28.473  1.00  0.00     0.091 A 
ATOM     96  F   UNL A   1      44.336  34.293  27.297  1.00  0.00    -0.205 F 
ATOM     97  C   UNL A   1      46.724  35.834  29.606  1.00  0.00     0.022 A 
BRANCH  95  98
ATOM     98  S   UNL A   1      45.974  36.897  27.189  1.00  0.00     0.127 S 
ATOM     99  O   UNL A   1      46.372  36.111  26.023  1.00  0.00    -0.237 OA
ATOM    100  O   UNL A   1      44.592  37.378  27.157  1.00  0.00    -0.237 OA
ATOM    101  O   UNL A   1      46.943  37.884  27.642  1.00  0.00    -0.744 OA
ENDBRANCH  95  98
ENDBRANCH  68  91
ENDBRANCH  42  43
ENDBRANCH  35  37
ENDBRANCH  34  35
ENDBRANCH  33  34
ENDBRANCH   1  33
TORSDOF 18
ENDMDL
MODEL 2
REMARK VINA RESULT:     -12.9      5.629      9.623
REMARK SMILES COc1ccc(N2C(=O)/C(=C/c3c(C(=O)OCCOC(=O)c4ccc(-c5c6nc(c(-c7cccc(S(=O)(=O)[O-])c7F)c7ccc([nH]7)c(-c7cccc(S(=O)(=O)[O-])c7F)c7nc(c(-c8cccc(S(=O)(=O)[O-])c8F)c8ccc5[nH]8)C=C7)C=C6)cc4)[nH]c4cc(OC)ccc34)SC2=S)cc1
REMARK SMILES IDX 17 1 16 2 14 3 15 4 13 5 12 6 93 7 85 8 86 9 92 10 87 12
REMARK SMILES IDX 91 13 88 14 11 15 7 16 8 17 95 18 9 19 10 20 94 21 96 22
REMARK SMILES IDX 6 23 3 24 4 25 98 26 5 27 97 28 2 29 1 30 89 31 90 32 18 33
REMARK SMILES IDX 19 34 20 35 21 36 22 37 23 38 84 39 24 40 83 41 25 42 26 43
REMARK SMILES IDX 27 44 77 45 28 46 82 47 76 48 78 49 29 50 81 51 75 52 74 53
REMARK SMILES IDX 30 55 62 56 42 57 61 58 43 59 46 60 60 61 79 62 44 63 45 64
REMARK SMILES IDX 59 66 80 67 47 68 31 69 32 70 40 71 33 72 35 73 41 74 34 75
REMARK SMILES IDX 36 76 37 77 38 78 39 79 63 80 64 81 72 82 65 83 67 84 73 85
REMARK SMILES IDX 66 86 68 87 69 88 70 89 71 90 48 91 49 92 57 93 50 94 52 95
REMARK SMILES IDX 58 96 51 97 53 98 54 99 55 100 56 101
REMARK H PARENT 85 11 78 54 46 65
REMARK Flexibility Score: inf
ROOT
ATOM      1  C   UNL A   1      33.768  32.175  27.733  1.00  0.00     0.275 C 
ENDROOT
BRANCH   1   2
ATOM      2  O   UNL A   1      32.803  31.188  27.307  1.00  0.00    -0.457 OA
BRANCH   2   3
ATOM      3  C   UNL A   1      33.354  30.079  26.740  1.00  0.00     0.355 C 
ATOM      4  O   UNL A   1      34.437  29.605  27.054  1.00  0.00    -0.244 OA
BRANCH   3   5
ATOM      5  C   UNL A   1      32.478  29.479  25.767  1.00  0.00     0.133 A 
ATOM      6  C   UNL A   1      32.190  28.167  25.413  1.00  0.00     0.016 A 
ATOM      7  C   UNL A   1      31.013  28.191  24.581  1.00  0.00     0.008 A 
ATOM      8  N   UNL A   1      31.710  30.263  24.946  1.00  0.00    -0.348 N 
ATOM      9  C   UNL A   1      30.747  29.532  24.317  1.00  0.00     0.050 A 
ATOM     10  C   UNL A   1      30.135  27.247  24.002  1.00  0.00     0.015 A 
ATOM     11  H   UNL A   1      31.838  31.232  24.826  1.00  0.00     0.167 HD
ATOM     12  C   UNL A   1      29.699  29.988  23.517  1.00  0.00     0.073 A 
ATOM     13  C   UNL A   1      29.036  27.690  23.226  1.00  0.00     0.047 A 
ATOM     14  C   UNL A   1      28.825  29.047  22.982  1.00  0.00     0.120 A 
BRANCH   6  15
ATOM     15  C   UNL A   1      33.044  27.066  25.754  1.00  0.00     0.032 C 
ATOM     16  N   UNL A   1      33.633  23.906  24.264  1.00  0.00    -0.261 N 
ATOM     17  C   UNL A   1      33.804  24.775  25.355  1.00  0.00     0.270 C 
ATOM     18  C   UNL A   1      33.555  24.539  23.021  1.00  0.00     0.152 C 
ATOM     19  O   UNL A   1      34.060  24.492  26.519  1.00  0.00    -0.268 OA
ATOM     20  C   UNL A   1      33.599  26.180  24.911  1.00  0.00     0.081 C 
ATOM     21  S   UNL A   1      33.799  26.278  23.219  1.00  0.00    -0.054 SA
ATOM     22  S   UNL A   1      33.169  23.953  21.500  1.00  0.00    -0.051 S 
BRANCH  16  23
ATOM     23  C   UNL A   1      33.518  22.483  24.487  1.00  0.00     0.051 A 
ATOM     24  C   UNL A   1      33.324  19.670  24.892  1.00  0.00     0.119 A 
ATOM     25  C   UNL A   1      34.566  20.286  24.793  1.00  0.00     0.048 A 
ATOM     26  C   UNL A   1      32.179  20.455  24.833  1.00  0.00     0.048 A 
ATOM     27  C   UNL A   1      34.662  21.672  24.588  1.00  0.00     0.030 A 
ATOM     28  C   UNL A   1      32.279  21.837  24.614  1.00  0.00     0.030 A 
BRANCH  24  29
ATOM     29  O   UNL A   1      33.339  18.312  25.054  1.00  0.00    -0.497 OA
ATOM     30  C   UNL A   1      34.407  17.635  24.399  1.00  0.00     0.278 C 
ENDBRANCH  24  29
ENDBRANCH  16  23
ENDBRANCH   6  15
BRANCH  14  31
ATOM     31  O   UNL A   1      27.838  29.604  22.217  1.00  0.00    -0.497 OA
ATOM     32  C   UNL A   1      28.231  30.485  21.179  1.00  0.00     0.278 C 
ENDBRANCH  14  31
ENDBRANCH   3   5
ENDBRANCH   2   3
ENDBRANCH   1   2
BRANCH   1  33
ATOM     33  C   UNL A   1      33.246  33.605  27.560  1.00  0.00     0.275 C 
BRANCH  33  34
ATOM     34  O   UNL A   1      32.549  34.076  28.730  1.00  0.00    -0.458 OA
BRANCH  34  35
ATOM     35  C   UNL A   1      33.158  35.087  29.383  1.00  0.00     0.338 C 
ATOM     36  O   UNL A   1      32.883  36.275  29.330  1.00  0.00    -0.246 OA
BRANCH  35  37
ATOM     37  C   UNL A   1      34.176  34.586  30.311  1.00  0.00     0.060 A 
ATOM     38  C   UNL A   1      35.517  34.686  29.937  1.00  0.00     0.016 A 
ATOM     39  C   UNL A   1      33.799  33.818  31.407  1.00  0.00     0.016 A 
ATOM     40  C   UNL A   1      36.475  33.907  30.563  1.00  0.00     0.010 A 
ATOM     41  C   UNL A   1      34.784  33.125  32.110  1.00  0.00     0.010 A 
ATOM     42  C   UNL A   1      36.120  33.128  31.665  1.00  0.00    -0.014 A 
BRANCH  42  43
ATOM     43  C   UNL A   1      37.133  32.294  32.347  1.00  0.00     0.031 A 
ATOM     44  C   UNL A   1      37.602  32.690  33.715  1.00  0.00     0.074 A 
ATOM     45  C   UNL A   1      37.655  31.225  31.717  1.00  0.00     0.049 A 
ATOM     46  N   UNL A   1      38.678  32.325  34.355  1.00  0.00    -0.248 NA
ATOM     47  C   UNL A   1      36.760  33.652  34.450  1.00  0.00     0.031 C 
ATOM     48  C   UNL A   1      37.233  30.722  30.408  1.00  0.00     0.029 A 
ATOM     49  N   UNL A   1      38.677  30.387  32.080  1.00  0.00    -0.354 N 
ATOM     50  C   UNL A   1      38.700  33.086  35.517  1.00  0.00     0.074 A 
ATOM     51  C   UNL A   1      37.508  33.905  35.515  1.00  0.00     0.031 C 
ATOM     52  C   UNL A   1      37.991  29.669  30.072  1.00  0.00     0.029 A 
ATOM     53  C   UNL A   1      39.009  29.483  31.097  1.00  0.00     0.049 A 
ATOM     54  H   UNL A   1      39.127  30.428  32.954  1.00  0.00     0.167 HD
ATOM     55  C   UNL A   1      39.643  33.098  36.487  1.00  0.00     0.034 A 
ATOM     56  C   UNL A   1      40.058  28.644  31.003  1.00  0.00     0.034 A 
ATOM     57  C   UNL A   1      40.770  32.206  36.498  1.00  0.00     0.049 A 
ATOM     58  C   UNL A   1      41.064  28.640  32.116  1.00  0.00     0.074 A 
ATOM     59  C   UNL A   1      41.783  32.104  37.434  1.00  0.00     0.029 A 
ATOM     60  N   UNL A   1      41.016  31.241  35.532  1.00  0.00    -0.354 N 
ATOM     61  N   UNL A   1      41.084  29.369  33.207  1.00  0.00    -0.248 NA
ATOM     62  C   UNL A   1      42.187  27.703  31.995  1.00  0.00     0.031 C 
ATOM     63  C   UNL A   1      42.636  31.069  37.037  1.00  0.00     0.029 A 
ATOM     64  C   UNL A   1      42.152  30.525  35.856  1.00  0.00     0.049 A 
ATOM     65  H   UNL A   1      40.462  31.089  34.733  1.00  0.00     0.167 HD
ATOM     66  C   UNL A   1      42.211  28.967  33.913  1.00  0.00     0.074 A 
ATOM     67  C   UNL A   1      42.833  27.913  33.134  1.00  0.00     0.031 C 
ATOM     68  C   UNL A   1      42.702  29.439  35.083  1.00  0.00     0.034 A 
BRANCH  55  69
ATOM     69  C   UNL A   1      39.486  34.087  37.609  1.00  0.00     0.023 A 
ATOM     70  C   UNL A   1      39.868  35.430  37.420  1.00  0.00     0.012 A 
ATOM     71  C   UNL A   1      38.931  33.694  38.844  1.00  0.00     0.148 A 
ATOM     72  C   UNL A   1      39.724  36.361  38.450  1.00  0.00     0.002 A 
ATOM     73  C   UNL A   1      38.757  34.635  39.854  1.00  0.00     0.091 A 
ATOM     74  F   UNL A   1      38.602  32.406  39.017  1.00  0.00    -0.205 F 
ATOM     75  C   UNL A   1      39.160  35.966  39.662  1.00  0.00     0.022 A 
BRANCH  73  76
ATOM     76  S   UNL A   1      37.981  34.230  41.424  1.00  0.00     0.127 S 
ATOM     77  O   UNL A   1      37.803  35.554  42.016  1.00  0.00    -0.237 OA
ATOM     78  O   UNL A   1      36.740  33.579  41.000  1.00  0.00    -0.237 OA
ATOM     79  O   UNL A   1      38.916  33.352  42.114  1.00  0.00    -0.744 OA
ENDBRANCH  73  76
ENDBRANCH  55  69
BRANCH  56  80
ATOM     80  C   UNL A   1      40.178  27.750  29.818  1.00  0.00     0.023 A 
ATOM     81  C   UNL A   1      39.336  26.627  29.717  1.00  0.00     0.012 A 
ATOM     82  C   UNL A   1      41.049  28.051  28.751  1.00  0.00     0.148 A 
ATOM     83  C   UNL A   1      39.363  25.817  28.581  1.00  0.00     0.002 A 
ATOM     84  C   UNL A   1      41.029  27.274  27.598  1.00  0.00     0.091 A 
ATOM     85  F   UNL A   1      41.862  29.110  28.869  1.00  0.00    -0.205 F 
ATOM     86  C   UNL A   1      40.196  26.149  27.516  1.00  0.00     0.022 A 
BRANCH  84  87
ATOM     87  S   UNL A   1      41.958  27.738  26.129  1.00  0.00     0.127 S 
ATOM     88  O   UNL A   1      41.465  29.088  25.876  1.00  0.00    -0.237 OA
ATOM     89  O   UNL A   1      43.342  27.665  26.598  1.00  0.00    -0.237 OA
ATOM     90  O   UNL A   1      41.618  26.731  25.132  1.00  0.00    -0.744 OA
ENDBRANCH  84  87
ENDBRANCH  56  80
BRANCH  68  91
ATOM     91  C   UNL A   1      43.956  28.801  35.609  1.00  0.00     0.023 A 
ATOM     92  C   UNL A   1      45.207  29.322  35.230  1.00  0.00     0.012 A 
ATOM     93  C   UNL A   1      43.886  27.756  36.549  1.00  0.00     0.148 A 
ATOM     94  C   UNL A   1      46.378  28.799  35.771  1.00  0.00     0.002 A 
ATOM     95  C   UNL A   1      45.056  27.265  37.112  1.00  0.00     0.091 A 
ATOM     96  F   UNL A   1      42.681  27.265  36.874  1.00  0.00    -0.205 F 
ATOM     97  C   UNL A   1      46.303  27.781  36.720  1.00  0.00     0.022 A 
BRANCH  95  98
ATOM     98  S   UNL A   1      45.043  26.015  38.401  1.00  0.00     0.127 S 
ATOM     99  O   UNL A   1      46.470  25.845  38.666  1.00  0.00    -0.237 OA
ATOM    100  O   UNL A   1      44.299  26.678  39.473  1.00  0.00    -0.237 OA
ATOM    101  O   UNL A   1      44.368  24.860  37.827  1.00  0.00    -0.744 OA
ENDBRANCH  95  98
ENDBRANCH  68  91
ENDBRANCH  42  43
ENDBRANCH  35  37
ENDBRANCH  34  35
ENDBRANCH  33  34
ENDBRANCH   1  33
TORSDOF 18
ENDMDL
MODEL 3
REMARK VINA RESULT:     -12.9      4.997     10.394
REMARK SMILES COc1ccc(N2C(=O)/C(=C/c3c(C(=O)OCCOC(=O)c4ccc(-c5c6nc(c(-c7cccc(S(=O)(=O)[O-])c7F)c7ccc([nH]7)c(-c7cccc(S(=O)(=O)[O-])c7F)c7nc(c(-c8cccc(S(=O)(=O)[O-])c8F)c8ccc5[nH]8)C=C7)C=C6)cc4)[nH]c4cc(OC)ccc34)SC2=S)cc1
REMARK SMILES IDX 17 1 16 2 14 3 15 4 13 5 12 6 93 7 85 8 86 9 92 10 87 12
REMARK SMILES IDX 91 13 88 14 11 15 7 16 8 17 95 18 9 19 10 20 94 21 96 22
REMARK SMILES IDX 6 23 3 24 4 25 98 26 5 27 97 28 2 29 1 30 89 31 90 32 18 33
REMARK SMILES IDX 19 34 20 35 21 36 22 37 23 38 84 39 24 40 83 41 25 42 26 43
REMARK SMILES IDX 27 44 77 45 28 46 82 47 76 48 78 49 29 50 81 51 75 52 74 53
REMARK SMILES IDX 30 55 62 56 42 57 61 58 43 59 46 60 60 61 79 62 44 63 45 64
REMARK SMILES IDX 59 66 80 67 47 68 31 69 32 70 40 71 33 72 35 73 41 74 34 75
REMARK SMILES IDX 36 76 37 77 38 78 39 79 63 80 64 81 72 82 65 83 67 84 73 85
REMARK SMILES IDX 66 86 68 87 69 88 70 89 71 90 48 91 49 92 57 93 50 94 52 95
REMARK SMILES IDX 58 96 51 97 53 98 54 99 55 100 56 101
REMARK H PARENT 85 11 78 54 46 65
REMARK Flexibility Score: inf
ROOT
ATOM      1  C   UNL A   1      33.945  28.526  24.406  1.00  0.00     0.275 C 
ENDROOT
BRANCH   1   2
ATOM      2  O   UNL A   1      33.505  27.275  23.834  1.00  0.00    -0.457 OA
BRANCH   2   3
ATOM      3  C   UNL A   1      33.058  27.375  22.552  1.00  0.00     0.355 C 
ATOM      4  O   UNL A   1      33.711  27.068  21.564  1.00  0.00    -0.244 OA
BRANCH   3   5
ATOM      5  C   UNL A   1      31.690  27.821  22.491  1.00  0.00     0.133 A 
ATOM      6  C   UNL A   1      30.468  27.214  22.756  1.00  0.00     0.016 A 
ATOM      7  C   UNL A   1      29.470  28.253  22.804  1.00  0.00     0.008 A 
ATOM      8  N   UNL A   1      31.392  29.098  22.095  1.00  0.00    -0.348 N 
ATOM      9  C   UNL A   1      30.100  29.421  22.383  1.00  0.00     0.050 A 
ATOM     10  C   UNL A   1      28.102  28.359  23.139  1.00  0.00     0.015 A 
ATOM     11  H   UNL A   1      32.032  29.707  21.658  1.00  0.00     0.167 HD
ATOM     12  C   UNL A   1      29.469  30.659  22.259  1.00  0.00     0.073 A 
ATOM     13  C   UNL A   1      27.453  29.616  23.067  1.00  0.00     0.047 A 
ATOM     14  C   UNL A   1      28.130  30.753  22.626  1.00  0.00     0.120 A 
BRANCH   6  15
ATOM     15  C   UNL A   1      30.308  25.790  22.823  1.00  0.00     0.032 C 
ATOM     16  N   UNL A   1      31.788  23.280  24.837  1.00  0.00    -0.261 N 
ATOM     17  C   UNL A   1      30.995  23.624  23.730  1.00  0.00     0.270 C 
ATOM     18  C   UNL A   1      31.713  24.172  25.908  1.00  0.00     0.152 C 
ATOM     19  O   UNL A   1      30.746  22.954  22.734  1.00  0.00    -0.268 OA
ATOM     20  C   UNL A   1      30.472  25.007  23.901  1.00  0.00     0.081 C 
ATOM     21  S   UNL A   1      30.534  25.439  25.551  1.00  0.00    -0.054 SA
ATOM     22  S   UNL A   1      32.601  24.282  27.325  1.00  0.00    -0.051 S 
BRANCH  16  23
ATOM     23  C   UNL A   1      32.621  22.099  24.788  1.00  0.00     0.051 A 
ATOM     24  C   UNL A   1      34.241  19.757  24.732  1.00  0.00     0.119 A 
ATOM     25  C   UNL A   1      32.881  19.669  25.003  1.00  0.00     0.048 A 
ATOM     26  C   UNL A   1      34.789  21.001  24.446  1.00  0.00     0.048 A 
ATOM     27  C   UNL A   1      32.082  20.824  25.035  1.00  0.00     0.030 A 
ATOM     28  C   UNL A   1      33.991  22.154  24.494  1.00  0.00     0.030 A 
BRANCH  24  29
ATOM     29  O   UNL A   1      34.935  18.579  24.760  1.00  0.00    -0.497 OA
ATOM     30  C   UNL A   1      34.397  17.539  23.950  1.00  0.00     0.278 C 
ENDBRANCH  24  29
ENDBRANCH  16  23
ENDBRANCH   6  15
BRANCH  14  31
ATOM     31  O   UNL A   1      27.615  32.009  22.464  1.00  0.00    -0.497 OA
ATOM     32  C   UNL A   1      28.007  32.736  21.312  1.00  0.00     0.278 C 
ENDBRANCH  14  31
ENDBRANCH   3   5
ENDBRANCH   2   3
ENDBRANCH   1   2
BRANCH   1  33
ATOM     33  C   UNL A   1      33.061  28.968  25.577  1.00  0.00     0.275 C 
BRANCH  33  34
ATOM     34  O   UNL A   1      33.032  30.401  25.727  1.00  0.00    -0.458 OA
BRANCH  34  35
ATOM     35  C   UNL A   1      33.267  30.844  26.979  1.00  0.00     0.338 C 
ATOM     36  O   UNL A   1      32.446  31.243  27.790  1.00  0.00    -0.246 OA
BRANCH  35  37
ATOM     37  C   UNL A   1      34.677  30.684  27.346  1.00  0.00     0.060 A 
ATOM     38  C   UNL A   1      35.140  29.401  27.647  1.00  0.00     0.016 A 
ATOM     39  C   UNL A   1      35.454  31.803  27.624  1.00  0.00     0.016 A 
ATOM     40  C   UNL A   1      36.315  29.234  28.357  1.00  0.00     0.010 A 
ATOM     41  C   UNL A   1      36.694  31.623  28.236  1.00  0.00     0.010 A 
ATOM     42  C   UNL A   1      37.112  30.343  28.647  1.00  0.00    -0.014 A 
BRANCH  42  43
ATOM     43  C   UNL A   1      38.373  30.179  29.402  1.00  0.00     0.031 A 
ATOM     44  C   UNL A   1      39.447  29.295  28.842  1.00  0.00     0.074 A 
ATOM     45  C   UNL A   1      38.522  30.781  30.597  1.00  0.00     0.049 A 
ATOM     46  N   UNL A   1      40.466  28.751  29.448  1.00  0.00    -0.248 NA
ATOM     47  C   UNL A   1      39.344  28.953  27.412  1.00  0.00     0.031 C 
ATOM     48  C   UNL A   1      37.562  31.701  31.208  1.00  0.00     0.029 A 
ATOM     49  N   UNL A   1      39.525  30.682  31.526  1.00  0.00    -0.354 N 
ATOM     50  C   UNL A   1      41.063  27.922  28.508  1.00  0.00     0.074 A 
ATOM     51  C   UNL A   1      40.318  28.064  27.276  1.00  0.00     0.031 C 
ATOM     52  C   UNL A   1      38.015  32.079  32.412  1.00  0.00     0.029 A 
ATOM     53  C   UNL A   1      39.247  31.356  32.693  1.00  0.00     0.049 A 
ATOM     54  H   UNL A   1      40.358  30.180  31.374  1.00  0.00     0.167 HD
ATOM     55  C   UNL A   1      42.133  27.109  28.673  1.00  0.00     0.034 A 
ATOM     56  C   UNL A   1      39.881  31.339  33.881  1.00  0.00     0.034 A 
ATOM     57  C   UNL A   1      42.902  27.059  29.886  1.00  0.00     0.049 A 
ATOM     58  C   UNL A   1      41.095  30.468  34.024  1.00  0.00     0.074 A 
ATOM     59  C   UNL A   1      44.018  26.296  30.171  1.00  0.00     0.029 A 
ATOM     60  N   UNL A   1      42.642  27.831  31.011  1.00  0.00    -0.354 N 
ATOM     61  N   UNL A   1      41.649  29.679  33.134  1.00  0.00    -0.248 NA
ATOM     62  C   UNL A   1      41.775  30.483  35.325  1.00  0.00     0.031 C 
ATOM     63  C   UNL A   1      44.440  26.613  31.468  1.00  0.00     0.029 A 
ATOM     64  C   UNL A   1      43.587  27.577  31.986  1.00  0.00     0.049 A 
ATOM     65  H   UNL A   1      41.895  28.464  31.100  1.00  0.00     0.167 HD
ATOM     66  C   UNL A   1      42.754  29.116  33.759  1.00  0.00     0.074 A 
ATOM     67  C   UNL A   1      42.802  29.675  35.097  1.00  0.00     0.031 C 
ATOM     68  C   UNL A   1      43.635  28.203  33.284  1.00  0.00     0.034 A 
BRANCH  55  69
ATOM     69  C   UNL A   1      42.535  26.231  27.520  1.00  0.00     0.023 A 
ATOM     70  C   UNL A   1      43.351  26.747  26.494  1.00  0.00     0.012 A 
ATOM     71  C   UNL A   1      42.129  24.882  27.467  1.00  0.00     0.148 A 
ATOM     72  C   UNL A   1      43.735  25.942  25.420  1.00  0.00     0.002 A 
ATOM     73  C   UNL A   1      42.545  24.076  26.411  1.00  0.00     0.091 A 
ATOM     74  F   UNL A   1      41.326  24.416  28.434  1.00  0.00    -0.205 F 
ATOM     75  C   UNL A   1      43.342  24.606  25.384  1.00  0.00     0.022 A 
BRANCH  73  76
ATOM     76  S   UNL A   1      42.138  22.328  26.317  1.00  0.00     0.127 S 
ATOM     77  O   UNL A   1      40.678  22.369  26.233  1.00  0.00    -0.237 OA
ATOM     78  O   UNL A   1      42.807  21.917  25.082  1.00  0.00    -0.237 OA
ATOM     79  O   UNL A   1      42.682  21.728  27.527  1.00  0.00    -0.744 OA
ENDBRANCH  73  76
ENDBRANCH  55  69
BRANCH  56  80
ATOM     80  C   UNL A   1      39.371  32.182  34.997  1.00  0.00     0.023 A 
ATOM     81  C   UNL A   1      38.398  31.655  35.867  1.00  0.00     0.012 A 
ATOM     82  C   UNL A   1      39.904  33.461  35.261  1.00  0.00     0.148 A 
ATOM     83  C   UNL A   1      37.961  32.386  36.973  1.00  0.00     0.002 A 
ATOM     84  C   UNL A   1      39.508  34.158  36.396  1.00  0.00     0.091 A 
ATOM     85  F   UNL A   1      40.814  33.960  34.412  1.00  0.00    -0.205 F 
ATOM     86  C   UNL A   1      38.527  33.629  37.247  1.00  0.00     0.022 A 
BRANCH  84  87
ATOM     87  S   UNL A   1      40.310  35.689  36.894  1.00  0.00     0.127 S 
ATOM     88  O   UNL A   1      39.667  36.664  36.018  1.00  0.00    -0.237 OA
ATOM     89  O   UNL A   1      39.940  35.792  38.306  1.00  0.00    -0.237 OA
ATOM     90  O   UNL A   1      41.732  35.461  36.670  1.00  0.00    -0.744 OA
ENDBRANCH  84  87
ENDBRANCH  56  80
BRANCH  68  91
ATOM     91  C   UNL A   1      44.742  27.775  34.202  1.00  0.00     0.023 A 
ATOM     92  C   UNL A   1      45.947  28.503  34.217  1.00  0.00     0.012 A 
ATOM     93  C   UNL A   1      44.550  26.719  35.112  1.00  0.00     0.148 A 
ATOM     94  C   UNL A   1      46.954  28.174  35.121  1.00  0.00     0.002 A 
ATOM     95  C   UNL A   1      45.544  26.421  36.034  1.00  0.00     0.091 A 
ATOM     96  F   UNL A   1      43.401  26.029  35.058  1.00  0.00    -0.205 F 
ATOM     97  C   UNL A   1      46.749  27.143  36.037  1.00  0.00     0.022 A 
BRANCH  95  98
ATOM     98  S   UNL A   1      45.325  25.167  37.301  1.00  0.00     0.127 S 
ATOM     99  O   UNL A   1      46.488  25.400  38.154  1.00  0.00    -0.237 OA
ATOM    100  O   UNL A   1      44.044  25.545  37.899  1.00  0.00    -0.237 OA
ATOM    101  O   UNL A   1      45.306  23.892  36.598  1.00  0.00    -0.744 OA
ENDBRANCH  95  98
ENDBRANCH  68  91
ENDBRANCH  42  43
ENDBRANCH  35  37
ENDBRANCH  34  35
ENDBRANCH  33  34
ENDBRANCH   1  33
TORSDOF 18
ENDMDL
