MODEL 1
REMARK VINA RESULT:     -13.4      0.000      0.000
REMARK SMILES CC(=O)Nc1cc(NC(C)=O)cc(C(=O)Nc2ccc(Br)cc2C(=O)OCCOC(=O)c2ccc(-c3c4nc(c(-c5cccc(S(=O)(=O)[O-])c5F)c5ccc([nH]5)c(-c5cccc(S(=O)(=O)[O-])c5F)c5nc(c(-c6cccc(S(=O)(=O)[O-])c6F)c6ccc3[nH]6)C=C5)C=C4)cc2)c1
REMARK SMILES IDX 27 1 26 2 24 3 25 4 23 5 17 6 18 7 19 8 22 9 20 10 21 11
REMARK SMILES IDX 16 12 14 13 15 14 13 16 5 17 6 18 95 19 7 20 12 21 4 22 1 23
REMARK SMILES IDX 2 24 3 25 8 27 9 28 10 30 11 31 28 32 29 33 30 34 31 35
REMARK SMILES IDX 32 36 33 37 94 38 34 39 93 40 35 41 36 42 37 43 87 44 38 45
REMARK SMILES IDX 92 46 86 47 88 48 39 49 91 50 85 51 84 52 40 54 72 55 52 56
REMARK SMILES IDX 71 57 53 58 56 59 70 60 89 61 54 62 55 63 69 65 90 66 57 67
REMARK SMILES IDX 41 68 42 69 50 70 43 71 45 72 51 73 44 74 46 75 47 76 48 77
REMARK SMILES IDX 49 78 73 79 74 80 82 81 75 82 77 83 83 84 76 85 78 86 79 87
REMARK SMILES IDX 80 88 81 89 58 90 59 91 67 92 60 93 62 94 68 95 61 96 63 97
REMARK SMILES IDX 64 98 65 99 66 100
REMARK H PARENT 16 15 4 26 8 29 88 53 56 64
REMARK Flexibility Score: inf
ROOT
ATOM      1  C   UNL A   1      37.213  21.136  24.686  1.00  0.00     0.275 C 
ENDROOT
BRANCH   1   2
ATOM      2  O   UNL A   1      36.189  21.604  25.592  1.00  0.00    -0.458 OA
BRANCH   2   3
ATOM      3  C   UNL A   1      35.401  22.575  25.077  1.00  0.00     0.340 C 
ATOM      4  O   UNL A   1      35.558  23.772  25.246  1.00  0.00    -0.246 OA
BRANCH   3   5
ATOM      5  C   UNL A   1      34.264  22.049  24.294  1.00  0.00     0.084 A 
ATOM      6  C   UNL A   1      33.652  22.745  23.239  1.00  0.00     0.056 A 
ATOM      7  C   UNL A   1      32.543  22.157  22.602  1.00  0.00     0.028 A 
ATOM      8  C   UNL A   1      32.146  20.849  22.897  1.00  0.00     0.018 A 
ATOM      9  C   UNL A   1      33.846  20.740  24.594  1.00  0.00     0.033 A 
ATOM     10  C   UNL A   1      32.819  20.135  23.877  1.00  0.00     0.018 A 
ATOM     11  Br  UNL A   1      32.373  18.331  24.213  1.00  0.00    -0.051 Br
BRANCH   6  12
ATOM     12  N   UNL A   1      34.071  23.974  22.687  1.00  0.00    -0.321 N 
ATOM     13  C   UNL A   1      33.481  25.224  22.638  1.00  0.00     0.255 C 
ATOM     14  O   UNL A   1      33.942  26.066  21.867  1.00  0.00    -0.269 OA
ATOM     15  H   UNL A   1      34.954  23.936  22.254  1.00  0.00     0.170 HD
BRANCH  13  16
ATOM     16  C   UNL A   1      32.366  25.623  23.542  1.00  0.00     0.044 A 
ATOM     17  C   UNL A   1      31.056  25.295  25.547  1.00  0.00     0.044 A 
ATOM     18  C   UNL A   1      30.056  26.114  24.998  1.00  0.00     0.052 A 
ATOM     19  C   UNL A   1      32.251  25.132  24.849  1.00  0.00     0.040 A 
ATOM     20  C   UNL A   1      30.214  26.732  23.755  1.00  0.00     0.044 A 
ATOM     21  C   UNL A   1      31.375  26.471  23.023  1.00  0.00     0.040 A 
BRANCH  17  22
ATOM     22  N   UNL A   1      30.688  24.537  26.675  1.00  0.00    -0.326 N 
ATOM     23  C   UNL A   1      30.604  22.193  25.833  1.00  0.00     0.114 C 
ATOM     24  C   UNL A   1      30.271  23.250  26.842  1.00  0.00     0.221 C 
ATOM     25  O   UNL A   1      29.641  22.955  27.859  1.00  0.00    -0.275 OA
ATOM     26  H   UNL A   1      30.744  25.040  27.519  1.00  0.00     0.169 HD
ENDBRANCH  17  22
BRANCH  20  27
ATOM     27  N   UNL A   1      29.237  27.559  23.156  1.00  0.00    -0.326 N 
ATOM     28  C   UNL A   1      29.208  28.943  23.144  1.00  0.00     0.221 C 
ATOM     29  H   UNL A   1      28.496  27.100  22.696  1.00  0.00     0.169 HD
ATOM     30  C   UNL A   1      28.011  29.511  22.422  1.00  0.00     0.114 C 
ATOM     31  O   UNL A   1      30.040  29.697  23.633  1.00  0.00    -0.275 OA
ENDBRANCH  20  27
ENDBRANCH  13  16
ENDBRANCH   6  12
ENDBRANCH   3   5
ENDBRANCH   2   3
ENDBRANCH   1   2
BRANCH   1  32
ATOM     32  C   UNL A   1      38.299  20.288  25.355  1.00  0.00     0.275 C 
BRANCH  32  33
ATOM     33  O   UNL A   1      39.577  20.948  25.382  1.00  0.00    -0.458 OA
BRANCH  33  34
ATOM     34  C   UNL A   1      40.249  20.804  26.544  1.00  0.00     0.338 C 
ATOM     35  O   UNL A   1      40.775  19.782  26.961  1.00  0.00    -0.246 OA
BRANCH  34  36
ATOM     36  C   UNL A   1      40.367  22.075  27.271  1.00  0.00     0.060 A 
ATOM     37  C   UNL A   1      39.568  23.135  26.854  1.00  0.00     0.016 A 
ATOM     38  C   UNL A   1      41.449  22.308  28.114  1.00  0.00     0.016 A 
ATOM     39  C   UNL A   1      39.948  24.442  27.101  1.00  0.00     0.010 A 
ATOM     40  C   UNL A   1      41.755  23.625  28.476  1.00  0.00     0.010 A 
ATOM     41  C   UNL A   1      41.055  24.707  27.907  1.00  0.00    -0.014 A 
BRANCH  41  42
ATOM     42  C   UNL A   1      41.530  26.106  28.060  1.00  0.00     0.031 A 
ATOM     43  C   UNL A   1      42.884  26.488  27.521  1.00  0.00     0.074 A 
ATOM     44  C   UNL A   1      40.744  27.033  28.640  1.00  0.00     0.049 A 
ATOM     45  N   UNL A   1      43.574  27.581  27.718  1.00  0.00    -0.248 NA
ATOM     46  C   UNL A   1      43.563  25.500  26.665  1.00  0.00     0.031 C 
ATOM     47  C   UNL A   1      39.387  26.806  29.142  1.00  0.00     0.029 A 
ATOM     48  N   UNL A   1      40.978  28.358  28.913  1.00  0.00    -0.354 N 
ATOM     49  C   UNL A   1      44.800  27.372  27.096  1.00  0.00     0.074 A 
ATOM     50  C   UNL A   1      44.756  26.054  26.504  1.00  0.00     0.031 C 
ATOM     51  C   UNL A   1      38.904  27.949  29.647  1.00  0.00     0.029 A 
ATOM     52  C   UNL A   1      39.947  28.963  29.591  1.00  0.00     0.049 A 
ATOM     53  H   UNL A   1      41.802  28.827  28.648  1.00  0.00     0.167 HD
ATOM     54  C   UNL A   1      45.862  28.209  27.025  1.00  0.00     0.034 A 
ATOM     55  C   UNL A   1      39.868  30.183  30.155  1.00  0.00     0.034 A 
ATOM     56  C   UNL A   1      45.853  29.550  27.546  1.00  0.00     0.049 A 
ATOM     57  C   UNL A   1      41.055  31.097  30.050  1.00  0.00     0.074 A 
ATOM     58  C   UNL A   1      46.859  30.498  27.506  1.00  0.00     0.029 A 
ATOM     59  N   UNL A   1      44.772  30.140  28.186  1.00  0.00    -0.354 N 
ATOM     60  N   UNL A   1      42.208  30.890  29.460  1.00  0.00    -0.248 NA
ATOM     61  C   UNL A   1      40.924  32.422  30.670  1.00  0.00     0.031 C 
ATOM     62  C   UNL A   1      46.392  31.655  28.138  1.00  0.00     0.029 A 
ATOM     63  C   UNL A   1      45.083  31.441  28.542  1.00  0.00     0.049 A 
ATOM     64  H   UNL A   1      43.910  29.698  28.361  1.00  0.00     0.167 HD
ATOM     65  C   UNL A   1      42.928  32.068  29.608  1.00  0.00     0.074 A 
ATOM     66  C   UNL A   1      42.071  32.992  30.325  1.00  0.00     0.031 C 
ATOM     67  C   UNL A   1      44.191  32.356  29.205  1.00  0.00     0.034 A 
BRANCH  54  68
ATOM     68  C   UNL A   1      47.117  27.700  26.364  1.00  0.00     0.023 A 
ATOM     69  C   UNL A   1      48.098  27.025  27.120  1.00  0.00     0.012 A 
ATOM     70  C   UNL A   1      47.310  27.860  24.976  1.00  0.00     0.148 A 
ATOM     71  C   UNL A   1      49.265  26.557  26.516  1.00  0.00     0.002 A 
ATOM     72  C   UNL A   1      48.452  27.348  24.372  1.00  0.00     0.091 A 
ATOM     73  F   UNL A   1      46.380  28.523  24.275  1.00  0.00    -0.205 F 
ATOM     74  C   UNL A   1      49.438  26.709  25.142  1.00  0.00     0.022 A 
BRANCH  72  75
ATOM     75  S   UNL A   1      48.728  27.420  22.598  1.00  0.00     0.127 S 
ATOM     76  O   UNL A   1      48.405  26.053  22.192  1.00  0.00    -0.237 OA
ATOM     77  O   UNL A   1      47.752  28.426  22.177  1.00  0.00    -0.237 OA
ATOM     78  O   UNL A   1      50.119  27.812  22.421  1.00  0.00    -0.744 OA
ENDBRANCH  72  75
ENDBRANCH  54  68
BRANCH  55  79
ATOM     79  C   UNL A   1      38.623  30.599  30.862  1.00  0.00     0.023 A 
ATOM     80  C   UNL A   1      38.496  30.355  32.242  1.00  0.00     0.012 A 
ATOM     81  C   UNL A   1      37.585  31.268  30.185  1.00  0.00     0.148 A 
ATOM     82  C   UNL A   1      37.345  30.746  32.929  1.00  0.00     0.002 A 
ATOM     83  C   UNL A   1      36.469  31.709  30.886  1.00  0.00     0.091 A 
ATOM     84  F   UNL A   1      37.716  31.478  28.866  1.00  0.00    -0.205 F 
ATOM     85  C   UNL A   1      36.339  31.433  32.255  1.00  0.00     0.022 A 
BRANCH  83  86
ATOM     86  S   UNL A   1      35.189  32.714  30.127  1.00  0.00     0.127 S 
ATOM     87  O   UNL A   1      35.956  33.855  29.635  1.00  0.00    -0.237 OA
ATOM     88  O   UNL A   1      34.679  31.821  29.085  1.00  0.00    -0.237 OA
ATOM     89  O   UNL A   1      34.234  33.005  31.188  1.00  0.00    -0.744 OA
ENDBRANCH  83  86
ENDBRANCH  55  79
BRANCH  67  90
ATOM     90  C   UNL A   1      44.697  33.746  29.481  1.00  0.00     0.023 A 
ATOM     91  C   UNL A   1      45.423  34.012  30.658  1.00  0.00     0.012 A 
ATOM     92  C   UNL A   1      44.495  34.777  28.542  1.00  0.00     0.148 A 
ATOM     93  C   UNL A   1      45.903  35.295  30.917  1.00  0.00     0.002 A 
ATOM     94  C   UNL A   1      45.021  36.039  28.783  1.00  0.00     0.091 A 
ATOM     95  F   UNL A   1      43.783  34.508  27.438  1.00  0.00    -0.205 F 
ATOM     96  C   UNL A   1      45.712  36.304  29.975  1.00  0.00     0.022 A 
BRANCH  94  97
ATOM     97  S   UNL A   1      44.910  37.366  27.578  1.00  0.00     0.127 S 
ATOM     98  O   UNL A   1      45.058  38.549  28.423  1.00  0.00    -0.237 OA
ATOM     99  O   UNL A   1      46.053  37.092  26.705  1.00  0.00    -0.237 OA
ATOM    100  O   UNL A   1      43.612  37.212  26.933  1.00  0.00    -0.744 OA
ENDBRANCH  94  97
ENDBRANCH  67  90
ENDBRANCH  41  42
ENDBRANCH  34  36
ENDBRANCH  33  34
ENDBRANCH  32  33
ENDBRANCH   1  32
TORSDOF 18
ENDMDL
MODEL 2
REMARK VINA RESULT:     -12.4      0.799      7.325
REMARK SMILES CC(=O)Nc1cc(NC(C)=O)cc(C(=O)Nc2ccc(Br)cc2C(=O)OCCOC(=O)c2ccc(-c3c4nc(c(-c5cccc(S(=O)(=O)[O-])c5F)c5ccc([nH]5)c(-c5cccc(S(=O)(=O)[O-])c5F)c5nc(c(-c6cccc(S(=O)(=O)[O-])c6F)c6ccc3[nH]6)C=C5)C=C4)cc2)c1
REMARK SMILES IDX 27 1 26 2 24 3 25 4 23 5 17 6 18 7 19 8 22 9 20 10 21 11
REMARK SMILES IDX 16 12 14 13 15 14 13 16 5 17 6 18 95 19 7 20 12 21 4 22 1 23
REMARK SMILES IDX 2 24 3 25 8 27 9 28 10 30 11 31 28 32 29 33 30 34 31 35
REMARK SMILES IDX 32 36 33 37 94 38 34 39 93 40 35 41 36 42 37 43 87 44 38 45
REMARK SMILES IDX 92 46 86 47 88 48 39 49 91 50 85 51 84 52 40 54 72 55 52 56
REMARK SMILES IDX 71 57 53 58 56 59 70 60 89 61 54 62 55 63 69 65 90 66 57 67
REMARK SMILES IDX 41 68 42 69 50 70 43 71 45 72 51 73 44 74 46 75 47 76 48 77
REMARK SMILES IDX 49 78 73 79 74 80 82 81 75 82 77 83 83 84 76 85 78 86 79 87
REMARK SMILES IDX 80 88 81 89 58 90 59 91 67 92 60 93 62 94 68 95 61 96 63 97
REMARK SMILES IDX 64 98 65 99 66 100
REMARK H PARENT 16 15 4 26 8 29 88 53 56 64
REMARK Flexibility Score: inf
ROOT
ATOM      1  C   UNL A   1      37.035  22.164  25.392  1.00  0.00     0.275 C 
ENDROOT
BRANCH   1   2
ATOM      2  O   UNL A   1      36.498  22.664  24.148  1.00  0.00    -0.458 OA
BRANCH   2   3
ATOM      3  C   UNL A   1      35.306  23.290  24.274  1.00  0.00     0.340 C 
ATOM      4  O   UNL A   1      35.146  24.417  24.711  1.00  0.00    -0.246 OA
BRANCH   3   5
ATOM      5  C   UNL A   1      34.161  22.453  23.862  1.00  0.00     0.084 A 
ATOM      6  C   UNL A   1      33.327  22.750  22.773  1.00  0.00     0.056 A 
ATOM      7  C   UNL A   1      32.236  21.899  22.511  1.00  0.00     0.028 A 
ATOM      8  C   UNL A   1      32.066  20.701  23.212  1.00  0.00     0.018 A 
ATOM      9  C   UNL A   1      33.971  21.253  24.571  1.00  0.00     0.033 A 
ATOM     10  C   UNL A   1      32.954  20.371  24.225  1.00  0.00     0.018 A 
ATOM     11  Br  UNL A   1      32.810  18.708  25.108  1.00  0.00    -0.051 Br
BRANCH   6  12
ATOM     12  N   UNL A   1      33.496  23.801  21.846  1.00  0.00    -0.321 N 
ATOM     13  C   UNL A   1      32.800  24.976  21.632  1.00  0.00     0.255 C 
ATOM     14  O   UNL A   1      32.994  25.597  20.586  1.00  0.00    -0.269 OA
ATOM     15  H   UNL A   1      34.256  23.673  21.234  1.00  0.00     0.170 HD
BRANCH  13  16
ATOM     16  C   UNL A   1      31.889  25.570  22.650  1.00  0.00     0.044 A 
ATOM     17  C   UNL A   1      30.691  25.428  24.744  1.00  0.00     0.044 A 
ATOM     18  C   UNL A   1      29.888  26.503  24.331  1.00  0.00     0.052 A 
ATOM     19  C   UNL A   1      31.752  25.029  23.935  1.00  0.00     0.040 A 
ATOM     20  C   UNL A   1      30.104  27.152  23.112  1.00  0.00     0.044 A 
ATOM     21  C   UNL A   1      31.106  26.669  22.267  1.00  0.00     0.040 A 
BRANCH  17  22
ATOM     22  N   UNL A   1      30.229  24.702  25.860  1.00  0.00    -0.326 N 
ATOM     23  C   UNL A   1      32.298  23.731  26.854  1.00  0.00     0.114 C 
ATOM     24  C   UNL A   1      30.810  23.785  26.685  1.00  0.00     0.221 C 
ATOM     25  O   UNL A   1      30.088  23.019  27.325  1.00  0.00    -0.275 OA
ATOM     26  H   UNL A   1      29.293  24.897  26.093  1.00  0.00     0.169 HD
ENDBRANCH  17  22
BRANCH  20  27
ATOM     27  N   UNL A   1      29.322  28.233  22.646  1.00  0.00    -0.326 N 
ATOM     28  C   UNL A   1      29.777  29.464  22.206  1.00  0.00     0.221 C 
ATOM     29  H   UNL A   1      28.346  28.096  22.632  1.00  0.00     0.169 HD
ATOM     30  C   UNL A   1      28.669  30.398  21.787  1.00  0.00     0.114 C 
ATOM     31  O   UNL A   1      30.945  29.825  22.120  1.00  0.00    -0.275 OA
ENDBRANCH  20  27
ENDBRANCH  13  16
ENDBRANCH   6  12
ENDBRANCH   3   5
ENDBRANCH   2   3
ENDBRANCH   1   2
BRANCH   1  32
ATOM     32  C   UNL A   1      38.130  21.107  25.222  1.00  0.00     0.275 C 
BRANCH  32  33
ATOM     33  O   UNL A   1      38.917  20.929  26.414  1.00  0.00    -0.458 OA
BRANCH  33  34
ATOM     34  C   UNL A   1      40.167  21.431  26.329  1.00  0.00     0.338 C 
ATOM     35  O   UNL A   1      41.081  21.003  25.638  1.00  0.00    -0.246 OA
BRANCH  34  36
ATOM     36  C   UNL A   1      40.323  22.656  27.127  1.00  0.00     0.060 A 
ATOM     37  C   UNL A   1      39.764  23.828  26.627  1.00  0.00     0.016 A 
ATOM     38  C   UNL A   1      41.255  22.713  28.157  1.00  0.00     0.016 A 
ATOM     39  C   UNL A   1      40.266  25.062  27.000  1.00  0.00     0.010 A 
ATOM     40  C   UNL A   1      41.665  23.964  28.631  1.00  0.00     0.010 A 
ATOM     41  C   UNL A   1      41.234  25.148  28.000  1.00  0.00    -0.014 A 
BRANCH  41  42
ATOM     42  C   UNL A   1      41.859  26.461  28.303  1.00  0.00     0.031 A 
ATOM     43  C   UNL A   1      41.070  27.496  29.060  1.00  0.00     0.074 A 
ATOM     44  C   UNL A   1      43.131  26.710  27.937  1.00  0.00     0.049 A 
ATOM     45  N   UNL A   1      41.338  28.761  29.254  1.00  0.00    -0.248 NA
ATOM     46  C   UNL A   1      39.798  27.058  29.659  1.00  0.00     0.031 C 
ATOM     47  C   UNL A   1      44.023  25.766  27.259  1.00  0.00     0.029 A 
ATOM     48  N   UNL A   1      43.896  27.840  28.081  1.00  0.00    -0.354 N 
ATOM     49  C   UNL A   1      40.230  29.287  29.909  1.00  0.00     0.074 A 
ATOM     50  C   UNL A   1      39.290  28.203  30.091  1.00  0.00     0.031 C 
ATOM     51  C   UNL A   1      45.213  26.348  27.058  1.00  0.00     0.029 A 
ATOM     52  C   UNL A   1      45.140  27.731  27.506  1.00  0.00     0.049 A 
ATOM     53  H   UNL A   1      43.585  28.648  28.549  1.00  0.00     0.167 HD
ATOM     54  C   UNL A   1      40.020  30.560  30.322  1.00  0.00     0.034 A 
ATOM     55  C   UNL A   1      46.097  28.657  27.311  1.00  0.00     0.034 A 
ATOM     56  C   UNL A   1      41.004  31.603  30.209  1.00  0.00     0.049 A 
ATOM     57  C   UNL A   1      45.846  30.057  27.791  1.00  0.00     0.074 A 
ATOM     58  C   UNL A   1      40.915  32.921  30.619  1.00  0.00     0.029 A 
ATOM     59  N   UNL A   1      42.268  31.439  29.662  1.00  0.00    -0.354 N 
ATOM     60  N   UNL A   1      44.796  30.543  28.408  1.00  0.00    -0.248 NA
ATOM     61  C   UNL A   1      46.919  31.034  27.567  1.00  0.00     0.031 C 
ATOM     62  C   UNL A   1      42.119  33.558  30.303  1.00  0.00     0.029 A 
ATOM     63  C   UNL A   1      42.972  32.629  29.726  1.00  0.00     0.049 A 
ATOM     64  H   UNL A   1      42.615  30.599  29.282  1.00  0.00     0.167 HD
ATOM     65  C   UNL A   1      45.093  31.873  28.676  1.00  0.00     0.074 A 
ATOM     66  C   UNL A   1      46.433  32.108  28.173  1.00  0.00     0.031 C 
ATOM     67  C   UNL A   1      44.324  32.820  29.268  1.00  0.00     0.034 A 
BRANCH  54  68
ATOM     68  C   UNL A   1      38.681  30.891  30.931  1.00  0.00     0.023 A 
ATOM     69  C   UNL A   1      38.442  30.651  32.300  1.00  0.00     0.012 A 
ATOM     70  C   UNL A   1      37.665  31.476  30.148  1.00  0.00     0.148 A 
ATOM     71  C   UNL A   1      37.204  30.949  32.868  1.00  0.00     0.002 A 
ATOM     72  C   UNL A   1      36.451  31.816  30.732  1.00  0.00     0.091 A 
ATOM     73  F   UNL A   1      37.900  31.677  28.843  1.00  0.00    -0.205 F 
ATOM     74  C   UNL A   1      36.212  31.540  32.088  1.00  0.00     0.022 A 
BRANCH  72  75
ATOM     75  S   UNL A   1      35.142  32.655  29.831  1.00  0.00     0.127 S 
ATOM     76  O   UNL A   1      34.191  32.955  30.902  1.00  0.00    -0.237 OA
ATOM     77  O   UNL A   1      35.839  33.823  29.293  1.00  0.00    -0.237 OA
ATOM     78  O   UNL A   1      34.674  31.711  28.827  1.00  0.00    -0.744 OA
ENDBRANCH  72  75
ENDBRANCH  54  68
BRANCH  55  79
ATOM     79  C   UNL A   1      47.371  28.281  26.633  1.00  0.00     0.023 A 
ATOM     80  C   UNL A   1      48.530  28.070  27.404  1.00  0.00     0.012 A 
ATOM     81  C   UNL A   1      47.431  28.092  25.238  1.00  0.00     0.148 A 
ATOM     82  C   UNL A   1      49.731  27.705  26.795  1.00  0.00     0.002 A 
ATOM     83  C   UNL A   1      48.615  27.670  24.645  1.00  0.00     0.091 A 
ATOM     84  F   UNL A   1      46.321  28.314  24.518  1.00  0.00    -0.205 F 
ATOM     85  C   UNL A   1      49.771  27.493  25.420  1.00  0.00     0.022 A 
BRANCH  83  86
ATOM     86  S   UNL A   1      48.721  27.246  22.903  1.00  0.00     0.127 S 
ATOM     87  O   UNL A   1      50.139  27.461  22.628  1.00  0.00    -0.237 OA
ATOM     88  O   UNL A   1      48.301  25.844  22.905  1.00  0.00    -0.237 OA
ATOM     89  O   UNL A   1      47.802  28.147  22.221  1.00  0.00    -0.744 OA
ENDBRANCH  83  86
ENDBRANCH  55  79
BRANCH  67  90
ATOM     90  C   UNL A   1      44.936  34.182  29.455  1.00  0.00     0.023 A 
ATOM     91  C   UNL A   1      45.585  34.505  30.663  1.00  0.00     0.012 A 
ATOM     92  C   UNL A   1      44.912  35.123  28.407  1.00  0.00     0.148 A 
ATOM     93  C   UNL A   1      46.162  35.762  30.841  1.00  0.00     0.002 A 
ATOM     94  C   UNL A   1      45.534  36.353  28.573  1.00  0.00     0.091 A 
ATOM     95  F   UNL A   1      44.271  34.804  27.274  1.00  0.00    -0.205 F 
ATOM     96  C   UNL A   1      46.146  36.680  29.793  1.00  0.00     0.022 A 
BRANCH  94  97
ATOM     97  S   UNL A   1      45.649  37.553  27.242  1.00  0.00     0.127 S 
ATOM     98  O   UNL A   1      44.242  37.860  26.994  1.00  0.00    -0.237 OA
ATOM     99  O   UNL A   1      46.409  38.639  27.866  1.00  0.00    -0.237 OA
ATOM    100  O   UNL A   1      46.348  36.879  26.156  1.00  0.00    -0.744 OA
ENDBRANCH  94  97
ENDBRANCH  67  90
ENDBRANCH  41  42
ENDBRANCH  34  36
ENDBRANCH  33  34
ENDBRANCH  32  33
ENDBRANCH   1  32
TORSDOF 18
ENDMDL
MODEL 3
REMARK VINA RESULT:     -12.3      1.151      7.580
REMARK SMILES CC(=O)Nc1cc(NC(C)=O)cc(C(=O)Nc2ccc(Br)cc2C(=O)OCCOC(=O)c2ccc(-c3c4nc(c(-c5cccc(S(=O)(=O)[O-])c5F)c5ccc([nH]5)c(-c5cccc(S(=O)(=O)[O-])c5F)c5nc(c(-c6cccc(S(=O)(=O)[O-])c6F)c6ccc3[nH]6)C=C5)C=C4)cc2)c1
REMARK SMILES IDX 27 1 26 2 24 3 25 4 23 5 17 6 18 7 19 8 22 9 20 10 21 11
REMARK SMILES IDX 16 12 14 13 15 14 13 16 5 17 6 18 95 19 7 20 12 21 4 22 1 23
REMARK SMILES IDX 2 24 3 25 8 27 9 28 10 30 11 31 28 32 29 33 30 34 31 35
REMARK SMILES IDX 32 36 33 37 94 38 34 39 93 40 35 41 36 42 37 43 87 44 38 45
REMARK SMILES IDX 92 46 86 47 88 48 39 49 91 50 85 51 84 52 40 54 72 55 52 56
REMARK SMILES IDX 71 57 53 58 56 59 70 60 89 61 54 62 55 63 69 65 90 66 57 67
REMARK SMILES IDX 41 68 42 69 50 70 43 71 45 72 51 73 44 74 46 75 47 76 48 77
REMARK SMILES IDX 49 78 73 79 74 80 82 81 75 82 77 83 83 84 76 85 78 86 79 87
REMARK SMILES IDX 80 88 81 89 58 90 59 91 67 92 60 93 62 94 68 95 61 96 63 97
REMARK SMILES IDX 64 98 65 99 66 100
REMARK H PARENT 16 15 4 26 8 29 88 53 56 64
REMARK Flexibility Score: inf
ROOT
ATOM      1  C   UNL A   1      37.083  22.767  24.816  1.00  0.00     0.275 C 
ENDROOT
BRANCH   1   2
ATOM      2  O   UNL A   1      36.276  22.987  23.639  1.00  0.00    -0.458 OA
BRANCH   2   3
ATOM      3  C   UNL A   1      35.035  23.458  23.902  1.00  0.00     0.340 C 
ATOM      4  O   UNL A   1      34.786  24.529  24.427  1.00  0.00    -0.246 OA
BRANCH   3   5
ATOM      5  C   UNL A   1      33.962  22.516  23.522  1.00  0.00     0.084 A 
ATOM      6  C   UNL A   1      33.067  22.735  22.464  1.00  0.00     0.056 A 
ATOM      7  C   UNL A   1      32.055  21.784  22.233  1.00  0.00     0.028 A 
ATOM      8  C   UNL A   1      32.024  20.573  22.932  1.00  0.00     0.018 A 
ATOM      9  C   UNL A   1      33.912  21.301  24.231  1.00  0.00     0.033 A 
ATOM     10  C   UNL A   1      32.973  20.327  23.913  1.00  0.00     0.018 A 
ATOM     11  Br  UNL A   1      33.018  18.655  24.790  1.00  0.00    -0.051 Br
BRANCH   6  12
ATOM     12  N   UNL A   1      33.103  23.800  21.538  1.00  0.00    -0.321 N 
ATOM     13  C   UNL A   1      32.443  25.013  21.486  1.00  0.00     0.255 C 
ATOM     14  O   UNL A   1      32.457  25.650  20.433  1.00  0.00    -0.269 OA
ATOM     15  H   UNL A   1      33.718  23.651  20.785  1.00  0.00     0.170 HD
BRANCH  13  16
ATOM     16  C   UNL A   1      31.786  25.624  22.676  1.00  0.00     0.044 A 
ATOM     17  C   UNL A   1      31.543  27.446  24.245  1.00  0.00     0.044 A 
ATOM     18  C   UNL A   1      30.858  26.577  25.111  1.00  0.00     0.052 A 
ATOM     19  C   UNL A   1      31.921  26.984  22.987  1.00  0.00     0.040 A 
ATOM     20  C   UNL A   1      30.586  25.253  24.756  1.00  0.00     0.044 A 
ATOM     21  C   UNL A   1      31.066  24.778  23.533  1.00  0.00     0.040 A 
BRANCH  17  22
ATOM     22  N   UNL A   1      31.973  28.666  24.803  1.00  0.00    -0.326 N 
ATOM     23  C   UNL A   1      34.016  28.059  26.094  1.00  0.00     0.114 C 
ATOM     24  C   UNL A   1      32.884  28.985  25.765  1.00  0.00     0.221 C 
ATOM     25  O   UNL A   1      32.788  30.070  26.340  1.00  0.00    -0.275 OA
ATOM     26  H   UNL A   1      31.521  29.452  24.418  1.00  0.00     0.169 HD
ENDBRANCH  17  22
BRANCH  20  27
ATOM     27  N   UNL A   1      29.907  24.337  25.592  1.00  0.00    -0.326 N 
ATOM     28  C   UNL A   1      30.385  23.756  26.753  1.00  0.00     0.221 C 
ATOM     29  H   UNL A   1      28.995  24.086  25.318  1.00  0.00     0.169 HD
ATOM     30  C   UNL A   1      29.401  22.810  27.398  1.00  0.00     0.114 C 
ATOM     31  O   UNL A   1      31.475  23.952  27.277  1.00  0.00    -0.275 OA
ENDBRANCH  20  27
ENDBRANCH  13  16
ENDBRANCH   6  12
ENDBRANCH   3   5
ENDBRANCH   2   3
ENDBRANCH   1   2
BRANCH   1  32
ATOM     32  C   UNL A   1      37.685  21.361  24.908  1.00  0.00     0.275 C 
BRANCH  32  33
ATOM     33  O   UNL A   1      38.347  21.125  26.164  1.00  0.00    -0.458 OA
BRANCH  33  34
ATOM     34  C   UNL A   1      39.660  21.439  26.163  1.00  0.00     0.338 C 
ATOM     35  O   UNL A   1      40.544  20.880  25.529  1.00  0.00    -0.246 OA
BRANCH  34  36
ATOM     36  C   UNL A   1      39.941  22.629  26.976  1.00  0.00     0.060 A 
ATOM     37  C   UNL A   1      39.412  23.844  26.549  1.00  0.00     0.016 A 
ATOM     38  C   UNL A   1      40.949  22.607  27.935  1.00  0.00     0.016 A 
ATOM     39  C   UNL A   1      40.007  25.038  26.914  1.00  0.00     0.010 A 
ATOM     40  C   UNL A   1      41.461  23.822  28.407  1.00  0.00     0.010 A 
ATOM     41  C   UNL A   1      41.050  25.044  27.840  1.00  0.00    -0.014 A 
BRANCH  41  42
ATOM     42  C   UNL A   1      41.766  26.313  28.127  1.00  0.00     0.031 A 
ATOM     43  C   UNL A   1      41.078  27.383  28.932  1.00  0.00     0.074 A 
ATOM     44  C   UNL A   1      43.033  26.490  27.704  1.00  0.00     0.049 A 
ATOM     45  N   UNL A   1      41.431  28.627  29.127  1.00  0.00    -0.248 NA
ATOM     46  C   UNL A   1      39.811  27.013  29.587  1.00  0.00     0.031 C 
ATOM     47  C   UNL A   1      43.833  25.504  26.974  1.00  0.00     0.029 A 
ATOM     48  N   UNL A   1      43.871  27.571  27.824  1.00  0.00    -0.354 N 
ATOM     49  C   UNL A   1      40.388  29.209  29.840  1.00  0.00     0.074 A 
ATOM     50  C   UNL A   1      39.395  28.180  30.055  1.00  0.00     0.031 C 
ATOM     51  C   UNL A   1      45.046  26.017  26.722  1.00  0.00     0.029 A 
ATOM     52  C   UNL A   1      45.077  27.396  27.188  1.00  0.00     0.049 A 
ATOM     53  H   UNL A   1      43.631  28.389  28.315  1.00  0.00     0.167 HD
ATOM     54  C   UNL A   1      40.276  30.486  30.277  1.00  0.00     0.034 A 
ATOM     55  C   UNL A   1      46.079  28.265  26.958  1.00  0.00     0.034 A 
ATOM     56  C   UNL A   1      41.314  31.470  30.129  1.00  0.00     0.049 A 
ATOM     57  C   UNL A   1      45.936  29.671  27.465  1.00  0.00     0.074 A 
ATOM     58  C   UNL A   1      41.324  32.785  30.557  1.00  0.00     0.029 A 
ATOM     59  N   UNL A   1      42.540  31.238  29.520  1.00  0.00    -0.354 N 
ATOM     60  N   UNL A   1      44.946  30.210  28.137  1.00  0.00    -0.248 NA
ATOM     61  C   UNL A   1      47.054  30.585  27.201  1.00  0.00     0.031 C 
ATOM     62  C   UNL A   1      42.549  33.353  30.191  1.00  0.00     0.029 A 
ATOM     63  C   UNL A   1      43.316  32.383  29.564  1.00  0.00     0.049 A 
ATOM     64  H   UNL A   1      42.816  30.384  29.115  1.00  0.00     0.167 HD
ATOM     65  C   UNL A   1      45.336  31.516  28.405  1.00  0.00     0.074 A 
ATOM     66  C   UNL A   1      46.662  31.678  27.842  1.00  0.00     0.031 C 
ATOM     67  C   UNL A   1      44.654  32.499  29.044  1.00  0.00     0.034 A 
BRANCH  54  68
ATOM     68  C   UNL A   1      38.990  30.888  30.953  1.00  0.00     0.023 A 
ATOM     69  C   UNL A   1      38.857  30.784  32.353  1.00  0.00     0.012 A 
ATOM     70  C   UNL A   1      37.917  31.406  30.198  1.00  0.00     0.148 A 
ATOM     71  C   UNL A   1      37.668  31.148  32.984  1.00  0.00     0.002 A 
ATOM     72  C   UNL A   1      36.753  31.813  30.839  1.00  0.00     0.091 A 
ATOM     73  F   UNL A   1      38.050  31.478  28.866  1.00  0.00    -0.205 F 
ATOM     74  C   UNL A   1      36.620  31.672  32.229  1.00  0.00     0.022 A 
BRANCH  72  75
ATOM     75  S   UNL A   1      35.380  32.575  29.965  1.00  0.00     0.127 S 
ATOM     76  O   UNL A   1      34.353  32.615  31.005  1.00  0.00    -0.237 OA
ATOM     77  O   UNL A   1      35.932  33.881  29.605  1.00  0.00    -0.237 OA
ATOM     78  O   UNL A   1      35.089  31.706  28.834  1.00  0.00    -0.744 OA
ENDBRANCH  72  75
ENDBRANCH  54  68
BRANCH  55  79
ATOM     79  C   UNL A   1      47.294  27.823  26.216  1.00  0.00     0.023 A 
ATOM     80  C   UNL A   1      48.328  27.166  26.910  1.00  0.00     0.012 A 
ATOM     81  C   UNL A   1      47.414  28.013  24.825  1.00  0.00     0.148 A 
ATOM     82  C   UNL A   1      49.470  26.730  26.236  1.00  0.00     0.002 A 
ATOM     83  C   UNL A   1      48.526  27.524  24.150  1.00  0.00     0.091 A 
ATOM     84  F   UNL A   1      46.426  28.657  24.184  1.00  0.00    -0.205 F 
ATOM     85  C   UNL A   1      49.564  26.898  24.857  1.00  0.00     0.022 A 
BRANCH  83  86
ATOM     86  S   UNL A   1      48.667  27.579  22.361  1.00  0.00     0.127 S 
ATOM     87  O   UNL A   1      48.685  26.160  22.018  1.00  0.00    -0.237 OA
ATOM     88  O   UNL A   1      47.444  28.289  21.981  1.00  0.00    -0.237 OA
ATOM     89  O   UNL A   1      49.896  28.311  22.085  1.00  0.00    -0.744 OA
ENDBRANCH  83  86
ENDBRANCH  55  79
BRANCH  67  90
ATOM     90  C   UNL A   1      45.356  33.819  29.216  1.00  0.00     0.023 A 
ATOM     91  C   UNL A   1      46.124  34.065  30.371  1.00  0.00     0.012 A 
ATOM     92  C   UNL A   1      45.293  34.797  28.204  1.00  0.00     0.148 A 
ATOM     93  C   UNL A   1      46.784  35.282  30.535  1.00  0.00     0.002 A 
ATOM     94  C   UNL A   1      45.995  35.985  28.351  1.00  0.00     0.091 A 
ATOM     95  F   UNL A   1      44.539  34.551  27.122  1.00  0.00    -0.205 F 
ATOM     96  C   UNL A   1      46.728  36.236  29.521  1.00  0.00     0.022 A 
BRANCH  94  97
ATOM     97  S   UNL A   1      46.061  37.223  27.051  1.00  0.00     0.127 S 
ATOM     98  O   UNL A   1      44.661  37.631  26.956  1.00  0.00    -0.237 OA
ATOM     99  O   UNL A   1      46.952  38.232  27.626  1.00  0.00    -0.237 OA
ATOM    100  O   UNL A   1      46.600  36.544  25.879  1.00  0.00    -0.744 OA
ENDBRANCH  94  97
ENDBRANCH  67  90
ENDBRANCH  41  42
ENDBRANCH  34  36
ENDBRANCH  33  34
ENDBRANCH  32  33
ENDBRANCH   1  32
TORSDOF 18
ENDMDL
