MODEL 1
REMARK VINA RESULT:     -12.7      0.000      0.000
REMARK SMILES O=C(CNc1cc(N2CCCC2)c2noc3c2c1C(=O)c1ccccc1-3)OCCOC(=O)c1ccc(-c2c3nc(c(-c4cccc(S(=O)(=O)[O-])c4F)c4ccc([nH]4)c(-c4cccc(S(=O)(=O)[O-])c4F)c4nc(c(-c5cccc(S(=O)(=O)[O-])c5F)c5ccc2[nH]5)C=C4)C=C3)cc1
REMARK SMILES IDX 28 1 27 2 2 3 1 4 3 5 4 6 5 8 6 9 18 10 7 11 17 12 19 13
REMARK SMILES IDX 13 14 16 15 20 16 21 17 14 18 15 19 26 20 22 21 25 22 23 23
REMARK SMILES IDX 24 24 8 25 9 26 12 27 10 28 11 29 29 30 30 31 31 32 32 33
REMARK SMILES IDX 33 34 34 35 95 36 35 37 94 38 36 39 37 40 38 41 88 42 39 43
REMARK SMILES IDX 93 44 87 45 89 46 40 47 92 48 86 49 85 50 41 52 73 53 53 54
REMARK SMILES IDX 72 55 54 56 57 57 71 58 90 59 55 60 56 61 70 63 91 64 58 65
REMARK SMILES IDX 42 66 43 67 51 68 44 69 46 70 52 71 45 72 47 73 48 74 49 75
REMARK SMILES IDX 50 76 74 77 75 78 83 79 76 80 78 81 84 82 77 83 79 84 80 85
REMARK SMILES IDX 81 86 82 87 59 88 60 89 68 90 61 91 63 92 69 93 62 94 64 95
REMARK SMILES IDX 65 96 66 97 67 98
REMARK H PARENT 4 7 89 51 57 62
REMARK Flexibility Score: inf
ROOT
ATOM      1  C   UNL A   1      45.015  39.960  26.769  1.00  0.00     0.274 C 
ENDROOT
BRANCH   1   2
ATOM      2  O   UNL A   1      44.122  40.288  25.688  1.00  0.00    -0.461 OA
BRANCH   2   3
ATOM      3  C   UNL A   1      42.887  40.846  25.828  1.00  0.00     0.325 C 
ATOM      4  O   UNL A   1      42.415  40.945  26.960  1.00  0.00    -0.250 OA
BRANCH   3   5
ATOM      5  C   UNL A   1      42.109  41.263  24.577  1.00  0.00     0.236 C 
BRANCH   5   6
ATOM      6  N   UNL A   1      42.133  42.691  24.324  1.00  0.00    -0.374 N 
ATOM      7  H   UNL A   1      41.347  43.191  24.641  1.00  0.00     0.161 HD
BRANCH   6   8
ATOM      8  C   UNL A   1      43.113  43.445  23.697  1.00  0.00     0.049 A 
ATOM      9  C   UNL A   1      44.152  43.857  24.626  1.00  0.00     0.054 A 
ATOM     10  C   UNL A   1      43.247  43.749  22.315  1.00  0.00     0.059 A 
ATOM     11  C   UNL A   1      45.371  44.538  24.327  1.00  0.00     0.069 A 
ATOM     12  C   UNL A   1      44.443  44.409  22.072  1.00  0.00     0.065 A 
ATOM     13  C   UNL A   1      42.343  43.576  21.135  1.00  0.00     0.196 C 
ATOM     14  C   UNL A   1      45.481  44.815  22.948  1.00  0.00     0.138 A 
ATOM     15  C   UNL A   1      44.809  44.786  20.824  1.00  0.00     0.176 A 
ATOM     16  O   UNL A   1      41.186  43.211  21.253  1.00  0.00    -0.288 OA
ATOM     17  C   UNL A   1      42.851  43.923  19.753  1.00  0.00     0.034 A 
ATOM     18  N   UNL A   1      46.438  45.432  22.212  1.00  0.00    -0.077 NA
ATOM     19  O   UNL A   1      46.009  45.406  20.881  1.00  0.00    -0.355 OA
ATOM     20  C   UNL A   1      44.094  44.564  19.601  1.00  0.00     0.032 A 
ATOM     21  C   UNL A   1      42.090  43.637  18.618  1.00  0.00     0.013 A 
ATOM     22  C   UNL A   1      44.554  44.923  18.332  1.00  0.00     0.013 A 
ATOM     23  C   UNL A   1      42.554  43.978  17.347  1.00  0.00     0.001 A 
ATOM     24  C   UNL A   1      43.781  44.627  17.205  1.00  0.00     0.001 A 
BRANCH  11  25
ATOM     25  N   UNL A   1      46.269  44.932  25.308  1.00  0.00    -0.370 N 
ATOM     26  C   UNL A   1      47.655  44.461  25.243  1.00  0.00     0.116 C 
ATOM     27  C   UNL A   1      45.731  44.771  26.666  1.00  0.00     0.116 C 
ATOM     28  C   UNL A   1      47.873  43.747  26.572  1.00  0.00     0.023 C 
ATOM     29  C   UNL A   1      46.970  44.522  27.519  1.00  0.00     0.023 C 
ENDBRANCH  11  25
ENDBRANCH   6   8
ENDBRANCH   5   6
ENDBRANCH   3   5
ENDBRANCH   2   3
ENDBRANCH   1   2
BRANCH   1  30
ATOM     30  C   UNL A   1      45.127  38.446  26.966  1.00  0.00     0.275 C 
BRANCH  30  31
ATOM     31  O   UNL A   1      44.190  38.006  27.959  1.00  0.00    -0.458 OA
BRANCH  31  32
ATOM     32  C   UNL A   1      43.112  37.287  27.529  1.00  0.00     0.338 C 
ATOM     33  O   UNL A   1      42.652  37.241  26.420  1.00  0.00    -0.246 OA
BRANCH  32  34
ATOM     34  C   UNL A   1      42.701  36.464  28.689  1.00  0.00     0.060 A 
ATOM     35  C   UNL A   1      43.562  36.322  29.776  1.00  0.00     0.016 A 
ATOM     36  C   UNL A   1      41.548  35.682  28.585  1.00  0.00     0.016 A 
ATOM     37  C   UNL A   1      43.324  35.311  30.709  1.00  0.00     0.010 A 
ATOM     38  C   UNL A   1      41.345  34.638  29.492  1.00  0.00     0.010 A 
ATOM     39  C   UNL A   1      42.257  34.417  30.533  1.00  0.00    -0.014 A 
BRANCH  39  40
ATOM     40  C   UNL A   1      42.058  33.371  31.557  1.00  0.00     0.031 A 
ATOM     41  C   UNL A   1      40.654  33.334  32.046  1.00  0.00     0.074 A 
ATOM     42  C   UNL A   1      42.743  32.212  31.672  1.00  0.00     0.049 A 
ATOM     43  N   UNL A   1      39.723  32.671  31.428  1.00  0.00    -0.248 NA
ATOM     44  C   UNL A   1      40.168  34.287  33.040  1.00  0.00     0.031 C 
ATOM     45  C   UNL A   1      43.369  31.495  30.558  1.00  0.00     0.029 A 
ATOM     46  N   UNL A   1      42.794  31.317  32.725  1.00  0.00    -0.354 N 
ATOM     47  C   UNL A   1      38.524  33.205  31.844  1.00  0.00     0.074 A 
ATOM     48  C   UNL A   1      38.843  34.171  32.877  1.00  0.00     0.031 C 
ATOM     49  C   UNL A   1      43.558  30.209  30.929  1.00  0.00     0.029 A 
ATOM     50  C   UNL A   1      43.244  30.054  32.347  1.00  0.00     0.049 A 
ATOM     51  H   UNL A   1      42.539  31.548  33.647  1.00  0.00     0.167 HD
ATOM     52  C   UNL A   1      37.331  32.882  31.284  1.00  0.00     0.034 A 
ATOM     53  C   UNL A   1      42.915  28.881  32.960  1.00  0.00     0.034 A 
ATOM     54  C   UNL A   1      37.362  31.919  30.224  1.00  0.00     0.049 A 
ATOM     55  C   UNL A   1      41.481  28.704  32.537  1.00  0.00     0.074 A 
ATOM     56  C   UNL A   1      37.413  31.948  28.846  1.00  0.00     0.029 A 
ATOM     57  N   UNL A   1      37.482  30.589  30.552  1.00  0.00    -0.354 N 
ATOM     58  N   UNL A   1      41.066  28.231  31.392  1.00  0.00    -0.248 NA
ATOM     59  C   UNL A   1      40.462  29.411  33.314  1.00  0.00     0.031 C 
ATOM     60  C   UNL A   1      37.988  30.699  28.447  1.00  0.00     0.029 A 
ATOM     61  C   UNL A   1      38.295  30.002  29.612  1.00  0.00     0.049 A 
ATOM     62  H   UNL A   1      37.062  30.139  31.319  1.00  0.00     0.167 HD
ATOM     63  C   UNL A   1      39.840  28.864  31.166  1.00  0.00     0.074 A 
ATOM     64  C   UNL A   1      39.501  29.525  32.409  1.00  0.00     0.031 C 
ATOM     65  C   UNL A   1      39.268  28.980  29.933  1.00  0.00     0.034 A 
BRANCH  52  66
ATOM     66  C   UNL A   1      36.066  33.409  31.821  1.00  0.00     0.023 A 
ATOM     67  C   UNL A   1      35.672  32.952  33.093  1.00  0.00     0.012 A 
ATOM     68  C   UNL A   1      35.233  34.273  31.093  1.00  0.00     0.148 A 
ATOM     69  C   UNL A   1      34.446  33.328  33.629  1.00  0.00     0.002 A 
ATOM     70  C   UNL A   1      34.008  34.645  31.636  1.00  0.00     0.091 A 
ATOM     71  F   UNL A   1      35.642  34.698  29.890  1.00  0.00    -0.205 F 
ATOM     72  C   UNL A   1      33.613  34.169  32.899  1.00  0.00     0.022 A 
BRANCH  70  73
ATOM     73  S   UNL A   1      32.855  35.734  30.792  1.00  0.00     0.127 S 
ATOM     74  O   UNL A   1      32.519  34.953  29.603  1.00  0.00    -0.237 OA
ATOM     75  O   UNL A   1      31.775  35.848  31.774  1.00  0.00    -0.237 OA
ATOM     76  O   UNL A   1      33.579  36.973  30.546  1.00  0.00    -0.744 OA
ENDBRANCH  70  73
ENDBRANCH  52  66
BRANCH  53  77
ATOM     77  C   UNL A   1      43.381  28.717  34.381  1.00  0.00     0.023 A 
ATOM     78  C   UNL A   1      44.076  29.814  34.947  1.00  0.00     0.012 A 
ATOM     79  C   UNL A   1      43.218  27.574  35.189  1.00  0.00     0.148 A 
ATOM     80  C   UNL A   1      44.502  29.814  36.278  1.00  0.00     0.002 A 
ATOM     81  C   UNL A   1      43.590  27.598  36.535  1.00  0.00     0.091 A 
ATOM     82  F   UNL A   1      42.697  26.463  34.656  1.00  0.00    -0.205 F 
ATOM     83  C   UNL A   1      44.236  28.716  37.081  1.00  0.00     0.022 A 
BRANCH  81  84
ATOM     84  S   UNL A   1      43.207  26.251  37.665  1.00  0.00     0.127 S 
ATOM     85  O   UNL A   1      43.921  26.647  38.878  1.00  0.00    -0.237 OA
ATOM     86  O   UNL A   1      41.751  26.353  37.749  1.00  0.00    -0.237 OA
ATOM     87  O   UNL A   1      43.714  25.045  37.027  1.00  0.00    -0.744 OA
ENDBRANCH  81  84
ENDBRANCH  53  77
BRANCH  65  88
ATOM     88  C   UNL A   1      39.865  28.144  28.845  1.00  0.00     0.023 A 
ATOM     89  C   UNL A   1      39.243  26.916  28.552  1.00  0.00     0.012 A 
ATOM     90  C   UNL A   1      40.972  28.562  28.077  1.00  0.00     0.148 A 
ATOM     91  C   UNL A   1      39.693  26.124  27.497  1.00  0.00     0.002 A 
ATOM     92  C   UNL A   1      41.408  27.776  27.015  1.00  0.00     0.091 A 
ATOM     93  F   UNL A   1      41.562  29.731  28.368  1.00  0.00    -0.205 F 
ATOM     94  C   UNL A   1      40.768  26.557  26.724  1.00  0.00     0.022 A 
BRANCH  92  95
ATOM     95  S   UNL A   1      42.768  28.254  25.936  1.00  0.00     0.127 S 
ATOM     96  O   UNL A   1      42.287  27.833  24.619  1.00  0.00    -0.237 OA
ATOM     97  O   UNL A   1      42.808  29.704  26.127  1.00  0.00    -0.237 OA
ATOM     98  O   UNL A   1      43.953  27.532  26.392  1.00  0.00    -0.744 OA
ENDBRANCH  92  95
ENDBRANCH  65  88
ENDBRANCH  39  40
ENDBRANCH  32  34
ENDBRANCH  31  32
ENDBRANCH  30  31
ENDBRANCH   1  30
TORSDOF 17
ENDMDL
MODEL 2
REMARK VINA RESULT:     -12.7      1.262      1.859
REMARK SMILES O=C(CNc1cc(N2CCCC2)c2noc3c2c1C(=O)c1ccccc1-3)OCCOC(=O)c1ccc(-c2c3nc(c(-c4cccc(S(=O)(=O)[O-])c4F)c4ccc([nH]4)c(-c4cccc(S(=O)(=O)[O-])c4F)c4nc(c(-c5cccc(S(=O)(=O)[O-])c5F)c5ccc2[nH]5)C=C4)C=C3)cc1
REMARK SMILES IDX 28 1 27 2 2 3 1 4 3 5 4 6 5 8 6 9 18 10 7 11 17 12 19 13
REMARK SMILES IDX 13 14 16 15 20 16 21 17 14 18 15 19 26 20 22 21 25 22 23 23
REMARK SMILES IDX 24 24 8 25 9 26 12 27 10 28 11 29 29 30 30 31 31 32 32 33
REMARK SMILES IDX 33 34 34 35 95 36 35 37 94 38 36 39 37 40 38 41 88 42 39 43
REMARK SMILES IDX 93 44 87 45 89 46 40 47 92 48 86 49 85 50 41 52 73 53 53 54
REMARK SMILES IDX 72 55 54 56 57 57 71 58 90 59 55 60 56 61 70 63 91 64 58 65
REMARK SMILES IDX 42 66 43 67 51 68 44 69 46 70 52 71 45 72 47 73 48 74 49 75
REMARK SMILES IDX 50 76 74 77 75 78 83 79 76 80 78 81 84 82 77 83 79 84 80 85
REMARK SMILES IDX 81 86 82 87 59 88 60 89 68 90 61 91 63 92 69 93 62 94 64 95
REMARK SMILES IDX 65 96 66 97 67 98
REMARK H PARENT 4 7 89 51 57 62
REMARK Flexibility Score: inf
ROOT
ATOM      1  C   UNL A   1      41.554  40.260  26.653  1.00  0.00     0.274 C 
ENDROOT
BRANCH   1   2
ATOM      2  O   UNL A   1      42.629  40.954  25.993  1.00  0.00    -0.461 OA
BRANCH   2   3
ATOM      3  C   UNL A   1      42.492  41.776  24.915  1.00  0.00     0.325 C 
ATOM      4  O   UNL A   1      41.472  41.680  24.232  1.00  0.00    -0.250 OA
BRANCH   3   5
ATOM      5  C   UNL A   1      43.631  42.733  24.555  1.00  0.00     0.236 C 
BRANCH   5   6
ATOM      6  N   UNL A   1      44.252  42.446  23.276  1.00  0.00    -0.374 N 
ATOM      7  H   UNL A   1      44.385  41.492  23.073  1.00  0.00     0.161 HD
BRANCH   6   8
ATOM      8  C   UNL A   1      44.684  43.334  22.302  1.00  0.00     0.049 A 
ATOM      9  C   UNL A   1      46.056  43.757  22.529  1.00  0.00     0.054 A 
ATOM     10  C   UNL A   1      44.002  43.761  21.131  1.00  0.00     0.059 A 
ATOM     11  C   UNL A   1      46.872  44.566  21.681  1.00  0.00     0.069 A 
ATOM     12  C   UNL A   1      44.831  44.542  20.339  1.00  0.00     0.065 A 
ATOM     13  C   UNL A   1      42.594  43.607  20.650  1.00  0.00     0.196 C 
ATOM     14  C   UNL A   1      46.172  44.964  20.522  1.00  0.00     0.138 A 
ATOM     15  C   UNL A   1      44.415  45.052  19.155  1.00  0.00     0.176 A 
ATOM     16  O   UNL A   1      41.718  43.132  21.353  1.00  0.00    -0.288 OA
ATOM     17  C   UNL A   1      42.219  44.110  19.274  1.00  0.00     0.034 A 
ATOM     18  N   UNL A   1      46.527  45.722  19.455  1.00  0.00    -0.077 NA
ATOM     19  O   UNL A   1      45.419  45.768  18.602  1.00  0.00    -0.355 OA
ATOM     20  C   UNL A   1      43.139  44.869  18.528  1.00  0.00     0.032 A 
ATOM     21  C   UNL A   1      40.955  43.853  18.737  1.00  0.00     0.013 A 
ATOM     22  C   UNL A   1      42.788  45.370  17.272  1.00  0.00     0.013 A 
ATOM     23  C   UNL A   1      40.608  44.337  17.475  1.00  0.00     0.001 A 
ATOM     24  C   UNL A   1      41.520  45.101  16.748  1.00  0.00     0.001 A 
BRANCH  11  25
ATOM     25  N   UNL A   1      48.157  44.955  22.028  1.00  0.00    -0.370 N 
ATOM     26  C   UNL A   1      48.447  46.377  22.225  1.00  0.00     0.116 C 
ATOM     27  C   UNL A   1      49.186  44.328  21.186  1.00  0.00     0.116 C 
ATOM     28  C   UNL A   1      49.572  46.672  21.239  1.00  0.00     0.023 C 
ATOM     29  C   UNL A   1      50.319  45.348  21.181  1.00  0.00     0.023 C 
ENDBRANCH  11  25
ENDBRANCH   6   8
ENDBRANCH   5   6
ENDBRANCH   3   5
ENDBRANCH   2   3
ENDBRANCH   1   2
BRANCH   1  30
ATOM     30  C   UNL A   1      42.081  39.228  27.654  1.00  0.00     0.275 C 
BRANCH  30  31
ATOM     31  O   UNL A   1      42.054  37.917  27.070  1.00  0.00    -0.458 OA
BRANCH  31  32
ATOM     32  C   UNL A   1      43.110  37.092  27.335  1.00  0.00     0.338 C 
ATOM     33  O   UNL A   1      44.191  37.088  26.811  1.00  0.00    -0.246 OA
BRANCH  32  34
ATOM     34  C   UNL A   1      42.693  36.283  28.502  1.00  0.00     0.060 A 
ATOM     35  C   UNL A   1      43.534  36.181  29.608  1.00  0.00     0.016 A 
ATOM     36  C   UNL A   1      41.559  35.474  28.390  1.00  0.00     0.016 A 
ATOM     37  C   UNL A   1      43.298  35.182  30.556  1.00  0.00     0.010 A 
ATOM     38  C   UNL A   1      41.360  34.444  29.313  1.00  0.00     0.010 A 
ATOM     39  C   UNL A   1      42.255  34.262  30.376  1.00  0.00    -0.014 A 
BRANCH  39  40
ATOM     40  C   UNL A   1      42.056  33.232  31.416  1.00  0.00     0.031 A 
ATOM     41  C   UNL A   1      40.661  33.224  31.929  1.00  0.00     0.074 A 
ATOM     42  C   UNL A   1      42.725  32.064  31.534  1.00  0.00     0.049 A 
ATOM     43  N   UNL A   1      39.708  32.569  31.335  1.00  0.00    -0.248 NA
ATOM     44  C   UNL A   1      40.207  34.196  32.920  1.00  0.00     0.031 C 
ATOM     45  C   UNL A   1      43.319  31.324  30.417  1.00  0.00     0.029 A 
ATOM     46  N   UNL A   1      42.779  31.180  32.596  1.00  0.00    -0.354 N 
ATOM     47  C   UNL A   1      38.525  33.127  31.765  1.00  0.00     0.074 A 
ATOM     48  C   UNL A   1      38.878  34.099  32.780  1.00  0.00     0.031 C 
ATOM     49  C   UNL A   1      43.494  30.039  30.800  1.00  0.00     0.029 A 
ATOM     50  C   UNL A   1      43.202  29.906  32.226  1.00  0.00     0.049 A 
ATOM     51  H   UNL A   1      42.544  31.427  33.519  1.00  0.00     0.167 HD
ATOM     52  C   UNL A   1      37.318  32.817  31.229  1.00  0.00     0.034 A 
ATOM     53  C   UNL A   1      42.865  28.745  32.858  1.00  0.00     0.034 A 
ATOM     54  C   UNL A   1      37.315  31.840  30.181  1.00  0.00     0.049 A 
ATOM     55  C   UNL A   1      41.422  28.587  32.462  1.00  0.00     0.074 A 
ATOM     56  C   UNL A   1      37.343  31.853  28.802  1.00  0.00     0.029 A 
ATOM     57  N   UNL A   1      37.420  30.513  30.523  1.00  0.00    -0.354 N 
ATOM     58  N   UNL A   1      40.979  28.107  31.330  1.00  0.00    -0.248 NA
ATOM     59  C   UNL A   1      40.427  29.319  33.248  1.00  0.00     0.031 C 
ATOM     60  C   UNL A   1      37.891  30.590  28.408  1.00  0.00     0.029 A 
ATOM     61  C   UNL A   1      38.207  29.901  29.576  1.00  0.00     0.049 A 
ATOM     62  H   UNL A   1      37.006  30.079  31.303  1.00  0.00     0.167 HD
ATOM     63  C   UNL A   1      39.760  28.757  31.118  1.00  0.00     0.074 A 
ATOM     64  C   UNL A   1      39.453  29.438  32.358  1.00  0.00     0.031 C 
ATOM     65  C   UNL A   1      39.169  28.868  29.893  1.00  0.00     0.034 A 
BRANCH  52  66
ATOM     66  C   UNL A   1      36.071  33.370  31.782  1.00  0.00     0.023 A 
ATOM     67  C   UNL A   1      35.704  32.954  33.075  1.00  0.00     0.012 A 
ATOM     68  C   UNL A   1      35.228  34.220  31.049  1.00  0.00     0.148 A 
ATOM     69  C   UNL A   1      34.496  33.357  33.630  1.00  0.00     0.002 A 
ATOM     70  C   UNL A   1      34.019  34.619  31.610  1.00  0.00     0.091 A 
ATOM     71  F   UNL A   1      35.610  34.606  29.824  1.00  0.00    -0.205 F 
ATOM     72  C   UNL A   1      33.651  34.184  32.896  1.00  0.00     0.022 A 
BRANCH  70  73
ATOM     73  S   UNL A   1      32.855  35.693  30.764  1.00  0.00     0.127 S 
ATOM     74  O   UNL A   1      31.773  35.794  31.742  1.00  0.00    -0.237 OA
ATOM     75  O   UNL A   1      33.641  36.916  30.593  1.00  0.00    -0.237 OA
ATOM     76  O   UNL A   1      32.515  35.016  29.520  1.00  0.00    -0.744 OA
ENDBRANCH  70  73
ENDBRANCH  52  66
BRANCH  53  77
ATOM     77  C   UNL A   1      43.352  28.590  34.273  1.00  0.00     0.023 A 
ATOM     78  C   UNL A   1      44.122  29.659  34.796  1.00  0.00     0.012 A 
ATOM     79  C   UNL A   1      43.143  27.480  35.114  1.00  0.00     0.148 A 
ATOM     80  C   UNL A   1      44.577  29.669  36.116  1.00  0.00     0.002 A 
ATOM     81  C   UNL A   1      43.546  27.517  36.451  1.00  0.00     0.091 A 
ATOM     82  F   UNL A   1      42.548  26.388  34.622  1.00  0.00    -0.205 F 
ATOM     83  C   UNL A   1      44.267  28.608  36.954  1.00  0.00     0.022 A 
BRANCH  81  84
ATOM     84  S   UNL A   1      43.112  26.223  37.625  1.00  0.00     0.127 S 
ATOM     85  O   UNL A   1      43.775  26.674  38.848  1.00  0.00    -0.237 OA
ATOM     86  O   UNL A   1      41.654  26.328  37.641  1.00  0.00    -0.237 OA
ATOM     87  O   UNL A   1      43.644  24.989  37.065  1.00  0.00    -0.744 OA
ENDBRANCH  81  84
ENDBRANCH  53  77
BRANCH  65  88
ATOM     88  C   UNL A   1      39.733  28.009  28.805  1.00  0.00     0.023 A 
ATOM     89  C   UNL A   1      39.166  26.734  28.621  1.00  0.00     0.012 A 
ATOM     90  C   UNL A   1      40.754  28.447  27.936  1.00  0.00     0.148 A 
ATOM     91  C   UNL A   1      39.584  25.914  27.575  1.00  0.00     0.002 A 
ATOM     92  C   UNL A   1      41.158  27.631  26.883  1.00  0.00     0.091 A 
ATOM     93  F   UNL A   1      41.293  29.661  28.123  1.00  0.00    -0.205 F 
ATOM     94  C   UNL A   1      40.571  26.364  26.702  1.00  0.00     0.022 A 
BRANCH  92  95
ATOM     95  S   UNL A   1      42.404  28.125  25.682  1.00  0.00     0.127 S 
ATOM     96  O   UNL A   1      43.576  28.368  26.526  1.00  0.00    -0.237 OA
ATOM     97  O   UNL A   1      42.504  26.931  24.843  1.00  0.00    -0.237 OA
ATOM     98  O   UNL A   1      41.902  29.320  25.009  1.00  0.00    -0.744 OA
ENDBRANCH  92  95
ENDBRANCH  65  88
ENDBRANCH  39  40
ENDBRANCH  32  34
ENDBRANCH  31  32
ENDBRANCH  30  31
ENDBRANCH   1  30
TORSDOF 17
ENDMDL
MODEL 3
REMARK VINA RESULT:     -12.5      7.947     20.386
REMARK SMILES O=C(CNc1cc(N2CCCC2)c2noc3c2c1C(=O)c1ccccc1-3)OCCOC(=O)c1ccc(-c2c3nc(c(-c4cccc(S(=O)(=O)[O-])c4F)c4ccc([nH]4)c(-c4cccc(S(=O)(=O)[O-])c4F)c4nc(c(-c5cccc(S(=O)(=O)[O-])c5F)c5ccc2[nH]5)C=C4)C=C3)cc1
REMARK SMILES IDX 28 1 27 2 2 3 1 4 3 5 4 6 5 8 6 9 18 10 7 11 17 12 19 13
REMARK SMILES IDX 13 14 16 15 20 16 21 17 14 18 15 19 26 20 22 21 25 22 23 23
REMARK SMILES IDX 24 24 8 25 9 26 12 27 10 28 11 29 29 30 30 31 31 32 32 33
REMARK SMILES IDX 33 34 34 35 95 36 35 37 94 38 36 39 37 40 38 41 88 42 39 43
REMARK SMILES IDX 93 44 87 45 89 46 40 47 92 48 86 49 85 50 41 52 73 53 53 54
REMARK SMILES IDX 72 55 54 56 57 57 71 58 90 59 55 60 56 61 70 63 91 64 58 65
REMARK SMILES IDX 42 66 43 67 51 68 44 69 46 70 52 71 45 72 47 73 48 74 49 75
REMARK SMILES IDX 50 76 74 77 75 78 83 79 76 80 78 81 84 82 77 83 79 84 80 85
REMARK SMILES IDX 81 86 82 87 59 88 60 89 68 90 61 91 63 92 69 93 62 94 64 95
REMARK SMILES IDX 65 96 66 97 67 98
REMARK H PARENT 4 7 89 51 57 62
REMARK Flexibility Score: inf
ROOT
ATOM      1  C   UNL A   1      46.475  21.510  37.657  1.00  0.00     0.274 C 
ENDROOT
BRANCH   1   2
ATOM      2  O   UNL A   1      46.042  20.171  37.963  1.00  0.00    -0.461 OA
BRANCH   2   3
ATOM      3  C   UNL A   1      46.458  19.433  39.029  1.00  0.00     0.325 C 
ATOM      4  O   UNL A   1      46.787  18.263  38.838  1.00  0.00    -0.250 OA
BRANCH   3   5
ATOM      5  C   UNL A   1      46.435  20.059  40.426  1.00  0.00     0.236 C 
BRANCH   5   6
ATOM      6  N   UNL A   1      45.238  19.751  41.185  1.00  0.00    -0.374 N 
ATOM      7  H   UNL A   1      44.450  20.303  40.978  1.00  0.00     0.161 HD
BRANCH   6   8
ATOM      8  C   UNL A   1      45.053  18.783  42.161  1.00  0.00     0.049 A 
ATOM      9  C   UNL A   1      45.597  19.202  43.443  1.00  0.00     0.054 A 
ATOM     10  C   UNL A   1      44.346  17.555  42.066  1.00  0.00     0.059 A 
ATOM     11  C   UNL A   1      45.492  18.528  44.698  1.00  0.00     0.069 A 
ATOM     12  C   UNL A   1      44.270  16.936  43.306  1.00  0.00     0.065 A 
ATOM     13  C   UNL A   1      43.767  16.791  40.917  1.00  0.00     0.196 C 
ATOM     14  C   UNL A   1      44.776  17.319  44.574  1.00  0.00     0.138 A 
ATOM     15  C   UNL A   1      43.623  15.758  43.478  1.00  0.00     0.176 A 
ATOM     16  O   UNL A   1      43.958  17.119  39.759  1.00  0.00    -0.288 OA
ATOM     17  C   UNL A   1      42.969  15.534  41.187  1.00  0.00     0.034 A 
ATOM     18  N   UNL A   1      44.433  16.363  45.472  1.00  0.00    -0.077 NA
ATOM     19  O   UNL A   1      43.708  15.390  44.775  1.00  0.00    -0.355 OA
ATOM     20  C   UNL A   1      42.922  14.997  42.486  1.00  0.00     0.032 A 
ATOM     21  C   UNL A   1      42.293  14.880  40.155  1.00  0.00     0.013 A 
ATOM     22  C   UNL A   1      42.219  13.816  42.737  1.00  0.00     0.013 A 
ATOM     23  C   UNL A   1      41.575  13.710  40.406  1.00  0.00     0.001 A 
ATOM     24  C   UNL A   1      41.546  13.175  41.693  1.00  0.00     0.001 A 
BRANCH  11  25
ATOM     25  N   UNL A   1      46.102  18.996  45.852  1.00  0.00    -0.370 N 
ATOM     26  C   UNL A   1      45.314  19.762  46.820  1.00  0.00     0.116 C 
ATOM     27  C   UNL A   1      47.385  19.662  45.585  1.00  0.00     0.116 C 
ATOM     28  C   UNL A   1      46.056  21.087  46.946  1.00  0.00     0.023 C 
ATOM     29  C   UNL A   1      47.503  20.682  46.713  1.00  0.00     0.023 C 
ENDBRANCH  11  25
ENDBRANCH   6   8
ENDBRANCH   5   6
ENDBRANCH   3   5
ENDBRANCH   2   3
ENDBRANCH   1   2
BRANCH   1  30
ATOM     30  C   UNL A   1      46.787  21.674  36.167  1.00  0.00     0.275 C 
BRANCH  30  31
ATOM     31  O   UNL A   1      46.053  22.784  35.629  1.00  0.00    -0.458 OA
BRANCH  31  32
ATOM     32  C   UNL A   1      45.084  22.507  34.708  1.00  0.00     0.338 C 
ATOM     33  O   UNL A   1      44.359  21.550  34.666  1.00  0.00    -0.246 OA
BRANCH  32  34
ATOM     34  C   UNL A   1      45.017  23.702  33.838  1.00  0.00     0.060 A 
ATOM     35  C   UNL A   1      44.182  23.699  32.721  1.00  0.00     0.016 A 
ATOM     36  C   UNL A   1      45.940  24.731  34.035  1.00  0.00     0.016 A 
ATOM     37  C   UNL A   1      44.353  24.676  31.737  1.00  0.00     0.010 A 
ATOM     38  C   UNL A   1      46.141  25.674  33.023  1.00  0.00     0.010 A 
ATOM     39  C   UNL A   1      45.380  25.624  31.847  1.00  0.00    -0.014 A 
BRANCH  39  40
ATOM     40  C   UNL A   1      45.505  26.632  30.775  1.00  0.00     0.031 A 
ATOM     41  C   UNL A   1      45.506  26.010  29.425  1.00  0.00     0.074 A 
ATOM     42  C   UNL A   1      45.086  27.917  30.822  1.00  0.00     0.049 A 
ATOM     43  N   UNL A   1      44.407  25.721  28.795  1.00  0.00    -0.248 NA
ATOM     44  C   UNL A   1      46.707  25.392  28.871  1.00  0.00     0.031 C 
ATOM     45  C   UNL A   1      43.966  28.403  31.631  1.00  0.00     0.029 A 
ATOM     46  N   UNL A   1      45.384  28.974  29.982  1.00  0.00    -0.354 N 
ATOM     47  C   UNL A   1      44.738  24.779  27.847  1.00  0.00     0.074 A 
ATOM     48  C   UNL A   1      46.179  24.639  27.897  1.00  0.00     0.031 C 
ATOM     49  C   UNL A   1      43.544  29.579  31.116  1.00  0.00     0.029 A 
ATOM     50  C   UNL A   1      44.465  30.017  30.070  1.00  0.00     0.049 A 
ATOM     51  H   UNL A   1      46.165  28.988  29.383  1.00  0.00     0.167 HD
ATOM     52  C   UNL A   1      43.816  24.110  27.109  1.00  0.00     0.034 A 
ATOM     53  C   UNL A   1      44.165  30.894  29.070  1.00  0.00     0.034 A 
ATOM     54  C   UNL A   1      42.443  24.444  27.343  1.00  0.00     0.049 A 
ATOM     55  C   UNL A   1      43.375  30.027  28.127  1.00  0.00     0.074 A 
ATOM     56  C   UNL A   1      41.413  23.957  28.120  1.00  0.00     0.029 A 
ATOM     57  N   UNL A   1      41.945  25.597  26.781  1.00  0.00    -0.354 N 
ATOM     58  N   UNL A   1      42.112  29.714  28.240  1.00  0.00    -0.248 NA
ATOM     59  C   UNL A   1      44.131  29.196  27.189  1.00  0.00     0.031 C 
ATOM     60  C   UNL A   1      40.518  25.057  28.321  1.00  0.00     0.029 A 
ATOM     61  C   UNL A   1      41.083  26.162  27.690  1.00  0.00     0.049 A 
ATOM     62  H   UNL A   1      42.166  25.952  25.891  1.00  0.00     0.167 HD
ATOM     63  C   UNL A   1      42.000  28.454  27.646  1.00  0.00     0.074 A 
ATOM     64  C   UNL A   1      43.259  28.222  26.969  1.00  0.00     0.031 C 
ATOM     65  C   UNL A   1      40.976  27.589  27.899  1.00  0.00     0.034 A 
BRANCH  52  66
ATOM     66  C   UNL A   1      44.220  23.178  26.043  1.00  0.00     0.023 A 
ATOM     67  C   UNL A   1      44.858  23.731  24.918  1.00  0.00     0.012 A 
ATOM     68  C   UNL A   1      43.932  21.805  26.086  1.00  0.00     0.148 A 
ATOM     69  C   UNL A   1      45.185  22.933  23.828  1.00  0.00     0.002 A 
ATOM     70  C   UNL A   1      44.262  21.012  24.993  1.00  0.00     0.091 A 
ATOM     71  F   UNL A   1      43.333  21.307  27.177  1.00  0.00    -0.205 F 
ATOM     72  C   UNL A   1      44.882  21.576  23.864  1.00  0.00     0.022 A 
BRANCH  70  73
ATOM     73  S   UNL A   1      43.931  19.248  24.928  1.00  0.00     0.127 S 
ATOM     74  O   UNL A   1      42.487  19.204  25.156  1.00  0.00    -0.237 OA
ATOM     75  O   UNL A   1      44.345  18.912  23.565  1.00  0.00    -0.237 OA
ATOM     76  O   UNL A   1      44.749  18.647  25.972  1.00  0.00    -0.744 OA
ENDBRANCH  70  73
ENDBRANCH  52  66
BRANCH  53  77
ATOM     77  C   UNL A   1      45.280  31.799  28.619  1.00  0.00     0.023 A 
ATOM     78  C   UNL A   1      46.524  31.645  29.280  1.00  0.00     0.012 A 
ATOM     79  C   UNL A   1      45.200  32.797  27.628  1.00  0.00     0.148 A 
ATOM     80  C   UNL A   1      47.655  32.376  28.910  1.00  0.00     0.002 A 
ATOM     81  C   UNL A   1      46.345  33.484  27.218  1.00  0.00     0.091 A 
ATOM     82  F   UNL A   1      44.014  33.079  27.076  1.00  0.00    -0.205 F 
ATOM     83  C   UNL A   1      47.573  33.278  27.860  1.00  0.00     0.022 A 
BRANCH  81  84
ATOM     84  S   UNL A   1      46.344  34.607  25.812  1.00  0.00     0.127 S 
ATOM     85  O   UNL A   1      47.737  34.559  25.371  1.00  0.00    -0.237 OA
ATOM     86  O   UNL A   1      45.392  33.949  24.919  1.00  0.00    -0.237 OA
ATOM     87  O   UNL A   1      45.919  35.897  26.339  1.00  0.00    -0.744 OA
ENDBRANCH  81  84
ENDBRANCH  53  77
BRANCH  65  88
ATOM     88  C   UNL A   1      39.798  28.154  28.629  1.00  0.00     0.023 A 
ATOM     89  C   UNL A   1      38.738  28.667  27.858  1.00  0.00     0.012 A 
ATOM     90  C   UNL A   1      39.688  28.138  30.036  1.00  0.00     0.148 A 
ATOM     91  C   UNL A   1      37.575  29.133  28.468  1.00  0.00     0.002 A 
ATOM     92  C   UNL A   1      38.519  28.589  30.639  1.00  0.00     0.091 A 
ATOM     93  F   UNL A   1      40.706  27.653  30.762  1.00  0.00    -0.205 F 
ATOM     94  C   UNL A   1      37.461  29.085  29.855  1.00  0.00     0.022 A 
BRANCH  92  95
ATOM     95  S   UNL A   1      38.256  28.547  32.420  1.00  0.00     0.127 S 
ATOM     96  O   UNL A   1      36.908  29.102  32.552  1.00  0.00    -0.237 OA
ATOM     97  O   UNL A   1      38.347  27.114  32.704  1.00  0.00    -0.237 OA
ATOM     98  O   UNL A   1      39.298  29.370  33.028  1.00  0.00    -0.744 OA
ENDBRANCH  92  95
ENDBRANCH  65  88
ENDBRANCH  39  40
ENDBRANCH  32  34
ENDBRANCH  31  32
ENDBRANCH  30  31
ENDBRANCH   1  30
TORSDOF 17
ENDMDL
