MODEL 1
REMARK VINA RESULT:     -13.3      0.000      0.000
REMARK SMILES O=C(OCCOC(=O)c1ccc([C@@H]2CC(O)=Nc3c2ncn3-c2cccc(Cl)c2)cc1)c1ccc(-c2c3nc(c(-c4cccc(S(=O)(=O)[O-])c4F)c4ccc([nH]4)c(-c4cccc(S(=O)(=O)[O-])c4F)c4nc(c(-c5cccc(S(=O)(=O)[O-])c5F)c5ccc2[nH]5)C=C4)C=C3)cc1
REMARK SMILES IDX 4 1 3 2 2 3 1 4 32 5 33 6 94 7 34 8 93 9 35 10 36 11 37 12
REMARK SMILES IDX 87 13 38 14 92 15 86 16 88 17 39 18 91 19 85 20 84 21 40 23
REMARK SMILES IDX 72 24 52 25 71 26 53 27 56 28 70 29 89 30 54 31 55 32 69 34
REMARK SMILES IDX 90 35 57 36 41 37 42 38 50 39 43 40 45 41 51 42 44 43 46 44
REMARK SMILES IDX 47 45 48 46 49 47 73 48 74 49 82 50 75 51 77 52 83 53 76 54
REMARK SMILES IDX 78 55 79 56 80 57 81 58 58 59 59 60 67 61 60 62 62 63 68 64
REMARK SMILES IDX 61 65 63 66 64 67 65 68 66 69 5 70 6 71 7 72 8 73 9 74 10 75
REMARK SMILES IDX 31 76 11 77 30 78 12 79 13 80 14 81 19 82 15 83 18 84 20 85
REMARK SMILES IDX 17 86 22 87 21 88 16 89 23 91 24 92 29 93 25 94 27 95 26 96
REMARK SMILES IDX 28 97
REMARK H PARENT 88 22 56 33 16 90
REMARK Flexibility Score: inf
ROOT
ATOM      1  C   UNL A   1      33.292  31.260  27.423  1.00  0.00     0.275 C 
ENDROOT
BRANCH   1   2
ATOM      2  O   UNL A   1      34.657  30.794  27.432  1.00  0.00    -0.458 OA
BRANCH   2   3
ATOM      3  C   UNL A   1      35.668  31.614  27.797  1.00  0.00     0.338 C 
ATOM      4  O   UNL A   1      35.524  32.823  27.920  1.00  0.00    -0.246 OA
BRANCH   3   5
ATOM      5  C   UNL A   1      36.859  30.913  28.337  1.00  0.00     0.060 A 
ATOM      6  C   UNL A   1      37.891  31.557  29.028  1.00  0.00     0.016 A 
ATOM      7  C   UNL A   1      36.940  29.533  28.099  1.00  0.00     0.016 A 
ATOM      8  C   UNL A   1      39.043  30.864  29.359  1.00  0.00     0.010 A 
ATOM      9  C   UNL A   1      38.071  28.829  28.468  1.00  0.00     0.010 A 
ATOM     10  C   UNL A   1      39.149  29.515  29.022  1.00  0.00    -0.014 A 
BRANCH  10  11
ATOM     11  C   UNL A   1      40.387  28.819  29.343  1.00  0.00     0.031 A 
ATOM     12  C   UNL A   1      40.624  28.634  30.804  1.00  0.00     0.074 A 
ATOM     13  C   UNL A   1      41.157  28.281  28.375  1.00  0.00     0.049 A 
ATOM     14  N   UNL A   1      41.628  29.037  31.516  1.00  0.00    -0.248 NA
ATOM     15  C   UNL A   1      39.527  28.057  31.598  1.00  0.00     0.031 C 
ATOM     16  C   UNL A   1      40.859  28.192  26.940  1.00  0.00     0.029 A 
ATOM     17  N   UNL A   1      42.300  27.550  28.486  1.00  0.00    -0.354 N 
ATOM     18  C   UNL A   1      41.392  28.554  32.805  1.00  0.00     0.074 A 
ATOM     19  C   UNL A   1      40.021  28.145  32.831  1.00  0.00     0.031 C 
ATOM     20  C   UNL A   1      41.621  27.224  26.386  1.00  0.00     0.029 A 
ATOM     21  C   UNL A   1      42.554  26.736  27.383  1.00  0.00     0.049 A 
ATOM     22  H   UNL A   1      42.893  27.594  29.271  1.00  0.00     0.167 HD
ATOM     23  C   UNL A   1      42.412  28.288  33.668  1.00  0.00     0.034 A 
ATOM     24  C   UNL A   1      43.403  25.678  27.330  1.00  0.00     0.034 A 
ATOM     25  C   UNL A   1      43.605  28.996  33.282  1.00  0.00     0.049 A 
ATOM     26  C   UNL A   1      44.341  25.812  28.466  1.00  0.00     0.074 A 
ATOM     27  C   UNL A   1      43.941  30.324  33.115  1.00  0.00     0.029 A 
ATOM     28  N   UNL A   1      44.566  28.277  32.618  1.00  0.00    -0.354 N 
ATOM     29  N   UNL A   1      45.207  26.781  28.568  1.00  0.00    -0.248 NA
ATOM     30  C   UNL A   1      43.993  25.143  29.709  1.00  0.00     0.031 C 
ATOM     31  C   UNL A   1      44.770  30.340  31.955  1.00  0.00     0.029 A 
ATOM     32  C   UNL A   1      44.960  29.021  31.541  1.00  0.00     0.049 A 
ATOM     33  H   UNL A   1      44.910  27.389  32.871  1.00  0.00     0.167 HD
ATOM     34  C   UNL A   1      45.145  27.151  29.904  1.00  0.00     0.074 A 
ATOM     35  C   UNL A   1      44.455  26.049  30.576  1.00  0.00     0.031 C 
ATOM     36  C   UNL A   1      45.384  28.440  30.289  1.00  0.00     0.034 A 
BRANCH  23  37
ATOM     37  C   UNL A   1      42.482  27.068  34.579  1.00  0.00     0.023 A 
ATOM     38  C   UNL A   1      42.096  27.266  35.927  1.00  0.00     0.012 A 
ATOM     39  C   UNL A   1      43.183  25.873  34.292  1.00  0.00     0.148 A 
ATOM     40  C   UNL A   1      42.501  26.398  36.948  1.00  0.00     0.002 A 
ATOM     41  C   UNL A   1      43.535  24.983  35.302  1.00  0.00     0.091 A 
ATOM     42  F   UNL A   1      43.615  25.620  33.058  1.00  0.00    -0.205 F 
ATOM     43  C   UNL A   1      43.233  25.262  36.636  1.00  0.00     0.022 A 
BRANCH  41  44
ATOM     44  S   UNL A   1      44.450  23.472  34.961  1.00  0.00     0.127 S 
ATOM     45  O   UNL A   1      45.693  24.005  34.409  1.00  0.00    -0.237 OA
ATOM     46  O   UNL A   1      44.565  22.889  36.297  1.00  0.00    -0.237 OA
ATOM     47  O   UNL A   1      43.621  22.700  34.045  1.00  0.00    -0.744 OA
ENDBRANCH  41  44
ENDBRANCH  23  37
BRANCH  24  48
ATOM     48  C   UNL A   1      43.271  24.408  26.574  1.00  0.00     0.023 A 
ATOM     49  C   UNL A   1      44.373  23.894  25.862  1.00  0.00     0.012 A 
ATOM     50  C   UNL A   1      42.158  23.561  26.777  1.00  0.00     0.148 A 
ATOM     51  C   UNL A   1      44.376  22.574  25.389  1.00  0.00     0.002 A 
ATOM     52  C   UNL A   1      42.162  22.253  26.300  1.00  0.00     0.091 A 
ATOM     53  F   UNL A   1      41.136  24.008  27.518  1.00  0.00    -0.205 F 
ATOM     54  C   UNL A   1      43.275  21.752  25.613  1.00  0.00     0.022 A 
BRANCH  52  55
ATOM     55  S   UNL A   1      40.788  21.128  26.576  1.00  0.00     0.127 S 
ATOM     56  O   UNL A   1      40.711  21.097  28.037  1.00  0.00    -0.237 OA
ATOM     57  O   UNL A   1      39.686  21.828  25.921  1.00  0.00    -0.237 OA
ATOM     58  O   UNL A   1      41.178  19.861  25.971  1.00  0.00    -0.744 OA
ENDBRANCH  52  55
ENDBRANCH  24  48
BRANCH  36  59
ATOM     59  C   UNL A   1      45.918  29.405  29.262  1.00  0.00     0.023 A 
ATOM     60  C   UNL A   1      47.267  29.412  28.850  1.00  0.00     0.012 A 
ATOM     61  C   UNL A   1      44.989  30.186  28.558  1.00  0.00     0.148 A 
ATOM     62  C   UNL A   1      47.681  30.196  27.768  1.00  0.00     0.002 A 
ATOM     63  C   UNL A   1      45.392  30.923  27.454  1.00  0.00     0.091 A 
ATOM     64  F   UNL A   1      43.709  30.162  28.962  1.00  0.00    -0.205 F 
ATOM     65  C   UNL A   1      46.739  30.940  27.061  1.00  0.00     0.022 A 
BRANCH  63  66
ATOM     66  S   UNL A   1      44.202  31.784  26.427  1.00  0.00     0.127 S 
ATOM     67  O   UNL A   1      43.243  30.726  26.119  1.00  0.00    -0.237 OA
ATOM     68  O   UNL A   1      43.700  32.822  27.330  1.00  0.00    -0.237 OA
ATOM     69  O   UNL A   1      44.953  32.301  25.289  1.00  0.00    -0.744 OA
ENDBRANCH  63  66
ENDBRANCH  36  59
ENDBRANCH  10  11
ENDBRANCH   3   5
ENDBRANCH   2   3
ENDBRANCH   1   2
BRANCH   1  70
ATOM     70  C   UNL A   1      32.338  30.613  26.422  1.00  0.00     0.275 C 
BRANCH  70  71
ATOM     71  O   UNL A   1      33.053  29.959  25.361  1.00  0.00    -0.458 OA
BRANCH  71  72
ATOM     72  C   UNL A   1      32.336  29.064  24.640  1.00  0.00     0.338 C 
ATOM     73  O   UNL A   1      31.463  29.299  23.813  1.00  0.00    -0.246 OA
BRANCH  72  74
ATOM     74  C   UNL A   1      32.776  27.707  24.983  1.00  0.00     0.060 A 
ATOM     75  C   UNL A   1      32.320  27.115  26.160  1.00  0.00     0.016 A 
ATOM     76  C   UNL A   1      33.710  27.059  24.175  1.00  0.00     0.016 A 
ATOM     77  C   UNL A   1      32.788  25.852  26.521  1.00  0.00     0.005 A 
ATOM     78  C   UNL A   1      34.213  25.816  24.565  1.00  0.00     0.005 A 
ATOM     79  C   UNL A   1      33.759  25.195  25.743  1.00  0.00    -0.038 A 
BRANCH  79  80
ATOM     80  C   UNL A   1      34.370  23.916  26.299  1.00  0.00     0.081 C 
ATOM     81  C   UNL A   1      35.839  23.771  25.846  1.00  0.00     0.111 C 
ATOM     82  C   UNL A   1      33.562  22.759  25.858  1.00  0.00     0.093 A 
ATOM     83  C   UNL A   1      36.084  22.691  24.802  1.00  0.00     0.188 C 
ATOM     84  C   UNL A   1      34.096  21.753  25.081  1.00  0.00     0.164 A 
ATOM     85  N   UNL A   1      32.245  22.547  26.130  1.00  0.00    -0.238 NA
ATOM     86  N   UNL A   1      35.306  21.711  24.470  1.00  0.00    -0.198 NA
ATOM     87  N   UNL A   1      33.072  20.836  24.938  1.00  0.00    -0.283 N 
ATOM     88  C   UNL A   1      31.988  21.369  25.599  1.00  0.00     0.206 A 
BRANCH  83  89
ATOM     89  O   UNL A   1      37.293  22.779  24.204  1.00  0.00    -0.496 OA
ATOM     90  H   UNL A   1      37.763  21.999  23.981  1.00  0.00     0.294 HD
ENDBRANCH  83  89
BRANCH  87  91
ATOM     91  C   UNL A   1      33.098  19.621  24.222  1.00  0.00     0.050 A 
ATOM     92  C   UNL A   1      32.322  19.486  23.062  1.00  0.00     0.027 A 
ATOM     93  C   UNL A   1      33.902  18.567  24.671  1.00  0.00     0.047 A 
ATOM     94  C   UNL A   1      32.385  18.301  22.328  1.00  0.00     0.004 A 
ATOM     95  C   UNL A   1      33.913  17.372  23.957  1.00  0.00     0.043 A 
ATOM     96  C   UNL A   1      33.173  17.241  22.780  1.00  0.00     0.020 A 
ATOM     97  Cl  UNL A   1      34.841  16.038  24.528  1.00  0.00    -0.084 Cl
ENDBRANCH  87  91
ENDBRANCH  79  80
ENDBRANCH  72  74
ENDBRANCH  71  72
ENDBRANCH  70  71
ENDBRANCH   1  70
TORSDOF 17
ENDMDL
MODEL 2
REMARK VINA RESULT:     -13.2      3.485      7.114
REMARK SMILES O=C(OCCOC(=O)c1ccc([C@@H]2CC(O)=Nc3c2ncn3-c2cccc(Cl)c2)cc1)c1ccc(-c2c3nc(c(-c4cccc(S(=O)(=O)[O-])c4F)c4ccc([nH]4)c(-c4cccc(S(=O)(=O)[O-])c4F)c4nc(c(-c5cccc(S(=O)(=O)[O-])c5F)c5ccc2[nH]5)C=C4)C=C3)cc1
REMARK SMILES IDX 4 1 3 2 2 3 1 4 32 5 33 6 94 7 34 8 93 9 35 10 36 11 37 12
REMARK SMILES IDX 87 13 38 14 92 15 86 16 88 17 39 18 91 19 85 20 84 21 40 23
REMARK SMILES IDX 72 24 52 25 71 26 53 27 56 28 70 29 89 30 54 31 55 32 69 34
REMARK SMILES IDX 90 35 57 36 41 37 42 38 50 39 43 40 45 41 51 42 44 43 46 44
REMARK SMILES IDX 47 45 48 46 49 47 73 48 74 49 82 50 75 51 77 52 83 53 76 54
REMARK SMILES IDX 78 55 79 56 80 57 81 58 58 59 59 60 67 61 60 62 62 63 68 64
REMARK SMILES IDX 61 65 63 66 64 67 65 68 66 69 5 70 6 71 7 72 8 73 9 74 10 75
REMARK SMILES IDX 31 76 11 77 30 78 12 79 13 80 14 81 19 82 15 83 18 84 20 85
REMARK SMILES IDX 17 86 22 87 21 88 16 89 23 91 24 92 29 93 25 94 27 95 26 96
REMARK SMILES IDX 28 97
REMARK H PARENT 88 22 56 33 16 90
REMARK Flexibility Score: inf
ROOT
ATOM      1  C   UNL A   1      32.512  32.345  27.390  1.00  0.00     0.275 C 
ENDROOT
BRANCH   1   2
ATOM      2  O   UNL A   1      32.156  33.734  27.547  1.00  0.00    -0.458 OA
BRANCH   2   3
ATOM      3  C   UNL A   1      32.853  34.539  28.380  1.00  0.00     0.338 C 
ATOM      4  O   UNL A   1      32.324  35.426  29.036  1.00  0.00    -0.246 OA
BRANCH   3   5
ATOM      5  C   UNL A   1      34.229  34.066  28.677  1.00  0.00     0.060 A 
ATOM      6  C   UNL A   1      35.289  34.146  27.767  1.00  0.00     0.016 A 
ATOM      7  C   UNL A   1      34.438  33.486  29.936  1.00  0.00     0.016 A 
ATOM      8  C   UNL A   1      36.499  33.540  28.057  1.00  0.00     0.010 A 
ATOM      9  C   UNL A   1      35.661  32.919  30.246  1.00  0.00     0.010 A 
ATOM     10  C   UNL A   1      36.657  32.878  29.274  1.00  0.00    -0.014 A 
BRANCH  10  11
ATOM     11  C   UNL A   1      37.925  32.212  29.537  1.00  0.00     0.031 A 
ATOM     12  C   UNL A   1      37.985  30.799  29.062  1.00  0.00     0.074 A 
ATOM     13  C   UNL A   1      38.978  32.888  30.041  1.00  0.00     0.049 A 
ATOM     14  N   UNL A   1      38.218  29.727  29.749  1.00  0.00    -0.248 NA
ATOM     15  C   UNL A   1      37.582  30.537  27.671  1.00  0.00     0.031 C 
ATOM     16  C   UNL A   1      39.080  34.332  30.287  1.00  0.00     0.029 A 
ATOM     17  N   UNL A   1      40.244  32.455  30.291  1.00  0.00    -0.354 N 
ATOM     18  C   UNL A   1      38.222  28.681  28.823  1.00  0.00     0.074 A 
ATOM     19  C   UNL A   1      37.639  29.208  27.627  1.00  0.00     0.031 C 
ATOM     20  C   UNL A   1      40.383  34.681  30.359  1.00  0.00     0.029 A 
ATOM     21  C   UNL A   1      41.192  33.478  30.316  1.00  0.00     0.049 A 
ATOM     22  H   UNL A   1      40.469  31.508  30.442  1.00  0.00     0.167 HD
ATOM     23  C   UNL A   1      38.942  27.543  29.031  1.00  0.00     0.034 A 
ATOM     24  C   UNL A   1      42.538  33.343  30.212  1.00  0.00     0.034 A 
ATOM     25  C   UNL A   1      39.244  27.378  30.429  1.00  0.00     0.049 A 
ATOM     26  C   UNL A   1      42.863  31.935  30.531  1.00  0.00     0.074 A 
ATOM     27  C   UNL A   1      38.495  27.250  31.582  1.00  0.00     0.029 A 
ATOM     28  N   UNL A   1      40.507  27.726  30.837  1.00  0.00    -0.354 N 
ATOM     29  N   UNL A   1      42.682  31.408  31.709  1.00  0.00    -0.248 NA
ATOM     30  C   UNL A   1      42.941  30.996  29.424  1.00  0.00     0.031 C 
ATOM     31  C   UNL A   1      39.202  28.015  32.555  1.00  0.00     0.029 A 
ATOM     32  C   UNL A   1      40.377  28.486  31.965  1.00  0.00     0.049 A 
ATOM     33  H   UNL A   1      41.352  27.473  30.398  1.00  0.00     0.167 HD
ATOM     34  C   UNL A   1      42.153  30.153  31.441  1.00  0.00     0.074 A 
ATOM     35  C   UNL A   1      42.425  29.918  30.022  1.00  0.00     0.031 C 
ATOM     36  C   UNL A   1      41.283  29.556  32.309  1.00  0.00     0.034 A 
BRANCH  23  37
ATOM     37  C   UNL A   1      39.754  26.823  27.961  1.00  0.00     0.023 A 
ATOM     38  C   UNL A   1      39.668  25.410  27.949  1.00  0.00     0.012 A 
ATOM     39  C   UNL A   1      40.808  27.397  27.211  1.00  0.00     0.148 A 
ATOM     40  C   UNL A   1      40.646  24.613  27.343  1.00  0.00     0.002 A 
ATOM     41  C   UNL A   1      41.747  26.602  26.561  1.00  0.00     0.091 A 
ATOM     42  F   UNL A   1      40.988  28.716  27.193  1.00  0.00    -0.205 F 
ATOM     43  C   UNL A   1      41.694  25.210  26.660  1.00  0.00     0.022 A 
BRANCH  41  44
ATOM     44  S   UNL A   1      43.109  27.312  25.624  1.00  0.00     0.127 S 
ATOM     45  O   UNL A   1      43.844  26.113  25.230  1.00  0.00    -0.237 OA
ATOM     46  O   UNL A   1      42.399  27.990  24.540  1.00  0.00    -0.237 OA
ATOM     47  O   UNL A   1      43.797  28.213  26.539  1.00  0.00    -0.744 OA
ENDBRANCH  41  44
ENDBRANCH  23  37
BRANCH  24  48
ATOM     48  C   UNL A   1      43.522  34.241  29.559  1.00  0.00     0.023 A 
ATOM     49  C   UNL A   1      44.318  35.103  30.341  1.00  0.00     0.012 A 
ATOM     50  C   UNL A   1      43.878  34.056  28.204  1.00  0.00     0.148 A 
ATOM     51  C   UNL A   1      45.443  35.739  29.799  1.00  0.00     0.002 A 
ATOM     52  C   UNL A   1      44.993  34.695  27.667  1.00  0.00     0.091 A 
ATOM     53  F   UNL A   1      43.180  33.181  27.469  1.00  0.00    -0.205 F 
ATOM     54  C   UNL A   1      45.785  35.530  28.464  1.00  0.00     0.022 A 
BRANCH  52  55
ATOM     55  S   UNL A   1      45.508  34.451  25.962  1.00  0.00     0.127 S 
ATOM     56  O   UNL A   1      46.034  33.086  25.998  1.00  0.00    -0.237 OA
ATOM     57  O   UNL A   1      44.248  34.602  25.240  1.00  0.00    -0.237 OA
ATOM     58  O   UNL A   1      46.513  35.473  25.697  1.00  0.00    -0.744 OA
ENDBRANCH  52  55
ENDBRANCH  24  48
BRANCH  36  59
ATOM     59  C   UNL A   1      41.069  30.193  33.657  1.00  0.00     0.023 A 
ATOM     60  C   UNL A   1      41.998  30.075  34.713  1.00  0.00     0.012 A 
ATOM     61  C   UNL A   1      40.000  31.093  33.791  1.00  0.00     0.148 A 
ATOM     62  C   UNL A   1      41.851  30.829  35.882  1.00  0.00     0.002 A 
ATOM     63  C   UNL A   1      39.886  31.876  34.930  1.00  0.00     0.091 A 
ATOM     64  F   UNL A   1      39.131  31.195  32.773  1.00  0.00    -0.205 F 
ATOM     65  C   UNL A   1      40.803  31.741  35.984  1.00  0.00     0.022 A 
BRANCH  63  66
ATOM     66  S   UNL A   1      38.642  33.160  35.053  1.00  0.00     0.127 S 
ATOM     67  O   UNL A   1      37.430  32.387  35.311  1.00  0.00    -0.237 OA
ATOM     68  O   UNL A   1      39.118  33.951  36.190  1.00  0.00    -0.237 OA
ATOM     69  O   UNL A   1      38.673  33.872  33.781  1.00  0.00    -0.744 OA
ENDBRANCH  63  66
ENDBRANCH  36  59
ENDBRANCH  10  11
ENDBRANCH   3   5
ENDBRANCH   2   3
ENDBRANCH   1   2
BRANCH   1  70
ATOM     70  C   UNL A   1      31.606  31.486  26.511  1.00  0.00     0.275 C 
BRANCH  70  71
ATOM     71  O   UNL A   1      32.347  30.449  25.847  1.00  0.00    -0.458 OA
BRANCH  71  72
ATOM     72  C   UNL A   1      31.609  29.592  25.102  1.00  0.00     0.338 C 
ATOM     73  O   UNL A   1      30.666  29.863  24.367  1.00  0.00    -0.246 OA
BRANCH  72  74
ATOM     74  C   UNL A   1      32.124  28.231  25.283  1.00  0.00     0.060 A 
ATOM     75  C   UNL A   1      31.740  27.496  26.404  1.00  0.00     0.016 A 
ATOM     76  C   UNL A   1      33.056  27.718  24.380  1.00  0.00     0.016 A 
ATOM     77  C   UNL A   1      32.279  26.227  26.612  1.00  0.00     0.005 A 
ATOM     78  C   UNL A   1      33.630  26.468  24.619  1.00  0.00     0.005 A 
ATOM     79  C   UNL A   1      33.250  25.704  25.737  1.00  0.00    -0.038 A 
BRANCH  79  80
ATOM     80  C   UNL A   1      33.940  24.406  26.133  1.00  0.00     0.081 C 
ATOM     81  C   UNL A   1      35.350  24.326  25.510  1.00  0.00     0.111 C 
ATOM     82  C   UNL A   1      33.105  23.263  25.707  1.00  0.00     0.093 A 
ATOM     83  C   UNL A   1      35.493  23.323  24.374  1.00  0.00     0.188 C 
ATOM     84  C   UNL A   1      33.564  22.322  24.809  1.00  0.00     0.164 A 
ATOM     85  N   UNL A   1      31.831  23.003  26.110  1.00  0.00    -0.238 NA
ATOM     86  N   UNL A   1      34.698  22.349  24.066  1.00  0.00    -0.198 NA
ATOM     87  N   UNL A   1      32.545  21.394  24.719  1.00  0.00    -0.283 N 
ATOM     88  C   UNL A   1      31.534  21.857  25.532  1.00  0.00     0.206 A 
BRANCH  83  89
ATOM     89  O   UNL A   1      36.625  23.478  23.653  1.00  0.00    -0.496 OA
ATOM     90  H   UNL A   1      37.410  23.770  24.072  1.00  0.00     0.294 HD
ENDBRANCH  83  89
BRANCH  87  91
ATOM     91  C   UNL A   1      32.509  20.229  23.924  1.00  0.00     0.050 A 
ATOM     92  C   UNL A   1      32.126  20.323  22.579  1.00  0.00     0.027 A 
ATOM     93  C   UNL A   1      32.862  18.996  24.482  1.00  0.00     0.047 A 
ATOM     94  C   UNL A   1      32.137  19.179  21.781  1.00  0.00     0.004 A 
ATOM     95  C   UNL A   1      32.817  17.854  23.687  1.00  0.00     0.043 A 
ATOM     96  C   UNL A   1      32.473  17.943  22.336  1.00  0.00     0.020 A 
ATOM     97  Cl  UNL A   1      33.181  16.315  24.369  1.00  0.00    -0.084 Cl
ENDBRANCH  87  91
ENDBRANCH  79  80
ENDBRANCH  72  74
ENDBRANCH  71  72
ENDBRANCH  70  71
ENDBRANCH   1  70
TORSDOF 17
ENDMDL
MODEL 3
REMARK VINA RESULT:     -13.1      2.033      2.536
REMARK SMILES O=C(OCCOC(=O)c1ccc([C@@H]2CC(O)=Nc3c2ncn3-c2cccc(Cl)c2)cc1)c1ccc(-c2c3nc(c(-c4cccc(S(=O)(=O)[O-])c4F)c4ccc([nH]4)c(-c4cccc(S(=O)(=O)[O-])c4F)c4nc(c(-c5cccc(S(=O)(=O)[O-])c5F)c5ccc2[nH]5)C=C4)C=C3)cc1
REMARK SMILES IDX 4 1 3 2 2 3 1 4 32 5 33 6 94 7 34 8 93 9 35 10 36 11 37 12
REMARK SMILES IDX 87 13 38 14 92 15 86 16 88 17 39 18 91 19 85 20 84 21 40 23
REMARK SMILES IDX 72 24 52 25 71 26 53 27 56 28 70 29 89 30 54 31 55 32 69 34
REMARK SMILES IDX 90 35 57 36 41 37 42 38 50 39 43 40 45 41 51 42 44 43 46 44
REMARK SMILES IDX 47 45 48 46 49 47 73 48 74 49 82 50 75 51 77 52 83 53 76 54
REMARK SMILES IDX 78 55 79 56 80 57 81 58 58 59 59 60 67 61 60 62 62 63 68 64
REMARK SMILES IDX 61 65 63 66 64 67 65 68 66 69 5 70 6 71 7 72 8 73 9 74 10 75
REMARK SMILES IDX 31 76 11 77 30 78 12 79 13 80 14 81 19 82 15 83 18 84 20 85
REMARK SMILES IDX 17 86 22 87 21 88 16 89 23 91 24 92 29 93 25 94 27 95 26 96
REMARK SMILES IDX 28 97
REMARK H PARENT 88 22 56 33 16 90
REMARK Flexibility Score: inf
ROOT
ATOM      1  C   UNL A   1      31.995  30.450  26.752  1.00  0.00     0.275 C 
ENDROOT
BRANCH   1   2
ATOM      2  O   UNL A   1      33.184  30.288  27.552  1.00  0.00    -0.458 OA
BRANCH   2   3
ATOM      3  C   UNL A   1      34.074  31.297  27.682  1.00  0.00     0.338 C 
ATOM      4  O   UNL A   1      33.734  32.458  27.856  1.00  0.00    -0.246 OA
BRANCH   3   5
ATOM      5  C   UNL A   1      35.472  30.852  27.914  1.00  0.00     0.060 A 
ATOM      6  C   UNL A   1      35.897  29.527  27.771  1.00  0.00     0.016 A 
ATOM      7  C   UNL A   1      36.385  31.833  28.326  1.00  0.00     0.016 A 
ATOM      8  C   UNL A   1      37.175  29.163  28.159  1.00  0.00     0.010 A 
ATOM      9  C   UNL A   1      37.676  31.479  28.672  1.00  0.00     0.010 A 
ATOM     10  C   UNL A   1      38.038  30.134  28.664  1.00  0.00    -0.014 A 
BRANCH  10  11
ATOM     11  C   UNL A   1      39.362  29.719  29.105  1.00  0.00     0.031 A 
ATOM     12  C   UNL A   1      39.656  30.027  30.535  1.00  0.00     0.074 A 
ATOM     13  C   UNL A   1      40.171  28.995  28.303  1.00  0.00     0.049 A 
ATOM     14  N   UNL A   1      40.617  30.743  31.025  1.00  0.00    -0.248 NA
ATOM     15  C   UNL A   1      38.661  29.606  31.534  1.00  0.00     0.031 C 
ATOM     16  C   UNL A   1      39.852  28.430  26.986  1.00  0.00     0.029 A 
ATOM     17  N   UNL A   1      41.400  28.470  28.562  1.00  0.00    -0.354 N 
ATOM     18  C   UNL A   1      40.475  30.663  32.412  1.00  0.00     0.074 A 
ATOM     19  C   UNL A   1      39.168  30.130  32.647  1.00  0.00     0.031 C 
ATOM     20  C   UNL A   1      40.718  27.430  26.710  1.00  0.00     0.029 A 
ATOM     21  C   UNL A   1      41.729  27.386  27.749  1.00  0.00     0.049 A 
ATOM     22  H   UNL A   1      42.001  28.824  29.257  1.00  0.00     0.167 HD
ATOM     23  C   UNL A   1      41.541  30.797  33.250  1.00  0.00     0.034 A 
ATOM     24  C   UNL A   1      42.704  26.468  27.970  1.00  0.00     0.034 A 
ATOM     25  C   UNL A   1      42.625  31.480  32.592  1.00  0.00     0.049 A 
ATOM     26  C   UNL A   1      43.644  27.056  28.950  1.00  0.00     0.074 A 
ATOM     27  C   UNL A   1      42.786  32.719  32.004  1.00  0.00     0.029 A 
ATOM     28  N   UNL A   1      43.654  30.703  32.122  1.00  0.00    -0.354 N 
ATOM     29  N   UNL A   1      44.382  28.099  28.695  1.00  0.00    -0.248 NA
ATOM     30  C   UNL A   1      43.413  26.774  30.357  1.00  0.00     0.031 C 
ATOM     31  C   UNL A   1      43.578  32.465  30.846  1.00  0.00     0.029 A 
ATOM     32  C   UNL A   1      43.925  31.113  30.846  1.00  0.00     0.049 A 
ATOM     33  H   UNL A   1      44.113  29.983  32.613  1.00  0.00     0.167 HD
ATOM     34  C   UNL A   1      44.306  28.859  29.854  1.00  0.00     0.074 A 
ATOM     35  C   UNL A   1      43.778  27.951  30.873  1.00  0.00     0.031 C 
ATOM     36  C   UNL A   1      44.389  30.222  29.809  1.00  0.00     0.034 A 
BRANCH  23  37
ATOM     37  C   UNL A   1      41.787  29.939  34.485  1.00  0.00     0.023 A 
ATOM     38  C   UNL A   1      42.393  30.585  35.590  1.00  0.00     0.012 A 
ATOM     39  C   UNL A   1      41.767  28.524  34.514  1.00  0.00     0.148 A 
ATOM     40  C   UNL A   1      43.056  29.869  36.593  1.00  0.00     0.002 A 
ATOM     41  C   UNL A   1      42.379  27.815  35.543  1.00  0.00     0.091 A 
ATOM     42  F   UNL A   1      41.250  27.832  33.501  1.00  0.00    -0.205 F 
ATOM     43  C   UNL A   1      43.061  28.483  36.562  1.00  0.00     0.022 A 
BRANCH  41  44
ATOM     44  S   UNL A   1      42.387  26.017  35.585  1.00  0.00     0.127 S 
ATOM     45  O   UNL A   1      43.127  25.703  34.366  1.00  0.00    -0.237 OA
ATOM     46  O   UNL A   1      43.105  25.754  36.832  1.00  0.00    -0.237 OA
ATOM     47  O   UNL A   1      40.988  25.611  35.607  1.00  0.00    -0.744 OA
ENDBRANCH  41  44
ENDBRANCH  23  37
BRANCH  24  48
ATOM     48  C   UNL A   1      42.715  25.020  27.650  1.00  0.00     0.023 A 
ATOM     49  C   UNL A   1      41.600  24.218  27.969  1.00  0.00     0.012 A 
ATOM     50  C   UNL A   1      43.694  24.481  26.784  1.00  0.00     0.148 A 
ATOM     51  C   UNL A   1      41.454  22.933  27.426  1.00  0.00     0.002 A 
ATOM     52  C   UNL A   1      43.549  23.202  26.253  1.00  0.00     0.091 A 
ATOM     53  F   UNL A   1      44.719  25.257  26.409  1.00  0.00    -0.205 F 
ATOM     54  C   UNL A   1      42.424  22.428  26.563  1.00  0.00     0.022 A 
BRANCH  52  55
ATOM     55  S   UNL A   1      44.746  22.496  25.113  1.00  0.00     0.127 S 
ATOM     56  O   UNL A   1      45.942  22.403  25.951  1.00  0.00    -0.237 OA
ATOM     57  O   UNL A   1      44.131  21.214  24.782  1.00  0.00    -0.237 OA
ATOM     58  O   UNL A   1      44.859  23.445  24.012  1.00  0.00    -0.744 OA
ENDBRANCH  52  55
ENDBRANCH  24  48
BRANCH  36  59
ATOM     59  C   UNL A   1      44.770  30.872  28.504  1.00  0.00     0.023 A 
ATOM     60  C   UNL A   1      43.815  31.329  27.572  1.00  0.00     0.012 A 
ATOM     61  C   UNL A   1      46.119  31.205  28.313  1.00  0.00     0.148 A 
ATOM     62  C   UNL A   1      44.204  32.089  26.463  1.00  0.00     0.002 A 
ATOM     63  C   UNL A   1      46.496  32.001  27.240  1.00  0.00     0.091 A 
ATOM     64  F   UNL A   1      47.012  30.766  29.214  1.00  0.00    -0.205 F 
ATOM     65  C   UNL A   1      45.543  32.437  26.307  1.00  0.00     0.022 A 
BRANCH  63  66
ATOM     66  S   UNL A   1      48.179  32.593  27.070  1.00  0.00     0.127 S 
ATOM     67  O   UNL A   1      48.057  33.548  25.970  1.00  0.00    -0.237 OA
ATOM     68  O   UNL A   1      48.434  33.196  28.380  1.00  0.00    -0.237 OA
ATOM     69  O   UNL A   1      48.992  31.416  26.790  1.00  0.00    -0.744 OA
ENDBRANCH  63  66
ENDBRANCH  36  59
ENDBRANCH  10  11
ENDBRANCH   3   5
ENDBRANCH   2   3
ENDBRANCH   1   2
BRANCH   1  70
ATOM     70  C   UNL A   1      32.108  30.144  25.261  1.00  0.00     0.275 C 
BRANCH  70  71
ATOM     71  O   UNL A   1      30.970  29.406  24.787  1.00  0.00    -0.458 OA
BRANCH  71  72
ATOM     72  C   UNL A   1      31.239  28.442  23.875  1.00  0.00     0.338 C 
ATOM     73  O   UNL A   1      30.838  28.374  22.719  1.00  0.00    -0.246 OA
BRANCH  72  74
ATOM     74  C   UNL A   1      32.132  27.447  24.477  1.00  0.00     0.060 A 
ATOM     75  C   UNL A   1      33.115  26.843  23.693  1.00  0.00     0.016 A 
ATOM     76  C   UNL A   1      31.937  27.053  25.801  1.00  0.00     0.016 A 
ATOM     77  C   UNL A   1      33.923  25.851  24.246  1.00  0.00     0.005 A 
ATOM     78  C   UNL A   1      32.715  26.025  26.336  1.00  0.00     0.005 A 
ATOM     79  C   UNL A   1      33.718  25.409  25.567  1.00  0.00    -0.038 A 
BRANCH  79  80
ATOM     80  C   UNL A   1      34.498  24.189  26.038  1.00  0.00     0.081 C 
ATOM     81  C   UNL A   1      35.872  24.117  25.339  1.00  0.00     0.111 C 
ATOM     82  C   UNL A   1      33.703  22.971  25.774  1.00  0.00     0.093 A 
ATOM     83  C   UNL A   1      36.003  23.018  24.294  1.00  0.00     0.188 C 
ATOM     84  C   UNL A   1      34.159  21.972  24.939  1.00  0.00     0.164 A 
ATOM     85  N   UNL A   1      32.470  22.690  26.277  1.00  0.00    -0.238 NA
ATOM     86  N   UNL A   1      35.245  21.982  24.127  1.00  0.00    -0.198 NA
ATOM     87  N   UNL A   1      33.188  20.991  25.000  1.00  0.00    -0.283 N 
ATOM     88  C   UNL A   1      32.202  21.481  25.827  1.00  0.00     0.206 A 
BRANCH  83  89
ATOM     89  O   UNL A   1      37.082  23.157  23.492  1.00  0.00    -0.496 OA
ATOM     90  H   UNL A   1      37.715  23.825  23.671  1.00  0.00     0.294 HD
ENDBRANCH  83  89
BRANCH  87  91
ATOM     91  C   UNL A   1      33.168  19.756  24.320  1.00  0.00     0.050 A 
ATOM     92  C   UNL A   1      32.336  19.594  23.204  1.00  0.00     0.027 A 
ATOM     93  C   UNL A   1      33.984  18.708  24.761  1.00  0.00     0.047 A 
ATOM     94  C   UNL A   1      32.353  18.388  22.503  1.00  0.00     0.004 A 
ATOM     95  C   UNL A   1      33.950  17.492  24.084  1.00  0.00     0.043 A 
ATOM     96  C   UNL A   1      33.153  17.334  22.948  1.00  0.00     0.020 A 
ATOM     97  Cl  UNL A   1      34.893  16.166  24.648  1.00  0.00    -0.084 Cl
ENDBRANCH  87  91
ENDBRANCH  79  80
ENDBRANCH  72  74
ENDBRANCH  71  72
ENDBRANCH  70  71
ENDBRANCH   1  70
TORSDOF 17
ENDMDL
