MODEL 1
REMARK VINA RESULT:     -11.7      0.000      0.000
REMARK SMILES CSc1ccc(NS(=O)(=O)c2ccc(C(=O)OCCOC(=O)c3ccc(-c4c5nc(c(-c6cccc(S(=O)(=O)[O-])c6F)c6ccc([nH]6)c(-c6cccc(S(=O)(=O)[O-])c6F)c6nc(c(-c7cccc(S(=O)(=O)[O-])c7F)c7ccc4[nH]7)C=C6)C=C5)cc3)cc2)cc1
REMARK SMILES IDX 18 1 17 2 15 3 16 4 14 5 11 6 12 7 87 8 13 9 86 10 8 11 9 12
REMARK SMILES IDX 10 13 7 14 6 16 3 17 4 18 89 19 5 20 88 21 2 22 1 23 19 24
REMARK SMILES IDX 20 25 21 26 22 27 23 28 24 29 85 30 25 31 84 32 26 33 27 34
REMARK SMILES IDX 28 35 78 36 29 37 83 38 77 39 79 40 30 41 82 42 76 43 75 44
REMARK SMILES IDX 31 46 63 47 43 48 62 49 44 50 47 51 61 52 80 53 45 54 46 55
REMARK SMILES IDX 60 57 81 58 48 59 32 60 33 61 41 62 34 63 36 64 42 65 35 66
REMARK SMILES IDX 37 67 38 68 39 69 40 70 64 71 65 72 73 73 66 74 68 75 74 76
REMARK SMILES IDX 67 77 69 78 70 79 71 80 72 81 49 82 50 83 58 84 51 85 53 86
REMARK SMILES IDX 59 87 52 88 54 89 55 90 56 91 57 92
REMARK H PARENT 7 15 79 45 47 56
REMARK Flexibility Score: inf
ROOT
ATOM      1  C   UNL A   1      37.214  20.821  24.531  1.00  0.00     0.275 C 
ENDROOT
BRANCH   1   2
ATOM      2  O   UNL A   1      35.871  20.396  24.847  1.00  0.00    -0.458 OA
BRANCH   2   3
ATOM      3  C   UNL A   1      35.086  21.336  25.433  1.00  0.00     0.338 C 
ATOM      4  O   UNL A   1      34.893  21.455  26.630  1.00  0.00    -0.246 OA
BRANCH   3   5
ATOM      5  C   UNL A   1      34.497  22.277  24.436  1.00  0.00     0.060 A 
ATOM      6  C   UNL A   1      33.558  24.139  22.558  1.00  0.00     0.087 A 
ATOM      7  C   UNL A   1      34.503  24.528  23.512  1.00  0.00     0.023 A 
ATOM      8  C   UNL A   1      33.036  22.840  22.574  1.00  0.00     0.023 A 
ATOM      9  C   UNL A   1      34.980  23.595  24.435  1.00  0.00     0.017 A 
ATOM     10  C   UNL A   1      33.510  21.907  23.511  1.00  0.00     0.017 A 
BRANCH   6  11
ATOM     11  S   UNL A   1      32.974  25.349  21.384  1.00  0.00     0.261 S 
ATOM     12  O   UNL A   1      32.912  24.723  20.081  1.00  0.00    -0.201 OA
ATOM     13  O   UNL A   1      33.758  26.553  21.573  1.00  0.00    -0.201 OA
BRANCH  11  14
ATOM     14  N   UNL A   1      31.388  25.738  21.872  1.00  0.00    -0.280 N 
ATOM     15  H   UNL A   1      30.607  25.280  21.485  1.00  0.00     0.180 HD
BRANCH  14  16
ATOM     16  C   UNL A   1      31.236  26.756  22.864  1.00  0.00     0.049 A 
ATOM     17  C   UNL A   1      31.266  28.885  24.692  1.00  0.00     0.007 A 
ATOM     18  C   UNL A   1      30.940  29.093  23.349  1.00  0.00     0.017 A 
ATOM     19  C   UNL A   1      31.508  27.580  25.129  1.00  0.00     0.017 A 
ATOM     20  C   UNL A   1      30.918  28.039  22.440  1.00  0.00     0.028 A 
ATOM     21  C   UNL A   1      31.501  26.515  24.213  1.00  0.00     0.028 A 
BRANCH  17  22
ATOM     22  S   UNL A   1      31.524  30.331  25.697  1.00  0.00    -0.130 SA
ATOM     23  C   UNL A   1      32.117  29.651  27.265  1.00  0.00     0.091 C 
ENDBRANCH  17  22
ENDBRANCH  14  16
ENDBRANCH  11  14
ENDBRANCH   6  11
ENDBRANCH   3   5
ENDBRANCH   2   3
ENDBRANCH   1   2
BRANCH   1  24
ATOM     24  C   UNL A   1      38.251  19.817  25.036  1.00  0.00     0.275 C 
BRANCH  24  25
ATOM     25  O   UNL A   1      38.749  20.184  26.335  1.00  0.00    -0.458 OA
BRANCH  25  26
ATOM     26  C   UNL A   1      40.085  20.370  26.406  1.00  0.00     0.338 C 
ATOM     27  O   UNL A   1      40.963  19.617  26.016  1.00  0.00    -0.246 OA
BRANCH  26  28
ATOM     28  C   UNL A   1      40.368  21.688  26.989  1.00  0.00     0.060 A 
ATOM     29  C   UNL A   1      39.684  22.792  26.489  1.00  0.00     0.016 A 
ATOM     30  C   UNL A   1      41.396  21.853  27.919  1.00  0.00     0.016 A 
ATOM     31  C   UNL A   1      40.077  24.072  26.871  1.00  0.00     0.010 A 
ATOM     32  C   UNL A   1      41.764  23.145  28.322  1.00  0.00     0.010 A 
ATOM     33  C   UNL A   1      41.146  24.275  27.761  1.00  0.00    -0.014 A 
BRANCH  33  34
ATOM     34  C   UNL A   1      41.656  25.659  28.021  1.00  0.00     0.031 A 
ATOM     35  C   UNL A   1      42.978  26.113  27.441  1.00  0.00     0.074 A 
ATOM     36  C   UNL A   1      40.916  26.546  28.718  1.00  0.00     0.049 A 
ATOM     37  N   UNL A   1      43.615  27.245  27.618  1.00  0.00    -0.248 NA
ATOM     38  C   UNL A   1      43.680  25.171  26.555  1.00  0.00     0.031 C 
ATOM     39  C   UNL A   1      39.597  26.279  29.288  1.00  0.00     0.029 A 
ATOM     40  N   UNL A   1      41.150  27.867  29.029  1.00  0.00    -0.354 N 
ATOM     41  C   UNL A   1      44.829  27.111  26.951  1.00  0.00     0.074 A 
ATOM     42  C   UNL A   1      44.826  25.802  26.336  1.00  0.00     0.031 C 
ATOM     43  C   UNL A   1      39.102  27.416  29.802  1.00  0.00     0.029 A 
ATOM     44  C   UNL A   1      40.102  28.473  29.681  1.00  0.00     0.049 A 
ATOM     45  H   UNL A   1      41.989  28.332  28.806  1.00  0.00     0.167 HD
ATOM     46  C   UNL A   1      45.855  27.993  26.861  1.00  0.00     0.034 A 
ATOM     47  C   UNL A   1      39.958  29.731  30.144  1.00  0.00     0.034 A 
ATOM     48  C   UNL A   1      45.826  29.332  27.388  1.00  0.00     0.049 A 
ATOM     49  C   UNL A   1      41.092  30.708  29.989  1.00  0.00     0.074 A 
ATOM     50  C   UNL A   1      46.818  30.297  27.336  1.00  0.00     0.029 A 
ATOM     51  N   UNL A   1      44.748  29.905  28.043  1.00  0.00    -0.354 N 
ATOM     52  N   UNL A   1      42.225  30.565  29.347  1.00  0.00    -0.248 NA
ATOM     53  C   UNL A   1      40.926  32.023  30.628  1.00  0.00     0.031 C 
ATOM     54  C   UNL A   1      46.341  31.451  27.965  1.00  0.00     0.029 A 
ATOM     55  C   UNL A   1      45.047  31.211  28.395  1.00  0.00     0.049 A 
ATOM     56  H   UNL A   1      43.895  29.450  28.230  1.00  0.00     0.167 HD
ATOM     57  C   UNL A   1      42.906  31.768  29.503  1.00  0.00     0.074 A 
ATOM     58  C   UNL A   1      42.037  32.647  30.257  1.00  0.00     0.031 C 
ATOM     59  C   UNL A   1      44.154  32.100  29.091  1.00  0.00     0.034 A 
BRANCH  46  60
ATOM     60  C   UNL A   1      47.112  27.541  26.164  1.00  0.00     0.023 A 
ATOM     61  C   UNL A   1      48.082  26.796  26.861  1.00  0.00     0.012 A 
ATOM     62  C   UNL A   1      47.297  27.805  24.791  1.00  0.00     0.148 A 
ATOM     63  C   UNL A   1      49.231  26.345  26.210  1.00  0.00     0.002 A 
ATOM     64  C   UNL A   1      48.424  27.316  24.139  1.00  0.00     0.091 A 
ATOM     65  F   UNL A   1      46.374  28.535  24.149  1.00  0.00    -0.205 F 
ATOM     66  C   UNL A   1      49.396  26.595  24.849  1.00  0.00     0.022 A 
BRANCH  64  67
ATOM     67  S   UNL A   1      48.678  27.523  22.373  1.00  0.00     0.127 S 
ATOM     68  O   UNL A   1      47.493  28.289  21.991  1.00  0.00    -0.237 OA
ATOM     69  O   UNL A   1      49.932  28.277  22.324  1.00  0.00    -0.237 OA
ATOM     70  O   UNL A   1      48.763  26.177  21.823  1.00  0.00    -0.744 OA
ENDBRANCH  64  67
ENDBRANCH  46  60
BRANCH  47  71
ATOM     71  C   UNL A   1      38.671  30.154  30.769  1.00  0.00     0.023 A 
ATOM     72  C   UNL A   1      38.466  29.930  32.144  1.00  0.00     0.012 A 
ATOM     73  C   UNL A   1      37.667  30.808  30.028  1.00  0.00     0.148 A 
ATOM     74  C   UNL A   1      37.285  30.337  32.766  1.00  0.00     0.002 A 
ATOM     75  C   UNL A   1      36.525  31.277  30.668  1.00  0.00     0.091 A 
ATOM     76  F   UNL A   1      37.854  30.976  28.712  1.00  0.00    -0.205 F 
ATOM     77  C   UNL A   1      36.323  31.027  32.033  1.00  0.00     0.022 A 
BRANCH  75  78
ATOM     78  S   UNL A   1      35.331  32.317  29.822  1.00  0.00     0.127 S 
ATOM     79  O   UNL A   1      36.165  33.427  29.370  1.00  0.00    -0.237 OA
ATOM     80  O   UNL A   1      34.850  31.435  28.757  1.00  0.00    -0.237 OA
ATOM     81  O   UNL A   1      34.325  32.639  30.826  1.00  0.00    -0.744 OA
ENDBRANCH  75  78
ENDBRANCH  47  71
BRANCH  59  82
ATOM     82  C   UNL A   1      44.664  33.477  29.430  1.00  0.00     0.023 A 
ATOM     83  C   UNL A   1      45.333  33.688  30.652  1.00  0.00     0.012 A 
ATOM     84  C   UNL A   1      44.554  34.538  28.511  1.00  0.00     0.148 A 
ATOM     85  C   UNL A   1      45.862  34.939  30.965  1.00  0.00     0.002 A 
ATOM     86  C   UNL A   1      45.120  35.772  28.810  1.00  0.00     0.091 A 
ATOM     87  F   UNL A   1      43.895  34.324  27.361  1.00  0.00    -0.205 F 
ATOM     88  C   UNL A   1      45.767  35.977  30.040  1.00  0.00     0.022 A 
BRANCH  86  89
ATOM     89  S   UNL A   1      45.124  37.137  27.643  1.00  0.00     0.127 S 
ATOM     90  O   UNL A   1      43.745  37.613  27.737  1.00  0.00    -0.237 OA
ATOM     91  O   UNL A   1      46.121  38.041  28.220  1.00  0.00    -0.237 OA
ATOM     92  O   UNL A   1      45.503  36.563  26.359  1.00  0.00    -0.744 OA
ENDBRANCH  86  89
ENDBRANCH  59  82
ENDBRANCH  33  34
ENDBRANCH  26  28
ENDBRANCH  25  26
ENDBRANCH  24  25
ENDBRANCH   1  24
TORSDOF 18
ENDMDL
MODEL 2
REMARK VINA RESULT:     -11.7      5.292      8.514
REMARK SMILES CSc1ccc(NS(=O)(=O)c2ccc(C(=O)OCCOC(=O)c3ccc(-c4c5nc(c(-c6cccc(S(=O)(=O)[O-])c6F)c6ccc([nH]6)c(-c6cccc(S(=O)(=O)[O-])c6F)c6nc(c(-c7cccc(S(=O)(=O)[O-])c7F)c7ccc4[nH]7)C=C6)C=C5)cc3)cc2)cc1
REMARK SMILES IDX 18 1 17 2 15 3 16 4 14 5 11 6 12 7 87 8 13 9 86 10 8 11 9 12
REMARK SMILES IDX 10 13 7 14 6 16 3 17 4 18 89 19 5 20 88 21 2 22 1 23 19 24
REMARK SMILES IDX 20 25 21 26 22 27 23 28 24 29 85 30 25 31 84 32 26 33 27 34
REMARK SMILES IDX 28 35 78 36 29 37 83 38 77 39 79 40 30 41 82 42 76 43 75 44
REMARK SMILES IDX 31 46 63 47 43 48 62 49 44 50 47 51 61 52 80 53 45 54 46 55
REMARK SMILES IDX 60 57 81 58 48 59 32 60 33 61 41 62 34 63 36 64 42 65 35 66
REMARK SMILES IDX 37 67 38 68 39 69 40 70 64 71 65 72 73 73 66 74 68 75 74 76
REMARK SMILES IDX 67 77 69 78 70 79 71 80 72 81 49 82 50 83 58 84 51 85 53 86
REMARK SMILES IDX 59 87 52 88 54 89 55 90 56 91 57 92
REMARK H PARENT 7 15 79 45 47 56
REMARK Flexibility Score: inf
ROOT
ATOM      1  C   UNL A   1      30.911  30.177  24.860  1.00  0.00     0.275 C 
ENDROOT
BRANCH   1   2
ATOM      2  O   UNL A   1      32.050  29.448  24.357  1.00  0.00    -0.458 OA
BRANCH   2   3
ATOM      3  C   UNL A   1      31.777  28.542  23.384  1.00  0.00     0.338 C 
ATOM      4  O   UNL A   1      30.966  28.685  22.487  1.00  0.00    -0.246 OA
BRANCH   3   5
ATOM      5  C   UNL A   1      32.632  27.324  23.494  1.00  0.00     0.060 A 
ATOM      6  C   UNL A   1      34.185  25.019  23.886  1.00  0.00     0.087 A 
ATOM      7  C   UNL A   1      33.973  25.905  24.946  1.00  0.00     0.023 A 
ATOM      8  C   UNL A   1      33.674  25.309  22.615  1.00  0.00     0.023 A 
ATOM      9  C   UNL A   1      33.187  27.042  24.752  1.00  0.00     0.017 A 
ATOM     10  C   UNL A   1      32.893  26.460  22.421  1.00  0.00     0.017 A 
BRANCH   6  11
ATOM     11  S   UNL A   1      35.185  23.568  24.165  1.00  0.00     0.261 S 
ATOM     12  O   UNL A   1      36.270  23.929  25.051  1.00  0.00    -0.201 OA
ATOM     13  O   UNL A   1      35.471  22.980  22.872  1.00  0.00    -0.201 OA
BRANCH  11  14
ATOM     14  N   UNL A   1      34.174  22.459  24.973  1.00  0.00    -0.280 N 
ATOM     15  H   UNL A   1      33.466  22.765  25.586  1.00  0.00     0.180 HD
BRANCH  14  16
ATOM     16  C   UNL A   1      34.393  21.069  24.726  1.00  0.00     0.049 A 
ATOM     17  C   UNL A   1      34.652  18.278  24.567  1.00  0.00     0.007 A 
ATOM     18  C   UNL A   1      33.432  18.906  24.294  1.00  0.00     0.017 A 
ATOM     19  C   UNL A   1      35.765  19.072  24.852  1.00  0.00     0.017 A 
ATOM     20  C   UNL A   1      33.301  20.290  24.365  1.00  0.00     0.028 A 
ATOM     21  C   UNL A   1      35.634  20.468  24.940  1.00  0.00     0.028 A 
BRANCH  17  22
ATOM     22  S   UNL A   1      34.636  16.504  24.708  1.00  0.00    -0.130 SA
ATOM     23  C   UNL A   1      32.876  16.110  24.839  1.00  0.00     0.091 C 
ENDBRANCH  17  22
ENDBRANCH  14  16
ENDBRANCH  11  14
ENDBRANCH   6  11
ENDBRANCH   3   5
ENDBRANCH   2   3
ENDBRANCH   1   2
BRANCH   1  24
ATOM     24  C   UNL A   1      31.275  30.999  26.098  1.00  0.00     0.275 C 
BRANCH  24  25
ATOM     25  O   UNL A   1      32.643  30.784  26.486  1.00  0.00    -0.458 OA
BRANCH  25  26
ATOM     26  C   UNL A   1      33.202  31.789  27.197  1.00  0.00     0.338 C 
ATOM     27  O   UNL A   1      32.708  32.869  27.476  1.00  0.00    -0.246 OA
BRANCH  26  28
ATOM     28  C   UNL A   1      34.530  31.375  27.672  1.00  0.00     0.060 A 
ATOM     29  C   UNL A   1      34.739  30.030  27.956  1.00  0.00     0.016 A 
ATOM     30  C   UNL A   1      35.511  32.323  27.965  1.00  0.00     0.016 A 
ATOM     31  C   UNL A   1      35.910  29.640  28.602  1.00  0.00     0.010 A 
ATOM     32  C   UNL A   1      36.701  31.917  28.586  1.00  0.00     0.010 A 
ATOM     33  C   UNL A   1      36.894  30.577  28.963  1.00  0.00    -0.014 A 
BRANCH  33  34
ATOM     34  C   UNL A   1      38.060  30.157  29.803  1.00  0.00     0.031 A 
ATOM     35  C   UNL A   1      39.166  29.309  29.215  1.00  0.00     0.074 A 
ATOM     36  C   UNL A   1      38.180  30.584  31.077  1.00  0.00     0.049 A 
ATOM     37  N   UNL A   1      40.214  28.789  29.805  1.00  0.00    -0.248 NA
ATOM     38  C   UNL A   1      39.080  28.997  27.779  1.00  0.00     0.031 C 
ATOM     39  C   UNL A   1      37.230  31.454  31.767  1.00  0.00     0.029 A 
ATOM     40  N   UNL A   1      39.175  30.377  32.007  1.00  0.00    -0.354 N 
ATOM     41  C   UNL A   1      40.851  28.012  28.842  1.00  0.00     0.074 A 
ATOM     42  C   UNL A   1      40.094  28.157  27.619  1.00  0.00     0.031 C 
ATOM     43  C   UNL A   1      37.724  31.776  32.973  1.00  0.00     0.029 A 
ATOM     44  C   UNL A   1      38.982  31.065  33.182  1.00  0.00     0.049 A 
ATOM     45  H   UNL A   1      39.949  29.791  31.845  1.00  0.00     0.167 HD
ATOM     46  C   UNL A   1      41.963  27.245  28.963  1.00  0.00     0.034 A 
ATOM     47  C   UNL A   1      39.722  31.114  34.308  1.00  0.00     0.034 A 
ATOM     48  C   UNL A   1      42.777  27.172  30.149  1.00  0.00     0.049 A 
ATOM     49  C   UNL A   1      40.978  30.292  34.402  1.00  0.00     0.074 A 
ATOM     50  C   UNL A   1      43.925  26.427  30.357  1.00  0.00     0.029 A 
ATOM     51  N   UNL A   1      42.546  27.882  31.315  1.00  0.00    -0.354 N 
ATOM     52  N   UNL A   1      41.568  29.575  33.478  1.00  0.00    -0.248 NA
ATOM     53  C   UNL A   1      41.671  30.286  35.701  1.00  0.00     0.031 C 
ATOM     54  C   UNL A   1      44.384  26.682  31.654  1.00  0.00     0.029 A 
ATOM     55  C   UNL A   1      43.532  27.598  32.246  1.00  0.00     0.049 A 
ATOM     56  H   UNL A   1      41.792  28.498  31.461  1.00  0.00     0.167 HD
ATOM     57  C   UNL A   1      42.698  29.034  34.081  1.00  0.00     0.074 A 
ATOM     58  C   UNL A   1      42.739  29.546  35.435  1.00  0.00     0.031 C 
ATOM     59  C   UNL A   1      43.600  28.159  33.570  1.00  0.00     0.034 A 
BRANCH  46  60
ATOM     60  C   UNL A   1      42.375  26.411  27.779  1.00  0.00     0.023 A 
ATOM     61  C   UNL A   1      43.290  26.919  26.836  1.00  0.00     0.012 A 
ATOM     62  C   UNL A   1      41.898  25.091  27.638  1.00  0.00     0.148 A 
ATOM     63  C   UNL A   1      43.702  26.136  25.757  1.00  0.00     0.002 A 
ATOM     64  C   UNL A   1      42.346  24.303  26.583  1.00  0.00     0.091 A 
ATOM     65  F   UNL A   1      41.011  24.632  28.532  1.00  0.00    -0.205 F 
ATOM     66  C   UNL A   1      43.239  24.827  25.636  1.00  0.00     0.022 A 
BRANCH  64  67
ATOM     67  S   UNL A   1      41.864  22.583  26.397  1.00  0.00     0.127 S 
ATOM     68  O   UNL A   1      42.542  22.218  25.154  1.00  0.00    -0.237 OA
ATOM     69  O   UNL A   1      42.427  21.968  27.600  1.00  0.00    -0.237 OA
ATOM     70  O   UNL A   1      40.408  22.581  26.345  1.00  0.00    -0.744 OA
ENDBRANCH  64  67
ENDBRANCH  46  60
BRANCH  47  71
ATOM     71  C   UNL A   1      39.310  32.007  35.432  1.00  0.00     0.023 A 
ATOM     72  C   UNL A   1      38.491  31.492  36.456  1.00  0.00     0.012 A 
ATOM     73  C   UNL A   1      39.753  33.341  35.518  1.00  0.00     0.148 A 
ATOM     74  C   UNL A   1      38.111  32.291  37.535  1.00  0.00     0.002 A 
ATOM     75  C   UNL A   1      39.431  34.109  36.632  1.00  0.00     0.091 A 
ATOM     76  F   UNL A   1      40.495  33.832  34.517  1.00  0.00    -0.205 F 
ATOM     77  C   UNL A   1      38.596  33.593  37.633  1.00  0.00     0.022 A 
BRANCH  75  78
ATOM     78  S   UNL A   1      40.160  35.728  36.903  1.00  0.00     0.127 S 
ATOM     79  O   UNL A   1      39.660  36.065  38.232  1.00  0.00    -0.237 OA
ATOM     80  O   UNL A   1      41.593  35.437  36.838  1.00  0.00    -0.237 OA
ATOM     81  O   UNL A   1      39.673  36.555  35.806  1.00  0.00    -0.744 OA
ENDBRANCH  75  78
ENDBRANCH  47  71
BRANCH  59  82
ATOM     82  C   UNL A   1      44.723  27.703  34.465  1.00  0.00     0.023 A 
ATOM     83  C   UNL A   1      45.913  28.456  34.524  1.00  0.00     0.012 A 
ATOM     84  C   UNL A   1      44.573  26.583  35.304  1.00  0.00     0.148 A 
ATOM     85  C   UNL A   1      46.946  28.087  35.384  1.00  0.00     0.002 A 
ATOM     86  C   UNL A   1      45.589  26.244  36.191  1.00  0.00     0.091 A 
ATOM     87  F   UNL A   1      43.442  25.866  35.219  1.00  0.00    -0.205 F 
ATOM     88  C   UNL A   1      46.779  26.989  36.226  1.00  0.00     0.022 A 
BRANCH  86  89
ATOM     89  S   UNL A   1      45.426  24.902  37.374  1.00  0.00     0.127 S 
ATOM     90  O   UNL A   1      46.729  24.926  38.034  1.00  0.00    -0.237 OA
ATOM     91  O   UNL A   1      44.311  25.352  38.208  1.00  0.00    -0.237 OA
ATOM     92  O   UNL A   1      45.144  23.709  36.586  1.00  0.00    -0.744 OA
ENDBRANCH  86  89
ENDBRANCH  59  82
ENDBRANCH  33  34
ENDBRANCH  26  28
ENDBRANCH  25  26
ENDBRANCH  24  25
ENDBRANCH   1  24
TORSDOF 18
ENDMDL
MODEL 3
REMARK VINA RESULT:     -11.7      1.491      7.638
REMARK SMILES CSc1ccc(NS(=O)(=O)c2ccc(C(=O)OCCOC(=O)c3ccc(-c4c5nc(c(-c6cccc(S(=O)(=O)[O-])c6F)c6ccc([nH]6)c(-c6cccc(S(=O)(=O)[O-])c6F)c6nc(c(-c7cccc(S(=O)(=O)[O-])c7F)c7ccc4[nH]7)C=C6)C=C5)cc3)cc2)cc1
REMARK SMILES IDX 18 1 17 2 15 3 16 4 14 5 11 6 12 7 87 8 13 9 86 10 8 11 9 12
REMARK SMILES IDX 10 13 7 14 6 16 3 17 4 18 89 19 5 20 88 21 2 22 1 23 19 24
REMARK SMILES IDX 20 25 21 26 22 27 23 28 24 29 85 30 25 31 84 32 26 33 27 34
REMARK SMILES IDX 28 35 78 36 29 37 83 38 77 39 79 40 30 41 82 42 76 43 75 44
REMARK SMILES IDX 31 46 63 47 43 48 62 49 44 50 47 51 61 52 80 53 45 54 46 55
REMARK SMILES IDX 60 57 81 58 48 59 32 60 33 61 41 62 34 63 36 64 42 65 35 66
REMARK SMILES IDX 37 67 38 68 39 69 40 70 64 71 65 72 73 73 66 74 68 75 74 76
REMARK SMILES IDX 67 77 69 78 70 79 71 80 72 81 49 82 50 83 58 84 51 85 53 86
REMARK SMILES IDX 59 87 52 88 54 89 55 90 56 91 57 92
REMARK H PARENT 7 15 79 45 47 56
REMARK Flexibility Score: inf
ROOT
ATOM      1  C   UNL A   1      35.573  20.016  24.824  1.00  0.00     0.275 C 
ENDROOT
BRANCH   1   2
ATOM      2  O   UNL A   1      34.146  20.224  24.866  1.00  0.00    -0.458 OA
BRANCH   2   3
ATOM      3  C   UNL A   1      33.746  21.397  25.420  1.00  0.00     0.338 C 
ATOM      4  O   UNL A   1      33.635  21.619  26.612  1.00  0.00    -0.246 OA
BRANCH   3   5
ATOM      5  C   UNL A   1      33.489  22.446  24.390  1.00  0.00     0.060 A 
ATOM      6  C   UNL A   1      33.185  24.484  22.485  1.00  0.00     0.087 A 
ATOM      7  C   UNL A   1      33.987  24.696  23.611  1.00  0.00     0.023 A 
ATOM      8  C   UNL A   1      32.488  23.279  22.335  1.00  0.00     0.023 A 
ATOM      9  C   UNL A   1      34.148  23.675  24.548  1.00  0.00     0.017 A 
ATOM     10  C   UNL A   1      32.645  22.258  23.287  1.00  0.00     0.017 A 
BRANCH   6  11
ATOM     11  S   UNL A   1      33.005  25.803  21.297  1.00  0.00     0.261 S 
ATOM     12  O   UNL A   1      32.914  25.216  19.978  1.00  0.00    -0.201 OA
ATOM     13  O   UNL A   1      34.028  26.789  21.581  1.00  0.00    -0.201 OA
BRANCH  11  14
ATOM     14  N   UNL A   1      31.517  26.551  21.659  1.00  0.00    -0.280 N 
ATOM     15  H   UNL A   1      30.782  26.572  21.004  1.00  0.00     0.180 HD
BRANCH  14  16
ATOM     16  C   UNL A   1      31.377  27.146  22.952  1.00  0.00     0.049 A 
ATOM     17  C   UNL A   1      31.469  28.255  25.528  1.00  0.00     0.007 A 
ATOM     18  C   UNL A   1      31.925  28.972  24.418  1.00  0.00     0.017 A 
ATOM     19  C   UNL A   1      30.897  26.997  25.325  1.00  0.00     0.017 A 
ATOM     20  C   UNL A   1      31.875  28.429  23.137  1.00  0.00     0.028 A 
ATOM     21  C   UNL A   1      30.858  26.438  24.037  1.00  0.00     0.028 A 
BRANCH  17  22
ATOM     22  S   UNL A   1      31.827  28.935  27.134  1.00  0.00    -0.130 SA
ATOM     23  C   UNL A   1      32.343  30.629  26.766  1.00  0.00     0.091 C 
ENDBRANCH  17  22
ENDBRANCH  14  16
ENDBRANCH  11  14
ENDBRANCH   6  11
ENDBRANCH   3   5
ENDBRANCH   2   3
ENDBRANCH   1   2
BRANCH   1  24
ATOM     24  C   UNL A   1      36.313  21.036  25.691  1.00  0.00     0.275 C 
BRANCH  24  25
ATOM     25  O   UNL A   1      37.550  21.443  25.080  1.00  0.00    -0.458 OA
BRANCH  25  26
ATOM     26  C   UNL A   1      38.665  21.126  25.776  1.00  0.00     0.338 C 
ATOM     27  O   UNL A   1      39.212  20.038  25.848  1.00  0.00    -0.246 OA
BRANCH  26  28
ATOM     28  C   UNL A   1      39.202  22.332  26.421  1.00  0.00     0.060 A 
ATOM     29  C   UNL A   1      38.641  23.562  26.092  1.00  0.00     0.016 A 
ATOM     30  C   UNL A   1      40.336  22.264  27.231  1.00  0.00     0.016 A 
ATOM     31  C   UNL A   1      39.258  24.734  26.522  1.00  0.00     0.010 A 
ATOM     32  C   UNL A   1      40.932  23.448  27.687  1.00  0.00     0.010 A 
ATOM     33  C   UNL A   1      40.434  24.702  27.292  1.00  0.00    -0.014 A 
BRANCH  33  34
ATOM     34  C   UNL A   1      41.169  25.970  27.596  1.00  0.00     0.031 A 
ATOM     35  C   UNL A   1      40.564  27.009  28.515  1.00  0.00     0.074 A 
ATOM     36  C   UNL A   1      42.411  26.180  27.112  1.00  0.00     0.049 A 
ATOM     37  N   UNL A   1      41.016  28.196  28.835  1.00  0.00    -0.248 NA
ATOM     38  C   UNL A   1      39.278  26.675  29.149  1.00  0.00     0.031 C 
ATOM     39  C   UNL A   1      43.153  25.249  26.265  1.00  0.00     0.029 A 
ATOM     40  N   UNL A   1      43.286  27.226  27.300  1.00  0.00    -0.354 N 
ATOM     41  C   UNL A   1      40.030  28.784  29.622  1.00  0.00     0.074 A 
ATOM     42  C   UNL A   1      38.970  27.810  29.761  1.00  0.00     0.031 C 
ATOM     43  C   UNL A   1      44.395  25.721  26.076  1.00  0.00     0.029 A 
ATOM     44  C   UNL A   1      44.513  27.030  26.711  1.00  0.00     0.049 A 
ATOM     45  H   UNL A   1      43.054  28.038  27.807  1.00  0.00     0.167 HD
ATOM     46  C   UNL A   1      40.005  30.022  30.176  1.00  0.00     0.034 A 
ATOM     47  C   UNL A   1      45.610  27.814  26.671  1.00  0.00     0.034 A 
ATOM     48  C   UNL A   1      41.096  30.959  30.123  1.00  0.00     0.049 A 
ATOM     49  C   UNL A   1      45.576  29.164  27.335  1.00  0.00     0.074 A 
ATOM     50  C   UNL A   1      41.160  32.233  30.663  1.00  0.00     0.029 A 
ATOM     51  N   UNL A   1      42.318  30.722  29.516  1.00  0.00    -0.354 N 
ATOM     52  N   UNL A   1      44.640  29.695  28.082  1.00  0.00    -0.248 NA
ATOM     53  C   UNL A   1      46.754  30.025  27.147  1.00  0.00     0.031 C 
ATOM     54  C   UNL A   1      42.420  32.768  30.376  1.00  0.00     0.029 A 
ATOM     55  C   UNL A   1      43.146  31.822  29.672  1.00  0.00     0.049 A 
ATOM     56  H   UNL A   1      42.562  29.894  29.043  1.00  0.00     0.167 HD
ATOM     57  C   UNL A   1      45.114  30.948  28.453  1.00  0.00     0.074 A 
ATOM     58  C   UNL A   1      46.442  31.078  27.890  1.00  0.00     0.031 C 
ATOM     59  C   UNL A   1      44.489  31.920  29.163  1.00  0.00     0.034 A 
BRANCH  46  60
ATOM     60  C   UNL A   1      38.751  30.446  30.894  1.00  0.00     0.023 A 
ATOM     61  C   UNL A   1      38.612  30.216  32.277  1.00  0.00     0.012 A 
ATOM     62  C   UNL A   1      37.733  31.134  30.202  1.00  0.00     0.148 A 
ATOM     63  C   UNL A   1      37.467  30.640  32.953  1.00  0.00     0.002 A 
ATOM     64  C   UNL A   1      36.614  31.591  30.891  1.00  0.00     0.091 A 
ATOM     65  F   UNL A   1      37.872  31.325  28.882  1.00  0.00    -0.205 F 
ATOM     66  C   UNL A   1      36.476  31.335  32.264  1.00  0.00     0.022 A 
BRANCH  64  67
ATOM     67  S   UNL A   1      35.328  32.562  30.100  1.00  0.00     0.127 S 
ATOM     68  O   UNL A   1      34.878  31.655  29.046  1.00  0.00    -0.237 OA
ATOM     69  O   UNL A   1      34.368  32.755  31.188  1.00  0.00    -0.237 OA
ATOM     70  O   UNL A   1      35.976  33.785  29.645  1.00  0.00    -0.744 OA
ENDBRANCH  64  67
ENDBRANCH  46  60
BRANCH  47  71
ATOM     71  C   UNL A   1      46.853  27.325  26.005  1.00  0.00     0.023 A 
ATOM     72  C   UNL A   1      47.052  27.594  24.637  1.00  0.00     0.012 A 
ATOM     73  C   UNL A   1      47.852  26.634  26.718  1.00  0.00     0.148 A 
ATOM     74  C   UNL A   1      48.216  27.175  23.990  1.00  0.00     0.002 A 
ATOM     75  C   UNL A   1      49.040  26.285  26.086  1.00  0.00     0.091 A 
ATOM     76  F   UNL A   1      47.631  26.346  28.008  1.00  0.00    -0.205 F 
ATOM     77  C   UNL A   1      49.218  26.537  24.718  1.00  0.00     0.022 A 
BRANCH  75  78
ATOM     78  S   UNL A   1      50.434  25.617  27.001  1.00  0.00     0.127 S 
ATOM     79  O   UNL A   1      49.862  24.406  27.581  1.00  0.00    -0.237 OA
ATOM     80  O   UNL A   1      51.419  25.389  25.942  1.00  0.00    -0.237 OA
ATOM     81  O   UNL A   1      50.809  26.664  27.943  1.00  0.00    -0.744 OA
ENDBRANCH  75  78
ENDBRANCH  47  71
BRANCH  59  82
ATOM     82  C   UNL A   1      45.230  33.211  29.391  1.00  0.00     0.023 A 
ATOM     83  C   UNL A   1      46.113  33.320  30.484  1.00  0.00     0.012 A 
ATOM     84  C   UNL A   1      45.118  34.283  28.485  1.00  0.00     0.148 A 
ATOM     85  C   UNL A   1      46.852  34.485  30.687  1.00  0.00     0.002 A 
ATOM     86  C   UNL A   1      45.889  35.425  28.669  1.00  0.00     0.091 A 
ATOM     87  F   UNL A   1      44.256  34.169  27.463  1.00  0.00    -0.205 F 
ATOM     88  C   UNL A   1      46.750  35.532  29.773  1.00  0.00     0.022 A 
BRANCH  86  89
ATOM     89  S   UNL A   1      45.888  36.785  27.495  1.00  0.00     0.127 S 
ATOM     90  O   UNL A   1      46.512  37.853  28.274  1.00  0.00    -0.237 OA
ATOM     91  O   UNL A   1      46.715  36.261  26.407  1.00  0.00    -0.237 OA
ATOM     92  O   UNL A   1      44.492  37.004  27.139  1.00  0.00    -0.744 OA
ENDBRANCH  86  89
ENDBRANCH  59  82
ENDBRANCH  33  34
ENDBRANCH  26  28
ENDBRANCH  25  26
ENDBRANCH  24  25
ENDBRANCH   1  24
TORSDOF 18
ENDMDL
