MODEL 1
REMARK VINA RESULT:     -10.3      0.000      0.000
REMARK SMILES C[C@H]1CC[C@@](CCOCCO)(C(=O)OCCOC(=O)c2ccc(-c3c4nc(c(-c5cccc(S(=O)(=O)[O-])c5F)c5ccc([nH]5)c(-c5cccc(S(=O)(=O)[O-])c5F)c5nc(c(-c6cccc(S(=O)(=O)[O-])c6F)c6ccc3[nH]6)C=C5)C=C4)cc2)C1
REMARK SMILES IDX 14 1 12 2 13 3 5 4 1 5 2 6 3 7 83 8 4 9 6 10 7 11 8 12 9 13
REMARK SMILES IDX 10 14 11 15 15 17 16 18 17 19 18 20 19 21 20 22 21 23 82 24
REMARK SMILES IDX 22 25 81 26 23 27 24 28 25 29 75 30 26 31 80 32 74 33 76 34
REMARK SMILES IDX 27 35 79 36 73 37 72 38 28 40 60 41 40 42 59 43 41 44 44 45
REMARK SMILES IDX 58 46 77 47 42 48 43 49 57 51 78 52 45 53 29 54 30 55 38 56
REMARK SMILES IDX 31 57 33 58 39 59 32 60 34 61 35 62 36 63 37 64 61 65 62 66
REMARK SMILES IDX 70 67 63 68 65 69 71 70 64 71 66 72 67 73 68 74 69 75 46 76
REMARK SMILES IDX 47 77 55 78 48 79 50 80 56 81 49 82 51 83 52 84 53 85 54 86
REMARK H PARENT 11 16 76 39 44 50
REMARK Flexibility Score: inf
ROOT
ATOM      1  O   UNL A   1      32.395  27.815  23.495  1.00  0.00    -0.462 OA
ENDROOT
BRANCH   1   2
ATOM      2  C   UNL A   1      33.193  26.783  23.121  1.00  0.00     0.312 C 
ATOM      3  O   UNL A   1      33.836  26.761  22.076  1.00  0.00    -0.252 OA
BRANCH   2   4
ATOM      4  C   UNL A   1      33.182  25.610  24.118  1.00  0.00     0.070 C 
ATOM      5  C   UNL A   1      35.424  22.499  23.876  1.00  0.00     0.007 C 
ATOM      6  C   UNL A   1      34.462  23.532  24.438  1.00  0.00    -0.013 C 
ATOM      7  C   UNL A   1      35.183  24.615  25.214  1.00  0.00     0.004 C 
ATOM      8  C   UNL A   1      33.704  24.335  23.378  1.00  0.00     0.022 C 
ATOM      9  C   UNL A   1      34.157  25.735  25.322  1.00  0.00     0.019 C 
BRANCH   4  10
ATOM     10  C   UNL A   1      31.694  25.380  24.516  1.00  0.00     0.047 C 
BRANCH  10  11
ATOM     11  C   UNL A   1      31.220  25.762  25.921  1.00  0.00     0.161 C 
BRANCH  11  12
ATOM     12  O   UNL A   1      30.597  24.720  26.658  1.00  0.00    -0.379 OA
BRANCH  12  13
ATOM     13  C   UNL A   1      31.299  23.478  26.731  1.00  0.00     0.188 C 
BRANCH  13  14
ATOM     14  C   UNL A   1      30.838  22.406  25.743  1.00  0.00     0.184 C 
BRANCH  14  15
ATOM     15  O   UNL A   1      31.488  21.155  25.946  1.00  0.00    -0.394 OA
ATOM     16  H   UNL A   1      31.202  20.775  26.791  1.00  0.00     0.210 HD
ENDBRANCH  14  15
ENDBRANCH  13  14
ENDBRANCH  12  13
ENDBRANCH  11  12
ENDBRANCH  10  11
ENDBRANCH   4  10
ENDBRANCH   2   4
ENDBRANCH   1   2
BRANCH   1  17
ATOM     17  C   UNL A   1      33.044  28.978  24.050  1.00  0.00     0.274 C 
BRANCH  17  18
ATOM     18  C   UNL A   1      32.090  29.680  25.016  1.00  0.00     0.275 C 
BRANCH  18  19
ATOM     19  O   UNL A   1      32.687  29.657  26.323  1.00  0.00    -0.458 OA
BRANCH  19  20
ATOM     20  C   UNL A   1      32.998  30.859  26.849  1.00  0.00     0.338 C 
ATOM     21  O   UNL A   1      32.275  31.838  26.974  1.00  0.00    -0.246 OA
BRANCH  20  22
ATOM     22  C   UNL A   1      34.325  30.736  27.455  1.00  0.00     0.060 A 
ATOM     23  C   UNL A   1      34.783  29.448  27.732  1.00  0.00     0.016 A 
ATOM     24  C   UNL A   1      35.086  31.848  27.797  1.00  0.00     0.016 A 
ATOM     25  C   UNL A   1      35.981  29.258  28.407  1.00  0.00     0.010 A 
ATOM     26  C   UNL A   1      36.324  31.652  28.419  1.00  0.00     0.010 A 
ATOM     27  C   UNL A   1      36.771  30.358  28.756  1.00  0.00    -0.014 A 
BRANCH  27  28
ATOM     28  C   UNL A   1      38.027  30.163  29.528  1.00  0.00     0.031 A 
ATOM     29  C   UNL A   1      39.135  29.338  28.935  1.00  0.00     0.074 A 
ATOM     30  C   UNL A   1      38.182  30.713  30.749  1.00  0.00     0.049 A 
ATOM     31  N   UNL A   1      40.203  28.850  29.510  1.00  0.00    -0.248 NA
ATOM     32  C   UNL A   1      39.015  29.000  27.507  1.00  0.00     0.031 C 
ATOM     33  C   UNL A   1      37.205  31.568  31.425  1.00  0.00     0.029 A 
ATOM     34  N   UNL A   1      39.218  30.622  31.646  1.00  0.00    -0.354 N 
ATOM     35  C   UNL A   1      40.828  28.070  28.545  1.00  0.00     0.074 A 
ATOM     36  C   UNL A   1      40.036  28.170  27.339  1.00  0.00     0.031 C 
ATOM     37  C   UNL A   1      37.692  31.934  32.620  1.00  0.00     0.029 A 
ATOM     38  C   UNL A   1      38.976  31.276  32.832  1.00  0.00     0.049 A 
ATOM     39  H   UNL A   1      40.054  30.135  31.459  1.00  0.00     0.167 HD
ATOM     40  C   UNL A   1      41.961  27.337  28.657  1.00  0.00     0.034 A 
ATOM     41  C   UNL A   1      39.685  31.307  33.979  1.00  0.00     0.034 A 
ATOM     42  C   UNL A   1      42.790  27.316  29.831  1.00  0.00     0.049 A 
ATOM     43  C   UNL A   1      40.966  30.523  34.063  1.00  0.00     0.074 A 
ATOM     44  C   UNL A   1      43.967  26.620  30.043  1.00  0.00     0.029 A 
ATOM     45  N   UNL A   1      42.544  28.049  30.982  1.00  0.00    -0.354 N 
ATOM     46  N   UNL A   1      41.543  29.787  33.144  1.00  0.00    -0.248 NA
ATOM     47  C   UNL A   1      41.697  30.577  35.337  1.00  0.00     0.031 C 
ATOM     48  C   UNL A   1      44.435  26.937  31.324  1.00  0.00     0.029 A 
ATOM     49  C   UNL A   1      43.554  27.836  31.905  1.00  0.00     0.049 A 
ATOM     50  H   UNL A   1      41.765  28.634  31.124  1.00  0.00     0.167 HD
ATOM     51  C   UNL A   1      42.708  29.298  33.724  1.00  0.00     0.074 A 
ATOM     52  C   UNL A   1      42.772  29.851  35.061  1.00  0.00     0.031 C 
ATOM     53  C   UNL A   1      43.625  28.443  33.208  1.00  0.00     0.034 A 
BRANCH  40  54
ATOM     54  C   UNL A   1      42.377  26.512  27.469  1.00  0.00     0.023 A 
ATOM     55  C   UNL A   1      43.132  27.101  26.436  1.00  0.00     0.012 A 
ATOM     56  C   UNL A   1      42.049  25.144  27.393  1.00  0.00     0.148 A 
ATOM     57  C   UNL A   1      43.528  26.348  25.329  1.00  0.00     0.002 A 
ATOM     58  C   UNL A   1      42.480  24.390  26.307  1.00  0.00     0.091 A 
ATOM     59  F   UNL A   1      41.305  24.608  28.372  1.00  0.00    -0.205 F 
ATOM     60  C   UNL A   1      43.211  24.993  25.270  1.00  0.00     0.022 A 
BRANCH  58  61
ATOM     61  S   UNL A   1      42.180  22.624  26.182  1.00  0.00     0.127 S 
ATOM     62  O   UNL A   1      42.893  22.288  24.950  1.00  0.00    -0.237 OA
ATOM     63  O   UNL A   1      42.804  22.113  27.404  1.00  0.00    -0.237 OA
ATOM     64  O   UNL A   1      40.733  22.469  26.135  1.00  0.00    -0.744 OA
ENDBRANCH  58  61
ENDBRANCH  40  54
BRANCH  41  65
ATOM     65  C   UNL A   1      39.195  32.119  35.130  1.00  0.00     0.023 A 
ATOM     66  C   UNL A   1      38.306  31.541  36.056  1.00  0.00     0.012 A 
ATOM     67  C   UNL A   1      39.650  33.435  35.348  1.00  0.00     0.148 A 
ATOM     68  C   UNL A   1      37.870  32.262  37.170  1.00  0.00     0.002 A 
ATOM     69  C   UNL A   1      39.263  34.124  36.492  1.00  0.00     0.091 A 
ATOM     70  F   UNL A   1      40.471  33.984  34.441  1.00  0.00    -0.205 F 
ATOM     71  C   UNL A   1      38.361  33.546  37.397  1.00  0.00     0.022 A 
BRANCH  69  72
ATOM     72  S   UNL A   1      39.982  35.712  36.929  1.00  0.00     0.127 S 
ATOM     73  O   UNL A   1      39.329  35.997  38.204  1.00  0.00    -0.237 OA
ATOM     74  O   UNL A   1      41.407  35.392  37.023  1.00  0.00    -0.237 OA
ATOM     75  O   UNL A   1      39.645  36.601  35.824  1.00  0.00    -0.744 OA
ENDBRANCH  69  72
ENDBRANCH  41  65
BRANCH  53  76
ATOM     76  C   UNL A   1      44.787  28.065  34.085  1.00  0.00     0.023 A 
ATOM     77  C   UNL A   1      45.956  28.849  34.060  1.00  0.00     0.012 A 
ATOM     78  C   UNL A   1      44.695  26.984  34.984  1.00  0.00     0.148 A 
ATOM     79  C   UNL A   1      47.029  28.549  34.899  1.00  0.00     0.002 A 
ATOM     80  C   UNL A   1      45.752  26.714  35.845  1.00  0.00     0.091 A 
ATOM     81  F   UNL A   1      43.582  26.236  34.974  1.00  0.00    -0.205 F 
ATOM     82  C   UNL A   1      46.922  27.490  35.798  1.00  0.00     0.022 A 
BRANCH  80  83
ATOM     83  S   UNL A   1      45.661  25.422  37.088  1.00  0.00     0.127 S 
ATOM     84  O   UNL A   1      44.383  25.716  37.733  1.00  0.00    -0.237 OA
ATOM     85  O   UNL A   1      45.668  24.202  36.277  1.00  0.00    -0.237 OA
ATOM     86  O   UNL A   1      46.844  25.592  37.922  1.00  0.00    -0.744 OA
ENDBRANCH  80  83
ENDBRANCH  53  76
ENDBRANCH  27  28
ENDBRANCH  20  22
ENDBRANCH  19  20
ENDBRANCH  18  19
ENDBRANCH  17  18
ENDBRANCH   1  17
TORSDOF 20
ENDMDL
MODEL 2
REMARK VINA RESULT:      -9.9      1.274      2.442
REMARK SMILES C[C@H]1CC[C@@](CCOCCO)(C(=O)OCCOC(=O)c2ccc(-c3c4nc(c(-c5cccc(S(=O)(=O)[O-])c5F)c5ccc([nH]5)c(-c5cccc(S(=O)(=O)[O-])c5F)c5nc(c(-c6cccc(S(=O)(=O)[O-])c6F)c6ccc3[nH]6)C=C5)C=C4)cc2)C1
REMARK SMILES IDX 14 1 12 2 13 3 5 4 1 5 2 6 3 7 83 8 4 9 6 10 7 11 8 12 9 13
REMARK SMILES IDX 10 14 11 15 15 17 16 18 17 19 18 20 19 21 20 22 21 23 82 24
REMARK SMILES IDX 22 25 81 26 23 27 24 28 25 29 75 30 26 31 80 32 74 33 76 34
REMARK SMILES IDX 27 35 79 36 73 37 72 38 28 40 60 41 40 42 59 43 41 44 44 45
REMARK SMILES IDX 58 46 77 47 42 48 43 49 57 51 78 52 45 53 29 54 30 55 38 56
REMARK SMILES IDX 31 57 33 58 39 59 32 60 34 61 35 62 36 63 37 64 61 65 62 66
REMARK SMILES IDX 70 67 63 68 65 69 71 70 64 71 66 72 67 73 68 74 69 75 46 76
REMARK SMILES IDX 47 77 55 78 48 79 50 80 56 81 49 82 51 83 52 84 53 85 54 86
REMARK H PARENT 11 16 76 39 44 50
REMARK Flexibility Score: inf
ROOT
ATOM      1  O   UNL A   1      31.869  27.177  25.340  1.00  0.00    -0.462 OA
ENDROOT
BRANCH   1   2
ATOM      2  C   UNL A   1      30.999  26.223  24.922  1.00  0.00     0.312 C 
ATOM      3  O   UNL A   1      30.009  25.876  25.557  1.00  0.00    -0.252 OA
BRANCH   2   4
ATOM      4  C   UNL A   1      31.399  25.577  23.582  1.00  0.00     0.070 C 
ATOM      5  C   UNL A   1      34.347  23.161  23.102  1.00  0.00     0.007 C 
ATOM      6  C   UNL A   1      33.072  23.939  22.824  1.00  0.00    -0.013 C 
ATOM      7  C   UNL A   1      31.834  23.156  23.209  1.00  0.00     0.004 C 
ATOM      8  C   UNL A   1      32.921  25.220  23.647  1.00  0.00     0.022 C 
ATOM      9  C   UNL A   1      30.735  24.208  23.266  1.00  0.00     0.019 C 
BRANCH   4  10
ATOM     10  C   UNL A   1      31.189  26.663  22.486  1.00  0.00     0.047 C 
BRANCH  10  11
ATOM     11  C   UNL A   1      30.117  27.739  22.684  1.00  0.00     0.161 C 
BRANCH  11  12
ATOM     12  O   UNL A   1      30.286  28.917  21.910  1.00  0.00    -0.379 OA
BRANCH  12  13
ATOM     13  C   UNL A   1      29.476  30.038  22.264  1.00  0.00     0.188 C 
BRANCH  13  14
ATOM     14  C   UNL A   1      27.983  29.889  21.964  1.00  0.00     0.184 C 
BRANCH  14  15
ATOM     15  O   UNL A   1      27.612  30.472  20.719  1.00  0.00    -0.394 OA
ATOM     16  H   UNL A   1      26.756  30.918  20.813  1.00  0.00     0.210 HD
ENDBRANCH  14  15
ENDBRANCH  13  14
ENDBRANCH  12  13
ENDBRANCH  11  12
ENDBRANCH  10  11
ENDBRANCH   4  10
ENDBRANCH   2   4
ENDBRANCH   1   2
BRANCH   1  17
ATOM     17  C   UNL A   1      31.398  28.096  26.348  1.00  0.00     0.274 C 
BRANCH  17  18
ATOM     18  C   UNL A   1      31.894  29.505  26.022  1.00  0.00     0.275 C 
BRANCH  18  19
ATOM     19  O   UNL A   1      32.310  30.123  27.251  1.00  0.00    -0.458 OA
BRANCH  19  20
ATOM     20  C   UNL A   1      32.973  31.291  27.127  1.00  0.00     0.338 C 
ATOM     21  O   UNL A   1      32.533  32.375  26.769  1.00  0.00    -0.246 OA
BRANCH  20  22
ATOM     22  C   UNL A   1      34.304  31.096  27.707  1.00  0.00     0.060 A 
ATOM     23  C   UNL A   1      34.665  29.793  28.050  1.00  0.00     0.016 A 
ATOM     24  C   UNL A   1      35.161  32.160  27.962  1.00  0.00     0.016 A 
ATOM     25  C   UNL A   1      35.864  29.547  28.706  1.00  0.00     0.010 A 
ATOM     26  C   UNL A   1      36.397  31.902  28.563  1.00  0.00     0.010 A 
ATOM     27  C   UNL A   1      36.749  30.598  28.968  1.00  0.00    -0.014 A 
BRANCH  27  28
ATOM     28  C   UNL A   1      38.008  30.347  29.719  1.00  0.00     0.031 A 
ATOM     29  C   UNL A   1      39.073  29.483  29.103  1.00  0.00     0.074 A 
ATOM     30  C   UNL A   1      38.203  30.880  30.942  1.00  0.00     0.049 A 
ATOM     31  N   UNL A   1      40.129  28.949  29.659  1.00  0.00    -0.248 NA
ATOM     32  C   UNL A   1      38.918  29.161  27.675  1.00  0.00     0.031 C 
ATOM     33  C   UNL A   1      37.271  31.769  31.638  1.00  0.00     0.029 A 
ATOM     34  N   UNL A   1      39.247  30.741  31.822  1.00  0.00    -0.354 N 
ATOM     35  C   UNL A   1      40.708  28.151  28.679  1.00  0.00     0.074 A 
ATOM     36  C   UNL A   1      39.902  28.293  27.485  1.00  0.00     0.031 C 
ATOM     37  C   UNL A   1      37.790  32.106  32.829  1.00  0.00     0.029 A 
ATOM     38  C   UNL A   1      39.050  31.395  33.017  1.00  0.00     0.049 A 
ATOM     39  H   UNL A   1      40.060  30.224  31.618  1.00  0.00     0.167 HD
ATOM     40  C   UNL A   1      41.812  27.374  28.767  1.00  0.00     0.034 A 
ATOM     41  C   UNL A   1      39.776  31.389  34.152  1.00  0.00     0.034 A 
ATOM     42  C   UNL A   1      42.657  27.311  29.929  1.00  0.00     0.049 A 
ATOM     43  C   UNL A   1      41.026  30.554  34.212  1.00  0.00     0.074 A 
ATOM     44  C   UNL A   1      43.809  26.567  30.118  1.00  0.00     0.029 A 
ATOM     45  N   UNL A   1      42.458  28.043  31.089  1.00  0.00    -0.354 N 
ATOM     46  N   UNL A   1      41.560  29.803  33.278  1.00  0.00    -0.248 NA
ATOM     47  C   UNL A   1      41.778  30.569  35.474  1.00  0.00     0.031 C 
ATOM     48  C   UNL A   1      44.309  26.855  31.393  1.00  0.00     0.029 A 
ATOM     49  C   UNL A   1      43.473  27.783  31.994  1.00  0.00     0.049 A 
ATOM     50  H   UNL A   1      41.705  28.657  31.247  1.00  0.00     0.167 HD
ATOM     51  C   UNL A   1      42.712  29.263  33.836  1.00  0.00     0.074 A 
ATOM     52  C   UNL A   1      42.819  29.803  35.177  1.00  0.00     0.031 C 
ATOM     53  C   UNL A   1      43.587  28.376  33.301  1.00  0.00     0.034 A 
BRANCH  40  54
ATOM     54  C   UNL A   1      42.177  26.542  27.568  1.00  0.00     0.023 A 
ATOM     55  C   UNL A   1      42.882  27.126  26.497  1.00  0.00     0.012 A 
ATOM     56  C   UNL A   1      41.852  25.172  27.516  1.00  0.00     0.148 A 
ATOM     57  C   UNL A   1      43.229  26.368  25.378  1.00  0.00     0.002 A 
ATOM     58  C   UNL A   1      42.237  24.413  26.417  1.00  0.00     0.091 A 
ATOM     59  F   UNL A   1      41.157  24.640  28.532  1.00  0.00    -0.205 F 
ATOM     60  C   UNL A   1      42.916  25.011  25.343  1.00  0.00     0.022 A 
BRANCH  58  61
ATOM     61  S   UNL A   1      41.939  22.644  26.318  1.00  0.00     0.127 S 
ATOM     62  O   UNL A   1      40.480  22.593  26.239  1.00  0.00    -0.237 OA
ATOM     63  O   UNL A   1      42.628  22.279  25.079  1.00  0.00    -0.237 OA
ATOM     64  O   UNL A   1      42.525  22.074  27.523  1.00  0.00    -0.744 OA
ENDBRANCH  58  61
ENDBRANCH  40  54
BRANCH  41  65
ATOM     65  C   UNL A   1      39.337  32.211  35.317  1.00  0.00     0.023 A 
ATOM     66  C   UNL A   1      38.540  31.623  36.318  1.00  0.00     0.012 A 
ATOM     67  C   UNL A   1      39.751  33.549  35.471  1.00  0.00     0.148 A 
ATOM     68  C   UNL A   1      38.155  32.355  37.443  1.00  0.00     0.002 A 
ATOM     69  C   UNL A   1      39.418  34.251  36.623  1.00  0.00     0.091 A 
ATOM     70  F   UNL A   1      40.482  34.106  34.494  1.00  0.00    -0.205 F 
ATOM     71  C   UNL A   1      38.608  33.662  37.604  1.00  0.00     0.022 A 
BRANCH  69  72
ATOM     72  S   UNL A   1      40.100  35.878  36.971  1.00  0.00     0.127 S 
ATOM     73  O   UNL A   1      41.529  35.592  37.059  1.00  0.00    -0.237 OA
ATOM     74  O   UNL A   1      39.696  36.642  35.790  1.00  0.00    -0.237 OA
ATOM     75  O   UNL A   1      39.455  36.307  38.205  1.00  0.00    -0.744 OA
ENDBRANCH  69  72
ENDBRANCH  41  65
BRANCH  53  76
ATOM     76  C   UNL A   1      44.746  27.946  34.157  1.00  0.00     0.023 A 
ATOM     77  C   UNL A   1      45.971  28.633  34.059  1.00  0.00     0.012 A 
ATOM     78  C   UNL A   1      44.602  26.916  35.107  1.00  0.00     0.148 A 
ATOM     79  C   UNL A   1      47.046  28.285  34.877  1.00  0.00     0.002 A 
ATOM     80  C   UNL A   1      45.664  26.601  35.946  1.00  0.00     0.091 A 
ATOM     81  F   UNL A   1      43.435  26.259  35.167  1.00  0.00    -0.205 F 
ATOM     82  C   UNL A   1      46.889  27.279  35.827  1.00  0.00     0.022 A 
BRANCH  80  83
ATOM     83  S   UNL A   1      45.516  25.374  37.249  1.00  0.00     0.127 S 
ATOM     84  O   UNL A   1      46.817  25.478  37.907  1.00  0.00    -0.237 OA
ATOM     85  O   UNL A   1      44.392  25.884  38.037  1.00  0.00    -0.237 OA
ATOM     86  O   UNL A   1      45.248  24.111  36.574  1.00  0.00    -0.744 OA
ENDBRANCH  80  83
ENDBRANCH  53  76
ENDBRANCH  27  28
ENDBRANCH  20  22
ENDBRANCH  19  20
ENDBRANCH  18  19
ENDBRANCH  17  18
ENDBRANCH   1  17
TORSDOF 20
ENDMDL
MODEL 3
REMARK VINA RESULT:      -9.7      1.608      2.100
REMARK SMILES C[C@H]1CC[C@@](CCOCCO)(C(=O)OCCOC(=O)c2ccc(-c3c4nc(c(-c5cccc(S(=O)(=O)[O-])c5F)c5ccc([nH]5)c(-c5cccc(S(=O)(=O)[O-])c5F)c5nc(c(-c6cccc(S(=O)(=O)[O-])c6F)c6ccc3[nH]6)C=C5)C=C4)cc2)C1
REMARK SMILES IDX 14 1 12 2 13 3 5 4 1 5 2 6 3 7 83 8 4 9 6 10 7 11 8 12 9 13
REMARK SMILES IDX 10 14 11 15 15 17 16 18 17 19 18 20 19 21 20 22 21 23 82 24
REMARK SMILES IDX 22 25 81 26 23 27 24 28 25 29 75 30 26 31 80 32 74 33 76 34
REMARK SMILES IDX 27 35 79 36 73 37 72 38 28 40 60 41 40 42 59 43 41 44 44 45
REMARK SMILES IDX 58 46 77 47 42 48 43 49 57 51 78 52 45 53 29 54 30 55 38 56
REMARK SMILES IDX 31 57 33 58 39 59 32 60 34 61 35 62 36 63 37 64 61 65 62 66
REMARK SMILES IDX 70 67 63 68 65 69 71 70 64 71 66 72 67 73 68 74 69 75 46 76
REMARK SMILES IDX 47 77 55 78 48 79 50 80 56 81 49 82 51 83 52 84 53 85 54 86
REMARK H PARENT 11 16 76 39 44 50
REMARK Flexibility Score: inf
ROOT
ATOM      1  O   UNL A   1      32.768  27.875  25.571  1.00  0.00    -0.462 OA
ENDROOT
BRANCH   1   2
ATOM      2  C   UNL A   1      33.101  27.161  24.465  1.00  0.00     0.312 C 
ATOM      3  O   UNL A   1      33.311  27.663  23.366  1.00  0.00    -0.252 OA
BRANCH   2   4
ATOM      4  C   UNL A   1      33.147  25.642  24.711  1.00  0.00     0.070 C 
ATOM      5  C   UNL A   1      35.822  23.269  23.303  1.00  0.00     0.007 C 
ATOM      6  C   UNL A   1      34.667  23.791  24.141  1.00  0.00    -0.013 C 
ATOM      7  C   UNL A   1      35.136  24.352  25.468  1.00  0.00     0.004 C 
ATOM      8  C   UNL A   1      33.924  24.979  23.525  1.00  0.00     0.022 C 
ATOM      9  C   UNL A   1      33.956  25.181  25.955  1.00  0.00     0.019 C 
BRANCH   4  10
ATOM     10  C   UNL A   1      31.672  25.142  24.680  1.00  0.00     0.047 C 
BRANCH  10  11
ATOM     11  C   UNL A   1      30.911  25.118  23.352  1.00  0.00     0.161 C 
BRANCH  11  12
ATOM     12  O   UNL A   1      29.517  25.370  23.444  1.00  0.00    -0.379 OA
BRANCH  12  13
ATOM     13  C   UNL A   1      29.127  26.691  23.821  1.00  0.00     0.188 C 
BRANCH  13  14
ATOM     14  C   UNL A   1      29.533  27.798  22.847  1.00  0.00     0.184 C 
BRANCH  14  15
ATOM     15  O   UNL A   1      28.626  28.895  22.854  1.00  0.00    -0.394 OA
ATOM     16  H   UNL A   1      27.715  28.563  22.860  1.00  0.00     0.210 HD
ENDBRANCH  14  15
ENDBRANCH  13  14
ENDBRANCH  12  13
ENDBRANCH  11  12
ENDBRANCH  10  11
ENDBRANCH   4  10
ENDBRANCH   2   4
ENDBRANCH   1   2
BRANCH   1  17
ATOM     17  C   UNL A   1      31.510  28.581  25.539  1.00  0.00     0.274 C 
BRANCH  17  18
ATOM     18  C   UNL A   1      31.766  30.081  25.698  1.00  0.00     0.275 C 
BRANCH  18  19
ATOM     19  O   UNL A   1      33.128  30.254  26.123  1.00  0.00    -0.458 OA
BRANCH  19  20
ATOM     20  C   UNL A   1      33.361  31.304  26.936  1.00  0.00     0.338 C 
ATOM     21  O   UNL A   1      32.586  32.192  27.263  1.00  0.00    -0.246 OA
BRANCH  20  22
ATOM     22  C   UNL A   1      34.673  31.092  27.551  1.00  0.00     0.060 A 
ATOM     23  C   UNL A   1      35.029  29.779  27.857  1.00  0.00     0.016 A 
ATOM     24  C   UNL A   1      35.516  32.149  27.874  1.00  0.00     0.016 A 
ATOM     25  C   UNL A   1      36.206  29.511  28.543  1.00  0.00     0.010 A 
ATOM     26  C   UNL A   1      36.733  31.872  28.505  1.00  0.00     0.010 A 
ATOM     27  C   UNL A   1      37.078  30.554  28.872  1.00  0.00    -0.014 A 
BRANCH  27  28
ATOM     28  C   UNL A   1      38.312  30.280  29.654  1.00  0.00     0.031 A 
ATOM     29  C   UNL A   1      39.374  29.392  29.066  1.00  0.00     0.074 A 
ATOM     30  C   UNL A   1      38.489  30.812  30.880  1.00  0.00     0.049 A 
ATOM     31  N   UNL A   1      40.404  28.837  29.649  1.00  0.00    -0.248 NA
ATOM     32  C   UNL A   1      39.246  29.069  27.635  1.00  0.00     0.031 C 
ATOM     33  C   UNL A   1      37.559  31.722  31.551  1.00  0.00     0.029 A 
ATOM     34  N   UNL A   1      39.509  30.654  31.786  1.00  0.00    -0.354 N 
ATOM     35  C   UNL A   1      40.990  28.025  28.685  1.00  0.00     0.074 A 
ATOM     36  C   UNL A   1      40.217  28.180  27.472  1.00  0.00     0.031 C 
ATOM     37  C   UNL A   1      38.057  32.052  32.753  1.00  0.00     0.029 A 
ATOM     38  C   UNL A   1      39.297  31.316  32.973  1.00  0.00     0.049 A 
ATOM     39  H   UNL A   1      40.316  30.119  31.603  1.00  0.00     0.167 HD
ATOM     40  C   UNL A   1      42.075  27.224  28.802  1.00  0.00     0.034 A 
ATOM     41  C   UNL A   1      39.995  31.298  34.126  1.00  0.00     0.034 A 
ATOM     42  C   UNL A   1      42.891  27.147  29.985  1.00  0.00     0.049 A 
ATOM     43  C   UNL A   1      41.225  30.437  34.218  1.00  0.00     0.074 A 
ATOM     44  C   UNL A   1      44.021  26.380  30.203  1.00  0.00     0.029 A 
ATOM     45  N   UNL A   1      42.679  27.887  31.137  1.00  0.00    -0.354 N 
ATOM     46  N   UNL A   1      41.765  29.672  33.299  1.00  0.00    -0.248 NA
ATOM     47  C   UNL A   1      41.947  30.441  35.498  1.00  0.00     0.031 C 
ATOM     48  C   UNL A   1      44.496  26.661  31.489  1.00  0.00     0.029 A 
ATOM     49  C   UNL A   1      43.666  27.609  32.067  1.00  0.00     0.049 A 
ATOM     50  H   UNL A   1      41.935  28.518  31.276  1.00  0.00     0.167 HD
ATOM     51  C   UNL A   1      42.893  29.110  33.887  1.00  0.00     0.074 A 
ATOM     52  C   UNL A   1      42.978  29.652  35.228  1.00  0.00     0.031 C 
ATOM     53  C   UNL A   1      43.761  28.204  33.375  1.00  0.00     0.034 A 
BRANCH  40  54
ATOM     54  C   UNL A   1      42.452  26.381  27.614  1.00  0.00     0.023 A 
ATOM     55  C   UNL A   1      43.257  26.926  26.595  1.00  0.00     0.012 A 
ATOM     56  C   UNL A   1      42.035  25.038  27.524  1.00  0.00     0.148 A 
ATOM     57  C   UNL A   1      43.616  26.156  25.488  1.00  0.00     0.002 A 
ATOM     58  C   UNL A   1      42.430  24.265  26.438  1.00  0.00     0.091 A 
ATOM     59  F   UNL A   1      41.246  24.546  28.490  1.00  0.00    -0.205 F 
ATOM     60  C   UNL A   1      43.212  24.825  25.415  1.00  0.00     0.022 A 
BRANCH  58  61
ATOM     61  S   UNL A   1      42.016  22.523  26.296  1.00  0.00     0.127 S 
ATOM     62  O   UNL A   1      42.653  22.169  25.028  1.00  0.00    -0.237 OA
ATOM     63  O   UNL A   1      42.660  21.951  27.480  1.00  0.00    -0.237 OA
ATOM     64  O   UNL A   1      40.562  22.457  26.311  1.00  0.00    -0.744 OA
ENDBRANCH  58  61
ENDBRANCH  40  54
BRANCH  41  65
ATOM     65  C   UNL A   1      39.545  32.133  35.278  1.00  0.00     0.023 A 
ATOM     66  C   UNL A   1      39.765  33.523  35.252  1.00  0.00     0.012 A 
ATOM     67  C   UNL A   1      38.849  31.570  36.365  1.00  0.00     0.148 A 
ATOM     68  C   UNL A   1      39.312  34.335  36.293  1.00  0.00     0.002 A 
ATOM     69  C   UNL A   1      38.344  32.392  37.367  1.00  0.00     0.091 A 
ATOM     70  F   UNL A   1      38.674  30.241  36.393  1.00  0.00    -0.205 F 
ATOM     71  C   UNL A   1      38.586  33.773  37.342  1.00  0.00     0.022 A 
BRANCH  69  72
ATOM     72  S   UNL A   1      37.264  31.759  38.657  1.00  0.00     0.127 S 
ATOM     73  O   UNL A   1      38.112  31.871  39.840  1.00  0.00    -0.237 OA
ATOM     74  O   UNL A   1      36.141  32.697  38.611  1.00  0.00    -0.237 OA
ATOM     75  O   UNL A   1      36.923  30.404  38.239  1.00  0.00    -0.744 OA
ENDBRANCH  69  72
ENDBRANCH  41  65
BRANCH  53  76
ATOM     76  C   UNL A   1      44.890  27.751  34.260  1.00  0.00     0.023 A 
ATOM     77  C   UNL A   1      46.106  28.460  34.246  1.00  0.00     0.012 A 
ATOM     78  C   UNL A   1      44.722  26.677  35.155  1.00  0.00     0.148 A 
ATOM     79  C   UNL A   1      47.151  28.092  35.094  1.00  0.00     0.002 A 
ATOM     80  C   UNL A   1      45.753  26.339  36.024  1.00  0.00     0.091 A 
ATOM     81  F   UNL A   1      43.565  26.001  35.135  1.00  0.00    -0.205 F 
ATOM     82  C   UNL A   1      46.971  27.040  35.989  1.00  0.00     0.022 A 
BRANCH  80  83
ATOM     83  S   UNL A   1      45.571  25.053  37.263  1.00  0.00     0.127 S 
ATOM     84  O   UNL A   1      44.156  25.169  37.611  1.00  0.00    -0.237 OA
ATOM     85  O   UNL A   1      45.916  23.842  36.515  1.00  0.00    -0.237 OA
ATOM     86  O   UNL A   1      46.512  25.390  38.324  1.00  0.00    -0.744 OA
ENDBRANCH  80  83
ENDBRANCH  53  76
ENDBRANCH  27  28
ENDBRANCH  20  22
ENDBRANCH  19  20
ENDBRANCH  18  19
ENDBRANCH  17  18
ENDBRANCH   1  17
TORSDOF 20
ENDMDL
