MODEL 1
REMARK VINA RESULT:     -11.5      0.000      0.000
REMARK SMILES CC1=C(C)C(=O)N(C[C@H](CC(C)C)C(=O)OCCOC(=O)c2ccc(-c3c4nc(c(-c5cccc(S(=O)(=O)[O-])c5F)c5ccc([nH]5)c(-c5cccc(S(=O)(=O)[O-])c5F)c5nc(c(-c6cccc(S(=O)(=O)[O-])c6F)c6ccc3[nH]6)C=C5)C=C4)cc2)C1=O
REMARK SMILES IDX 18 1 17 2 16 3 14 4 15 5 9 6 8 7 7 8 1 9 2 10 3 11 85 12
REMARK SMILES IDX 4 13 5 14 86 15 6 16 10 17 11 18 12 19 13 20 19 21 20 22
REMARK SMILES IDX 21 23 22 24 23 25 84 26 24 27 83 28 25 29 26 30 27 31 77 32
REMARK SMILES IDX 28 33 82 34 76 35 78 36 29 37 81 38 75 39 74 40 30 42 62 43
REMARK SMILES IDX 42 44 61 45 43 46 46 47 60 48 79 49 44 50 45 51 59 53 80 54
REMARK SMILES IDX 47 55 31 56 32 57 40 58 33 59 35 60 41 61 34 62 36 63 37 64
REMARK SMILES IDX 38 65 39 66 63 67 64 68 72 69 65 70 67 71 73 72 66 73 68 74
REMARK SMILES IDX 69 75 70 76 71 77 48 78 49 79 57 80 50 81 52 82 58 83 51 84
REMARK SMILES IDX 53 85 54 86 55 87 56 88
REMARK H PARENT 78 41 46 52
REMARK Flexibility Score: inf
ROOT
ATOM      1  C   UNL A   1      36.588  20.850  24.650  1.00  0.00     0.275 C 
ENDROOT
BRANCH   1   2
ATOM      2  C   UNL A   1      35.323  20.062  24.998  1.00  0.00     0.274 C 
BRANCH   2   3
ATOM      3  O   UNL A   1      34.398  20.844  25.780  1.00  0.00    -0.462 OA
BRANCH   3   4
ATOM      4  C   UNL A   1      33.149  21.029  25.268  1.00  0.00     0.310 C 
ATOM      5  O   UNL A   1      32.354  20.128  25.033  1.00  0.00    -0.252 OA
BRANCH   4   6
ATOM      6  C   UNL A   1      32.874  22.487  24.911  1.00  0.00     0.119 C 
BRANCH   6   7
ATOM      7  C   UNL A   1      31.353  22.730  24.990  1.00  0.00     0.144 C 
BRANCH   7   8
ATOM      8  N   UNL A   1      30.995  24.129  25.141  1.00  0.00    -0.274 N 
ATOM      9  C   UNL A   1      31.447  27.397  26.722  1.00  0.00     0.051 C 
ATOM     10  C   UNL A   1      31.024  26.288  25.840  1.00  0.00     0.023 C 
ATOM     11  C   UNL A   1      30.534  26.292  24.596  1.00  0.00     0.023 C 
ATOM     12  C   UNL A   1      31.194  24.885  26.251  1.00  0.00     0.256 C 
ATOM     13  C   UNL A   1      30.232  27.429  23.701  1.00  0.00     0.051 C 
ATOM     14  C   UNL A   1      30.481  24.892  24.143  1.00  0.00     0.256 C 
ATOM     15  O   UNL A   1      31.466  24.541  27.378  1.00  0.00    -0.269 OA
ATOM     16  O   UNL A   1      30.078  24.539  23.049  1.00  0.00    -0.269 OA
ENDBRANCH   7   8
ENDBRANCH   6   7
BRANCH   6  17
ATOM     17  C   UNL A   1      33.582  22.924  23.609  1.00  0.00     0.020 C 
BRANCH  17  18
ATOM     18  C   UNL A   1      34.484  24.173  23.714  1.00  0.00    -0.017 C 
ATOM     19  C   UNL A   1      33.871  25.396  23.034  1.00  0.00     0.007 C 
ATOM     20  C   UNL A   1      34.786  24.487  25.182  1.00  0.00     0.007 C 
ENDBRANCH  17  18
ENDBRANCH   6  17
ENDBRANCH   4   6
ENDBRANCH   3   4
ENDBRANCH   2   3
ENDBRANCH   1   2
BRANCH   1  21
ATOM     21  O   UNL A   1      37.211  21.377  25.830  1.00  0.00    -0.458 OA
BRANCH  21  22
ATOM     22  C   UNL A   1      38.543  21.155  25.914  1.00  0.00     0.338 C 
ATOM     23  O   UNL A   1      39.160  20.195  25.485  1.00  0.00    -0.246 OA
BRANCH  22  24
ATOM     24  C   UNL A   1      39.191  22.338  26.491  1.00  0.00     0.060 A 
ATOM     25  C   UNL A   1      38.689  23.601  26.158  1.00  0.00     0.016 A 
ATOM     26  C   UNL A   1      40.320  22.204  27.300  1.00  0.00     0.016 A 
ATOM     27  C   UNL A   1      39.328  24.746  26.621  1.00  0.00     0.010 A 
ATOM     28  C   UNL A   1      40.961  23.352  27.760  1.00  0.00     0.010 A 
ATOM     29  C   UNL A   1      40.480  24.625  27.405  1.00  0.00    -0.014 A 
BRANCH  29  30
ATOM     30  C   UNL A   1      41.254  25.827  27.784  1.00  0.00     0.031 A 
ATOM     31  C   UNL A   1      40.568  26.916  28.555  1.00  0.00     0.074 A 
ATOM     32  C   UNL A   1      42.536  25.953  27.398  1.00  0.00     0.049 A 
ATOM     33  N   UNL A   1      41.001  28.109  28.863  1.00  0.00    -0.248 NA
ATOM     34  C   UNL A   1      39.207  26.625  29.036  1.00  0.00     0.031 C 
ATOM     35  C   UNL A   1      43.299  24.946  26.661  1.00  0.00     0.029 A 
ATOM     36  N   UNL A   1      43.409  27.001  27.541  1.00  0.00    -0.354 N 
ATOM     37  C   UNL A   1      39.953  28.729  29.529  1.00  0.00     0.074 A 
ATOM     38  C   UNL A   1      38.862  27.781  29.586  1.00  0.00     0.031 C 
ATOM     39  C   UNL A   1      44.517  25.440  26.383  1.00  0.00     0.029 A 
ATOM     40  C   UNL A   1      44.604  26.807  26.889  1.00  0.00     0.049 A 
ATOM     41  H   UNL A   1      43.200  27.811  28.060  1.00  0.00     0.167 HD
ATOM     42  C   UNL A   1      39.910  29.976  30.054  1.00  0.00     0.034 A 
ATOM     43  C   UNL A   1      45.632  27.654  26.691  1.00  0.00     0.034 A 
ATOM     44  C   UNL A   1      41.013  30.895  30.018  1.00  0.00     0.049 A 
ATOM     45  C   UNL A   1      45.554  29.041  27.275  1.00  0.00     0.074 A 
ATOM     46  C   UNL A   1      41.091  32.169  30.551  1.00  0.00     0.029 A 
ATOM     47  N   UNL A   1      42.234  30.639  29.411  1.00  0.00    -0.354 N 
ATOM     48  N   UNL A   1      44.591  29.587  27.980  1.00  0.00    -0.248 NA
ATOM     49  C   UNL A   1      46.712  29.921  27.063  1.00  0.00     0.031 C 
ATOM     50  C   UNL A   1      42.352  32.691  30.250  1.00  0.00     0.029 A 
ATOM     51  C   UNL A   1      43.071  31.731  29.555  1.00  0.00     0.049 A 
ATOM     52  H   UNL A   1      42.470  29.804  28.947  1.00  0.00     0.167 HD
ATOM     53  C   UNL A   1      45.045  30.852  28.334  1.00  0.00     0.074 A 
ATOM     54  C   UNL A   1      46.373  30.990  27.771  1.00  0.00     0.031 C 
ATOM     55  C   UNL A   1      44.416  31.817  29.049  1.00  0.00     0.034 A 
BRANCH  42  56
ATOM     56  C   UNL A   1      38.639  30.410  30.733  1.00  0.00     0.023 A 
ATOM     57  C   UNL A   1      38.463  30.163  32.109  1.00  0.00     0.012 A 
ATOM     58  C   UNL A   1      37.644  31.109  30.022  1.00  0.00     0.148 A 
ATOM     59  C   UNL A   1      37.304  30.581  32.762  1.00  0.00     0.002 A 
ATOM     60  C   UNL A   1      36.511  31.560  30.690  1.00  0.00     0.091 A 
ATOM     61  F   UNL A   1      37.819  31.312  28.708  1.00  0.00    -0.205 F 
ATOM     62  C   UNL A   1      36.334  31.288  32.056  1.00  0.00     0.022 A 
BRANCH  60  63
ATOM     63  S   UNL A   1      35.241  32.544  29.885  1.00  0.00     0.127 S 
ATOM     64  O   UNL A   1      34.751  31.617  28.866  1.00  0.00    -0.237 OA
ATOM     65  O   UNL A   1      34.306  32.796  30.981  1.00  0.00    -0.237 OA
ATOM     66  O   UNL A   1      35.915  33.731  29.378  1.00  0.00    -0.744 OA
ENDBRANCH  60  63
ENDBRANCH  42  56
BRANCH  43  67
ATOM     67  C   UNL A   1      46.835  27.205  25.936  1.00  0.00     0.023 A 
ATOM     68  C   UNL A   1      47.758  26.343  26.557  1.00  0.00     0.012 A 
ATOM     69  C   UNL A   1      47.057  27.605  24.604  1.00  0.00     0.148 A 
ATOM     70  C   UNL A   1      48.897  25.912  25.876  1.00  0.00     0.002 A 
ATOM     71  C   UNL A   1      48.166  27.129  23.913  1.00  0.00     0.091 A 
ATOM     72  F   UNL A   1      46.176  28.440  24.034  1.00  0.00    -0.205 F 
ATOM     73  C   UNL A   1      49.096  26.295  24.553  1.00  0.00     0.022 A 
BRANCH  71  74
ATOM     74  S   UNL A   1      48.435  27.474  22.171  1.00  0.00     0.127 S 
ATOM     75  O   UNL A   1      47.185  28.130  21.800  1.00  0.00    -0.237 OA
ATOM     76  O   UNL A   1      49.604  28.355  22.213  1.00  0.00    -0.237 OA
ATOM     77  O   UNL A   1      48.682  26.181  21.549  1.00  0.00    -0.744 OA
ENDBRANCH  71  74
ENDBRANCH  43  67
BRANCH  55  78
ATOM     78  C   UNL A   1      45.172  33.089  29.329  1.00  0.00     0.023 A 
ATOM     79  C   UNL A   1      46.021  33.170  30.448  1.00  0.00     0.012 A 
ATOM     80  C   UNL A   1      45.120  34.161  28.415  1.00  0.00     0.148 A 
ATOM     81  C   UNL A   1      46.793  34.310  30.667  1.00  0.00     0.002 A 
ATOM     82  C   UNL A   1      45.928  35.273  28.613  1.00  0.00     0.091 A 
ATOM     83  F   UNL A   1      44.291  34.067  27.365  1.00  0.00    -0.205 F 
ATOM     84  C   UNL A   1      46.758  35.354  29.743  1.00  0.00     0.022 A 
BRANCH  82  85
ATOM     85  S   UNL A   1      46.024  36.617  27.426  1.00  0.00     0.127 S 
ATOM     86  O   UNL A   1      46.998  37.505  28.059  1.00  0.00    -0.237 OA
ATOM     87  O   UNL A   1      46.509  35.936  26.224  1.00  0.00    -0.237 OA
ATOM     88  O   UNL A   1      44.674  37.153  27.313  1.00  0.00    -0.744 OA
ENDBRANCH  82  85
ENDBRANCH  55  78
ENDBRANCH  29  30
ENDBRANCH  22  24
ENDBRANCH  21  22
ENDBRANCH   1  21
TORSDOF 18
ENDMDL
MODEL 2
REMARK VINA RESULT:     -11.2      1.030      1.731
REMARK SMILES CC1=C(C)C(=O)N(C[C@H](CC(C)C)C(=O)OCCOC(=O)c2ccc(-c3c4nc(c(-c5cccc(S(=O)(=O)[O-])c5F)c5ccc([nH]5)c(-c5cccc(S(=O)(=O)[O-])c5F)c5nc(c(-c6cccc(S(=O)(=O)[O-])c6F)c6ccc3[nH]6)C=C5)C=C4)cc2)C1=O
REMARK SMILES IDX 18 1 17 2 16 3 14 4 15 5 9 6 8 7 7 8 1 9 2 10 3 11 85 12
REMARK SMILES IDX 4 13 5 14 86 15 6 16 10 17 11 18 12 19 13 20 19 21 20 22
REMARK SMILES IDX 21 23 22 24 23 25 84 26 24 27 83 28 25 29 26 30 27 31 77 32
REMARK SMILES IDX 28 33 82 34 76 35 78 36 29 37 81 38 75 39 74 40 30 42 62 43
REMARK SMILES IDX 42 44 61 45 43 46 46 47 60 48 79 49 44 50 45 51 59 53 80 54
REMARK SMILES IDX 47 55 31 56 32 57 40 58 33 59 35 60 41 61 34 62 36 63 37 64
REMARK SMILES IDX 38 65 39 66 63 67 64 68 72 69 65 70 67 71 73 72 66 73 68 74
REMARK SMILES IDX 69 75 70 76 71 77 48 78 49 79 57 80 50 81 52 82 58 83 51 84
REMARK SMILES IDX 53 85 54 86 55 87 56 88
REMARK H PARENT 78 41 46 52
REMARK Flexibility Score: inf
ROOT
ATOM      1  C   UNL A   1      37.281  21.013  24.701  1.00  0.00     0.275 C 
ENDROOT
BRANCH   1   2
ATOM      2  C   UNL A   1      35.752  21.035  24.661  1.00  0.00     0.274 C 
BRANCH   2   3
ATOM      3  O   UNL A   1      35.227  22.365  24.845  1.00  0.00    -0.462 OA
BRANCH   3   4
ATOM      4  C   UNL A   1      35.032  23.119  23.726  1.00  0.00     0.310 C 
ATOM      5  O   UNL A   1      35.730  23.066  22.722  1.00  0.00    -0.252 OA
BRANCH   4   6
ATOM      6  C   UNL A   1      33.898  24.127  23.892  1.00  0.00     0.119 C 
BRANCH   6   7
ATOM      7  C   UNL A   1      33.297  24.419  22.502  1.00  0.00     0.144 C 
BRANCH   7   8
ATOM      8  N   UNL A   1      32.234  25.408  22.524  1.00  0.00    -0.274 N 
ATOM      9  C   UNL A   1      29.103  26.712  23.894  1.00  0.00     0.051 C 
ATOM     10  C   UNL A   1      30.368  26.537  23.148  1.00  0.00     0.023 C 
ATOM     11  C   UNL A   1      31.195  27.433  22.599  1.00  0.00     0.023 C 
ATOM     12  C   UNL A   1      30.970  25.205  22.978  1.00  0.00     0.256 C 
ATOM     13  C   UNL A   1      31.094  28.907  22.544  1.00  0.00     0.051 C 
ATOM     14  C   UNL A   1      32.398  26.705  22.162  1.00  0.00     0.256 C 
ATOM     15  O   UNL A   1      30.396  24.170  23.222  1.00  0.00    -0.269 OA
ATOM     16  O   UNL A   1      33.355  27.225  21.616  1.00  0.00    -0.269 OA
ENDBRANCH   7   8
ENDBRANCH   6   7
BRANCH   6  17
ATOM     17  C   UNL A   1      34.310  25.349  24.743  1.00  0.00     0.020 C 
BRANCH  17  18
ATOM     18  C   UNL A   1      33.471  25.603  26.015  1.00  0.00    -0.017 C 
ATOM     19  C   UNL A   1      32.731  26.939  25.971  1.00  0.00     0.007 C 
ATOM     20  C   UNL A   1      32.476  24.460  26.232  1.00  0.00     0.007 C 
ENDBRANCH  17  18
ENDBRANCH   6  17
ENDBRANCH   4   6
ENDBRANCH   3   4
ENDBRANCH   2   3
ENDBRANCH   1   2
BRANCH   1  21
ATOM     21  O   UNL A   1      37.769  21.268  26.025  1.00  0.00    -0.458 OA
BRANCH  21  22
ATOM     22  C   UNL A   1      39.103  21.104  26.179  1.00  0.00     0.338 C 
ATOM     23  O   UNL A   1      39.776  20.151  25.827  1.00  0.00    -0.246 OA
BRANCH  22  24
ATOM     24  C   UNL A   1      39.679  22.340  26.723  1.00  0.00     0.060 A 
ATOM     25  C   UNL A   1      39.185  23.564  26.259  1.00  0.00     0.016 A 
ATOM     26  C   UNL A   1      40.734  22.290  27.634  1.00  0.00     0.016 A 
ATOM     27  C   UNL A   1      39.761  24.753  26.691  1.00  0.00     0.010 A 
ATOM     28  C   UNL A   1      41.313  23.482  28.063  1.00  0.00     0.010 A 
ATOM     29  C   UNL A   1      40.843  24.716  27.578  1.00  0.00    -0.014 A 
BRANCH  29  30
ATOM     30  C   UNL A   1      41.560  25.959  27.935  1.00  0.00     0.031 A 
ATOM     31  C   UNL A   1      40.824  27.027  28.689  1.00  0.00     0.074 A 
ATOM     32  C   UNL A   1      42.833  26.139  27.543  1.00  0.00     0.049 A 
ATOM     33  N   UNL A   1      41.201  28.244  28.975  1.00  0.00    -0.248 NA
ATOM     34  C   UNL A   1      39.479  26.681  29.178  1.00  0.00     0.031 C 
ATOM     35  C   UNL A   1      43.642  25.157  26.821  1.00  0.00     0.029 A 
ATOM     36  N   UNL A   1      43.656  27.229  27.666  1.00  0.00    -0.354 N 
ATOM     37  C   UNL A   1      40.126  28.826  29.634  1.00  0.00     0.074 A 
ATOM     38  C   UNL A   1      39.081  27.828  29.709  1.00  0.00     0.031 C 
ATOM     39  C   UNL A   1      44.835  25.703  26.532  1.00  0.00     0.029 A 
ATOM     40  C   UNL A   1      44.858  27.081  27.014  1.00  0.00     0.049 A 
ATOM     41  H   UNL A   1      43.411  28.037  28.172  1.00  0.00     0.167 HD
ATOM     42  C   UNL A   1      40.025  30.078  30.138  1.00  0.00     0.034 A 
ATOM     43  C   UNL A   1      45.845  27.972  26.800  1.00  0.00     0.034 A 
ATOM     44  C   UNL A   1      41.084  31.047  30.083  1.00  0.00     0.049 A 
ATOM     45  C   UNL A   1      45.702  29.363  27.360  1.00  0.00     0.074 A 
ATOM     46  C   UNL A   1      41.102  32.332  30.594  1.00  0.00     0.029 A 
ATOM     47  N   UNL A   1      42.314  30.839  29.478  1.00  0.00    -0.354 N 
ATOM     48  N   UNL A   1      44.715  29.875  28.058  1.00  0.00    -0.248 NA
ATOM     49  C   UNL A   1      46.817  30.293  27.130  1.00  0.00     0.031 C 
ATOM     50  C   UNL A   1      42.337  32.908  30.281  1.00  0.00     0.029 A 
ATOM     51  C   UNL A   1      43.099  31.971  29.601  1.00  0.00     0.049 A 
ATOM     52  H   UNL A   1      42.588  30.008  29.027  1.00  0.00     0.167 HD
ATOM     53  C   UNL A   1      45.110  31.166  28.389  1.00  0.00     0.074 A 
ATOM     54  C   UNL A   1      46.428  31.356  27.821  1.00  0.00     0.031 C 
ATOM     55  C   UNL A   1      44.438  32.112  29.090  1.00  0.00     0.034 A 
BRANCH  42  56
ATOM     56  C   UNL A   1      38.736  30.462  30.812  1.00  0.00     0.023 A 
ATOM     57  C   UNL A   1      38.566  30.210  32.188  1.00  0.00     0.012 A 
ATOM     58  C   UNL A   1      37.716  31.121  30.098  1.00  0.00     0.148 A 
ATOM     59  C   UNL A   1      37.390  30.584  32.838  1.00  0.00     0.002 A 
ATOM     60  C   UNL A   1      36.565  31.528  30.761  1.00  0.00     0.091 A 
ATOM     61  F   UNL A   1      37.887  31.329  28.784  1.00  0.00    -0.205 F 
ATOM     62  C   UNL A   1      36.395  31.252  32.127  1.00  0.00     0.022 A 
BRANCH  60  63
ATOM     63  S   UNL A   1      35.260  32.461  29.951  1.00  0.00     0.127 S 
ATOM     64  O   UNL A   1      34.319  32.667  31.051  1.00  0.00    -0.237 OA
ATOM     65  O   UNL A   1      35.966  33.667  29.518  1.00  0.00    -0.237 OA
ATOM     66  O   UNL A   1      34.779  31.618  28.866  1.00  0.00    -0.744 OA
ENDBRANCH  60  63
ENDBRANCH  42  56
BRANCH  43  67
ATOM     67  C   UNL A   1      47.066  27.568  26.049  1.00  0.00     0.023 A 
ATOM     68  C   UNL A   1      48.104  26.902  26.727  1.00  0.00     0.012 A 
ATOM     69  C   UNL A   1      47.195  27.815  24.668  1.00  0.00     0.148 A 
ATOM     70  C   UNL A   1      49.263  26.517  26.051  1.00  0.00     0.002 A 
ATOM     71  C   UNL A   1      48.329  27.381  23.990  1.00  0.00     0.091 A 
ATOM     72  F   UNL A   1      46.203  28.464  24.043  1.00  0.00    -0.205 F 
ATOM     73  C   UNL A   1      49.371  26.746  24.682  1.00  0.00     0.022 A 
BRANCH  71  74
ATOM     74  S   UNL A   1      48.497  27.526  22.207  1.00  0.00     0.127 S 
ATOM     75  O   UNL A   1      48.665  26.131  21.808  1.00  0.00    -0.237 OA
ATOM     76  O   UNL A   1      47.214  28.124  21.829  1.00  0.00    -0.237 OA
ATOM     77  O   UNL A   1      49.648  28.390  21.991  1.00  0.00    -0.744 OA
ENDBRANCH  71  74
ENDBRANCH  43  67
BRANCH  55  78
ATOM     78  C   UNL A   1      45.132  33.423  29.346  1.00  0.00     0.023 A 
ATOM     79  C   UNL A   1      45.933  33.581  30.493  1.00  0.00     0.012 A 
ATOM     80  C   UNL A   1      45.076  34.455  28.389  1.00  0.00     0.148 A 
ATOM     81  C   UNL A   1      46.653  34.759  30.694  1.00  0.00     0.002 A 
ATOM     82  C   UNL A   1      45.833  35.605  28.572  1.00  0.00     0.091 A 
ATOM     83  F   UNL A   1      44.294  34.287  27.312  1.00  0.00    -0.205 F 
ATOM     84  C   UNL A   1      46.614  35.763  29.728  1.00  0.00     0.022 A 
BRANCH  82  85
ATOM     85  S   UNL A   1      45.925  36.905  27.335  1.00  0.00     0.127 S 
ATOM     86  O   UNL A   1      44.551  37.401  27.322  1.00  0.00    -0.237 OA
ATOM     87  O   UNL A   1      46.900  37.825  27.924  1.00  0.00    -0.237 OA
ATOM     88  O   UNL A   1      46.367  36.261  26.105  1.00  0.00    -0.744 OA
ENDBRANCH  82  85
ENDBRANCH  55  78
ENDBRANCH  29  30
ENDBRANCH  22  24
ENDBRANCH  21  22
ENDBRANCH   1  21
TORSDOF 18
ENDMDL
MODEL 3
REMARK VINA RESULT:     -11.1      1.283      1.968
REMARK SMILES CC1=C(C)C(=O)N(C[C@H](CC(C)C)C(=O)OCCOC(=O)c2ccc(-c3c4nc(c(-c5cccc(S(=O)(=O)[O-])c5F)c5ccc([nH]5)c(-c5cccc(S(=O)(=O)[O-])c5F)c5nc(c(-c6cccc(S(=O)(=O)[O-])c6F)c6ccc3[nH]6)C=C5)C=C4)cc2)C1=O
REMARK SMILES IDX 18 1 17 2 16 3 14 4 15 5 9 6 8 7 7 8 1 9 2 10 3 11 85 12
REMARK SMILES IDX 4 13 5 14 86 15 6 16 10 17 11 18 12 19 13 20 19 21 20 22
REMARK SMILES IDX 21 23 22 24 23 25 84 26 24 27 83 28 25 29 26 30 27 31 77 32
REMARK SMILES IDX 28 33 82 34 76 35 78 36 29 37 81 38 75 39 74 40 30 42 62 43
REMARK SMILES IDX 42 44 61 45 43 46 46 47 60 48 79 49 44 50 45 51 59 53 80 54
REMARK SMILES IDX 47 55 31 56 32 57 40 58 33 59 35 60 41 61 34 62 36 63 37 64
REMARK SMILES IDX 38 65 39 66 63 67 64 68 72 69 65 70 67 71 73 72 66 73 68 74
REMARK SMILES IDX 69 75 70 76 71 77 48 78 49 79 57 80 50 81 52 82 58 83 51 84
REMARK SMILES IDX 53 85 54 86 55 87 56 88
REMARK H PARENT 78 41 46 52
REMARK Flexibility Score: inf
ROOT
ATOM      1  C   UNL A   1      37.614  20.552  24.910  1.00  0.00     0.275 C 
ENDROOT
BRANCH   1   2
ATOM      2  C   UNL A   1      36.095  20.419  25.037  1.00  0.00     0.274 C 
BRANCH   2   3
ATOM      3  O   UNL A   1      35.529  21.463  25.856  1.00  0.00    -0.462 OA
BRANCH   3   4
ATOM      4  C   UNL A   1      34.182  21.439  26.053  1.00  0.00     0.310 C 
ATOM      5  O   UNL A   1      33.539  20.438  26.344  1.00  0.00    -0.252 OA
BRANCH   4   6
ATOM      6  C   UNL A   1      33.525  22.787  25.769  1.00  0.00     0.119 C 
BRANCH   6   7
ATOM      7  C   UNL A   1      34.635  23.819  25.483  1.00  0.00     0.144 C 
BRANCH   7   8
ATOM      8  N   UNL A   1      34.252  24.833  24.516  1.00  0.00    -0.274 N 
ATOM      9  C   UNL A   1      32.807  25.803  21.298  1.00  0.00     0.051 C 
ATOM     10  C   UNL A   1      33.380  25.807  22.662  1.00  0.00     0.023 C 
ATOM     11  C   UNL A   1      33.303  26.710  23.645  1.00  0.00     0.023 C 
ATOM     12  C   UNL A   1      34.118  24.643  23.178  1.00  0.00     0.256 C 
ATOM     13  C   UNL A   1      32.625  28.025  23.672  1.00  0.00     0.051 C 
ATOM     14  C   UNL A   1      33.894  26.100  24.846  1.00  0.00     0.256 C 
ATOM     15  O   UNL A   1      34.496  23.725  22.488  1.00  0.00    -0.269 OA
ATOM     16  O   UNL A   1      33.986  26.656  25.926  1.00  0.00    -0.269 OA
ENDBRANCH   7   8
ENDBRANCH   6   7
BRANCH   6  17
ATOM     17  C   UNL A   1      32.473  23.172  26.832  1.00  0.00     0.020 C 
BRANCH  17  18
ATOM     18  C   UNL A   1      31.109  23.653  26.293  1.00  0.00    -0.017 C 
ATOM     19  C   UNL A   1      30.967  23.441  24.786  1.00  0.00     0.007 C 
ATOM     20  C   UNL A   1      29.967  22.947  27.030  1.00  0.00     0.007 C 
ENDBRANCH  17  18
ENDBRANCH   6  17
ENDBRANCH   4   6
ENDBRANCH   3   4
ENDBRANCH   2   3
ENDBRANCH   1   2
BRANCH   1  21
ATOM     21  O   UNL A   1      38.115  21.602  25.748  1.00  0.00    -0.458 OA
BRANCH  21  22
ATOM     22  C   UNL A   1      39.349  21.381  26.257  1.00  0.00     0.338 C 
ATOM     23  O   UNL A   1      40.013  20.363  26.168  1.00  0.00    -0.246 OA
BRANCH  22  24
ATOM     24  C   UNL A   1      39.860  22.629  26.836  1.00  0.00     0.060 A 
ATOM     25  C   UNL A   1      39.331  23.840  26.378  1.00  0.00     0.016 A 
ATOM     26  C   UNL A   1      40.892  22.604  27.774  1.00  0.00     0.016 A 
ATOM     27  C   UNL A   1      39.848  25.044  26.844  1.00  0.00     0.010 A 
ATOM     28  C   UNL A   1      41.411  23.811  28.238  1.00  0.00     0.010 A 
ATOM     29  C   UNL A   1      40.907  25.033  27.760  1.00  0.00    -0.014 A 
BRANCH  29  30
ATOM     30  C   UNL A   1      41.564  26.297  28.155  1.00  0.00     0.031 A 
ATOM     31  C   UNL A   1      40.750  27.349  28.850  1.00  0.00     0.074 A 
ATOM     32  C   UNL A   1      42.856  26.510  27.850  1.00  0.00     0.049 A 
ATOM     33  N   UNL A   1      41.074  28.578  29.153  1.00  0.00    -0.248 NA
ATOM     34  C   UNL A   1      39.385  26.969  29.249  1.00  0.00     0.031 C 
ATOM     35  C   UNL A   1      43.738  25.546  27.192  1.00  0.00     0.029 A 
ATOM     36  N   UNL A   1      43.639  27.622  28.020  1.00  0.00    -0.354 N 
ATOM     37  C   UNL A   1      39.941  29.133  29.732  1.00  0.00     0.074 A 
ATOM     38  C   UNL A   1      38.921  28.108  29.743  1.00  0.00     0.031 C 
ATOM     39  C   UNL A   1      44.933  26.123  26.980  1.00  0.00     0.029 A 
ATOM     40  C   UNL A   1      44.886  27.504  27.453  1.00  0.00     0.049 A 
ATOM     41  H   UNL A   1      43.338  28.426  28.503  1.00  0.00     0.167 HD
ATOM     42  C   UNL A   1      39.773  30.385  30.219  1.00  0.00     0.034 A 
ATOM     43  C   UNL A   1      45.861  28.420  27.300  1.00  0.00     0.034 A 
ATOM     44  C   UNL A   1      40.807  31.383  30.229  1.00  0.00     0.049 A 
ATOM     45  C   UNL A   1      45.643  29.810  27.839  1.00  0.00     0.074 A 
ATOM     46  C   UNL A   1      40.755  32.671  30.731  1.00  0.00     0.029 A 
ATOM     47  N   UNL A   1      42.080  31.204  29.711  1.00  0.00    -0.354 N 
ATOM     48  N   UNL A   1      44.598  30.298  28.465  1.00  0.00    -0.248 NA
ATOM     49  C   UNL A   1      46.746  30.768  27.679  1.00  0.00     0.031 C 
ATOM     50  C   UNL A   1      41.993  33.278  30.499  1.00  0.00     0.029 A 
ATOM     51  C   UNL A   1      42.824  32.358  29.878  1.00  0.00     0.049 A 
ATOM     52  H   UNL A   1      42.407  30.379  29.286  1.00  0.00     0.167 HD
ATOM     53  C   UNL A   1      44.934  31.601  28.812  1.00  0.00     0.074 A 
ATOM     54  C   UNL A   1      46.283  31.825  28.333  1.00  0.00     0.031 C 
ATOM     55  C   UNL A   1      44.191  32.533  29.459  1.00  0.00     0.034 A 
BRANCH  42  56
ATOM     56  C   UNL A   1      38.431  30.738  30.802  1.00  0.00     0.023 A 
ATOM     57  C   UNL A   1      38.152  30.430  32.148  1.00  0.00     0.012 A 
ATOM     58  C   UNL A   1      37.468  31.422  30.034  1.00  0.00     0.148 A 
ATOM     59  C   UNL A   1      36.925  30.774  32.715  1.00  0.00     0.002 A 
ATOM     60  C   UNL A   1      36.265  31.799  30.617  1.00  0.00     0.091 A 
ATOM     61  F   UNL A   1      37.744  31.683  28.748  1.00  0.00    -0.205 F 
ATOM     62  C   UNL A   1      35.987  31.467  31.953  1.00  0.00     0.022 A 
BRANCH  60  63
ATOM     63  S   UNL A   1      35.023  32.759  29.742  1.00  0.00     0.127 S 
ATOM     64  O   UNL A   1      34.110  33.117  30.826  1.00  0.00    -0.237 OA
ATOM     65  O   UNL A   1      35.811  33.873  29.215  1.00  0.00    -0.237 OA
ATOM     66  O   UNL A   1      34.473  31.872  28.727  1.00  0.00    -0.744 OA
ENDBRANCH  60  63
ENDBRANCH  42  56
BRANCH  43  67
ATOM     67  C   UNL A   1      47.141  28.045  26.637  1.00  0.00     0.023 A 
ATOM     68  C   UNL A   1      48.270  27.761  27.427  1.00  0.00     0.012 A 
ATOM     69  C   UNL A   1      47.240  27.943  25.235  1.00  0.00     0.148 A 
ATOM     70  C   UNL A   1      49.485  27.414  26.833  1.00  0.00     0.002 A 
ATOM     71  C   UNL A   1      48.438  27.544  24.652  1.00  0.00     0.091 A 
ATOM     72  F   UNL A   1      46.158  28.233  24.498  1.00  0.00    -0.205 F 
ATOM     73  C   UNL A   1      49.566  27.295  25.449  1.00  0.00     0.022 A 
BRANCH  71  74
ATOM     74  S   UNL A   1      48.597  27.248  22.888  1.00  0.00     0.127 S 
ATOM     75  O   UNL A   1      47.637  28.202  22.337  1.00  0.00    -0.237 OA
ATOM     76  O   UNL A   1      50.002  27.584  22.650  1.00  0.00    -0.237 OA
ATOM     77  O   UNL A   1      48.275  25.842  22.695  1.00  0.00    -0.744 OA
ENDBRANCH  71  74
ENDBRANCH  43  67
BRANCH  55  78
ATOM     78  C   UNL A   1      44.831  33.864  29.752  1.00  0.00     0.023 A 
ATOM     79  C   UNL A   1      45.586  34.035  30.927  1.00  0.00     0.012 A 
ATOM     80  C   UNL A   1      44.772  34.904  28.804  1.00  0.00     0.148 A 
ATOM     81  C   UNL A   1      46.258  35.234  31.165  1.00  0.00     0.002 A 
ATOM     82  C   UNL A   1      45.482  36.077  29.025  1.00  0.00     0.091 A 
ATOM     83  F   UNL A   1      44.032  34.722  27.700  1.00  0.00    -0.205 F 
ATOM     84  C   UNL A   1      46.218  36.248  30.208  1.00  0.00     0.022 A 
BRANCH  82  85
ATOM     85  S   UNL A   1      45.571  37.393  27.806  1.00  0.00     0.127 S 
ATOM     86  O   UNL A   1      46.408  38.377  28.490  1.00  0.00    -0.237 OA
ATOM     87  O   UNL A   1      46.216  36.725  26.674  1.00  0.00    -0.237 OA
ATOM     88  O   UNL A   1      44.196  37.808  27.559  1.00  0.00    -0.744 OA
ENDBRANCH  82  85
ENDBRANCH  55  78
ENDBRANCH  29  30
ENDBRANCH  22  24
ENDBRANCH  21  22
ENDBRANCH   1  21
TORSDOF 18
ENDMDL
