MODEL 1
REMARK VINA RESULT:     -11.8      0.000      0.000
REMARK SMILES O=C(OCCOC(=O)c1ncccc1-c1cc(Cl)cc(Cl)c1)c1ccc(-c2c3nc(c(-c4cccc(S(=O)(=O)[O-])c4F)c4ccc([nH]4)c(-c4cccc(S(=O)(=O)[O-])c4F)c4nc(c(-c5cccc(S(=O)(=O)[O-])c5F)c5ccc2[nH]5)C=C4)C=C3)cc1
REMARK SMILES IDX 4 1 3 2 2 3 1 4 23 5 24 6 85 7 25 8 84 9 26 10 27 11 28 12
REMARK SMILES IDX 78 13 29 14 83 15 77 16 79 17 30 18 82 19 76 20 75 21 31 23
REMARK SMILES IDX 63 24 43 25 62 26 44 27 47 28 61 29 80 30 45 31 46 32 60 34
REMARK SMILES IDX 81 35 48 36 32 37 33 38 41 39 34 40 36 41 42 42 35 43 37 44
REMARK SMILES IDX 38 45 39 46 40 47 64 48 65 49 73 50 66 51 68 52 74 53 67 54
REMARK SMILES IDX 69 55 70 56 71 57 72 58 49 59 50 60 58 61 51 62 53 63 59 64
REMARK SMILES IDX 52 65 54 66 55 67 56 68 57 69 5 70 6 71 7 72 8 73 9 74 10 75
REMARK SMILES IDX 14 76 11 77 13 78 12 79 15 80 16 81 22 82 17 83 20 84 18 85
REMARK SMILES IDX 19 86 21 87
REMARK H PARENT 79 22 47 33
REMARK Flexibility Score: inf
ROOT
ATOM      1  C   UNL A   1      31.460  30.467  26.570  1.00  0.00     0.275 C 
ENDROOT
BRANCH   1   2
ATOM      2  O   UNL A   1      32.622  31.298  26.384  1.00  0.00    -0.458 OA
BRANCH   2   3
ATOM      3  C   UNL A   1      33.352  31.998  27.286  1.00  0.00     0.338 C 
ATOM      4  O   UNL A   1      32.964  33.128  27.587  1.00  0.00    -0.246 OA
BRANCH   3   5
ATOM      5  C   UNL A   1      34.644  31.528  27.896  1.00  0.00     0.060 A 
ATOM      6  C   UNL A   1      34.918  30.244  28.369  1.00  0.00     0.016 A 
ATOM      7  C   UNL A   1      35.664  32.495  28.029  1.00  0.00     0.016 A 
ATOM      8  C   UNL A   1      36.158  29.930  28.935  1.00  0.00     0.010 A 
ATOM      9  C   UNL A   1      36.912  32.187  28.589  1.00  0.00     0.010 A 
ATOM     10  C   UNL A   1      37.161  30.896  29.057  1.00  0.00    -0.014 A 
BRANCH  10  11
ATOM     11  C   UNL A   1      38.416  30.513  29.745  1.00  0.00     0.031 A 
ATOM     12  C   UNL A   1      38.608  30.896  31.171  1.00  0.00     0.074 A 
ATOM     13  C   UNL A   1      39.307  29.715  29.129  1.00  0.00     0.049 A 
ATOM     14  N   UNL A   1      39.516  30.479  32.009  1.00  0.00    -0.248 NA
ATOM     15  C   UNL A   1      37.667  31.880  31.725  1.00  0.00     0.031 C 
ATOM     16  C   UNL A   1      39.222  29.359  27.725  1.00  0.00     0.029 A 
ATOM     17  N   UNL A   1      40.411  29.034  29.569  1.00  0.00    -0.354 N 
ATOM     18  C   UNL A   1      39.280  31.173  33.185  1.00  0.00     0.074 A 
ATOM     19  C   UNL A   1      38.137  32.031  32.955  1.00  0.00     0.031 C 
ATOM     20  C   UNL A   1      40.157  28.448  27.424  1.00  0.00     0.029 A 
ATOM     21  C   UNL A   1      40.954  28.195  28.615  1.00  0.00     0.049 A 
ATOM     22  H   UNL A   1      40.781  29.132  30.475  1.00  0.00     0.167 HD
ATOM     23  C   UNL A   1      39.969  31.100  34.345  1.00  0.00     0.034 A 
ATOM     24  C   UNL A   1      41.971  27.313  28.703  1.00  0.00     0.034 A 
ATOM     25  C   UNL A   1      41.121  30.263  34.534  1.00  0.00     0.049 A 
ATOM     26  C   UNL A   1      42.667  27.199  30.032  1.00  0.00     0.074 A 
ATOM     27  C   UNL A   1      41.935  30.152  35.646  1.00  0.00     0.029 A 
ATOM     28  N   UNL A   1      41.634  29.400  33.575  1.00  0.00    -0.354 N 
ATOM     29  N   UNL A   1      42.382  27.806  31.159  1.00  0.00    -0.248 NA
ATOM     30  C   UNL A   1      43.813  26.285  30.110  1.00  0.00     0.031 C 
ATOM     31  C   UNL A   1      42.950  29.234  35.351  1.00  0.00     0.029 A 
ATOM     32  C   UNL A   1      42.750  28.748  34.068  1.00  0.00     0.049 A 
ATOM     33  H   UNL A   1      41.257  29.269  32.675  1.00  0.00     0.167 HD
ATOM     34  C   UNL A   1      43.320  27.362  32.078  1.00  0.00     0.074 A 
ATOM     35  C   UNL A   1      44.138  26.379  31.393  1.00  0.00     0.031 C 
ATOM     36  C   UNL A   1      43.522  27.758  33.359  1.00  0.00     0.034 A 
BRANCH  23  37
ATOM     37  C   UNL A   1      39.492  31.976  35.467  1.00  0.00     0.023 A 
ATOM     38  C   UNL A   1      38.523  31.492  36.369  1.00  0.00     0.012 A 
ATOM     39  C   UNL A   1      39.980  33.288  35.610  1.00  0.00     0.148 A 
ATOM     40  C   UNL A   1      38.018  32.315  37.375  1.00  0.00     0.002 A 
ATOM     41  C   UNL A   1      39.502  34.089  36.639  1.00  0.00     0.091 A 
ATOM     42  F   UNL A   1      40.882  33.732  34.724  1.00  0.00    -0.205 F 
ATOM     43  C   UNL A   1      38.511  33.611  37.513  1.00  0.00     0.022 A 
BRANCH  41  44
ATOM     44  S   UNL A   1      40.102  35.755  36.932  1.00  0.00     0.127 S 
ATOM     45  O   UNL A   1      39.429  36.096  38.186  1.00  0.00    -0.237 OA
ATOM     46  O   UNL A   1      41.543  35.540  37.052  1.00  0.00    -0.237 OA
ATOM     47  O   UNL A   1      39.692  36.542  35.778  1.00  0.00    -0.744 OA
ENDBRANCH  41  44
ENDBRANCH  23  37
BRANCH  24  48
ATOM     48  C   UNL A   1      42.364  26.459  27.541  1.00  0.00     0.023 A 
ATOM     49  C   UNL A   1      43.203  26.981  26.536  1.00  0.00     0.012 A 
ATOM     50  C   UNL A   1      41.922  25.127  27.420  1.00  0.00     0.148 A 
ATOM     51  C   UNL A   1      43.559  26.212  25.423  1.00  0.00     0.002 A 
ATOM     52  C   UNL A   1      42.341  24.342  26.349  1.00  0.00     0.091 A 
ATOM     53  F   UNL A   1      41.097  24.637  28.358  1.00  0.00    -0.205 F 
ATOM     54  C   UNL A   1      43.139  24.888  25.336  1.00  0.00     0.022 A 
BRANCH  52  55
ATOM     55  S   UNL A   1      41.983  22.583  26.293  1.00  0.00     0.127 S 
ATOM     56  O   UNL A   1      42.635  22.178  25.052  1.00  0.00    -0.237 OA
ATOM     57  O   UNL A   1      42.621  22.091  27.516  1.00  0.00    -0.237 OA
ATOM     58  O   UNL A   1      40.526  22.504  26.318  1.00  0.00    -0.744 OA
ENDBRANCH  52  55
ENDBRANCH  24  48
BRANCH  36  59
ATOM     59  C   UNL A   1      44.683  27.136  34.082  1.00  0.00     0.023 A 
ATOM     60  C   UNL A   1      45.961  27.724  33.980  1.00  0.00     0.012 A 
ATOM     61  C   UNL A   1      44.499  26.007  34.898  1.00  0.00     0.148 A 
ATOM     62  C   UNL A   1      47.047  27.172  34.655  1.00  0.00     0.002 A 
ATOM     63  C   UNL A   1      45.576  25.493  35.607  1.00  0.00     0.091 A 
ATOM     64  F   UNL A   1      43.280  25.452  34.957  1.00  0.00    -0.205 F 
ATOM     65  C   UNL A   1      46.852  26.065  35.477  1.00  0.00     0.022 A 
BRANCH  63  66
ATOM     66  S   UNL A   1      45.394  24.130  36.761  1.00  0.00     0.127 S 
ATOM     67  O   UNL A   1      44.459  24.690  37.735  1.00  0.00    -0.237 OA
ATOM     68  O   UNL A   1      44.835  23.077  35.913  1.00  0.00    -0.237 OA
ATOM     69  O   UNL A   1      46.732  23.852  37.262  1.00  0.00    -0.744 OA
ENDBRANCH  63  66
ENDBRANCH  36  59
ENDBRANCH  10  11
ENDBRANCH   3   5
ENDBRANCH   2   3
ENDBRANCH   1   2
BRANCH   1  70
ATOM     70  C   UNL A   1      31.793  28.991  26.778  1.00  0.00     0.275 C 
BRANCH  70  71
ATOM     71  O   UNL A   1      32.089  28.335  25.541  1.00  0.00    -0.457 OA
BRANCH  71  72
ATOM     72  C   UNL A   1      31.461  27.143  25.350  1.00  0.00     0.357 C 
ATOM     73  O   UNL A   1      30.679  26.606  26.120  1.00  0.00    -0.244 OA
BRANCH  72  74
ATOM     74  C   UNL A   1      31.812  26.616  24.006  1.00  0.00     0.156 A 
ATOM     75  N   UNL A   1      32.849  25.727  24.009  1.00  0.00    -0.249 NA
ATOM     76  C   UNL A   1      31.125  27.031  22.860  1.00  0.00     0.015 A 
ATOM     77  C   UNL A   1      33.209  25.205  22.821  1.00  0.00     0.112 A 
ATOM     78  C   UNL A   1      31.596  26.510  21.644  1.00  0.00     0.013 A 
ATOM     79  C   UNL A   1      32.625  25.568  21.622  1.00  0.00     0.021 A 
BRANCH  76  80
ATOM     80  C   UNL A   1      29.959  27.924  22.882  1.00  0.00    -0.013 A 
ATOM     81  C   UNL A   1      28.720  27.470  23.366  1.00  0.00     0.029 A 
ATOM     82  C   UNL A   1      30.047  29.248  22.440  1.00  0.00     0.029 A 
ATOM     83  C   UNL A   1      27.594  28.292  23.356  1.00  0.00     0.043 A 
ATOM     84  C   UNL A   1      28.921  30.076  22.467  1.00  0.00     0.043 A 
ATOM     85  Cl  UNL A   1      26.089  27.682  23.928  1.00  0.00    -0.084 Cl
ATOM     86  C   UNL A   1      27.688  29.600  22.907  1.00  0.00     0.041 A 
ATOM     87  Cl  UNL A   1      29.064  31.718  21.971  1.00  0.00    -0.084 Cl
ENDBRANCH  76  80
ENDBRANCH  72  74
ENDBRANCH  71  72
ENDBRANCH  70  71
ENDBRANCH   1  70
TORSDOF 15
ENDMDL
MODEL 2
REMARK VINA RESULT:     -11.8      2.377      3.349
REMARK SMILES O=C(OCCOC(=O)c1ncccc1-c1cc(Cl)cc(Cl)c1)c1ccc(-c2c3nc(c(-c4cccc(S(=O)(=O)[O-])c4F)c4ccc([nH]4)c(-c4cccc(S(=O)(=O)[O-])c4F)c4nc(c(-c5cccc(S(=O)(=O)[O-])c5F)c5ccc2[nH]5)C=C4)C=C3)cc1
REMARK SMILES IDX 4 1 3 2 2 3 1 4 23 5 24 6 85 7 25 8 84 9 26 10 27 11 28 12
REMARK SMILES IDX 78 13 29 14 83 15 77 16 79 17 30 18 82 19 76 20 75 21 31 23
REMARK SMILES IDX 63 24 43 25 62 26 44 27 47 28 61 29 80 30 45 31 46 32 60 34
REMARK SMILES IDX 81 35 48 36 32 37 33 38 41 39 34 40 36 41 42 42 35 43 37 44
REMARK SMILES IDX 38 45 39 46 40 47 64 48 65 49 73 50 66 51 68 52 74 53 67 54
REMARK SMILES IDX 69 55 70 56 71 57 72 58 49 59 50 60 58 61 51 62 53 63 59 64
REMARK SMILES IDX 52 65 54 66 55 67 56 68 57 69 5 70 6 71 7 72 8 73 9 74 10 75
REMARK SMILES IDX 14 76 11 77 13 78 12 79 15 80 16 81 22 82 17 83 20 84 18 85
REMARK SMILES IDX 19 86 21 87
REMARK H PARENT 79 22 47 33
REMARK Flexibility Score: inf
ROOT
ATOM      1  C   UNL A   1      31.607  30.133  26.656  1.00  0.00     0.275 C 
ENDROOT
BRANCH   1   2
ATOM      2  O   UNL A   1      32.828  30.872  26.466  1.00  0.00    -0.458 OA
BRANCH   2   3
ATOM      3  C   UNL A   1      33.571  31.580  27.351  1.00  0.00     0.338 C 
ATOM      4  O   UNL A   1      33.167  32.698  27.676  1.00  0.00    -0.246 OA
BRANCH   3   5
ATOM      5  C   UNL A   1      34.893  31.135  27.914  1.00  0.00     0.060 A 
ATOM      6  C   UNL A   1      35.211  29.855  28.368  1.00  0.00     0.016 A 
ATOM      7  C   UNL A   1      35.895  32.124  28.019  1.00  0.00     0.016 A 
ATOM      8  C   UNL A   1      36.476  29.565  28.890  1.00  0.00     0.010 A 
ATOM      9  C   UNL A   1      37.168  31.840  28.535  1.00  0.00     0.010 A 
ATOM     10  C   UNL A   1      37.462  30.552  28.985  1.00  0.00    -0.014 A 
BRANCH  10  11
ATOM     11  C   UNL A   1      38.747  30.193  29.628  1.00  0.00     0.031 A 
ATOM     12  C   UNL A   1      39.010  30.637  31.025  1.00  0.00     0.074 A 
ATOM     13  C   UNL A   1      39.604  29.364  29.005  1.00  0.00     0.049 A 
ATOM     14  N   UNL A   1      39.956  30.252  31.835  1.00  0.00    -0.248 NA
ATOM     15  C   UNL A   1      38.099  31.649  31.580  1.00  0.00     0.031 C 
ATOM     16  C   UNL A   1      39.450  28.948  27.624  1.00  0.00     0.029 A 
ATOM     17  N   UNL A   1      40.726  28.697  29.420  1.00  0.00    -0.354 N 
ATOM     18  C   UNL A   1      39.779  30.997  32.989  1.00  0.00     0.074 A 
ATOM     19  C   UNL A   1      38.629  31.851  32.778  1.00  0.00     0.031 C 
ATOM     20  C   UNL A   1      40.366  28.020  27.318  1.00  0.00     0.029 A 
ATOM     21  C   UNL A   1      41.220  27.814  28.479  1.00  0.00     0.049 A 
ATOM     22  H   UNL A   1      41.140  28.832  30.302  1.00  0.00     0.167 HD
ATOM     23  C   UNL A   1      40.523  30.971  34.117  1.00  0.00     0.034 A 
ATOM     24  C   UNL A   1      42.237  26.932  28.556  1.00  0.00     0.034 A 
ATOM     25  C   UNL A   1      41.681  30.137  34.287  1.00  0.00     0.049 A 
ATOM     26  C   UNL A   1      42.996  26.872  29.854  1.00  0.00     0.074 A 
ATOM     27  C   UNL A   1      42.547  30.071  35.362  1.00  0.00     0.029 A 
ATOM     28  N   UNL A   1      42.143  29.231  33.342  1.00  0.00    -0.354 N 
ATOM     29  N   UNL A   1      42.768  27.529  30.965  1.00  0.00    -0.248 NA
ATOM     30  C   UNL A   1      44.142  25.956  29.916  1.00  0.00     0.031 C 
ATOM     31  C   UNL A   1      43.543  29.135  35.059  1.00  0.00     0.029 A 
ATOM     32  C   UNL A   1      43.280  28.595  33.809  1.00  0.00     0.049 A 
ATOM     33  H   UNL A   1      41.722  29.063  32.468  1.00  0.00     0.167 HD
ATOM     34  C   UNL A   1      43.749  27.120  31.857  1.00  0.00     0.074 A 
ATOM     35  C   UNL A   1      44.530  26.104  31.176  1.00  0.00     0.031 C 
ATOM     36  C   UNL A   1      44.014  27.571  33.107  1.00  0.00     0.034 A 
BRANCH  23  37
ATOM     37  C   UNL A   1      40.104  31.898  35.221  1.00  0.00     0.023 A 
ATOM     38  C   UNL A   1      40.701  33.171  35.330  1.00  0.00     0.012 A 
ATOM     39  C   UNL A   1      39.143  31.499  36.168  1.00  0.00     0.148 A 
ATOM     40  C   UNL A   1      40.374  34.018  36.388  1.00  0.00     0.002 A 
ATOM     41  C   UNL A   1      38.793  32.363  37.197  1.00  0.00     0.091 A 
ATOM     42  F   UNL A   1      38.610  30.274  36.057  1.00  0.00    -0.205 F 
ATOM     43  C   UNL A   1      39.417  33.616  37.318  1.00  0.00     0.022 A 
BRANCH  41  44
ATOM     44  S   UNL A   1      37.541  31.963  38.419  1.00  0.00     0.127 S 
ATOM     45  O   UNL A   1      37.244  30.567  38.091  1.00  0.00    -0.237 OA
ATOM     46  O   UNL A   1      38.270  32.153  39.671  1.00  0.00    -0.237 OA
ATOM     47  O   UNL A   1      36.445  32.895  38.197  1.00  0.00    -0.744 OA
ENDBRANCH  41  44
ENDBRANCH  23  37
BRANCH  24  48
ATOM     48  C   UNL A   1      42.570  26.026  27.414  1.00  0.00     0.023 A 
ATOM     49  C   UNL A   1      43.406  26.482  26.375  1.00  0.00     0.012 A 
ATOM     50  C   UNL A   1      42.075  24.710  27.347  1.00  0.00     0.148 A 
ATOM     51  C   UNL A   1      43.708  25.664  25.281  1.00  0.00     0.002 A 
ATOM     52  C   UNL A   1      42.439  23.875  26.294  1.00  0.00     0.091 A 
ATOM     53  F   UNL A   1      41.253  24.283  28.318  1.00  0.00    -0.205 F 
ATOM     54  C   UNL A   1      43.235  24.355  25.247  1.00  0.00     0.022 A 
BRANCH  52  55
ATOM     55  S   UNL A   1      42.011  22.130  26.304  1.00  0.00     0.127 S 
ATOM     56  O   UNL A   1      42.816  21.612  25.202  1.00  0.00    -0.237 OA
ATOM     57  O   UNL A   1      42.443  21.706  27.637  1.00  0.00    -0.237 OA
ATOM     58  O   UNL A   1      40.564  22.106  26.119  1.00  0.00    -0.744 OA
ENDBRANCH  52  55
ENDBRANCH  24  48
BRANCH  36  59
ATOM     59  C   UNL A   1      45.207  26.975  33.800  1.00  0.00     0.023 A 
ATOM     60  C   UNL A   1      46.471  27.580  33.649  1.00  0.00     0.012 A 
ATOM     61  C   UNL A   1      45.065  25.854  34.636  1.00  0.00     0.148 A 
ATOM     62  C   UNL A   1      47.587  27.052  34.295  1.00  0.00     0.002 A 
ATOM     63  C   UNL A   1      46.172  25.364  35.315  1.00  0.00     0.091 A 
ATOM     64  F   UNL A   1      43.857  25.282  34.741  1.00  0.00    -0.205 F 
ATOM     65  C   UNL A   1      47.435  25.953  35.137  1.00  0.00     0.022 A 
BRANCH  63  66
ATOM     66  S   UNL A   1      46.047  24.014  36.491  1.00  0.00     0.127 S 
ATOM     67  O   UNL A   1      47.445  23.826  36.876  1.00  0.00    -0.237 OA
ATOM     68  O   UNL A   1      45.197  24.587  37.534  1.00  0.00    -0.237 OA
ATOM     69  O   UNL A   1      45.443  22.907  35.763  1.00  0.00    -0.744 OA
ENDBRANCH  63  66
ENDBRANCH  36  59
ENDBRANCH  10  11
ENDBRANCH   3   5
ENDBRANCH   2   3
ENDBRANCH   1   2
BRANCH   1  70
ATOM     70  C   UNL A   1      31.807  28.797  27.371  1.00  0.00     0.275 C 
BRANCH  70  71
ATOM     71  O   UNL A   1      31.749  27.695  26.459  1.00  0.00    -0.457 OA
BRANCH  71  72
ATOM     72  C   UNL A   1      32.869  27.498  25.714  1.00  0.00     0.357 C 
ATOM     73  O   UNL A   1      34.020  27.709  26.066  1.00  0.00    -0.244 OA
BRANCH  72  74
ATOM     74  C   UNL A   1      32.487  26.901  24.407  1.00  0.00     0.156 A 
ATOM     75  N   UNL A   1      31.819  27.756  23.578  1.00  0.00    -0.249 NA
ATOM     76  C   UNL A   1      32.792  25.571  24.099  1.00  0.00     0.015 A 
ATOM     77  C   UNL A   1      31.454  27.277  22.374  1.00  0.00     0.112 A 
ATOM     78  C   UNL A   1      32.319  25.108  22.861  1.00  0.00     0.013 A 
ATOM     79  C   UNL A   1      31.671  25.971  21.976  1.00  0.00     0.021 A 
BRANCH  76  80
ATOM     80  C   UNL A   1      33.584  24.690  24.967  1.00  0.00    -0.013 A 
ATOM     81  C   UNL A   1      34.973  24.569  24.789  1.00  0.00     0.029 A 
ATOM     82  C   UNL A   1      32.988  23.958  26.000  1.00  0.00     0.029 A 
ATOM     83  C   UNL A   1      35.733  23.707  25.578  1.00  0.00     0.043 A 
ATOM     84  C   UNL A   1      33.763  23.122  26.809  1.00  0.00     0.043 A 
ATOM     85  Cl  UNL A   1      37.425  23.568  25.301  1.00  0.00    -0.084 Cl
ATOM     86  C   UNL A   1      35.132  22.979  26.593  1.00  0.00     0.041 A 
ATOM     87  Cl  UNL A   1      33.020  22.275  28.110  1.00  0.00    -0.084 Cl
ENDBRANCH  76  80
ENDBRANCH  72  74
ENDBRANCH  71  72
ENDBRANCH  70  71
ENDBRANCH   1  70
TORSDOF 15
ENDMDL
MODEL 3
REMARK VINA RESULT:     -11.8      4.976     10.077
REMARK SMILES O=C(OCCOC(=O)c1ncccc1-c1cc(Cl)cc(Cl)c1)c1ccc(-c2c3nc(c(-c4cccc(S(=O)(=O)[O-])c4F)c4ccc([nH]4)c(-c4cccc(S(=O)(=O)[O-])c4F)c4nc(c(-c5cccc(S(=O)(=O)[O-])c5F)c5ccc2[nH]5)C=C4)C=C3)cc1
REMARK SMILES IDX 4 1 3 2 2 3 1 4 23 5 24 6 85 7 25 8 84 9 26 10 27 11 28 12
REMARK SMILES IDX 78 13 29 14 83 15 77 16 79 17 30 18 82 19 76 20 75 21 31 23
REMARK SMILES IDX 63 24 43 25 62 26 44 27 47 28 61 29 80 30 45 31 46 32 60 34
REMARK SMILES IDX 81 35 48 36 32 37 33 38 41 39 34 40 36 41 42 42 35 43 37 44
REMARK SMILES IDX 38 45 39 46 40 47 64 48 65 49 73 50 66 51 68 52 74 53 67 54
REMARK SMILES IDX 69 55 70 56 71 57 72 58 49 59 50 60 58 61 51 62 53 63 59 64
REMARK SMILES IDX 52 65 54 66 55 67 56 68 57 69 5 70 6 71 7 72 8 73 9 74 10 75
REMARK SMILES IDX 14 76 11 77 13 78 12 79 15 80 16 81 22 82 17 83 20 84 18 85
REMARK SMILES IDX 19 86 21 87
REMARK H PARENT 79 22 47 33
REMARK Flexibility Score: inf
ROOT
ATOM      1  C   UNL A   1      36.494  21.483  24.509  1.00  0.00     0.275 C 
ENDROOT
BRANCH   1   2
ATOM      2  O   UNL A   1      37.247  21.380  25.733  1.00  0.00    -0.458 OA
BRANCH   2   3
ATOM      3  C   UNL A   1      38.572  21.552  25.963  1.00  0.00     0.338 C 
ATOM      4  O   UNL A   1      39.317  20.588  25.781  1.00  0.00    -0.246 OA
BRANCH   3   5
ATOM      5  C   UNL A   1      39.195  22.814  26.495  1.00  0.00     0.060 A 
ATOM      6  C   UNL A   1      38.828  24.120  26.171  1.00  0.00     0.016 A 
ATOM      7  C   UNL A   1      40.279  22.651  27.386  1.00  0.00     0.016 A 
ATOM      8  C   UNL A   1      39.497  25.218  26.720  1.00  0.00     0.010 A 
ATOM      9  C   UNL A   1      40.951  23.747  27.946  1.00  0.00     0.010 A 
ATOM     10  C   UNL A   1      40.566  25.044  27.604  1.00  0.00    -0.014 A 
BRANCH  10  11
ATOM     11  C   UNL A   1      41.282  26.252  28.077  1.00  0.00     0.031 A 
ATOM     12  C   UNL A   1      42.647  26.539  27.554  1.00  0.00     0.074 A 
ATOM     13  C   UNL A   1      40.654  27.144  28.863  1.00  0.00     0.049 A 
ATOM     14  N   UNL A   1      43.345  27.634  27.665  1.00  0.00    -0.248 NA
ATOM     15  C   UNL A   1      43.316  25.454  26.820  1.00  0.00     0.031 C 
ATOM     16  C   UNL A   1      39.356  26.902  29.466  1.00  0.00     0.029 A 
ATOM     17  N   UNL A   1      40.964  28.416  29.265  1.00  0.00    -0.354 N 
ATOM     18  C   UNL A   1      44.554  27.365  27.044  1.00  0.00     0.074 A 
ATOM     19  C   UNL A   1      44.490  26.006  26.549  1.00  0.00     0.031 C 
ATOM     20  C   UNL A   1      38.919  28.011  30.077  1.00  0.00     0.029 A 
ATOM     21  C   UNL A   1      39.943  29.038  29.957  1.00  0.00     0.049 A 
ATOM     22  H   UNL A   1      41.830  28.845  29.080  1.00  0.00     0.167 HD
ATOM     23  C   UNL A   1      45.621  28.184  26.912  1.00  0.00     0.034 A 
ATOM     24  C   UNL A   1      39.845  30.300  30.425  1.00  0.00     0.034 A 
ATOM     25  C   UNL A   1      45.669  29.518  27.443  1.00  0.00     0.049 A 
ATOM     26  C   UNL A   1      41.019  31.210  30.193  1.00  0.00     0.074 A 
ATOM     27  C   UNL A   1      46.718  30.418  27.423  1.00  0.00     0.029 A 
ATOM     28  N   UNL A   1      44.619  30.140  28.106  1.00  0.00    -0.354 N 
ATOM     29  N   UNL A   1      42.127  30.965  29.534  1.00  0.00    -0.248 NA
ATOM     30  C   UNL A   1      40.937  32.564  30.757  1.00  0.00     0.031 C 
ATOM     31  C   UNL A   1      46.307  31.579  28.090  1.00  0.00     0.029 A 
ATOM     32  C   UNL A   1      44.992  31.414  28.498  1.00  0.00     0.049 A 
ATOM     33  H   UNL A   1      43.738  29.734  28.272  1.00  0.00     0.167 HD
ATOM     34  C   UNL A   1      42.882  32.125  29.615  1.00  0.00     0.074 A 
ATOM     35  C   UNL A   1      42.073  33.097  30.327  1.00  0.00     0.031 C 
ATOM     36  C   UNL A   1      44.146  32.358  29.184  1.00  0.00     0.034 A 
BRANCH  23  37
ATOM     37  C   UNL A   1      46.813  27.626  26.191  1.00  0.00     0.023 A 
ATOM     38  C   UNL A   1      46.914  27.770  24.792  1.00  0.00     0.012 A 
ATOM     39  C   UNL A   1      47.817  26.933  26.892  1.00  0.00     0.148 A 
ATOM     40  C   UNL A   1      47.979  27.198  24.097  1.00  0.00     0.002 A 
ATOM     41  C   UNL A   1      48.895  26.400  26.198  1.00  0.00     0.091 A 
ATOM     42  F   UNL A   1      47.683  26.787  28.218  1.00  0.00    -0.205 F 
ATOM     43  C   UNL A   1      48.972  26.519  24.800  1.00  0.00     0.022 A 
BRANCH  41  44
ATOM     44  S   UNL A   1      50.248  25.547  27.012  1.00  0.00     0.127 S 
ATOM     45  O   UNL A   1      50.659  26.532  28.013  1.00  0.00    -0.237 OA
ATOM     46  O   UNL A   1      49.577  24.367  27.555  1.00  0.00    -0.237 OA
ATOM     47  O   UNL A   1      51.234  25.271  25.977  1.00  0.00    -0.744 OA
ENDBRANCH  41  44
ENDBRANCH  23  37
BRANCH  24  48
ATOM     48  C   UNL A   1      38.606  30.781  31.111  1.00  0.00     0.023 A 
ATOM     49  C   UNL A   1      38.482  30.655  32.509  1.00  0.00     0.012 A 
ATOM     50  C   UNL A   1      37.549  31.374  30.395  1.00  0.00     0.148 A 
ATOM     51  C   UNL A   1      37.322  31.070  33.170  1.00  0.00     0.002 A 
ATOM     52  C   UNL A   1      36.428  31.854  31.066  1.00  0.00     0.091 A 
ATOM     53  F   UNL A   1      37.650  31.466  29.060  1.00  0.00    -0.205 F 
ATOM     54  C   UNL A   1      36.299  31.682  32.450  1.00  0.00     0.022 A 
BRANCH  52  55
ATOM     55  S   UNL A   1      35.175  32.816  30.210  1.00  0.00     0.127 S 
ATOM     56  O   UNL A   1      35.951  33.941  29.699  1.00  0.00    -0.237 OA
ATOM     57  O   UNL A   1      34.700  31.879  29.190  1.00  0.00    -0.237 OA
ATOM     58  O   UNL A   1      34.183  33.122  31.235  1.00  0.00    -0.744 OA
ENDBRANCH  52  55
ENDBRANCH  24  48
BRANCH  36  59
ATOM     59  C   UNL A   1      44.725  33.711  29.492  1.00  0.00     0.023 A 
ATOM     60  C   UNL A   1      45.451  33.900  30.685  1.00  0.00     0.012 A 
ATOM     61  C   UNL A   1      44.593  34.772  28.580  1.00  0.00     0.148 A 
ATOM     62  C   UNL A   1      46.007  35.142  30.983  1.00  0.00     0.002 A 
ATOM     63  C   UNL A   1      45.194  35.991  28.859  1.00  0.00     0.091 A 
ATOM     64  F   UNL A   1      43.876  34.573  27.465  1.00  0.00    -0.205 F 
ATOM     65  C   UNL A   1      45.890  36.183  30.064  1.00  0.00     0.022 A 
BRANCH  63  66
ATOM     66  S   UNL A   1      45.173  37.354  27.691  1.00  0.00     0.127 S 
ATOM     67  O   UNL A   1      45.808  38.419  28.466  1.00  0.00    -0.237 OA
ATOM     68  O   UNL A   1      45.982  36.832  26.590  1.00  0.00    -0.237 OA
ATOM     69  O   UNL A   1      43.771  37.570  27.358  1.00  0.00    -0.744 OA
ENDBRANCH  63  66
ENDBRANCH  36  59
ENDBRANCH  10  11
ENDBRANCH   3   5
ENDBRANCH   2   3
ENDBRANCH   1   2
BRANCH   1  70
ATOM     70  C   UNL A   1      36.533  22.877  23.884  1.00  0.00     0.275 C 
BRANCH  70  71
ATOM     71  O   UNL A   1      35.561  23.747  24.471  1.00  0.00    -0.457 OA
BRANCH  71  72
ATOM     72  C   UNL A   1      34.417  23.908  23.753  1.00  0.00     0.357 C 
ATOM     73  O   UNL A   1      34.340  24.192  22.567  1.00  0.00    -0.244 OA
BRANCH  72  74
ATOM     74  C   UNL A   1      33.249  23.605  24.622  1.00  0.00     0.156 A 
ATOM     75  N   UNL A   1      33.011  22.271  24.790  1.00  0.00    -0.249 NA
ATOM     76  C   UNL A   1      32.479  24.628  25.187  1.00  0.00     0.015 A 
ATOM     77  C   UNL A   1      31.971  21.932  25.576  1.00  0.00     0.112 A 
ATOM     78  C   UNL A   1      31.365  24.211  25.933  1.00  0.00     0.013 A 
ATOM     79  C   UNL A   1      31.122  22.856  26.157  1.00  0.00     0.021 A 
BRANCH  76  80
ATOM     80  C   UNL A   1      32.798  26.056  25.065  1.00  0.00    -0.013 A 
ATOM     81  C   UNL A   1      33.560  26.706  26.051  1.00  0.00     0.029 A 
ATOM     82  C   UNL A   1      32.369  26.807  23.965  1.00  0.00     0.029 A 
ATOM     83  C   UNL A   1      33.838  28.070  25.970  1.00  0.00     0.043 A 
ATOM     84  C   UNL A   1      32.681  28.167  23.874  1.00  0.00     0.043 A 
ATOM     85  Cl  UNL A   1      34.747  28.830  27.218  1.00  0.00    -0.084 Cl
ATOM     86  C   UNL A   1      33.400  28.808  24.881  1.00  0.00     0.041 A 
ATOM     87  Cl  UNL A   1      32.192  29.058  22.486  1.00  0.00    -0.084 Cl
ENDBRANCH  76  80
ENDBRANCH  72  74
ENDBRANCH  71  72
ENDBRANCH  70  71
ENDBRANCH   1  70
TORSDOF 15
ENDMDL
