MODEL 1
REMARK VINA RESULT:     -12.4      0.000      0.000
REMARK SMILES COc1ccc(-n2c(SCc3cn(-c4ccc(C(=O)OCCOC(=O)c5ccc(-c6c7nc(c(-c8cccc(S(=O)(=O)[O-])c8F)c8ccc([nH]8)c(-c8cccc(S(=O)(=O)[O-])c8F)c8nc(c(-c9cccc(S(=O)(=O)[O-])c9F)c9ccc6[nH]9)C=C8)C=C7)cc5)cc4)nn3)nc3ccccc3c2=O)cc1
REMARK SMILES IDX 20 1 18 2 19 3 17 4 14 5 15 6 90 7 16 8 89 9 13 10 11 11
REMARK SMILES IDX 12 12 92 13 91 14 10 15 9 16 8 17 7 18 100 19 93 20 99 21
REMARK SMILES IDX 101 22 94 23 98 24 95 25 97 26 96 27 6 28 3 29 4 30 103 31
REMARK SMILES IDX 5 32 102 33 2 34 1 35 21 36 22 37 23 38 24 39 25 40 26 41
REMARK SMILES IDX 27 42 88 43 28 44 87 45 29 46 30 47 31 48 81 49 32 50 86 51
REMARK SMILES IDX 80 52 82 53 33 54 85 55 79 56 78 57 34 59 66 60 46 61 65 62
REMARK SMILES IDX 47 63 50 64 64 65 83 66 48 67 49 68 63 70 84 71 51 72 35 73
REMARK SMILES IDX 36 74 44 75 37 76 39 77 45 78 38 79 40 80 41 81 42 82 43 83
REMARK SMILES IDX 67 84 68 85 76 86 69 87 71 88 77 89 70 90 72 91 73 92 74 93
REMARK SMILES IDX 75 94 52 95 53 96 61 97 54 98 56 99 62 100 55 101 57 102
REMARK SMILES IDX 58 103 59 104 60 105
REMARK H PARENT 82 58 50 69
REMARK Flexibility Score: inf
ROOT
ATOM      1  O   UNL A   1      40.800  20.706  26.964  1.00  0.00    -0.458 OA
ENDROOT
BRANCH   1   2
ATOM      2  C   UNL A   1      40.001  20.072  26.069  1.00  0.00     0.338 C 
ATOM      3  O   UNL A   1      40.105  18.912  25.695  1.00  0.00    -0.246 OA
BRANCH   2   4
ATOM      4  C   UNL A   1      38.880  20.958  25.677  1.00  0.00     0.060 A 
ATOM      5  C   UNL A   1      36.841  22.700  24.934  1.00  0.00     0.066 A 
ATOM      6  C   UNL A   1      37.865  23.153  25.775  1.00  0.00     0.029 A 
ATOM      7  C   UNL A   1      36.859  21.396  24.425  1.00  0.00     0.029 A 
ATOM      8  C   UNL A   1      38.874  22.275  26.158  1.00  0.00     0.018 A 
ATOM      9  C   UNL A   1      37.882  20.529  24.794  1.00  0.00     0.018 A 
BRANCH   5  10
ATOM     10  N   UNL A   1      35.755  23.549  24.656  1.00  0.00    -0.220 N 
ATOM     11  C   UNL A   1      34.418  25.255  24.613  1.00  0.00     0.093 A 
ATOM     12  C   UNL A   1      35.269  24.566  25.441  1.00  0.00     0.141 A 
ATOM     13  N   UNL A   1      34.283  24.564  23.444  1.00  0.00    -0.134 NA
ATOM     14  N   UNL A   1      35.135  23.558  23.458  1.00  0.00    -0.062 NA
BRANCH  11  15
ATOM     15  C   UNL A   1      33.805  26.572  24.837  1.00  0.00     0.138 C 
BRANCH  15  16
ATOM     16  S   UNL A   1      33.124  27.337  23.378  1.00  0.00    -0.081 SA
BRANCH  16  17
ATOM     17  C   UNL A   1      31.423  27.762  23.845  1.00  0.00     0.176 A 
ATOM     18  N   UNL A   1      31.326  28.131  25.175  1.00  0.00    -0.255 N 
ATOM     19  C   UNL A   1      31.084  27.106  26.084  1.00  0.00     0.266 A 
ATOM     20  N   UNL A   1      30.521  26.966  23.356  1.00  0.00    -0.223 NA
ATOM     21  C   UNL A   1      30.876  25.767  25.442  1.00  0.00     0.066 A 
ATOM     22  O   UNL A   1      31.086  27.204  27.307  1.00  0.00    -0.268 OA
ATOM     23  C   UNL A   1      30.510  25.761  24.083  1.00  0.00     0.079 A 
ATOM     24  C   UNL A   1      31.266  24.587  26.070  1.00  0.00     0.016 A 
ATOM     25  C   UNL A   1      30.459  24.564  23.374  1.00  0.00     0.029 A 
ATOM     26  C   UNL A   1      31.299  23.404  25.326  1.00  0.00     0.001 A 
ATOM     27  C   UNL A   1      30.879  23.388  23.991  1.00  0.00     0.002 A 
BRANCH  18  28
ATOM     28  C   UNL A   1      31.554  29.475  25.551  1.00  0.00     0.052 A 
ATOM     29  C   UNL A   1      31.657  32.034  26.674  1.00  0.00     0.119 A 
ATOM     30  C   UNL A   1      32.586  31.075  27.065  1.00  0.00     0.048 A 
ATOM     31  C   UNL A   1      30.752  31.755  25.649  1.00  0.00     0.048 A 
ATOM     32  C   UNL A   1      32.511  29.783  26.531  1.00  0.00     0.030 A 
ATOM     33  C   UNL A   1      30.722  30.486  25.064  1.00  0.00     0.030 A 
BRANCH  29  34
ATOM     34  O   UNL A   1      31.710  33.265  27.271  1.00  0.00    -0.497 OA
ATOM     35  C   UNL A   1      33.013  33.572  27.769  1.00  0.00     0.278 C 
ENDBRANCH  29  34
ENDBRANCH  18  28
ENDBRANCH  16  17
ENDBRANCH  15  16
ENDBRANCH  11  15
ENDBRANCH   5  10
ENDBRANCH   2   4
ENDBRANCH   1   2
BRANCH   1  36
ATOM     36  C   UNL A   1      42.203  20.684  26.669  1.00  0.00     0.275 C 
BRANCH  36  37
ATOM     37  C   UNL A   1      42.597  21.898  25.839  1.00  0.00     0.275 C 
BRANCH  37  38
ATOM     38  O   UNL A   1      41.919  23.074  26.277  1.00  0.00    -0.458 OA
BRANCH  38  39
ATOM     39  C   UNL A   1      42.506  24.234  25.906  1.00  0.00     0.338 C 
ATOM     40  O   UNL A   1      43.362  24.389  25.051  1.00  0.00    -0.246 OA
BRANCH  39  41
ATOM     41  C   UNL A   1      42.134  25.286  26.852  1.00  0.00     0.060 A 
ATOM     42  C   UNL A   1      41.293  26.306  26.398  1.00  0.00     0.016 A 
ATOM     43  C   UNL A   1      42.838  25.385  28.061  1.00  0.00     0.016 A 
ATOM     44  C   UNL A   1      41.261  27.493  27.100  1.00  0.00     0.010 A 
ATOM     45  C   UNL A   1      42.816  26.573  28.750  1.00  0.00     0.010 A 
ATOM     46  C   UNL A   1      42.075  27.632  28.230  1.00  0.00    -0.014 A 
BRANCH  46  47
ATOM     47  C   UNL A   1      42.033  28.883  28.959  1.00  0.00     0.031 A 
ATOM     48  C   UNL A   1      43.105  29.821  28.547  1.00  0.00     0.074 A 
ATOM     49  C   UNL A   1      41.023  29.193  29.794  1.00  0.00     0.049 A 
ATOM     50  N   UNL A   1      44.072  30.283  29.267  1.00  0.00    -0.248 NA
ATOM     51  C   UNL A   1      43.216  30.143  27.114  1.00  0.00     0.031 C 
ATOM     52  C   UNL A   1      39.783  28.442  30.008  1.00  0.00     0.029 A 
ATOM     53  N   UNL A   1      40.822  30.333  30.510  1.00  0.00    -0.354 N 
ATOM     54  C   UNL A   1      44.769  31.150  28.428  1.00  0.00     0.074 A 
ATOM     55  C   UNL A   1      44.343  30.853  27.089  1.00  0.00     0.031 C 
ATOM     56  C   UNL A   1      38.866  29.258  30.574  1.00  0.00     0.029 A 
ATOM     57  C   UNL A   1      39.492  30.534  30.871  1.00  0.00     0.049 A 
ATOM     58  H   UNL A   1      41.546  30.955  30.750  1.00  0.00     0.167 HD
ATOM     59  C   UNL A   1      45.418  32.235  28.927  1.00  0.00     0.034 A 
ATOM     60  C   UNL A   1      38.938  31.701  31.284  1.00  0.00     0.034 A 
ATOM     61  C   UNL A   1      45.643  32.102  30.344  1.00  0.00     0.049 A 
ATOM     62  C   UNL A   1      40.042  32.587  31.719  1.00  0.00     0.074 A 
ATOM     63  C   UNL A   1      46.298  31.195  31.151  1.00  0.00     0.029 A 
ATOM     64  N   UNL A   1      44.812  32.819  31.169  1.00  0.00    -0.354 N 
ATOM     65  N   UNL A   1      40.782  32.360  32.766  1.00  0.00    -0.248 NA
ATOM     66  C   UNL A   1      40.599  33.512  30.745  1.00  0.00     0.031 C 
ATOM     67  C   UNL A   1      45.502  31.107  32.330  1.00  0.00     0.029 A 
ATOM     68  C   UNL A   1      44.441  32.006  32.203  1.00  0.00     0.049 A 
ATOM     69  H   UNL A   1      44.533  33.754  31.039  1.00  0.00     0.167 HD
ATOM     70  C   UNL A   1      42.061  32.728  32.367  1.00  0.00     0.074 A 
ATOM     71  C   UNL A   1      41.866  33.540  31.168  1.00  0.00     0.031 C 
ATOM     72  C   UNL A   1      43.160  32.093  32.870  1.00  0.00     0.034 A 
BRANCH  59  73
ATOM     73  C   UNL A   1      45.473  33.587  28.244  1.00  0.00     0.023 A 
ATOM     74  C   UNL A   1      46.756  34.143  28.039  1.00  0.00     0.012 A 
ATOM     75  C   UNL A   1      44.368  34.454  28.073  1.00  0.00     0.148 A 
ATOM     76  C   UNL A   1      46.931  35.503  27.763  1.00  0.00     0.002 A 
ATOM     77  C   UNL A   1      44.543  35.787  27.722  1.00  0.00     0.091 A 
ATOM     78  F   UNL A   1      43.133  34.046  28.375  1.00  0.00    -0.205 F 
ATOM     79  C   UNL A   1      45.824  36.326  27.602  1.00  0.00     0.022 A 
BRANCH  77  80
ATOM     80  S   UNL A   1      43.143  36.885  27.458  1.00  0.00     0.127 S 
ATOM     81  O   UNL A   1      42.612  36.379  26.195  1.00  0.00    -0.237 OA
ATOM     82  O   UNL A   1      42.321  36.606  28.634  1.00  0.00    -0.237 OA
ATOM     83  O   UNL A   1      43.700  38.232  27.425  1.00  0.00    -0.744 OA
ENDBRANCH  77  80
ENDBRANCH  59  73
BRANCH  60  84
ATOM     84  C   UNL A   1      37.565  32.221  31.078  1.00  0.00     0.023 A 
ATOM     85  C   UNL A   1      36.878  31.914  29.886  1.00  0.00     0.012 A 
ATOM     86  C   UNL A   1      36.826  32.775  32.147  1.00  0.00     0.148 A 
ATOM     87  C   UNL A   1      35.497  32.118  29.775  1.00  0.00     0.002 A 
ATOM     88  C   UNL A   1      35.456  32.988  32.028  1.00  0.00     0.091 A 
ATOM     89  F   UNL A   1      37.447  33.005  33.311  1.00  0.00    -0.205 F 
ATOM     90  C   UNL A   1      34.785  32.647  30.847  1.00  0.00     0.022 A 
BRANCH  88  91
ATOM     91  S   UNL A   1      34.470  33.648  33.379  1.00  0.00     0.127 S 
ATOM     92  O   UNL A   1      35.249  33.240  34.550  1.00  0.00    -0.237 OA
ATOM     93  O   UNL A   1      34.492  35.081  33.098  1.00  0.00    -0.237 OA
ATOM     94  O   UNL A   1      33.168  33.002  33.274  1.00  0.00    -0.744 OA
ENDBRANCH  88  91
ENDBRANCH  60  84
BRANCH  72  95
ATOM     95  C   UNL A   1      42.978  31.205  34.074  1.00  0.00     0.023 A 
ATOM     96  C   UNL A   1      42.960  31.705  35.393  1.00  0.00     0.012 A 
ATOM     97  C   UNL A   1      42.643  29.859  33.852  1.00  0.00     0.148 A 
ATOM     98  C   UNL A   1      42.638  30.874  36.468  1.00  0.00     0.002 A 
ATOM     99  C   UNL A   1      42.275  29.048  34.917  1.00  0.00     0.091 A 
ATOM    100  F   UNL A   1      42.663  29.400  32.591  1.00  0.00    -0.205 F 
ATOM    101  C   UNL A   1      42.280  29.549  36.229  1.00  0.00     0.022 A 
BRANCH  99 102
ATOM    102  S   UNL A   1      41.683  27.376  34.654  1.00  0.00     0.127 S 
ATOM    103  O   UNL A   1      41.286  26.977  36.003  1.00  0.00    -0.237 OA
ATOM    104  O   UNL A   1      40.570  27.578  33.724  1.00  0.00    -0.237 OA
ATOM    105  O   UNL A   1      42.805  26.639  34.085  1.00  0.00    -0.744 OA
ENDBRANCH  99 102
ENDBRANCH  72  95
ENDBRANCH  46  47
ENDBRANCH  39  41
ENDBRANCH  38  39
ENDBRANCH  37  38
ENDBRANCH  36  37
ENDBRANCH   1  36
TORSDOF 20
ENDMDL
MODEL 2
REMARK VINA RESULT:     -12.2      3.765     10.094
REMARK SMILES COc1ccc(-n2c(SCc3cn(-c4ccc(C(=O)OCCOC(=O)c5ccc(-c6c7nc(c(-c8cccc(S(=O)(=O)[O-])c8F)c8ccc([nH]8)c(-c8cccc(S(=O)(=O)[O-])c8F)c8nc(c(-c9cccc(S(=O)(=O)[O-])c9F)c9ccc6[nH]9)C=C8)C=C7)cc5)cc4)nn3)nc3ccccc3c2=O)cc1
REMARK SMILES IDX 20 1 18 2 19 3 17 4 14 5 15 6 90 7 16 8 89 9 13 10 11 11
REMARK SMILES IDX 12 12 92 13 91 14 10 15 9 16 8 17 7 18 100 19 93 20 99 21
REMARK SMILES IDX 101 22 94 23 98 24 95 25 97 26 96 27 6 28 3 29 4 30 103 31
REMARK SMILES IDX 5 32 102 33 2 34 1 35 21 36 22 37 23 38 24 39 25 40 26 41
REMARK SMILES IDX 27 42 88 43 28 44 87 45 29 46 30 47 31 48 81 49 32 50 86 51
REMARK SMILES IDX 80 52 82 53 33 54 85 55 79 56 78 57 34 59 66 60 46 61 65 62
REMARK SMILES IDX 47 63 50 64 64 65 83 66 48 67 49 68 63 70 84 71 51 72 35 73
REMARK SMILES IDX 36 74 44 75 37 76 39 77 45 78 38 79 40 80 41 81 42 82 43 83
REMARK SMILES IDX 67 84 68 85 76 86 69 87 71 88 77 89 70 90 72 91 73 92 74 93
REMARK SMILES IDX 75 94 52 95 53 96 61 97 54 98 56 99 62 100 55 101 57 102
REMARK SMILES IDX 58 103 59 104 60 105
REMARK H PARENT 82 58 50 69
REMARK Flexibility Score: inf
ROOT
ATOM      1  O   UNL A   1      35.393  31.105  27.903  1.00  0.00    -0.458 OA
ENDROOT
BRANCH   1   2
ATOM      2  C   UNL A   1      34.089  31.354  27.625  1.00  0.00     0.338 C 
ATOM      3  O   UNL A   1      33.541  32.448  27.627  1.00  0.00    -0.246 OA
BRANCH   2   4
ATOM      4  C   UNL A   1      33.418  30.107  27.191  1.00  0.00     0.060 A 
ATOM      5  C   UNL A   1      32.105  27.817  26.309  1.00  0.00     0.066 A 
ATOM      6  C   UNL A   1      31.398  29.021  26.419  1.00  0.00     0.029 A 
ATOM      7  C   UNL A   1      33.475  27.766  26.591  1.00  0.00     0.029 A 
ATOM      8  C   UNL A   1      32.053  30.160  26.876  1.00  0.00     0.018 A 
ATOM      9  C   UNL A   1      34.130  28.912  27.026  1.00  0.00     0.018 A 
BRANCH   5  10
ATOM     10  N   UNL A   1      31.410  26.641  25.974  1.00  0.00    -0.220 N 
ATOM     11  C   UNL A   1      30.850  24.755  25.065  1.00  0.00     0.093 A 
ATOM     12  C   UNL A   1      31.462  25.952  24.787  1.00  0.00     0.141 A 
ATOM     13  N   UNL A   1      30.311  24.813  26.317  1.00  0.00    -0.134 NA
ATOM     14  N   UNL A   1      30.698  25.941  26.880  1.00  0.00    -0.062 NA
BRANCH  11  15
ATOM     15  C   UNL A   1      30.833  23.535  24.245  1.00  0.00     0.138 C 
BRANCH  15  16
ATOM     16  S   UNL A   1      31.569  22.105  25.016  1.00  0.00    -0.081 SA
BRANCH  16  17
ATOM     17  C   UNL A   1      32.697  21.447  23.758  1.00  0.00     0.176 A 
ATOM     18  N   UNL A   1      33.593  20.535  24.288  1.00  0.00    -0.255 N 
ATOM     19  C   UNL A   1      34.790  21.055  24.770  1.00  0.00     0.266 A 
ATOM     20  N   UNL A   1      33.141  22.335  22.921  1.00  0.00    -0.223 NA
ATOM     21  C   UNL A   1      34.942  22.529  24.544  1.00  0.00     0.066 A 
ATOM     22  O   UNL A   1      35.655  20.438  25.385  1.00  0.00    -0.268 OA
ATOM     23  C   UNL A   1      34.143  23.106  23.538  1.00  0.00     0.079 A 
ATOM     24  C   UNL A   1      35.639  23.337  25.438  1.00  0.00     0.016 A 
ATOM     25  C   UNL A   1      34.105  24.488  23.377  1.00  0.00     0.029 A 
ATOM     26  C   UNL A   1      35.522  24.726  25.326  1.00  0.00     0.001 A 
ATOM     27  C   UNL A   1      34.776  25.299  24.289  1.00  0.00     0.002 A 
BRANCH  18  28
ATOM     28  C   UNL A   1      33.231  19.172  24.393  1.00  0.00     0.052 A 
ATOM     29  C   UNL A   1      33.023  16.400  24.707  1.00  0.00     0.119 A 
ATOM     30  C   UNL A   1      32.760  17.237  25.789  1.00  0.00     0.048 A 
ATOM     31  C   UNL A   1      33.279  16.945  23.448  1.00  0.00     0.048 A 
ATOM     32  C   UNL A   1      32.901  18.622  25.641  1.00  0.00     0.030 A 
ATOM     33  C   UNL A   1      33.351  18.332  23.283  1.00  0.00     0.030 A 
BRANCH  29  34
ATOM     34  O   UNL A   1      32.950  15.048  24.904  1.00  0.00    -0.497 OA
ATOM     35  C   UNL A   1      32.090  14.702  25.991  1.00  0.00     0.278 C 
ENDBRANCH  29  34
ENDBRANCH  18  28
ENDBRANCH  16  17
ENDBRANCH  15  16
ENDBRANCH  11  15
ENDBRANCH   5  10
ENDBRANCH   2   4
ENDBRANCH   1   2
BRANCH   1  36
ATOM     36  C   UNL A   1      35.811  31.402  29.243  1.00  0.00     0.275 C 
BRANCH  36  37
ATOM     37  C   UNL A   1      36.253  30.136  29.961  1.00  0.00     0.275 C 
BRANCH  37  38
ATOM     38  O   UNL A   1      35.979  30.202  31.359  1.00  0.00    -0.458 OA
BRANCH  38  39
ATOM     39  C   UNL A   1      36.841  30.966  32.068  1.00  0.00     0.338 C 
ATOM     40  O   UNL A   1      36.680  32.118  32.433  1.00  0.00    -0.246 OA
BRANCH  39  41
ATOM     41  C   UNL A   1      38.133  30.285  32.148  1.00  0.00     0.060 A 
ATOM     42  C   UNL A   1      39.284  31.030  31.872  1.00  0.00     0.016 A 
ATOM     43  C   UNL A   1      38.154  28.884  32.218  1.00  0.00     0.016 A 
ATOM     44  C   UNL A   1      40.439  30.356  31.535  1.00  0.00     0.010 A 
ATOM     45  C   UNL A   1      39.301  28.216  31.868  1.00  0.00     0.010 A 
ATOM     46  C   UNL A   1      40.412  28.958  31.472  1.00  0.00    -0.014 A 
BRANCH  46  47
ATOM     47  C   UNL A   1      41.631  28.262  31.116  1.00  0.00     0.031 A 
ATOM     48  C   UNL A   1      42.408  27.827  32.301  1.00  0.00     0.074 A 
ATOM     49  C   UNL A   1      41.919  27.923  29.845  1.00  0.00     0.049 A 
ATOM     50  N   UNL A   1      43.594  28.199  32.652  1.00  0.00    -0.248 NA
ATOM     51  C   UNL A   1      41.710  27.014  33.313  1.00  0.00     0.031 C 
ATOM     52  C   UNL A   1      41.049  28.052  28.671  1.00  0.00     0.029 A 
ATOM     53  N   UNL A   1      42.991  27.239  29.362  1.00  0.00    -0.354 N 
ATOM     54  C   UNL A   1      43.879  27.470  33.805  1.00  0.00     0.074 A 
ATOM     55  C   UNL A   1      42.627  26.946  34.276  1.00  0.00     0.031 C 
ATOM     56  C   UNL A   1      41.509  27.241  27.692  1.00  0.00     0.029 A 
ATOM     57  C   UNL A   1      42.758  26.641  28.126  1.00  0.00     0.049 A 
ATOM     58  H   UNL A   1      43.850  27.173  29.840  1.00  0.00     0.167 HD
ATOM     59  C   UNL A   1      45.154  27.117  34.112  1.00  0.00     0.034 A 
ATOM     60  C   UNL A   1      43.490  25.650  27.560  1.00  0.00     0.034 A 
ATOM     61  C   UNL A   1      46.106  27.924  33.391  1.00  0.00     0.049 A 
ATOM     62  C   UNL A   1      44.807  25.628  28.240  1.00  0.00     0.074 A 
ATOM     63  C   UNL A   1      46.378  29.273  33.303  1.00  0.00     0.029 A 
ATOM     64  N   UNL A   1      46.714  27.339  32.307  1.00  0.00    -0.354 N 
ATOM     65  N   UNL A   1      45.688  26.582  28.139  1.00  0.00    -0.248 NA
ATOM     66  C   UNL A   1      44.976  24.734  29.374  1.00  0.00     0.031 C 
ATOM     67  C   UNL A   1      46.745  29.488  31.942  1.00  0.00     0.029 A 
ATOM     68  C   UNL A   1      46.734  28.253  31.291  1.00  0.00     0.049 A 
ATOM     69  H   UNL A   1      47.071  26.422  32.268  1.00  0.00     0.167 HD
ATOM     70  C   UNL A   1      46.219  26.692  29.417  1.00  0.00     0.074 A 
ATOM     71  C   UNL A   1      45.836  25.457  30.096  1.00  0.00     0.031 C 
ATOM     72  C   UNL A   1      46.655  27.896  29.891  1.00  0.00     0.034 A 
BRANCH  59  73
ATOM     73  C   UNL A   1      45.550  25.786  34.719  1.00  0.00     0.023 A 
ATOM     74  C   UNL A   1      45.454  24.652  33.882  1.00  0.00     0.012 A 
ATOM     75  C   UNL A   1      45.714  25.545  36.104  1.00  0.00     0.148 A 
ATOM     76  C   UNL A   1      45.436  23.354  34.403  1.00  0.00     0.002 A 
ATOM     77  C   UNL A   1      45.775  24.252  36.609  1.00  0.00     0.091 A 
ATOM     78  F   UNL A   1      45.681  26.554  36.977  1.00  0.00    -0.205 F 
ATOM     79  C   UNL A   1      45.599  23.152  35.767  1.00  0.00     0.022 A 
BRANCH  77  80
ATOM     80  S   UNL A   1      46.028  23.934  38.361  1.00  0.00     0.127 S 
ATOM     81  O   UNL A   1      47.333  24.549  38.581  1.00  0.00    -0.237 OA
ATOM     82  O   UNL A   1      44.898  24.644  38.957  1.00  0.00    -0.237 OA
ATOM     83  O   UNL A   1      45.969  22.485  38.511  1.00  0.00    -0.744 OA
ENDBRANCH  77  80
ENDBRANCH  59  73
BRANCH  60  84
ATOM     84  C   UNL A   1      43.058  24.540  26.678  1.00  0.00     0.023 A 
ATOM     85  C   UNL A   1      43.823  24.219  25.538  1.00  0.00     0.012 A 
ATOM     86  C   UNL A   1      42.067  23.622  27.091  1.00  0.00     0.148 A 
ATOM     87  C   UNL A   1      43.634  23.011  24.856  1.00  0.00     0.002 A 
ATOM     88  C   UNL A   1      41.873  22.428  26.404  1.00  0.00     0.091 A 
ATOM     89  F   UNL A   1      41.379  23.875  28.213  1.00  0.00    -0.205 F 
ATOM     90  C   UNL A   1      42.665  22.113  25.293  1.00  0.00     0.022 A 
BRANCH  88  91
ATOM     91  S   UNL A   1      40.655  21.212  26.924  1.00  0.00     0.127 S 
ATOM     92  O   UNL A   1      39.404  21.821  26.466  1.00  0.00    -0.237 OA
ATOM     93  O   UNL A   1      41.069  20.029  26.175  1.00  0.00    -0.237 OA
ATOM     94  O   UNL A   1      40.778  21.119  28.373  1.00  0.00    -0.744 OA
ENDBRANCH  88  91
ENDBRANCH  60  84
BRANCH  72  95
ATOM     95  C   UNL A   1      46.827  29.026  28.908  1.00  0.00     0.023 A 
ATOM     96  C   UNL A   1      48.041  29.269  28.233  1.00  0.00     0.012 A 
ATOM     97  C   UNL A   1      45.682  29.749  28.533  1.00  0.00     0.148 A 
ATOM     98  C   UNL A   1      48.115  30.228  27.220  1.00  0.00     0.002 A 
ATOM     99  C   UNL A   1      45.748  30.666  27.493  1.00  0.00     0.091 A 
ATOM    100  F   UNL A   1      44.535  29.504  29.184  1.00  0.00    -0.205 F 
ATOM    101  C   UNL A   1      46.965  30.916  26.839  1.00  0.00     0.022 A 
BRANCH  99 102
ATOM    102  S   UNL A   1      44.276  31.483  26.876  1.00  0.00     0.127 S 
ATOM    103  O   UNL A   1      43.421  30.350  26.528  1.00  0.00    -0.237 OA
ATOM    104  O   UNL A   1      43.830  32.251  28.039  1.00  0.00    -0.237 OA
ATOM    105  O   UNL A   1      44.715  32.306  25.755  1.00  0.00    -0.744 OA
ENDBRANCH  99 102
ENDBRANCH  72  95
ENDBRANCH  46  47
ENDBRANCH  39  41
ENDBRANCH  38  39
ENDBRANCH  37  38
ENDBRANCH  36  37
ENDBRANCH   1  36
TORSDOF 20
ENDMDL
MODEL 3
REMARK VINA RESULT:     -12.1      1.737      2.455
REMARK SMILES COc1ccc(-n2c(SCc3cn(-c4ccc(C(=O)OCCOC(=O)c5ccc(-c6c7nc(c(-c8cccc(S(=O)(=O)[O-])c8F)c8ccc([nH]8)c(-c8cccc(S(=O)(=O)[O-])c8F)c8nc(c(-c9cccc(S(=O)(=O)[O-])c9F)c9ccc6[nH]9)C=C8)C=C7)cc5)cc4)nn3)nc3ccccc3c2=O)cc1
REMARK SMILES IDX 20 1 18 2 19 3 17 4 14 5 15 6 90 7 16 8 89 9 13 10 11 11
REMARK SMILES IDX 12 12 92 13 91 14 10 15 9 16 8 17 7 18 100 19 93 20 99 21
REMARK SMILES IDX 101 22 94 23 98 24 95 25 97 26 96 27 6 28 3 29 4 30 103 31
REMARK SMILES IDX 5 32 102 33 2 34 1 35 21 36 22 37 23 38 24 39 25 40 26 41
REMARK SMILES IDX 27 42 88 43 28 44 87 45 29 46 30 47 31 48 81 49 32 50 86 51
REMARK SMILES IDX 80 52 82 53 33 54 85 55 79 56 78 57 34 59 66 60 46 61 65 62
REMARK SMILES IDX 47 63 50 64 64 65 83 66 48 67 49 68 63 70 84 71 51 72 35 73
REMARK SMILES IDX 36 74 44 75 37 76 39 77 45 78 38 79 40 80 41 81 42 82 43 83
REMARK SMILES IDX 67 84 68 85 76 86 69 87 71 88 77 89 70 90 72 91 73 92 74 93
REMARK SMILES IDX 75 94 52 95 53 96 61 97 54 98 56 99 62 100 55 101 57 102
REMARK SMILES IDX 58 103 59 104 60 105
REMARK H PARENT 82 58 50 69
REMARK Flexibility Score: inf
ROOT
ATOM      1  O   UNL A   1      42.323  21.520  26.949  1.00  0.00    -0.458 OA
ENDROOT
BRANCH   1   2
ATOM      2  C   UNL A   1      41.224  20.727  27.010  1.00  0.00     0.338 C 
ATOM      3  O   UNL A   1      41.170  19.592  27.461  1.00  0.00    -0.246 OA
BRANCH   2   4
ATOM      4  C   UNL A   1      40.033  21.480  26.552  1.00  0.00     0.060 A 
ATOM      5  C   UNL A   1      37.740  22.810  25.704  1.00  0.00     0.066 A 
ATOM      6  C   UNL A   1      37.934  21.470  25.347  1.00  0.00     0.029 A 
ATOM      7  C   UNL A   1      38.663  23.471  26.523  1.00  0.00     0.029 A 
ATOM      8  C   UNL A   1      39.089  20.812  25.759  1.00  0.00     0.018 A 
ATOM      9  C   UNL A   1      39.805  22.803  26.949  1.00  0.00     0.018 A 
BRANCH   5  10
ATOM     10  N   UNL A   1      36.638  23.509  25.178  1.00  0.00    -0.220 N 
ATOM     11  C   UNL A   1      34.821  24.004  24.106  1.00  0.00     0.093 A 
ATOM     12  C   UNL A   1      35.956  23.236  24.018  1.00  0.00     0.141 A 
ATOM     13  N   UNL A   1      34.922  24.821  25.195  1.00  0.00    -0.134 NA
ATOM     14  N   UNL A   1      36.004  24.479  25.867  1.00  0.00    -0.062 NA
BRANCH  11  15
ATOM     15  C   UNL A   1      33.614  23.936  23.270  1.00  0.00     0.138 C 
BRANCH  15  16
ATOM     16  S   UNL A   1      32.753  25.484  23.072  1.00  0.00    -0.081 SA
BRANCH  16  17
ATOM     17  C   UNL A   1      31.011  25.070  23.361  1.00  0.00     0.176 A 
ATOM     18  N   UNL A   1      30.445  25.860  24.347  1.00  0.00    -0.255 N 
ATOM     19  C   UNL A   1      30.544  25.386  25.651  1.00  0.00     0.266 A 
ATOM     20  N   UNL A   1      30.759  23.796  23.369  1.00  0.00    -0.223 NA
ATOM     21  C   UNL A   1      31.178  24.031  25.754  1.00  0.00     0.066 A 
ATOM     22  O   UNL A   1      30.221  25.989  26.670  1.00  0.00    -0.268 OA
ATOM     23  C   UNL A   1      31.182  23.239  24.590  1.00  0.00     0.079 A 
ATOM     24  C   UNL A   1      31.948  23.667  26.855  1.00  0.00     0.016 A 
ATOM     25  C   UNL A   1      31.892  22.042  24.557  1.00  0.00     0.029 A 
ATOM     26  C   UNL A   1      32.731  22.510  26.780  1.00  0.00     0.001 A 
ATOM     27  C   UNL A   1      32.688  21.691  25.645  1.00  0.00     0.002 A 
BRANCH  18  28
ATOM     28  C   UNL A   1      29.885  27.114  24.009  1.00  0.00     0.052 A 
ATOM     29  C   UNL A   1      28.925  29.473  22.852  1.00  0.00     0.119 A 
ATOM     30  C   UNL A   1      28.065  28.391  23.023  1.00  0.00     0.048 A 
ATOM     31  C   UNL A   1      30.225  29.418  23.356  1.00  0.00     0.048 A 
ATOM     32  C   UNL A   1      28.555  27.198  23.567  1.00  0.00     0.030 A 
ATOM     33  C   UNL A   1      30.695  28.251  23.964  1.00  0.00     0.030 A 
BRANCH  29  34
ATOM     34  O   UNL A   1      28.434  30.599  22.249  1.00  0.00    -0.497 OA
ATOM     35  C   UNL A   1      27.622  31.378  23.129  1.00  0.00     0.278 C 
ENDBRANCH  29  34
ENDBRANCH  18  28
ENDBRANCH  16  17
ENDBRANCH  15  16
ENDBRANCH  11  15
ENDBRANCH   5  10
ENDBRANCH   2   4
ENDBRANCH   1   2
BRANCH   1  36
ATOM     36  C   UNL A   1      43.211  21.269  25.851  1.00  0.00     0.275 C 
BRANCH  36  37
ATOM     37  C   UNL A   1      43.275  22.475  24.925  1.00  0.00     0.275 C 
BRANCH  37  38
ATOM     38  O   UNL A   1      42.607  23.603  25.487  1.00  0.00    -0.458 OA
BRANCH  38  39
ATOM     39  C   UNL A   1      43.325  24.749  25.472  1.00  0.00     0.338 C 
ATOM     40  O   UNL A   1      44.349  24.972  24.848  1.00  0.00    -0.246 OA
BRANCH  39  41
ATOM     41  C   UNL A   1      42.825  25.644  26.516  1.00  0.00     0.060 A 
ATOM     42  C   UNL A   1      41.812  26.545  26.173  1.00  0.00     0.016 A 
ATOM     43  C   UNL A   1      43.550  25.758  27.711  1.00  0.00     0.016 A 
ATOM     44  C   UNL A   1      41.615  27.648  26.978  1.00  0.00     0.010 A 
ATOM     45  C   UNL A   1      43.361  26.865  28.502  1.00  0.00     0.010 A 
ATOM     46  C   UNL A   1      42.440  27.827  28.095  1.00  0.00    -0.014 A 
BRANCH  46  47
ATOM     47  C   UNL A   1      42.223  28.990  28.930  1.00  0.00     0.031 A 
ATOM     48  C   UNL A   1      43.160  30.098  28.623  1.00  0.00     0.074 A 
ATOM     49  C   UNL A   1      41.176  29.083  29.773  1.00  0.00     0.049 A 
ATOM     50  N   UNL A   1      44.051  30.619  29.398  1.00  0.00    -0.248 NA
ATOM     51  C   UNL A   1      43.233  30.559  27.226  1.00  0.00     0.031 C 
ATOM     52  C   UNL A   1      40.049  28.155  29.897  1.00  0.00     0.029 A 
ATOM     53  N   UNL A   1      40.818  30.116  30.583  1.00  0.00    -0.354 N 
ATOM     54  C   UNL A   1      44.627  31.645  28.651  1.00  0.00     0.074 A 
ATOM     55  C   UNL A   1      44.252  31.415  27.284  1.00  0.00     0.031 C 
ATOM     56  C   UNL A   1      39.026  28.785  30.518  1.00  0.00     0.029 A 
ATOM     57  C   UNL A   1      39.471  30.102  30.938  1.00  0.00     0.049 A 
ATOM     58  H   UNL A   1      41.450  30.806  30.890  1.00  0.00     0.167 HD
ATOM     59  C   UNL A   1      45.120  32.758  29.255  1.00  0.00     0.034 A 
ATOM     60  C   UNL A   1      38.761  31.141  31.443  1.00  0.00     0.034 A 
ATOM     61  C   UNL A   1      45.354  32.529  30.659  1.00  0.00     0.049 A 
ATOM     62  C   UNL A   1      39.732  32.126  31.973  1.00  0.00     0.074 A 
ATOM     63  C   UNL A   1      46.122  31.650  31.393  1.00  0.00     0.029 A 
ATOM     64  N   UNL A   1      44.429  33.050  31.530  1.00  0.00    -0.354 N 
ATOM     65  N   UNL A   1      40.491  31.907  33.009  1.00  0.00    -0.248 NA
ATOM     66  C   UNL A   1      40.163  33.202  31.095  1.00  0.00     0.031 C 
ATOM     67  C   UNL A   1      45.339  31.349  32.545  1.00  0.00     0.029 A 
ATOM     68  C   UNL A   1      44.166  32.103  32.481  1.00  0.00     0.049 A 
ATOM     69  H   UNL A   1      44.025  33.946  31.479  1.00  0.00     0.167 HD
ATOM     70  C   UNL A   1      41.709  32.479  32.667  1.00  0.00     0.074 A 
ATOM     71  C   UNL A   1      41.412  33.362  31.541  1.00  0.00     0.031 C 
ATOM     72  C   UNL A   1      42.882  31.956  33.130  1.00  0.00     0.034 A 
BRANCH  59  73
ATOM     73  C   UNL A   1      44.993  34.161  28.696  1.00  0.00     0.023 A 
ATOM     74  C   UNL A   1      46.172  34.940  28.662  1.00  0.00     0.012 A 
ATOM     75  C   UNL A   1      43.771  34.845  28.493  1.00  0.00     0.148 A 
ATOM     76  C   UNL A   1      46.130  36.331  28.519  1.00  0.00     0.002 A 
ATOM     77  C   UNL A   1      43.740  36.217  28.273  1.00  0.00     0.091 A 
ATOM     78  F   UNL A   1      42.607  34.211  28.640  1.00  0.00    -0.205 F 
ATOM     79  C   UNL A   1      44.913  36.970  28.322  1.00  0.00     0.022 A 
BRANCH  77  80
ATOM     80  S   UNL A   1      42.196  37.088  27.968  1.00  0.00     0.127 S 
ATOM     81  O   UNL A   1      41.256  36.297  28.756  1.00  0.00    -0.237 OA
ATOM     82  O   UNL A   1      42.494  38.415  28.504  1.00  0.00    -0.237 OA
ATOM     83  O   UNL A   1      42.006  37.058  26.523  1.00  0.00    -0.744 OA
ENDBRANCH  77  80
ENDBRANCH  59  73
BRANCH  60  84
ATOM     84  C   UNL A   1      37.331  31.487  31.259  1.00  0.00     0.023 A 
ATOM     85  C   UNL A   1      36.540  31.790  32.386  1.00  0.00     0.012 A 
ATOM     86  C   UNL A   1      36.812  31.792  29.981  1.00  0.00     0.148 A 
ATOM     87  C   UNL A   1      35.291  32.409  32.246  1.00  0.00     0.002 A 
ATOM     88  C   UNL A   1      35.566  32.395  29.846  1.00  0.00     0.091 A 
ATOM     89  F   UNL A   1      37.580  31.578  28.904  1.00  0.00    -0.205 F 
ATOM     90  C   UNL A   1      34.808  32.718  30.978  1.00  0.00     0.022 A 
BRANCH  88  91
ATOM     91  S   UNL A   1      34.889  32.842  28.242  1.00  0.00     0.127 S 
ATOM     92  O   UNL A   1      34.476  31.540  27.713  1.00  0.00    -0.237 OA
ATOM     93  O   UNL A   1      33.789  33.728  28.613  1.00  0.00    -0.237 OA
ATOM     94  O   UNL A   1      35.983  33.465  27.507  1.00  0.00    -0.744 OA
ENDBRANCH  88  91
ENDBRANCH  60  84
BRANCH  72  95
ATOM     95  C   UNL A   1      42.816  30.946  34.248  1.00  0.00     0.023 A 
ATOM     96  C   UNL A   1      42.901  31.310  35.608  1.00  0.00     0.012 A 
ATOM     97  C   UNL A   1      42.487  29.622  33.916  1.00  0.00     0.148 A 
ATOM     98  C   UNL A   1      42.685  30.366  36.615  1.00  0.00     0.002 A 
ATOM     99  C   UNL A   1      42.223  28.698  34.919  1.00  0.00     0.091 A 
ATOM    100  F   UNL A   1      42.408  29.294  32.618  1.00  0.00    -0.205 F 
ATOM    101  C   UNL A   1      42.330  29.063  36.270  1.00  0.00     0.022 A 
BRANCH  99 102
ATOM    102  S   UNL A   1      41.638  27.047  34.535  1.00  0.00     0.127 S 
ATOM    103  O   UNL A   1      40.500  27.322  33.661  1.00  0.00    -0.237 OA
ATOM    104  O   UNL A   1      42.795  26.450  33.864  1.00  0.00    -0.237 OA
ATOM    105  O   UNL A   1      41.313  26.430  35.815  1.00  0.00    -0.744 OA
ENDBRANCH  99 102
ENDBRANCH  72  95
ENDBRANCH  46  47
ENDBRANCH  39  41
ENDBRANCH  38  39
ENDBRANCH  37  38
ENDBRANCH  36  37
ENDBRANCH   1  36
TORSDOF 20
ENDMDL
