MODEL 1
REMARK VINA RESULT:     -11.6      0.000      0.000
REMARK SMILES O=C(OCCOC(=O)c1ccc(S(=O)(=O)NCC[NH+]2CCCC2)c(F)c1)c1ccc(-c2c3nc(c(-c4cccc(S(=O)(=O)[O-])c4F)c4ccc([nH]4)c(-c4cccc(S(=O)(=O)[O-])c4F)c4nc(c(-c5cccc(S(=O)(=O)[O-])c5F)c5ccc2[nH]5)C=C4)C=C3)cc1
REMARK SMILES IDX 5 1 4 2 3 3 2 4 1 5 27 6 28 7 89 8 29 9 88 10 30 11 31 12
REMARK SMILES IDX 32 13 82 14 33 15 87 16 81 17 83 18 34 19 86 20 80 21 79 22
REMARK SMILES IDX 35 24 67 25 47 26 66 27 48 28 51 29 65 30 84 31 49 32 50 33
REMARK SMILES IDX 64 35 85 36 52 37 36 38 37 39 45 40 38 41 40 42 46 43 39 44
REMARK SMILES IDX 41 45 42 46 43 47 44 48 68 49 69 50 77 51 70 52 72 53 78 54
REMARK SMILES IDX 71 55 73 56 74 57 75 58 76 59 53 60 54 61 62 62 55 63 57 64
REMARK SMILES IDX 63 65 56 66 58 67 59 68 60 69 61 70 6 71 7 72 8 73 9 74
REMARK SMILES IDX 10 75 26 76 11 77 24 78 12 79 25 80 13 81 14 82 15 83 16 84
REMARK SMILES IDX 17 86 18 87 19 88 20 89 23 90 21 92 22 93
REMARK H PARENT 83 23 51 34 16 85 19 91
REMARK Flexibility Score: inf
ROOT
ATOM      1  C   UNL A   1      31.830  30.743  26.814  1.00  0.00     0.275 C 
ENDROOT
BRANCH   1   2
ATOM      2  C   UNL A   1      31.380  32.210  26.796  1.00  0.00     0.275 C 
BRANCH   2   3
ATOM      3  O   UNL A   1      32.456  33.165  26.862  1.00  0.00    -0.458 OA
BRANCH   3   4
ATOM      4  C   UNL A   1      33.193  33.595  27.913  1.00  0.00     0.338 C 
ATOM      5  O   UNL A   1      32.897  34.676  28.422  1.00  0.00    -0.246 OA
BRANCH   4   6
ATOM      6  C   UNL A   1      34.413  32.896  28.440  1.00  0.00     0.060 A 
ATOM      7  C   UNL A   1      34.422  31.798  29.304  1.00  0.00     0.016 A 
ATOM      8  C   UNL A   1      35.661  33.386  28.000  1.00  0.00     0.016 A 
ATOM      9  C   UNL A   1      35.610  31.190  29.693  1.00  0.00     0.010 A 
ATOM     10  C   UNL A   1      36.860  32.770  28.376  1.00  0.00     0.010 A 
ATOM     11  C   UNL A   1      36.834  31.678  29.244  1.00  0.00    -0.014 A 
BRANCH  11  12
ATOM     12  C   UNL A   1      38.055  31.137  29.874  1.00  0.00     0.031 A 
ATOM     13  C   UNL A   1      38.362  31.561  31.276  1.00  0.00     0.074 A 
ATOM     14  C   UNL A   1      38.773  30.178  29.261  1.00  0.00     0.049 A 
ATOM     15  N   UNL A   1      39.277  31.108  32.086  1.00  0.00    -0.248 NA
ATOM     16  C   UNL A   1      37.496  32.600  31.865  1.00  0.00     0.031 C 
ATOM     17  C   UNL A   1      38.486  29.637  27.934  1.00  0.00     0.029 A 
ATOM     18  N   UNL A   1      39.876  29.477  29.670  1.00  0.00    -0.354 N 
ATOM     19  C   UNL A   1      39.100  31.802  33.273  1.00  0.00     0.074 A 
ATOM     20  C   UNL A   1      38.011  32.730  33.077  1.00  0.00     0.031 C 
ATOM     21  C   UNL A   1      39.418  28.724  27.613  1.00  0.00     0.029 A 
ATOM     22  C   UNL A   1      40.360  28.606  28.720  1.00  0.00     0.049 A 
ATOM     23  H   UNL A   1      40.284  29.584  30.559  1.00  0.00     0.167 HD
ATOM     24  C   UNL A   1      39.767  31.649  34.436  1.00  0.00     0.034 A 
ATOM     25  C   UNL A   1      41.441  27.803  28.746  1.00  0.00     0.034 A 
ATOM     26  C   UNL A   1      40.839  30.714  34.612  1.00  0.00     0.049 A 
ATOM     27  C   UNL A   1      42.229  27.724  30.026  1.00  0.00     0.074 A 
ATOM     28  C   UNL A   1      41.586  30.474  35.749  1.00  0.00     0.029 A 
ATOM     29  N   UNL A   1      41.329  29.880  33.618  1.00  0.00    -0.354 N 
ATOM     30  N   UNL A   1      41.990  28.317  31.172  1.00  0.00    -0.248 NA
ATOM     31  C   UNL A   1      43.401  26.837  30.042  1.00  0.00     0.031 C 
ATOM     32  C   UNL A   1      42.559  29.527  35.428  1.00  0.00     0.029 A 
ATOM     33  C   UNL A   1      42.389  29.142  34.105  1.00  0.00     0.049 A 
ATOM     34  H   UNL A   1      40.974  29.823  32.700  1.00  0.00     0.167 HD
ATOM     35  C   UNL A   1      42.959  27.855  32.053  1.00  0.00     0.074 A 
ATOM     36  C   UNL A   1      43.779  26.916  31.312  1.00  0.00     0.031 C 
ATOM     37  C   UNL A   1      43.158  28.183  33.352  1.00  0.00     0.034 A 
BRANCH  24  38
ATOM     38  C   UNL A   1      39.355  32.506  35.596  1.00  0.00     0.023 A 
ATOM     39  C   UNL A   1      38.516  31.979  36.599  1.00  0.00     0.012 A 
ATOM     40  C   UNL A   1      39.844  33.820  35.718  1.00  0.00     0.148 A 
ATOM     41  C   UNL A   1      38.155  32.755  37.699  1.00  0.00     0.002 A 
ATOM     42  C   UNL A   1      39.519  34.570  36.840  1.00  0.00     0.091 A 
ATOM     43  F   UNL A   1      40.616  34.306  34.736  1.00  0.00    -0.205 F 
ATOM     44  C   UNL A   1      38.666  34.044  37.825  1.00  0.00     0.022 A 
BRANCH  42  45
ATOM     45  S   UNL A   1      40.185  36.210  37.133  1.00  0.00     0.127 S 
ATOM     46  O   UNL A   1      39.936  36.863  35.848  1.00  0.00    -0.237 OA
ATOM     47  O   UNL A   1      39.345  36.685  38.232  1.00  0.00    -0.237 OA
ATOM     48  O   UNL A   1      41.589  36.024  37.467  1.00  0.00    -0.744 OA
ENDBRANCH  42  45
ENDBRANCH  24  38
BRANCH  25  49
ATOM     49  C   UNL A   1      41.799  26.987  27.550  1.00  0.00     0.023 A 
ATOM     50  C   UNL A   1      42.420  27.593  26.441  1.00  0.00     0.012 A 
ATOM     51  C   UNL A   1      41.559  25.598  27.523  1.00  0.00     0.148 A 
ATOM     52  C   UNL A   1      42.771  26.838  25.320  1.00  0.00     0.002 A 
ATOM     53  C   UNL A   1      41.956  24.844  26.425  1.00  0.00     0.091 A 
ATOM     54  F   UNL A   1      40.958  25.039  28.582  1.00  0.00    -0.205 F 
ATOM     55  C   UNL A   1      42.549  25.464  25.316  1.00  0.00     0.022 A 
BRANCH  53  56
ATOM     56  S   UNL A   1      41.822  23.052  26.376  1.00  0.00     0.127 S 
ATOM     57  O   UNL A   1      42.451  22.739  25.095  1.00  0.00    -0.237 OA
ATOM     58  O   UNL A   1      42.596  22.664  27.555  1.00  0.00    -0.237 OA
ATOM     59  O   UNL A   1      40.399  22.759  26.466  1.00  0.00    -0.744 OA
ENDBRANCH  53  56
ENDBRANCH  25  49
BRANCH  37  60
ATOM     60  C   UNL A   1      44.299  27.528  34.079  1.00  0.00     0.023 A 
ATOM     61  C   UNL A   1      45.521  28.213  34.214  1.00  0.00     0.012 A 
ATOM     62  C   UNL A   1      44.098  26.315  34.768  1.00  0.00     0.148 A 
ATOM     63  C   UNL A   1      46.531  27.697  35.021  1.00  0.00     0.002 A 
ATOM     64  C   UNL A   1      45.087  25.837  35.615  1.00  0.00     0.091 A 
ATOM     65  F   UNL A   1      42.928  25.679  34.612  1.00  0.00    -0.205 F 
ATOM     66  C   UNL A   1      46.308  26.521  35.736  1.00  0.00     0.022 A 
BRANCH  64  67
ATOM     67  S   UNL A   1      44.846  24.402  36.667  1.00  0.00     0.127 S 
ATOM     68  O   UNL A   1      46.219  24.081  37.052  1.00  0.00    -0.237 OA
ATOM     69  O   UNL A   1      44.020  24.948  37.745  1.00  0.00    -0.237 OA
ATOM     70  O   UNL A   1      44.184  23.400  35.842  1.00  0.00    -0.744 OA
ENDBRANCH  64  67
ENDBRANCH  37  60
ENDBRANCH  11  12
ENDBRANCH   4   6
ENDBRANCH   3   4
ENDBRANCH   2   3
ENDBRANCH   1   2
BRANCH   1  71
ATOM     71  O   UNL A   1      32.797  30.424  25.801  1.00  0.00    -0.458 OA
BRANCH  71  72
ATOM     72  C   UNL A   1      33.681  29.446  26.132  1.00  0.00     0.338 C 
ATOM     73  O   UNL A   1      34.332  29.373  27.160  1.00  0.00    -0.246 OA
BRANCH  72  74
ATOM     74  C   UNL A   1      33.621  28.358  25.132  1.00  0.00     0.063 A 
ATOM     75  C   UNL A   1      33.398  28.611  23.778  1.00  0.00     0.017 A 
ATOM     76  C   UNL A   1      33.762  27.041  25.588  1.00  0.00     0.056 A 
ATOM     77  C   UNL A   1      33.308  27.535  22.888  1.00  0.00     0.026 A 
ATOM     78  C   UNL A   1      33.638  25.973  24.699  1.00  0.00     0.144 A 
ATOM     79  C   UNL A   1      33.408  26.214  23.356  1.00  0.00     0.118 A 
ATOM     80  F   UNL A   1      33.730  24.735  25.198  1.00  0.00    -0.205 F 
BRANCH  79  81
ATOM     81  S   UNL A   1      33.212  24.933  22.168  1.00  0.00     0.243 S 
ATOM     82  O   UNL A   1      33.246  25.573  20.879  1.00  0.00    -0.207 OA
ATOM     83  O   UNL A   1      34.147  23.898  22.556  1.00  0.00    -0.207 OA
BRANCH  81  84
ATOM     84  N   UNL A   1      31.708  24.236  22.381  1.00  0.00    -0.205 NA
ATOM     85  H   UNL A   1      31.533  23.685  21.540  1.00  0.00     0.141 HD
BRANCH  84  86
ATOM     86  C   UNL A   1      31.383  23.356  23.514  1.00  0.00     0.160 C 
BRANCH  86  87
ATOM     87  C   UNL A   1      32.098  21.985  23.516  1.00  0.00     0.278 C 
BRANCH  87  88
ATOM     88  N   UNL A   1      32.098  21.139  24.734  1.00  0.00    -0.334 N 
ATOM     89  C   UNL A   1      33.040  21.503  25.792  1.00  0.00     0.262 C 
ATOM     90  C   UNL A   1      32.508  19.762  24.355  1.00  0.00     0.262 C 
ATOM     91  H   UNL A   1      31.151  21.252  25.097  1.00  0.00     0.348 HD
ATOM     92  C   UNL A   1      34.372  20.937  25.359  1.00  0.00     0.067 C 
ATOM     93  C   UNL A   1      33.990  19.620  24.708  1.00  0.00     0.067 C 
ENDBRANCH  87  88
ENDBRANCH  86  87
ENDBRANCH  84  86
ENDBRANCH  81  84
ENDBRANCH  79  81
ENDBRANCH  72  74
ENDBRANCH  71  72
ENDBRANCH   1  71
TORSDOF 19
ENDMDL
MODEL 2
REMARK VINA RESULT:     -11.5      5.030     10.562
REMARK SMILES O=C(OCCOC(=O)c1ccc(S(=O)(=O)NCC[NH+]2CCCC2)c(F)c1)c1ccc(-c2c3nc(c(-c4cccc(S(=O)(=O)[O-])c4F)c4ccc([nH]4)c(-c4cccc(S(=O)(=O)[O-])c4F)c4nc(c(-c5cccc(S(=O)(=O)[O-])c5F)c5ccc2[nH]5)C=C4)C=C3)cc1
REMARK SMILES IDX 5 1 4 2 3 3 2 4 1 5 27 6 28 7 89 8 29 9 88 10 30 11 31 12
REMARK SMILES IDX 32 13 82 14 33 15 87 16 81 17 83 18 34 19 86 20 80 21 79 22
REMARK SMILES IDX 35 24 67 25 47 26 66 27 48 28 51 29 65 30 84 31 49 32 50 33
REMARK SMILES IDX 64 35 85 36 52 37 36 38 37 39 45 40 38 41 40 42 46 43 39 44
REMARK SMILES IDX 41 45 42 46 43 47 44 48 68 49 69 50 77 51 70 52 72 53 78 54
REMARK SMILES IDX 71 55 73 56 74 57 75 58 76 59 53 60 54 61 62 62 55 63 57 64
REMARK SMILES IDX 63 65 56 66 58 67 59 68 60 69 61 70 6 71 7 72 8 73 9 74
REMARK SMILES IDX 10 75 26 76 11 77 24 78 12 79 25 80 13 81 14 82 15 83 16 84
REMARK SMILES IDX 17 86 18 87 19 88 20 89 23 90 21 92 22 93
REMARK H PARENT 83 23 51 34 16 85 19 91
REMARK Flexibility Score: inf
ROOT
ATOM      1  C   UNL A   1      36.878  21.178  25.370  1.00  0.00     0.275 C 
ENDROOT
BRANCH   1   2
ATOM      2  C   UNL A   1      37.745  19.940  25.101  1.00  0.00     0.275 C 
BRANCH   2   3
ATOM      3  O   UNL A   1      39.163  20.170  25.209  1.00  0.00    -0.458 OA
BRANCH   3   4
ATOM      4  C   UNL A   1      39.935  20.432  26.289  1.00  0.00     0.338 C 
ATOM      5  O   UNL A   1      40.269  19.486  27.002  1.00  0.00    -0.246 OA
BRANCH   4   6
ATOM      6  C   UNL A   1      40.329  21.809  26.741  1.00  0.00     0.060 A 
ATOM      7  C   UNL A   1      39.954  23.010  26.135  1.00  0.00     0.016 A 
ATOM      8  C   UNL A   1      41.134  21.888  27.897  1.00  0.00     0.016 A 
ATOM      9  C   UNL A   1      40.331  24.239  26.664  1.00  0.00     0.010 A 
ATOM     10  C   UNL A   1      41.506  23.121  28.443  1.00  0.00     0.010 A 
ATOM     11  C   UNL A   1      41.119  24.303  27.811  1.00  0.00    -0.014 A 
BRANCH  11  12
ATOM     12  C   UNL A   1      41.672  25.620  28.183  1.00  0.00     0.031 A 
ATOM     13  C   UNL A   1      43.071  25.936  27.752  1.00  0.00     0.074 A 
ATOM     14  C   UNL A   1      40.889  26.555  28.752  1.00  0.00     0.049 A 
ATOM     15  N   UNL A   1      43.713  27.067  27.822  1.00  0.00    -0.248 NA
ATOM     16  C   UNL A   1      43.835  24.847  27.113  1.00  0.00     0.031 C 
ATOM     17  C   UNL A   1      39.487  26.364  29.117  1.00  0.00     0.029 A 
ATOM     18  N   UNL A   1      41.147  27.852  29.109  1.00  0.00    -0.354 N 
ATOM     19  C   UNL A   1      44.949  26.829  27.241  1.00  0.00     0.074 A 
ATOM     20  C   UNL A   1      44.987  25.441  26.848  1.00  0.00     0.031 C 
ATOM     21  C   UNL A   1      39.019  27.483  29.693  1.00  0.00     0.029 A 
ATOM     22  C   UNL A   1      40.086  28.476  29.725  1.00  0.00     0.049 A 
ATOM     23  H   UNL A   1      42.009  28.296  28.941  1.00  0.00     0.167 HD
ATOM     24  C   UNL A   1      45.950  27.708  27.023  1.00  0.00     0.034 A 
ATOM     25  C   UNL A   1      39.990  29.712  30.252  1.00  0.00     0.034 A 
ATOM     26  C   UNL A   1      45.888  29.086  27.413  1.00  0.00     0.049 A 
ATOM     27  C   UNL A   1      41.161  30.643  30.082  1.00  0.00     0.074 A 
ATOM     28  C   UNL A   1      46.846  30.066  27.241  1.00  0.00     0.029 A 
ATOM     29  N   UNL A   1      44.818  29.671  28.071  1.00  0.00    -0.354 N 
ATOM     30  N   UNL A   1      42.288  30.432  29.444  1.00  0.00    -0.248 NA
ATOM     31  C   UNL A   1      41.038  31.991  30.654  1.00  0.00     0.031 C 
ATOM     32  C   UNL A   1      46.371  31.235  27.837  1.00  0.00     0.029 A 
ATOM     33  C   UNL A   1      45.099  30.996  28.339  1.00  0.00     0.049 A 
ATOM     34  H   UNL A   1      43.980  29.212  28.311  1.00  0.00     0.167 HD
ATOM     35  C   UNL A   1      42.996  31.624  29.511  1.00  0.00     0.074 A 
ATOM     36  C   UNL A   1      42.161  32.562  30.236  1.00  0.00     0.031 C 
ATOM     37  C   UNL A   1      44.227  31.916  29.026  1.00  0.00     0.034 A 
BRANCH  24  38
ATOM     38  C   UNL A   1      47.186  27.203  26.337  1.00  0.00     0.023 A 
ATOM     39  C   UNL A   1      47.388  27.468  24.967  1.00  0.00     0.012 A 
ATOM     40  C   UNL A   1      48.171  26.511  27.065  1.00  0.00     0.148 A 
ATOM     41  C   UNL A   1      48.547  27.034  24.327  1.00  0.00     0.002 A 
ATOM     42  C   UNL A   1      49.344  26.124  26.431  1.00  0.00     0.091 A 
ATOM     43  F   UNL A   1      47.940  26.247  28.359  1.00  0.00    -0.205 F 
ATOM     44  C   UNL A   1      49.529  26.374  25.062  1.00  0.00     0.022 A 
BRANCH  42  45
ATOM     45  S   UNL A   1      50.700  25.336  27.305  1.00  0.00     0.127 S 
ATOM     46  O   UNL A   1      51.176  26.427  28.154  1.00  0.00    -0.237 OA
ATOM     47  O   UNL A   1      50.014  24.261  28.020  1.00  0.00    -0.237 OA
ATOM     48  O   UNL A   1      51.639  24.896  26.283  1.00  0.00    -0.744 OA
ENDBRANCH  42  45
ENDBRANCH  24  38
BRANCH  25  49
ATOM     49  C   UNL A   1      38.734  30.143  30.932  1.00  0.00     0.023 A 
ATOM     50  C   UNL A   1      38.539  29.862  32.298  1.00  0.00     0.012 A 
ATOM     51  C   UNL A   1      37.745  30.866  30.235  1.00  0.00     0.148 A 
ATOM     52  C   UNL A   1      37.374  30.271  32.949  1.00  0.00     0.002 A 
ATOM     53  C   UNL A   1      36.610  31.313  30.902  1.00  0.00     0.091 A 
ATOM     54  F   UNL A   1      37.942  31.116  28.933  1.00  0.00    -0.205 F 
ATOM     55  C   UNL A   1      36.415  31.003  32.256  1.00  0.00     0.022 A 
BRANCH  53  56
ATOM     56  S   UNL A   1      35.377  32.365  30.126  1.00  0.00     0.127 S 
ATOM     57  O   UNL A   1      36.168  33.539  29.765  1.00  0.00    -0.237 OA
ATOM     58  O   UNL A   1      34.951  31.538  28.996  1.00  0.00    -0.237 OA
ATOM     59  O   UNL A   1      34.350  32.583  31.134  1.00  0.00    -0.744 OA
ENDBRANCH  53  56
ENDBRANCH  25  49
BRANCH  37  60
ATOM     60  C   UNL A   1      44.763  33.303  29.245  1.00  0.00     0.023 A 
ATOM     61  C   UNL A   1      45.566  33.567  30.370  1.00  0.00     0.012 A 
ATOM     62  C   UNL A   1      44.610  34.288  28.249  1.00  0.00     0.148 A 
ATOM     63  C   UNL A   1      46.205  34.797  30.505  1.00  0.00     0.002 A 
ATOM     64  C   UNL A   1      45.297  35.488  28.362  1.00  0.00     0.091 A 
ATOM     65  F   UNL A   1      43.831  34.012  27.193  1.00  0.00    -0.205 F 
ATOM     66  C   UNL A   1      46.087  35.748  29.493  1.00  0.00     0.022 A 
BRANCH  64  67
ATOM     67  S   UNL A   1      45.305  36.721  27.057  1.00  0.00     0.127 S 
ATOM     68  O   UNL A   1      46.127  37.774  27.649  1.00  0.00    -0.237 OA
ATOM     69  O   UNL A   1      45.937  35.997  25.955  1.00  0.00    -0.237 OA
ATOM     70  O   UNL A   1      43.911  37.080  26.829  1.00  0.00    -0.744 OA
ENDBRANCH  64  67
ENDBRANCH  37  60
ENDBRANCH  11  12
ENDBRANCH   4   6
ENDBRANCH   3   4
ENDBRANCH   2   3
ENDBRANCH   1   2
BRANCH   1  71
ATOM     71  O   UNL A   1      36.050  21.555  24.259  1.00  0.00    -0.458 OA
BRANCH  71  72
ATOM     72  C   UNL A   1      34.717  21.600  24.520  1.00  0.00     0.338 C 
ATOM     73  O   UNL A   1      34.095  20.855  25.257  1.00  0.00    -0.246 OA
BRANCH  72  74
ATOM     74  C   UNL A   1      34.130  22.814  23.912  1.00  0.00     0.063 A 
ATOM     75  C   UNL A   1      33.340  22.758  22.763  1.00  0.00     0.017 A 
ATOM     76  C   UNL A   1      34.418  24.049  24.508  1.00  0.00     0.056 A 
ATOM     77  C   UNL A   1      32.850  23.946  22.212  1.00  0.00     0.026 A 
ATOM     78  C   UNL A   1      33.952  25.232  23.933  1.00  0.00     0.144 A 
ATOM     79  C   UNL A   1      33.176  25.185  22.788  1.00  0.00     0.118 A 
ATOM     80  F   UNL A   1      34.301  26.385  24.515  1.00  0.00    -0.205 F 
BRANCH  79  81
ATOM     81  S   UNL A   1      32.568  26.623  21.979  1.00  0.00     0.243 S 
ATOM     82  O   UNL A   1      33.725  27.394  21.606  1.00  0.00    -0.207 OA
ATOM     83  O   UNL A   1      31.598  26.145  21.015  1.00  0.00    -0.207 OA
BRANCH  81  84
ATOM     84  N   UNL A   1      31.666  27.507  23.073  1.00  0.00    -0.205 NA
ATOM     85  H   UNL A   1      32.169  28.384  23.207  1.00  0.00     0.141 HD
BRANCH  84  86
ATOM     86  C   UNL A   1      30.261  27.879  22.842  1.00  0.00     0.160 C 
BRANCH  86  87
ATOM     87  C   UNL A   1      30.018  29.364  22.488  1.00  0.00     0.278 C 
BRANCH  87  88
ATOM     88  N   UNL A   1      28.709  29.804  21.948  1.00  0.00    -0.334 N 
ATOM     89  C   UNL A   1      28.634  31.166  21.421  1.00  0.00     0.262 C 
ATOM     90  C   UNL A   1      27.714  29.798  23.053  1.00  0.00     0.262 C 
ATOM     91  H   UNL A   1      28.543  29.154  21.179  1.00  0.00     0.348 HD
ATOM     92  C   UNL A   1      28.473  32.059  22.629  1.00  0.00     0.067 C 
ATOM     93  C   UNL A   1      27.576  31.242  23.542  1.00  0.00     0.067 C 
ENDBRANCH  87  88
ENDBRANCH  86  87
ENDBRANCH  84  86
ENDBRANCH  81  84
ENDBRANCH  79  81
ENDBRANCH  72  74
ENDBRANCH  71  72
ENDBRANCH   1  71
TORSDOF 19
ENDMDL
MODEL 3
REMARK VINA RESULT:     -11.3      5.362     10.791
REMARK SMILES O=C(OCCOC(=O)c1ccc(S(=O)(=O)NCC[NH+]2CCCC2)c(F)c1)c1ccc(-c2c3nc(c(-c4cccc(S(=O)(=O)[O-])c4F)c4ccc([nH]4)c(-c4cccc(S(=O)(=O)[O-])c4F)c4nc(c(-c5cccc(S(=O)(=O)[O-])c5F)c5ccc2[nH]5)C=C4)C=C3)cc1
REMARK SMILES IDX 5 1 4 2 3 3 2 4 1 5 27 6 28 7 89 8 29 9 88 10 30 11 31 12
REMARK SMILES IDX 32 13 82 14 33 15 87 16 81 17 83 18 34 19 86 20 80 21 79 22
REMARK SMILES IDX 35 24 67 25 47 26 66 27 48 28 51 29 65 30 84 31 49 32 50 33
REMARK SMILES IDX 64 35 85 36 52 37 36 38 37 39 45 40 38 41 40 42 46 43 39 44
REMARK SMILES IDX 41 45 42 46 43 47 44 48 68 49 69 50 77 51 70 52 72 53 78 54
REMARK SMILES IDX 71 55 73 56 74 57 75 58 76 59 53 60 54 61 62 62 55 63 57 64
REMARK SMILES IDX 63 65 56 66 58 67 59 68 60 69 61 70 6 71 7 72 8 73 9 74
REMARK SMILES IDX 10 75 26 76 11 77 24 78 12 79 25 80 13 81 14 82 15 83 16 84
REMARK SMILES IDX 17 86 18 87 19 88 20 89 23 90 21 92 22 93
REMARK H PARENT 83 23 51 34 16 85 19 91
REMARK Flexibility Score: inf
ROOT
ATOM      1  C   UNL A   1      37.565  21.540  25.185  1.00  0.00     0.275 C 
ENDROOT
BRANCH   1   2
ATOM      2  C   UNL A   1      38.196  20.160  24.960  1.00  0.00     0.275 C 
BRANCH   2   3
ATOM      3  O   UNL A   1      39.122  19.752  25.984  1.00  0.00    -0.458 OA
BRANCH   3   4
ATOM      4  C   UNL A   1      40.447  19.995  26.125  1.00  0.00     0.338 C 
ATOM      5  O   UNL A   1      41.227  19.062  25.937  1.00  0.00    -0.246 OA
BRANCH   4   6
ATOM      6  C   UNL A   1      41.029  21.296  26.597  1.00  0.00     0.060 A 
ATOM      7  C   UNL A   1      41.329  21.630  27.919  1.00  0.00     0.016 A 
ATOM      8  C   UNL A   1      41.316  22.256  25.603  1.00  0.00     0.016 A 
ATOM      9  C   UNL A   1      41.917  22.847  28.245  1.00  0.00     0.010 A 
ATOM     10  C   UNL A   1      41.920  23.478  25.922  1.00  0.00     0.010 A 
ATOM     11  C   UNL A   1      42.203  23.782  27.254  1.00  0.00    -0.014 A 
BRANCH  11  12
ATOM     12  C   UNL A   1      42.607  25.133  27.690  1.00  0.00     0.031 A 
ATOM     13  C   UNL A   1      43.992  25.590  27.349  1.00  0.00     0.074 A 
ATOM     14  C   UNL A   1      41.708  25.975  28.233  1.00  0.00     0.049 A 
ATOM     15  N   UNL A   1      44.519  26.773  27.485  1.00  0.00    -0.248 NA
ATOM     16  C   UNL A   1      44.891  24.596  26.732  1.00  0.00     0.031 C 
ATOM     17  C   UNL A   1      40.312  25.643  28.509  1.00  0.00     0.029 A 
ATOM     18  N   UNL A   1      41.822  27.279  28.636  1.00  0.00    -0.354 N 
ATOM     19  C   UNL A   1      45.804  26.669  26.973  1.00  0.00     0.074 A 
ATOM     20  C   UNL A   1      45.995  25.302  26.550  1.00  0.00     0.031 C 
ATOM     21  C   UNL A   1      39.708  26.697  29.082  1.00  0.00     0.029 A 
ATOM     22  C   UNL A   1      40.673  27.783  29.202  1.00  0.00     0.049 A 
ATOM     23  H   UNL A   1      42.646  27.806  28.530  1.00  0.00     0.167 HD
ATOM     24  C   UNL A   1      46.728  27.642  26.836  1.00  0.00     0.034 A 
ATOM     25  C   UNL A   1      40.431  28.989  29.751  1.00  0.00     0.034 A 
ATOM     26  C   UNL A   1      46.514  28.997  27.254  1.00  0.00     0.049 A 
ATOM     27  C   UNL A   1      41.516  30.030  29.673  1.00  0.00     0.074 A 
ATOM     28  C   UNL A   1      47.383  30.066  27.163  1.00  0.00     0.029 A 
ATOM     29  N   UNL A   1      45.357  29.461  27.861  1.00  0.00    -0.354 N 
ATOM     30  N   UNL A   1      42.693  29.943  29.099  1.00  0.00    -0.248 NA
ATOM     31  C   UNL A   1      41.234  31.343  30.269  1.00  0.00     0.031 C 
ATOM     32  C   UNL A   1      46.767  31.169  27.757  1.00  0.00     0.029 A 
ATOM     33  C   UNL A   1      45.497  30.798  28.177  1.00  0.00     0.049 A 
ATOM     34  H   UNL A   1      44.554  28.918  28.040  1.00  0.00     0.167 HD
ATOM     35  C   UNL A   1      43.280  31.193  29.236  1.00  0.00     0.074 A 
ATOM     36  C   UNL A   1      42.320  32.028  29.932  1.00  0.00     0.031 C 
ATOM     37  C   UNL A   1      44.504  31.612  28.832  1.00  0.00     0.034 A 
BRANCH  24  38
ATOM     38  C   UNL A   1      48.043  27.275  26.212  1.00  0.00     0.023 A 
ATOM     39  C   UNL A   1      49.042  26.656  26.991  1.00  0.00     0.012 A 
ATOM     40  C   UNL A   1      48.265  27.496  24.841  1.00  0.00     0.148 A 
ATOM     41  C   UNL A   1      50.254  26.279  26.414  1.00  0.00     0.002 A 
ATOM     42  C   UNL A   1      49.456  27.075  24.265  1.00  0.00     0.091 A 
ATOM     43  F   UNL A   1      47.310  28.112  24.131  1.00  0.00    -0.205 F 
ATOM     44  C   UNL A   1      50.455  26.477  25.050  1.00  0.00     0.022 A 
BRANCH  42  45
ATOM     45  S   UNL A   1      49.781  27.215  22.505  1.00  0.00     0.127 S 
ATOM     46  O   UNL A   1      51.173  26.774  22.427  1.00  0.00    -0.237 OA
ATOM     47  O   UNL A   1      48.811  26.275  21.943  1.00  0.00    -0.237 OA
ATOM     48  O   UNL A   1      49.556  28.611  22.161  1.00  0.00    -0.744 OA
ENDBRANCH  42  45
ENDBRANCH  24  38
BRANCH  25  49
ATOM     49  C   UNL A   1      39.103  29.282  30.365  1.00  0.00     0.023 A 
ATOM     50  C   UNL A   1      38.769  28.733  31.618  1.00  0.00     0.012 A 
ATOM     51  C   UNL A   1      38.182  30.136  29.726  1.00  0.00     0.148 A 
ATOM     52  C   UNL A   1      37.535  29.008  32.209  1.00  0.00     0.002 A 
ATOM     53  C   UNL A   1      36.976  30.446  30.343  1.00  0.00     0.091 A 
ATOM     54  F   UNL A   1      38.512  30.641  28.529  1.00  0.00    -0.205 F 
ATOM     55  C   UNL A   1      36.643  29.871  31.578  1.00  0.00     0.022 A 
BRANCH  53  56
ATOM     56  S   UNL A   1      35.815  31.639  29.666  1.00  0.00     0.127 S 
ATOM     57  O   UNL A   1      36.704  32.727  29.264  1.00  0.00    -0.237 OA
ATOM     58  O   UNL A   1      35.224  30.884  28.560  1.00  0.00    -0.237 OA
ATOM     59  O   UNL A   1      34.890  31.949  30.746  1.00  0.00    -0.744 OA
ENDBRANCH  53  56
ENDBRANCH  25  49
BRANCH  37  60
ATOM     60  C   UNL A   1      44.893  33.036  29.115  1.00  0.00     0.023 A 
ATOM     61  C   UNL A   1      45.575  33.344  30.306  1.00  0.00     0.012 A 
ATOM     62  C   UNL A   1      44.732  34.025  28.125  1.00  0.00     0.148 A 
ATOM     63  C   UNL A   1      46.088  34.623  30.512  1.00  0.00     0.002 A 
ATOM     64  C   UNL A   1      45.296  35.279  28.312  1.00  0.00     0.091 A 
ATOM     65  F   UNL A   1      44.069  33.705  27.004  1.00  0.00    -0.205 F 
ATOM     66  C   UNL A   1      45.966  35.583  29.509  1.00  0.00     0.022 A 
BRANCH  64  67
ATOM     67  S   UNL A   1      45.298  36.537  27.031  1.00  0.00     0.127 S 
ATOM     68  O   UNL A   1      46.012  35.860  25.950  1.00  0.00    -0.237 OA
ATOM     69  O   UNL A   1      43.868  36.733  26.793  1.00  0.00    -0.237 OA
ATOM     70  O   UNL A   1      45.984  37.691  27.597  1.00  0.00    -0.744 OA
ENDBRANCH  64  67
ENDBRANCH  37  60
ENDBRANCH  11  12
ENDBRANCH   4   6
ENDBRANCH   3   4
ENDBRANCH   2   3
ENDBRANCH   1   2
BRANCH   1  71
ATOM     71  O   UNL A   1      36.325  21.729  24.487  1.00  0.00    -0.458 OA
BRANCH  71  72
ATOM     72  C   UNL A   1      35.311  22.241  25.234  1.00  0.00     0.338 C 
ATOM     73  O   UNL A   1      35.071  21.989  26.402  1.00  0.00    -0.246 OA
BRANCH  72  74
ATOM     74  C   UNL A   1      34.622  23.308  24.476  1.00  0.00     0.063 A 
ATOM     75  C   UNL A   1      34.061  23.078  23.219  1.00  0.00     0.017 A 
ATOM     76  C   UNL A   1      34.572  24.587  25.046  1.00  0.00     0.056 A 
ATOM     77  C   UNL A   1      33.461  24.139  22.535  1.00  0.00     0.026 A 
ATOM     78  C   UNL A   1      34.001  25.647  24.341  1.00  0.00     0.144 A 
ATOM     79  C   UNL A   1      33.451  25.430  23.090  1.00  0.00     0.118 A 
ATOM     80  F   UNL A   1      34.027  26.858  24.910  1.00  0.00    -0.205 F 
BRANCH  79  81
ATOM     81  S   UNL A   1      32.734  26.708  22.118  1.00  0.00     0.243 S 
ATOM     82  O   UNL A   1      33.816  27.576  21.735  1.00  0.00    -0.207 OA
ATOM     83  O   UNL A   1      31.888  26.035  21.155  1.00  0.00    -0.207 OA
BRANCH  81  84
ATOM     84  N   UNL A   1      31.669  27.569  23.076  1.00  0.00    -0.205 NA
ATOM     85  H   UNL A   1      32.083  28.495  23.193  1.00  0.00     0.141 HD
BRANCH  84  86
ATOM     86  C   UNL A   1      30.263  27.799  22.710  1.00  0.00     0.160 C 
BRANCH  86  87
ATOM     87  C   UNL A   1      29.940  29.214  22.175  1.00  0.00     0.278 C 
BRANCH  87  88
ATOM     88  N   UNL A   1      28.543  29.597  21.860  1.00  0.00    -0.334 N 
ATOM     89  C   UNL A   1      28.340  30.904  21.234  1.00  0.00     0.262 C 
ATOM     90  C   UNL A   1      27.779  29.692  23.132  1.00  0.00     0.262 C 
ATOM     91  H   UNL A   1      28.246  28.878  21.199  1.00  0.00     0.348 HD
ATOM     92  C   UNL A   1      28.395  31.906  22.364  1.00  0.00     0.067 C 
ATOM     93  C   UNL A   1      27.708  31.175  23.504  1.00  0.00     0.067 C 
ENDBRANCH  87  88
ENDBRANCH  86  87
ENDBRANCH  84  86
ENDBRANCH  81  84
ENDBRANCH  79  81
ENDBRANCH  72  74
ENDBRANCH  71  72
ENDBRANCH   1  71
TORSDOF 19
ENDMDL
